MODEL        1
REMARK 921   NORMALIZED FREE ENERGY PREDICTED BY IDOCK:   -7.88 KCAL/MOL
REMARK 922        TOTAL FREE ENERGY PREDICTED BY IDOCK:  -13.09 KCAL/MOL
REMARK 923 INTER-LIGAND FREE ENERGY PREDICTED BY IDOCK:  -12.03 KCAL/MOL
REMARK 924 INTRA-LIGAND FREE ENERGY PREDICTED BY IDOCK:   -1.06 KCAL/MOL
REMARK 927      BINDING AFFINITY PREDICTED BY RF-SCORE:    0.00 PKD
ROOT
HETATM    1  C   UNL     1     -10.961  14.544  66.873  1.00  0.00    -0.316 C  
ENDROOT
BRANCH   1   2
HETATM    2  N   UNL     1     -11.511  14.055  68.148  1.00  0.00    -0.290 N  
HETATM    3  C   UNL     1     -12.209  11.314  70.377  1.00  0.00    -0.453 A  
HETATM    4  C   UNL     1     -12.912  11.332  71.570  1.00  0.00    -0.520 A  
HETATM    5  O   UNL     1     -12.230  15.956  69.285  1.00  0.00    -0.273 OA 
HETATM    6  C   UNL     1     -13.333  12.559  72.116  1.00  0.00    -0.540 A  
HETATM    7  C   UNL     1     -11.356  12.740  68.475  1.00  0.00    -0.291 C  
HETATM    8  C   UNL     1     -12.055  14.755  69.212  1.00  0.00    -0.261 C  
HETATM    9  C   UNL     1     -13.027  13.807  71.524  1.00  0.00    -0.363 A  
HETATM   10  C   UNL     1     -12.398  13.757  70.274  1.00  0.00    -0.407 A  
HETATM   11  C   UNL     1     -11.991  12.527  69.761  1.00  0.00    -0.359 A  
HETATM   12  O   UNL     1     -10.773  11.866  67.855  1.00  0.00    -0.192 OA 
BRANCH   9  13
HETATM   13  N   UNL     1     -13.422  15.020  72.125  1.00  0.00    -0.369 NA 
HETATM   14  H   UNL     1     -14.373  15.340  71.943  1.00  0.00     0.000 HD 
BRANCH  13  15
HETATM   15  C   UNL     1     -12.686  15.763  72.886  1.00  0.00    -0.468 C  
HETATM   16  C   UNL     1     -12.527  15.899  74.372  1.00  0.00    -0.767 C  
HETATM   17  O   UNL     1     -11.890  16.644  72.256  1.00  0.00    -0.620 OA 
HETATM   18  H   UNL     1     -11.350  17.190  72.815  1.00  0.00     0.000 HD 
ENDBRANCH  13  15
ENDBRANCH   9  13
ENDBRANCH   1   2
BRANCH   1  19
HETATM   19  C   UNL     1      -9.693  15.409  67.003  1.00  0.00    -0.231 A  
HETATM   20  C   UNL     1      -8.487  14.849  67.442  1.00  0.00    -0.212 A  
HETATM   21  C   UNL     1      -7.243  16.785  66.660  1.00  0.00    -0.254 A  
HETATM   22  C   UNL     1      -9.667  16.729  66.491  1.00  0.00    -0.298 A  
HETATM   23  C   UNL     1      -7.276  15.527  67.266  1.00  0.00    -0.242 A  
HETATM   24  C   UNL     1      -8.453  17.416  66.313  1.00  0.00    -0.225 A  
BRANCH  24  25
HETATM   25  O   UNL     1      -8.327  18.670  65.766  1.00  0.00    -0.462 OA 
BRANCH  25  26
HETATM   26  C   UNL     1      -8.508  19.810  66.601  1.00  0.00    -0.333 C  
HETATM   27  C   UNL     1      -9.995  20.133  66.652  1.00  0.00    -0.595 C  
ENDBRANCH  25  26
ENDBRANCH  24  25
BRANCH  21  28
HETATM   28  O   UNL     1      -6.087  17.465  66.361  1.00  0.00    -0.194 OA 
HETATM   29  C   UNL     1      -5.198  17.750  67.434  1.00  0.00    -0.131 C  
ENDBRANCH  21  28
ENDBRANCH   1  19
BRANCH   1  30
HETATM   30  C   UNL     1     -10.730  13.500  65.779  1.00  0.00    -0.275 C  
BRANCH  30  31
HETATM   31  S   UNL     1     -11.991  13.392  64.536  1.00  0.00    -0.428 S  
HETATM   32  O   UNL     1     -13.110  12.698  65.145  1.00  0.00    -0.726 OA 
HETATM   33  C   UNL     1     -11.375  12.324  63.256  1.00  0.00    -0.336 C  
HETATM   34  O   UNL     1     -12.177  14.704  63.952  1.00  0.00    -0.598 OA 
ENDBRANCH  30  31
ENDBRANCH   1  30
TORSDOF 9
ENDMDL
MODEL        2
REMARK 921   NORMALIZED FREE ENERGY PREDICTED BY IDOCK:   -7.88 KCAL/MOL
REMARK 922        TOTAL FREE ENERGY PREDICTED BY IDOCK:  -13.08 KCAL/MOL
REMARK 923 INTER-LIGAND FREE ENERGY PREDICTED BY IDOCK:  -11.71 KCAL/MOL
REMARK 924 INTRA-LIGAND FREE ENERGY PREDICTED BY IDOCK:   -1.37 KCAL/MOL
REMARK 927      BINDING AFFINITY PREDICTED BY RF-SCORE:    0.00 PKD
ROOT
HETATM    1  C   UNL     1     -10.852  13.882  66.218  1.00  0.00    -0.290 C  
ENDROOT
BRANCH   1   2
HETATM    2  N   UNL     1      -9.734  14.819  66.414  1.00  0.00    -0.275 N  
HETATM    3  C   UNL     1      -6.423  15.478  67.670  1.00  0.00    -0.194 A  
HETATM    4  C   UNL     1      -5.742  16.682  67.710  1.00  0.00    -0.152 A  
HETATM    5  O   UNL     1     -10.395  16.803  65.388  1.00  0.00    -0.597 OA 
HETATM    6  C   UNL     1      -6.291  17.819  67.088  1.00  0.00    -0.187 A  
HETATM    7  C   UNL     1      -8.567  14.355  66.946  1.00  0.00    -0.164 C  
HETATM    8  C   UNL     1      -9.582  16.129  65.991  1.00  0.00    -0.346 C  
HETATM    9  C   UNL     1      -7.507  17.785  66.365  1.00  0.00    -0.279 A  
HETATM   10  C   UNL     1      -8.220  16.581  66.418  1.00  0.00    -0.364 A  
HETATM   11  C   UNL     1      -7.648  15.473  67.039  1.00  0.00    -0.228 A  
HETATM   12  O   UNL     1      -8.281  13.216  67.274  1.00  0.00    -0.182 OA 
BRANCH   9  13
HETATM   13  N   UNL     1      -8.004  18.931  65.712  1.00  0.00    -0.449 NA 
HETATM   14  H   UNL     1      -7.796  19.026  64.718  1.00  0.00     0.000 HD 
BRANCH  13  15
HETATM   15  C   UNL     1      -8.699  19.874  66.262  1.00  0.00    -0.336 C  
HETATM   16  C   UNL     1     -10.169  20.126  66.426  1.00  0.00    -0.552 C  
HETATM   17  O   UNL     1      -7.996  20.889  66.794  1.00  0.00    -0.554 OA 
HETATM   18  H   UNL     1      -8.506  21.581  67.197  1.00  0.00     0.000 HD 
ENDBRANCH  13  15
ENDBRANCH   9  13
ENDBRANCH   1   2
BRANCH   1  19
HETATM   19  C   UNL     1     -11.549  13.424  67.513  1.00  0.00    -0.382 A  
HETATM   20  C   UNL     1     -11.620  12.066  67.846  1.00  0.00    -0.405 A  
HETATM   21  C   UNL     1     -12.246  12.605  70.132  1.00  0.00    -0.238 A  
HETATM   22  C   UNL     1     -11.949  14.371  68.487  1.00  0.00    -0.333 A  
HETATM   23  C   UNL     1     -11.957  11.663  69.142  1.00  0.00    -0.378 A  
HETATM   24  C   UNL     1     -12.291  13.971  69.792  1.00  0.00    -0.291 A  
BRANCH  24  25
HETATM   25  O   UNL     1     -12.629  14.821  70.817  1.00  0.00    -0.310 OA 
BRANCH  25  26
HETATM   26  C   UNL     1     -11.737  15.876  71.163  1.00  0.00    -0.442 C  
HETATM   27  C   UNL     1     -12.006  16.275  72.607  1.00  0.00    -0.644 C  
ENDBRANCH  25  26
ENDBRANCH  24  25
BRANCH  21  28
HETATM   28  O   UNL     1     -12.484  12.290  71.448  1.00  0.00    -0.249 OA 
HETATM   29  C   UNL     1     -13.089  11.033  71.721  1.00  0.00    -0.449 C  
ENDBRANCH  21  28
ENDBRANCH   1  19
BRANCH   1  30
HETATM   30  C   UNL     1     -11.923  14.293  65.206  1.00  0.00    -0.389 C  
BRANCH  30  31
HETATM   31  S   UNL     1     -12.274  13.110  63.931  1.00  0.00    -0.415 S  
HETATM   32  O   UNL     1     -13.238  12.180  64.487  1.00  0.00    -0.724 OA 
HETATM   33  C   UNL     1     -10.784  12.182  63.653  1.00  0.00    -0.467 C  
HETATM   34  O   UNL     1     -12.572  13.826  62.708  1.00  0.00    -0.447 OA 
ENDBRANCH  30  31
ENDBRANCH   1  30
TORSDOF 9
ENDMDL
MODEL        3
REMARK 921   NORMALIZED FREE ENERGY PREDICTED BY IDOCK:   -7.70 KCAL/MOL
REMARK 922        TOTAL FREE ENERGY PREDICTED BY IDOCK:  -12.81 KCAL/MOL
REMARK 923 INTER-LIGAND FREE ENERGY PREDICTED BY IDOCK:  -11.32 KCAL/MOL
REMARK 924 INTRA-LIGAND FREE ENERGY PREDICTED BY IDOCK:   -1.49 KCAL/MOL
REMARK 927      BINDING AFFINITY PREDICTED BY RF-SCORE:    0.00 PKD
ROOT
HETATM    1  C   UNL     1     -11.028  13.938  67.156  1.00  0.00    -0.291 C  
ENDROOT
BRANCH   1   2
HETATM    2  N   UNL     1      -9.982  14.888  67.569  1.00  0.00    -0.219 N  
HETATM    3  C   UNL     1      -6.543  15.539  68.417  1.00  0.00    -0.117 A  
HETATM    4  C   UNL     1      -5.980  16.713  68.888  1.00  0.00    -0.149 A  
HETATM    5  O   UNL     1     -11.035  16.962  67.687  1.00  0.00    -0.285 OA 
HETATM    6  C   UNL     1      -6.756  17.884  68.954  1.00  0.00    -0.244 A  
HETATM    7  C   UNL     1      -8.688  14.462  67.629  1.00  0.00    -0.189 C  
HETATM    8  C   UNL     1     -10.049  16.256  67.772  1.00  0.00    -0.252 C  
HETATM    9  C   UNL     1      -8.098  17.942  68.508  1.00  0.00    -0.301 A  
HETATM   10  C   UNL     1      -8.671  16.723  68.124  1.00  0.00    -0.219 A  
HETATM   11  C   UNL     1      -7.874  15.580  68.067  1.00  0.00    -0.132 A  
HETATM   12  O   UNL     1      -8.234  13.366  67.348  1.00  0.00    -0.171 OA 
BRANCH   9  13
HETATM   13  N   UNL     1      -8.831  19.145  68.543  1.00  0.00    -0.357 NA 
HETATM   14  H   UNL     1      -9.169  19.457  69.454  1.00  0.00     0.000 HD 
BRANCH  13  15
HETATM   15  C   UNL     1      -9.114  19.890  67.524  1.00  0.00    -0.340 C  
HETATM   16  C   UNL     1     -10.252  19.931  66.546  1.00  0.00    -0.611 C  
HETATM   17  O   UNL     1      -8.207  20.832  67.215  1.00  0.00    -0.471 OA 
HETATM   18  H   UNL     1      -8.415  21.379  66.466  1.00  0.00     0.000 HD 
ENDBRANCH  13  15
ENDBRANCH   9  13
ENDBRANCH   1   2
BRANCH   1  19
HETATM   19  C   UNL     1     -11.753  13.228  68.315  1.00  0.00    -0.388 A  
HETATM   20  C   UNL     1     -11.750  11.831  68.413  1.00  0.00    -0.389 A  
HETATM   21  C   UNL     1     -12.516  11.937  70.717  1.00  0.00    -0.291 A  
HETATM   22  C   UNL     1     -12.259  13.971  69.410  1.00  0.00    -0.336 A  
HETATM   23  C   UNL     1     -12.120  11.195  69.602  1.00  0.00    -0.406 A  
HETATM   24  C   UNL     1     -12.634  13.336  70.608  1.00  0.00    -0.231 A  
BRANCH  24  25
HETATM   25  O   UNL     1     -13.074  13.980  71.739  1.00  0.00    -0.333 OA 
BRANCH  25  26
HETATM   26  C   UNL     1     -12.574  15.280  72.034  1.00  0.00    -0.353 C  
HETATM   27  C   UNL     1     -12.887  15.593  73.491  1.00  0.00    -0.696 C  
ENDBRANCH  25  26
ENDBRANCH  24  25
BRANCH  21  28
HETATM   28  O   UNL     1     -12.794  11.390  71.947  1.00  0.00    -0.396 OA 
HETATM   29  C   UNL     1     -13.100  10.003  71.992  1.00  0.00    -0.441 C  
ENDBRANCH  21  28
ENDBRANCH   1  19
BRANCH   1  30
HETATM   30  C   UNL     1     -12.076  14.455  66.170  1.00  0.00    -0.357 C  
BRANCH  30  31
HETATM   31  S   UNL     1     -12.186  13.580  64.631  1.00  0.00    -0.399 S  
HETATM   32  O   UNL     1     -13.047  12.437  64.868  1.00  0.00    -0.765 OA 
HETATM   33  C   UNL     1     -10.570  12.925  64.284  1.00  0.00    -0.408 C  
HETATM   34  O   UNL     1     -12.503  14.528  63.582  1.00  0.00    -0.782 OA 
ENDBRANCH  30  31
ENDBRANCH   1  30
TORSDOF 9
ENDMDL
MODEL        4
REMARK 921   NORMALIZED FREE ENERGY PREDICTED BY IDOCK:   -7.51 KCAL/MOL
REMARK 922        TOTAL FREE ENERGY PREDICTED BY IDOCK:  -12.52 KCAL/MOL
REMARK 923 INTER-LIGAND FREE ENERGY PREDICTED BY IDOCK:  -10.70 KCAL/MOL
REMARK 924 INTRA-LIGAND FREE ENERGY PREDICTED BY IDOCK:   -1.82 KCAL/MOL
REMARK 927      BINDING AFFINITY PREDICTED BY RF-SCORE:    0.00 PKD
ROOT
HETATM    1  C   UNL     1     -10.833  14.293  66.961  1.00  0.00    -0.297 C  
ENDROOT
BRANCH   1   2
HETATM    2  N   UNL     1     -10.924  13.065  67.767  1.00  0.00    -0.244 N  
HETATM    3  C   UNL     1     -12.193  11.345  70.667  1.00  0.00    -0.484 A  
HETATM    4  C   UNL     1     -11.896  10.066  71.106  1.00  0.00    -0.481 A  
HETATM    5  O   UNL     1      -9.716  11.457  66.593  1.00  0.00    -0.194 OA 
HETATM    6  C   UNL     1     -11.104   9.218  70.311  1.00  0.00    -0.289 A  
HETATM    7  C   UNL     1     -11.757  13.043  68.847  1.00  0.00    -0.328 C  
HETATM    8  C   UNL     1     -10.410  11.801  67.531  1.00  0.00    -0.196 C  
HETATM    9  C   UNL     1     -10.625   9.592  69.033  1.00  0.00    -0.219 A  
HETATM   10  C   UNL     1     -10.859  10.919  68.653  1.00  0.00    -0.258 A  
HETATM   11  C   UNL     1     -11.650  11.733  69.461  1.00  0.00    -0.398 A  
HETATM   12  O   UNL     1     -12.501  13.920  69.252  1.00  0.00    -0.255 OA 
BRANCH   9  13
HETATM   13  N   UNL     1      -9.875   8.698  68.241  1.00  0.00    -0.160 NA 
HETATM   14  H   UNL     1      -8.893   8.574  68.485  1.00  0.00     0.000 HD 
BRANCH  13  15
HETATM   15  C   UNL     1     -10.323   8.021  67.233  1.00  0.00    -0.301 C  
HETATM   16  C   UNL     1     -11.042   6.711  67.093  1.00  0.00    -0.427 C  
HETATM   17  O   UNL     1     -10.094   8.553  66.020  1.00  0.00    -0.473 OA 
HETATM   18  H   UNL     1     -10.423   8.056  65.280  1.00  0.00     0.000 HD 
ENDBRANCH  13  15
ENDBRANCH   9  13
ENDBRANCH   1   2
BRANCH   1  19
HETATM   19  C   UNL     1      -9.745  15.286  67.412  1.00  0.00    -0.208 A  
HETATM   20  C   UNL     1      -8.392  15.024  67.170  1.00  0.00    -0.244 A  
HETATM   21  C   UNL     1      -7.803  17.332  67.654  1.00  0.00    -0.182 A  
HETATM   22  C   UNL     1     -10.099  16.569  67.895  1.00  0.00    -0.256 A  
HETATM   23  C   UNL     1      -7.434  16.037  67.282  1.00  0.00    -0.236 A  
HETATM   24  C   UNL     1      -9.140  17.592  68.012  1.00  0.00    -0.267 A  
BRANCH  24  25
HETATM   25  O   UNL     1      -9.403  18.881  68.410  1.00  0.00    -0.320 OA 
BRANCH  25  26
HETATM   26  C   UNL     1     -10.468  19.593  67.788  1.00  0.00    -0.439 C  
HETATM   27  C   UNL     1     -10.041  19.949  66.371  1.00  0.00    -0.615 C  
ENDBRANCH  25  26
ENDBRANCH  24  25
BRANCH  21  28
HETATM   28  O   UNL     1      -6.939  18.400  67.686  1.00  0.00    -0.204 OA 
HETATM   29  C   UNL     1      -6.433  18.869  66.443  1.00  0.00    -0.195 C  
ENDBRANCH  21  28
ENDBRANCH   1  19
BRANCH   1  30
HETATM   30  C   UNL     1     -10.732  14.115  65.445  1.00  0.00    -0.342 C  
BRANCH  30  31
HETATM   31  S   UNL     1     -12.270  14.145  64.560  1.00  0.00    -0.418 S  
HETATM   32  O   UNL     1     -13.308  13.855  65.530  1.00  0.00    -0.662 OA 
HETATM   33  C   UNL     1     -12.247  12.777  63.425  1.00  0.00    -0.504 C  
HETATM   34  O   UNL     1     -12.324  15.359  63.772  1.00  0.00    -0.604 OA 
ENDBRANCH  30  31
ENDBRANCH   1  30
TORSDOF 9
ENDMDL
MODEL        5
REMARK 921   NORMALIZED FREE ENERGY PREDICTED BY IDOCK:   -7.43 KCAL/MOL
REMARK 922        TOTAL FREE ENERGY PREDICTED BY IDOCK:  -12.40 KCAL/MOL
REMARK 923 INTER-LIGAND FREE ENERGY PREDICTED BY IDOCK:  -10.99 KCAL/MOL
REMARK 924 INTRA-LIGAND FREE ENERGY PREDICTED BY IDOCK:   -1.41 KCAL/MOL
REMARK 927      BINDING AFFINITY PREDICTED BY RF-SCORE:    0.00 PKD
ROOT
HETATM    1  C   UNL     1     -10.875  14.698  66.797  1.00  0.00    -0.312 C  
ENDROOT
BRANCH   1   2
HETATM    2  N   UNL     1     -11.400  14.125  68.048  1.00  0.00    -0.283 N  
HETATM    3  C   UNL     1     -11.970  11.251  70.143  1.00  0.00    -0.452 A  
HETATM    4  C   UNL     1     -12.670  11.182  71.336  1.00  0.00    -0.524 A  
HETATM    5  O   UNL     1     -12.201  15.935  69.275  1.00  0.00    -0.273 OA 
HETATM    6  C   UNL     1     -13.144  12.361  71.940  1.00  0.00    -0.471 A  
HETATM    7  C   UNL     1     -11.185  12.804  68.311  1.00  0.00    -0.271 C  
HETATM    8  C   UNL     1     -11.972  14.748  69.144  1.00  0.00    -0.282 C  
HETATM    9  C   UNL     1     -12.895  13.649  71.408  1.00  0.00    -0.360 A  
HETATM   10  C   UNL     1     -12.268  13.686  70.157  1.00  0.00    -0.413 A  
HETATM   11  C   UNL     1     -11.807  12.501  69.586  1.00  0.00    -0.382 A  
HETATM   12  O   UNL     1     -10.566  11.988  67.651  1.00  0.00    -0.203 OA 
BRANCH   9  13
HETATM   13  N   UNL     1     -13.343  14.812  72.066  1.00  0.00    -0.335 NA 
HETATM   14  H   UNL     1     -14.319  15.076  71.930  1.00  0.00     0.000 HD 
BRANCH  13  15
HETATM   15  C   UNL     1     -12.627  15.575  72.827  1.00  0.00    -0.416 C  
HETATM   16  C   UNL     1     -12.415  15.667  74.310  1.00  0.00    -0.804 C  
HETATM   17  O   UNL     1     -11.918  16.530  72.201  1.00  0.00    -0.626 OA 
HETATM   18  H   UNL     1     -11.392  17.091  72.759  1.00  0.00     0.000 HD 
ENDBRANCH  13  15
ENDBRANCH   9  13
ENDBRANCH   1   2
BRANCH   1  19
HETATM   19  C   UNL     1      -9.533  15.441  66.938  1.00  0.00    -0.246 A  
HETATM   20  C   UNL     1      -9.499  16.806  67.248  1.00  0.00    -0.231 A  
HETATM   21  C   UNL     1      -7.138  16.675  67.809  1.00  0.00    -0.135 A  
HETATM   22  C   UNL     1      -8.313  14.723  66.960  1.00  0.00    -0.228 A  
HETATM   23  C   UNL     1      -8.318  17.413  67.685  1.00  0.00    -0.214 A  
HETATM   24  C   UNL     1      -7.120  15.328  67.397  1.00  0.00    -0.191 A  
BRANCH  24  25
HETATM   25  O   UNL     1      -5.907  14.694  67.511  1.00  0.00    -0.337 OA 
BRANCH  25  26
HETATM   26  C   UNL     1      -5.880  13.290  67.747  1.00  0.00    -0.132 C  
HETATM   27  C   UNL     1      -5.518  13.059  69.208  1.00  0.00    -0.076 C  
ENDBRANCH  25  26
ENDBRANCH  24  25
BRANCH  21  28
HETATM   28  O   UNL     1      -5.968  17.175  68.328  1.00  0.00    -0.138 OA 
HETATM   29  C   UNL     1      -5.962  18.539  68.732  1.00  0.00    -0.210 C  
ENDBRANCH  21  28
ENDBRANCH   1  19
BRANCH   1  30
HETATM   30  C   UNL     1     -10.788  13.758  65.594  1.00  0.00    -0.287 C  
BRANCH  30  31
HETATM   31  S   UNL     1     -12.251  13.646  64.595  1.00  0.00    -0.400 S  
HETATM   32  O   UNL     1     -13.254  12.987  65.410  1.00  0.00    -0.538 OA 
HETATM   33  C   UNL     1     -11.885  12.537  63.255  1.00  0.00    -0.413 C  
HETATM   34  O   UNL     1     -12.517  14.947  64.019  1.00  0.00    -0.807 OA 
ENDBRANCH  30  31
ENDBRANCH   1  30
TORSDOF 9
ENDMDL
MODEL        6
REMARK 921   NORMALIZED FREE ENERGY PREDICTED BY IDOCK:   -7.38 KCAL/MOL
REMARK 922        TOTAL FREE ENERGY PREDICTED BY IDOCK:  -12.31 KCAL/MOL
REMARK 923 INTER-LIGAND FREE ENERGY PREDICTED BY IDOCK:  -10.52 KCAL/MOL
REMARK 924 INTRA-LIGAND FREE ENERGY PREDICTED BY IDOCK:   -1.79 KCAL/MOL
REMARK 927      BINDING AFFINITY PREDICTED BY RF-SCORE:    0.00 PKD
ROOT
HETATM    1  C   UNL     1     -10.934  12.910  66.960  1.00  0.00    -0.262 C  
ENDROOT
BRANCH   1   2
HETATM    2  N   UNL     1     -10.024  13.993  67.368  1.00  0.00    -0.241 N  
HETATM    3  C   UNL     1      -6.674  15.162  67.988  1.00  0.00    -0.153 A  
HETATM    4  C   UNL     1      -6.271  16.378  68.513  1.00  0.00    -0.128 A  
HETATM    5  O   UNL     1     -11.388  15.841  67.751  1.00  0.00    -0.322 OA 
HETATM    6  C   UNL     1      -7.219  17.391  68.743  1.00  0.00    -0.249 A  
HETATM    7  C   UNL     1      -8.678  13.793  67.285  1.00  0.00    -0.219 C  
HETATM    8  C   UNL     1     -10.296  15.312  67.694  1.00  0.00    -0.250 C  
HETATM    9  C   UNL     1      -8.588  17.249  68.414  1.00  0.00    -0.251 A  
HETATM   10  C   UNL     1      -8.986  15.981  67.973  1.00  0.00    -0.187 A  
HETATM   11  C   UNL     1      -8.022  15.000  67.752  1.00  0.00    -0.155 A  
HETATM   12  O   UNL     1      -8.078  12.814  66.875  1.00  0.00    -0.112 OA 
BRANCH   9  13
HETATM   13  N   UNL     1      -9.503  18.303  68.614  1.00  0.00    -0.332 NA 
HETATM   14  H   UNL     1      -9.857  18.438  69.560  1.00  0.00     0.000 HD 
BRANCH  13  15
HETATM   15  C   UNL     1      -9.934  19.114  67.703  1.00  0.00    -0.357 C  
HETATM   16  C   UNL     1      -9.551  20.502  67.276  1.00  0.00    -0.580 C  
HETATM   17  O   UNL     1     -10.969  18.676  66.966  1.00  0.00    -0.320 OA 
HETATM   18  H   UNL     1     -11.286  19.271  66.297  1.00  0.00     0.000 HD 
ENDBRANCH  13  15
ENDBRANCH   9  13
ENDBRANCH   1   2
BRANCH   1  19
HETATM   19  C   UNL     1     -11.431  12.014  68.110  1.00  0.00    -0.383 A  
HETATM   20  C   UNL     1     -11.064  10.665  68.177  1.00  0.00    -0.343 A  
HETATM   21  C   UNL     1     -11.797  10.524  70.490  1.00  0.00    -0.347 A  
HETATM   22  C   UNL     1     -12.097  12.579  69.225  1.00  0.00    -0.214 A  
HETATM   23  C   UNL     1     -11.238   9.931  69.355  1.00  0.00    -0.196 A  
HETATM   24  C   UNL     1     -12.277  11.846  70.413  1.00  0.00    -0.314 A  
BRANCH  24  25
HETATM   25  O   UNL     1     -12.853  12.331  71.562  1.00  0.00    -0.370 OA 
BRANCH  25  26
HETATM   26  C   UNL     1     -12.815  13.732  71.816  1.00  0.00    -0.326 C  
HETATM   27  C   UNL     1     -14.245  14.222  72.002  1.00  0.00    -0.631 C  
ENDBRANCH  25  26
ENDBRANCH  24  25
BRANCH  21  28
HETATM   28  O   UNL     1     -11.905   9.901  71.710  1.00  0.00    -0.362 OA 
HETATM   29  C   UNL     1     -11.110   8.742  71.925  1.00  0.00    -0.364 C  
ENDBRANCH  21  28
ENDBRANCH   1  19
BRANCH   1  30
HETATM   30  C   UNL     1     -12.132  13.307  66.097  1.00  0.00    -0.421 C  
BRANCH  30  31
HETATM   31  S   UNL     1     -11.802  13.516  64.367  1.00  0.00    -0.433 S  
HETATM   32  O   UNL     1     -12.526  14.702  63.950  1.00  0.00    -0.813 OA 
HETATM   33  C   UNL     1     -12.556  12.146  63.521  1.00  0.00    -0.506 C  
HETATM   34  O   UNL     1     -10.372  13.421  64.155  1.00  0.00    -0.380 OA 
ENDBRANCH  30  31
ENDBRANCH   1  30
TORSDOF 9
ENDMDL
MODEL        7
REMARK 921   NORMALIZED FREE ENERGY PREDICTED BY IDOCK:   -7.31 KCAL/MOL
REMARK 922        TOTAL FREE ENERGY PREDICTED BY IDOCK:  -12.21 KCAL/MOL
REMARK 923 INTER-LIGAND FREE ENERGY PREDICTED BY IDOCK:  -11.03 KCAL/MOL
REMARK 924 INTRA-LIGAND FREE ENERGY PREDICTED BY IDOCK:   -1.18 KCAL/MOL
REMARK 927      BINDING AFFINITY PREDICTED BY RF-SCORE:    0.00 PKD
ROOT
HETATM    1  C   UNL     1     -11.125  14.516  66.844  1.00  0.00    -0.325 C  
ENDROOT
BRANCH   1   2
HETATM    2  N   UNL     1     -11.615  13.982  68.125  1.00  0.00    -0.314 N  
HETATM    3  C   UNL     1     -12.931  14.562  71.427  1.00  0.00    -0.403 A  
HETATM    4  C   UNL     1     -13.183  13.638  72.427  1.00  0.00    -0.584 A  
HETATM    5  O   UNL     1     -11.555  11.665  67.898  1.00  0.00    -0.366 OA 
HETATM    6  C   UNL     1     -13.054  12.263  72.160  1.00  0.00    -0.406 A  
HETATM    7  C   UNL     1     -12.127  14.845  69.049  1.00  0.00    -0.212 C  
HETATM    8  C   UNL     1     -11.806  12.672  68.531  1.00  0.00    -0.300 C  
HETATM    9  C   UNL     1     -12.722  11.759  70.880  1.00  0.00    -0.235 A  
HETATM   10  C   UNL     1     -12.382  12.713  69.913  1.00  0.00    -0.126 A  
HETATM   11  C   UNL     1     -12.523  14.067  70.208  1.00  0.00    -0.403 A  
HETATM   12  O   UNL     1     -12.280  16.051  68.960  1.00  0.00    -0.205 OA 
BRANCH   9  13
HETATM   13  N   UNL     1     -12.649  10.372  70.635  1.00  0.00    -0.385 NA 
HETATM   14  H   UNL     1     -13.500   9.914  70.309  1.00  0.00     0.000 HD 
BRANCH  13  15
HETATM   15  C   UNL     1     -11.600   9.630  70.786  1.00  0.00    -0.321 C  
HETATM   16  C   UNL     1     -10.957   8.961  71.966  1.00  0.00    -0.412 C  
HETATM   17  O   UNL     1     -10.878   9.400  69.676  1.00  0.00    -0.235 OA 
HETATM   18  H   UNL     1     -10.108   8.855  69.787  1.00  0.00     0.000 HD 
ENDBRANCH  13  15
ENDBRANCH   9  13
ENDBRANCH   1   2
BRANCH   1  19
HETATM   19  C   UNL     1      -9.907  15.453  66.955  1.00  0.00    -0.236 A  
HETATM   20  C   UNL     1      -8.626  14.937  67.182  1.00  0.00    -0.248 A  
HETATM   21  C   UNL     1      -7.605  17.049  66.545  1.00  0.00    -0.291 A  
HETATM   22  C   UNL     1     -10.024  16.826  66.629  1.00  0.00    -0.300 A  
HETATM   23  C   UNL     1      -7.489  15.724  66.972  1.00  0.00    -0.242 A  
HETATM   24  C   UNL     1      -8.885  17.624  66.418  1.00  0.00    -0.236 A  
BRANCH  24  25
HETATM   25  O   UNL     1      -8.903  18.944  66.039  1.00  0.00    -0.464 OA 
BRANCH  25  26
HETATM   26  C   UNL     1     -10.016  19.753  66.405  1.00  0.00    -0.470 C  
HETATM   27  C   UNL     1     -10.046  19.866  67.923  1.00  0.00    -0.571 C  
ENDBRANCH  25  26
ENDBRANCH  24  25
BRANCH  21  28
HETATM   28  O   UNL     1      -6.537  17.850  66.219  1.00  0.00    -0.203 OA 
HETATM   29  C   UNL     1      -5.567  18.089  67.231  1.00  0.00    -0.133 C  
ENDBRANCH  21  28
ENDBRANCH   1  19
BRANCH   1  30
HETATM   30  C   UNL     1     -10.859  13.500  65.732  1.00  0.00    -0.275 C  
BRANCH  30  31
HETATM   31  S   UNL     1     -12.146  13.322  64.524  1.00  0.00    -0.419 S  
HETATM   32  O   UNL     1     -13.250  12.661  65.194  1.00  0.00    -0.646 OA 
HETATM   33  C   UNL     1     -11.555  12.186  63.292  1.00  0.00    -0.332 C  
HETATM   34  O   UNL     1     -12.347  14.600  63.873  1.00  0.00    -0.730 OA 
ENDBRANCH  30  31
ENDBRANCH   1  30
TORSDOF 9
ENDMDL
MODEL        8
REMARK 921   NORMALIZED FREE ENERGY PREDICTED BY IDOCK:   -7.24 KCAL/MOL
REMARK 922        TOTAL FREE ENERGY PREDICTED BY IDOCK:  -12.11 KCAL/MOL
REMARK 923 INTER-LIGAND FREE ENERGY PREDICTED BY IDOCK:  -10.66 KCAL/MOL
REMARK 924 INTRA-LIGAND FREE ENERGY PREDICTED BY IDOCK:   -1.45 KCAL/MOL
REMARK 927      BINDING AFFINITY PREDICTED BY RF-SCORE:    0.00 PKD
ROOT
HETATM    1  C   UNL     1     -11.810  10.713  70.560  1.00  0.00    -0.357 C  
ENDROOT
BRANCH   1   2
HETATM    2  N   UNL     1     -10.931  10.643  69.382  1.00  0.00    -0.237 N  
HETATM    3  C   UNL     1      -7.719   9.861  67.951  1.00  0.00    -0.090 A  
HETATM    4  C   UNL     1      -7.281  10.071  66.654  1.00  0.00    -0.099 A  
HETATM    5  O   UNL     1     -12.248  11.307  67.580  1.00  0.00    -0.423 OA 
HETATM    6  C   UNL     1      -8.182  10.528  65.675  1.00  0.00    -0.161 A  
HETATM    7  C   UNL     1      -9.690  10.091  69.514  1.00  0.00    -0.233 C  
HETATM    8  C   UNL     1     -11.200  10.907  68.049  1.00  0.00    -0.314 C  
HETATM    9  C   UNL     1      -9.556  10.743  65.938  1.00  0.00    -0.208 A  
HETATM   10  C   UNL     1      -9.954  10.613  67.275  1.00  0.00    -0.224 A  
HETATM   11  C   UNL     1      -9.038  10.155  68.220  1.00  0.00    -0.122 A  
HETATM   12  O   UNL     1      -9.181   9.592  70.503  1.00  0.00    -0.249 OA 
BRANCH   9  13
HETATM   13  N   UNL     1     -10.441  11.154  64.921  1.00  0.00    -0.308 NA 
HETATM   14  H   UNL     1     -10.905  10.421  64.385  1.00  0.00     0.000 HD 
BRANCH  13  15
HETATM   15  C   UNL     1     -10.718  12.379  64.608  1.00  0.00    -0.305 C  
HETATM   16  C   UNL     1     -11.808  13.334  64.996  1.00  0.00    -0.384 C  
HETATM   17  O   UNL     1      -9.891  12.959  63.721  1.00  0.00    -0.700 OA 
HETATM   18  H   UNL     1     -10.094  13.858  63.491  1.00  0.00     0.000 HD 
ENDBRANCH  13  15
ENDBRANCH   9  13
ENDBRANCH   1   2
BRANCH   1  19
HETATM   19  C   UNL     1     -12.344  12.120  70.887  1.00  0.00    -0.370 A  
HETATM   20  C   UNL     1     -13.215  12.323  71.965  1.00  0.00    -0.508 A  
HETATM   21  C   UNL     1     -12.838  14.723  71.888  1.00  0.00    -0.324 A  
HETATM   22  C   UNL     1     -11.811  13.260  70.239  1.00  0.00    -0.307 A  
HETATM   23  C   UNL     1     -13.453  13.608  72.463  1.00  0.00    -0.675 A  
HETATM   24  C   UNL     1     -12.047  14.556  70.734  1.00  0.00    -0.329 A  
BRANCH  24  25
HETATM   25  O   UNL     1     -11.521  15.711  70.209  1.00  0.00    -0.287 OA 
BRANCH  25  26
HETATM   26  C   UNL     1     -11.481  15.873  68.795  1.00  0.00    -0.393 C  
HETATM   27  C   UNL     1     -10.627  17.093  68.478  1.00  0.00    -0.361 C  
ENDBRANCH  25  26
ENDBRANCH  24  25
BRANCH  21  28
HETATM   28  O   UNL     1     -12.941  16.000  72.383  1.00  0.00    -0.451 OA 
HETATM   29  C   UNL     1     -12.588  16.203  73.746  1.00  0.00    -0.588 C  
ENDBRANCH  21  28
ENDBRANCH   1  19
BRANCH   1  30
HETATM   30  C   UNL     1     -12.977   9.725  70.607  1.00  0.00    -0.054 C  
BRANCH  30  31
HETATM   31  S   UNL     1     -13.005   8.630  72.002  1.00  0.00    -0.398 S  
HETATM   32  O   UNL     1     -11.694   8.713  72.617  1.00  0.00    -0.325 OA 
HETATM   33  C   UNL     1     -13.158   6.976  71.368  1.00  0.00    -0.314 C  
HETATM   34  O   UNL     1     -14.195   8.906  72.781  1.00  0.00    -0.557 OA 
ENDBRANCH  30  31
ENDBRANCH   1  30
TORSDOF 9
ENDMDL
MODEL        9
REMARK 921   NORMALIZED FREE ENERGY PREDICTED BY IDOCK:   -7.11 KCAL/MOL
REMARK 922        TOTAL FREE ENERGY PREDICTED BY IDOCK:  -11.91 KCAL/MOL
REMARK 923 INTER-LIGAND FREE ENERGY PREDICTED BY IDOCK:  -10.12 KCAL/MOL
REMARK 924 INTRA-LIGAND FREE ENERGY PREDICTED BY IDOCK:   -1.79 KCAL/MOL
REMARK 927      BINDING AFFINITY PREDICTED BY RF-SCORE:    0.00 PKD
ROOT
HETATM    1  C   UNL     1     -10.580  12.740  66.488  1.00  0.00    -0.254 C  
ENDROOT
BRANCH   1   2
HETATM    2  N   UNL     1     -11.171  12.621  67.832  1.00  0.00    -0.248 N  
HETATM    3  C   UNL     1     -12.374  14.194  70.840  1.00  0.00    -0.438 A  
HETATM    4  C   UNL     1     -12.803  13.595  72.012  1.00  0.00    -0.367 A  
HETATM    5  O   UNL     1     -11.551  10.346  68.147  1.00  0.00    -0.355 OA 
HETATM    6  C   UNL     1     -12.935  12.195  72.075  1.00  0.00    -0.377 A  
HETATM    7  C   UNL     1     -11.516  13.756  68.504  1.00  0.00    -0.307 C  
HETATM    8  C   UNL     1     -11.610  11.502  68.518  1.00  0.00    -0.313 C  
HETATM    9  C   UNL     1     -12.696  11.351  70.964  1.00  0.00    -0.349 A  
HETATM   10  C   UNL     1     -12.176  11.972  69.822  1.00  0.00    -0.226 A  
HETATM   11  C   UNL     1     -12.059  13.360  69.790  1.00  0.00    -0.374 A  
HETATM   12  O   UNL     1     -11.436  14.915  68.133  1.00  0.00    -0.304 OA 
BRANCH   9  13
HETATM   13  N   UNL     1     -12.887   9.957  71.049  1.00  0.00    -0.438 NA 
HETATM   14  H   UNL     1     -13.389   9.510  70.282  1.00  0.00     0.000 HD 
BRANCH  13  15
HETATM   15  C   UNL     1     -12.482   9.194  72.012  1.00  0.00    -0.382 C  
HETATM   16  C   UNL     1     -11.196   8.477  72.304  1.00  0.00    -0.432 C  
HETATM   17  O   UNL     1     -13.382   8.936  72.976  1.00  0.00    -0.865 OA 
HETATM   18  H   UNL     1     -13.085   8.376  73.683  1.00  0.00     0.000 HD 
ENDBRANCH  13  15
ENDBRANCH   9  13
ENDBRANCH   1   2
BRANCH   1  19
HETATM   19  C   UNL     1      -9.277  11.946  66.281  1.00  0.00    -0.218 A  
HETATM   20  C   UNL     1      -8.205  12.083  67.171  1.00  0.00    -0.181 A  
HETATM   21  C   UNL     1      -7.150  10.076  66.295  1.00  0.00    -0.105 A  
HETATM   22  C   UNL     1      -9.209  10.916  65.311  1.00  0.00    -0.236 A  
HETATM   23  C   UNL     1      -7.159  11.155  67.182  1.00  0.00    -0.113 A  
HETATM   24  C   UNL     1      -8.159   9.980  65.316  1.00  0.00    -0.145 A  
BRANCH  24  25
HETATM   25  O   UNL     1      -8.045   8.914  64.457  1.00  0.00    -0.133 OA 
BRANCH  25  26
HETATM   26  C   UNL     1      -8.305   9.112  63.071  1.00  0.00    -0.196 C  
HETATM   27  C   UNL     1      -7.120   9.850  62.464  1.00  0.00    -0.120 C  
ENDBRANCH  25  26
ENDBRANCH  24  25
BRANCH  21  28
HETATM   28  O   UNL     1      -6.214   9.070  66.315  1.00  0.00    -0.062 OA 
HETATM   29  C   UNL     1      -5.341   9.012  67.435  1.00  0.00    -0.037 C  
ENDBRANCH  21  28
ENDBRANCH   1  19
BRANCH   1  30
HETATM   30  C   UNL     1     -11.509  12.471  65.303  1.00  0.00    -0.333 C  
BRANCH  30  31
HETATM   31  S   UNL     1     -12.385  13.880  64.674  1.00  0.00    -0.358 S  
HETATM   32  O   UNL     1     -12.628  13.618  63.268  1.00  0.00    -0.816 OA 
HETATM   33  C   UNL     1     -11.269  15.263  64.740  1.00  0.00    -0.396 C  
HETATM   34  O   UNL     1     -13.489  14.173  65.564  1.00  0.00    -0.643 OA 
ENDBRANCH  30  31
ENDBRANCH   1  30
TORSDOF 9
ENDMDL
MODEL       10
REMARK 921   NORMALIZED FREE ENERGY PREDICTED BY IDOCK:   -7.09 KCAL/MOL
REMARK 922        TOTAL FREE ENERGY PREDICTED BY IDOCK:  -11.88 KCAL/MOL
REMARK 923 INTER-LIGAND FREE ENERGY PREDICTED BY IDOCK:  -10.01 KCAL/MOL
REMARK 924 INTRA-LIGAND FREE ENERGY PREDICTED BY IDOCK:   -1.86 KCAL/MOL
REMARK 927      BINDING AFFINITY PREDICTED BY RF-SCORE:    0.00 PKD
ROOT
HETATM    1  C   UNL     1     -10.697  12.579  67.682  1.00  0.00    -0.218 C  
ENDROOT
BRANCH   1   2
HETATM    2  N   UNL     1      -9.768  13.715  67.800  1.00  0.00    -0.218 N  
HETATM    3  C   UNL     1      -6.416  15.014  67.584  1.00  0.00    -0.175 A  
HETATM    4  C   UNL     1      -5.960  16.279  67.916  1.00  0.00    -0.142 A  
HETATM    5  O   UNL     1     -11.094  15.553  68.333  1.00  0.00    -0.283 OA 
HETATM    6  C   UNL     1      -6.879  17.283  68.272  1.00  0.00    -0.184 A  
HETATM    7  C   UNL     1      -8.464  13.542  67.440  1.00  0.00    -0.200 C  
HETATM    8  C   UNL     1     -10.018  15.048  68.078  1.00  0.00    -0.219 C  
HETATM    9  C   UNL     1      -8.280  17.080  68.262  1.00  0.00    -0.227 A  
HETATM   10  C   UNL     1      -8.709  15.771  68.014  1.00  0.00    -0.171 A  
HETATM   11  C   UNL     1      -7.774  14.799  67.660  1.00  0.00    -0.199 A  
HETATM   12  O   UNL     1      -7.926  12.548  66.982  1.00  0.00    -0.160 OA 
BRANCH   9  13
HETATM   13  N   UNL     1      -9.174  18.124  68.577  1.00  0.00    -0.313 NA 
HETATM   14  H   UNL     1      -9.405  18.255  69.561  1.00  0.00     0.000 HD 
BRANCH  13  15
HETATM   15  C   UNL     1      -9.726  18.930  67.729  1.00  0.00    -0.323 C  
HETATM   16  C   UNL     1      -9.561  20.388  67.416  1.00  0.00    -0.584 C  
HETATM   17  O   UNL     1     -10.685  18.398  66.951  1.00  0.00    -0.370 OA 
HETATM   18  H   UNL     1     -11.090  18.990  66.329  1.00  0.00     0.000 HD 
ENDBRANCH  13  15
ENDBRANCH   9  13
ENDBRANCH   1   2
BRANCH   1  19
HETATM   19  C   UNL     1     -10.967  11.823  68.997  1.00  0.00    -0.276 A  
HETATM   20  C   UNL     1     -11.953  12.266  69.887  1.00  0.00    -0.377 A  
HETATM   21  C   UNL     1     -11.909  10.145  71.073  1.00  0.00    -0.383 A  
HETATM   22  C   UNL     1     -10.373  10.561  69.235  1.00  0.00    -0.248 A  
HETATM   23  C   UNL     1     -12.423  11.433  70.908  1.00  0.00    -0.478 A  
HETATM   24  C   UNL     1     -10.839   9.719  70.261  1.00  0.00    -0.301 A  
BRANCH  24  25
HETATM   25  O   UNL     1     -10.367   8.456  70.525  1.00  0.00    -0.194 OA 
BRANCH  25  26
HETATM   26  C   UNL     1     -10.460   7.458  69.513  1.00  0.00    -0.232 C  
HETATM   27  C   UNL     1     -11.481   6.420  69.958  1.00  0.00    -0.496 C  
ENDBRANCH  25  26
ENDBRANCH  24  25
BRANCH  21  28
HETATM   28  O   UNL     1     -12.390   9.235  71.984  1.00  0.00    -0.365 OA 
HETATM   29  C   UNL     1     -13.792   9.224  72.219  1.00  0.00    -0.426 C  
ENDBRANCH  21  28
ENDBRANCH   1  19
BRANCH   1  30
HETATM   30  C   UNL     1     -12.035  12.854  66.994  1.00  0.00    -0.325 C  
BRANCH  30  31
HETATM   31  S   UNL     1     -11.993  12.919  65.221  1.00  0.00    -0.445 S  
HETATM   32  O   UNL     1     -10.808  12.189  64.812  1.00  0.00    -0.285 OA 
HETATM   33  C   UNL     1     -11.720  14.615  64.765  1.00  0.00    -0.428 C  
HETATM   34  O   UNL     1     -13.296  12.539  64.715  1.00  0.00    -0.773 OA 
ENDBRANCH  30  31
ENDBRANCH   1  30
TORSDOF 9
ENDMDL
MODEL       11
REMARK 921   NORMALIZED FREE ENERGY PREDICTED BY IDOCK:   -7.06 KCAL/MOL
REMARK 922        TOTAL FREE ENERGY PREDICTED BY IDOCK:  -11.83 KCAL/MOL
REMARK 923 INTER-LIGAND FREE ENERGY PREDICTED BY IDOCK:  -11.00 KCAL/MOL
REMARK 924 INTRA-LIGAND FREE ENERGY PREDICTED BY IDOCK:   -0.83 KCAL/MOL
REMARK 927      BINDING AFFINITY PREDICTED BY RF-SCORE:    0.00 PKD
ROOT
HETATM    1  C   UNL     1     -10.400  14.954  67.715  1.00  0.00    -0.244 C  
ENDROOT
BRANCH   1   2
HETATM    2  N   UNL     1     -11.053  14.767  69.021  1.00  0.00    -0.244 N  
HETATM    3  C   UNL     1     -11.877  16.043  72.287  1.00  0.00    -0.628 A  
HETATM    4  C   UNL     1     -12.506  15.388  73.332  1.00  0.00    -0.633 A  
HETATM    5  O   UNL     1     -12.080  12.680  68.912  1.00  0.00    -0.262 OA 
HETATM    6  C   UNL     1     -13.036  14.100  73.135  1.00  0.00    -0.312 A  
HETATM    7  C   UNL     1     -11.087  15.811  69.899  1.00  0.00    -0.331 C  
HETATM    8  C   UNL     1     -11.821  13.716  69.493  1.00  0.00    -0.337 C  
HETATM    9  C   UNL     1     -13.003  13.440  71.883  1.00  0.00    -0.326 A  
HETATM   10  C   UNL     1     -12.281  14.082  70.870  1.00  0.00    -0.436 A  
HETATM   11  C   UNL     1     -11.772  15.360  71.095  1.00  0.00    -0.418 A  
HETATM   12  O   UNL     1     -10.665  16.945  69.749  1.00  0.00    -0.291 OA 
BRANCH   9  13
HETATM   13  N   UNL     1     -13.587  12.169  71.709  1.00  0.00    -0.098 NA 
HETATM   14  H   UNL     1     -14.602  12.133  71.622  1.00  0.00     0.000 HD 
BRANCH  13  15
HETATM   15  C   UNL     1     -12.950  11.045  71.650  1.00  0.00    -0.456 C  
HETATM   16  C   UNL     1     -13.244   9.653  72.129  1.00  0.00    -0.535 C  
HETATM   17  O   UNL     1     -11.741  11.084  71.064  1.00  0.00    -0.303 OA 
HETATM   18  H   UNL     1     -11.273  10.259  71.020  1.00  0.00     0.000 HD 
ENDBRANCH  13  15
ENDBRANCH   9  13
ENDBRANCH   1   2
BRANCH   1  19
HETATM   19  C   UNL     1      -9.753  13.686  67.127  1.00  0.00    -0.245 A  
HETATM   20  C   UNL     1      -8.693  13.052  67.785  1.00  0.00    -0.188 A  
HETATM   21  C   UNL     1      -8.969  11.058  66.424  1.00  0.00    -0.181 A  
HETATM   22  C   UNL     1     -10.343  13.023  66.024  1.00  0.00    -0.293 A  
HETATM   23  C   UNL     1      -8.311  11.751  67.443  1.00  0.00    -0.159 A  
HETATM   24  C   UNL     1      -9.963  11.715  65.673  1.00  0.00    -0.240 A  
BRANCH  24  25
HETATM   25  O   UNL     1     -10.523  10.972  64.662  1.00  0.00    -0.324 OA 
BRANCH  25  26
HETATM   26  C   UNL     1     -10.892  11.622  63.449  1.00  0.00    -0.379 C  
HETATM   27  C   UNL     1     -12.371  11.977  63.528  1.00  0.00    -0.661 C  
ENDBRANCH  25  26
ENDBRANCH  24  25
BRANCH  21  28
HETATM   28  O   UNL     1      -8.721   9.745  66.101  1.00  0.00    -0.132 OA 
HETATM   29  C   UNL     1      -9.180   8.751  67.007  1.00  0.00    -0.142 C  
ENDBRANCH  21  28
ENDBRANCH   1  19
BRANCH   1  30
HETATM   30  C   UNL     1     -11.230  15.630  66.622  1.00  0.00    -0.067 C  
BRANCH  30  31
HETATM   31  S   UNL     1     -10.377  16.838  65.641  1.00  0.00    -0.186 S  
HETATM   32  O   UNL     1      -8.979  16.451  65.637  1.00  0.00    -0.427 OA 
HETATM   33  C   UNL     1     -10.467  18.382  66.518  1.00  0.00    -0.381 C  
HETATM   34  O   UNL     1     -11.092  17.007  64.393  1.00  0.00    -1.144 OA 
ENDBRANCH  30  31
ENDBRANCH   1  30
TORSDOF 9
ENDMDL
MODEL       12
REMARK 921   NORMALIZED FREE ENERGY PREDICTED BY IDOCK:   -7.01 KCAL/MOL
REMARK 922        TOTAL FREE ENERGY PREDICTED BY IDOCK:  -11.76 KCAL/MOL
REMARK 923 INTER-LIGAND FREE ENERGY PREDICTED BY IDOCK:  -10.15 KCAL/MOL
REMARK 924 INTRA-LIGAND FREE ENERGY PREDICTED BY IDOCK:   -1.61 KCAL/MOL
REMARK 927      BINDING AFFINITY PREDICTED BY RF-SCORE:    0.00 PKD
ROOT
HETATM    1  C   UNL     1     -10.720  14.874  69.047  1.00  0.00    -0.247 C  
ENDROOT
BRANCH   1   2
HETATM    2  N   UNL     1     -10.652  13.927  67.922  1.00  0.00    -0.242 N  
HETATM    3  C   UNL     1     -11.032  13.256  64.404  1.00  0.00    -0.413 A  
HETATM    4  C   UNL     1     -10.935  12.043  63.744  1.00  0.00    -0.492 A  
HETATM    5  O   UNL     1      -9.898  11.923  68.840  1.00  0.00    -0.116 OA 
HETATM    6  C   UNL     1     -10.514  10.897  64.443  1.00  0.00    -0.403 A  
HETATM    7  C   UNL     1     -10.849  14.389  66.654  1.00  0.00    -0.304 C  
HETATM    8  C   UNL     1     -10.248  12.602  67.894  1.00  0.00    -0.220 C  
HETATM    9  C   UNL     1     -10.128  10.927  65.804  1.00  0.00    -0.252 A  
HETATM   10  C   UNL     1     -10.324  12.143  66.471  1.00  0.00    -0.239 A  
HETATM   11  C   UNL     1     -10.738  13.261  65.750  1.00  0.00    -0.286 A  
HETATM   12  O   UNL     1     -11.054  15.533  66.285  1.00  0.00    -0.286 OA 
BRANCH   9  13
HETATM   13  N   UNL     1      -9.665   9.769  66.461  1.00  0.00    -0.195 NA 
HETATM   14  H   UNL     1      -8.657   9.615  66.475  1.00  0.00     0.000 HD 
BRANCH  13  15
HETATM   15  C   UNL     1     -10.404   8.884  67.047  1.00  0.00    -0.269 C  
HETATM   16  C   UNL     1     -10.568   7.399  66.901  1.00  0.00    -0.375 C  
HETATM   17  O   UNL     1     -11.248   9.350  67.984  1.00  0.00    -0.515 OA 
HETATM   18  H   UNL     1     -11.791   8.700  68.414  1.00  0.00     0.000 HD 
ENDBRANCH  13  15
ENDBRANCH   9  13
ENDBRANCH   1   2
BRANCH   1  19
HETATM   19  C   UNL     1      -9.685  16.014  68.997  1.00  0.00    -0.244 A  
HETATM   20  C   UNL     1      -8.315  15.735  68.921  1.00  0.00    -0.213 A  
HETATM   21  C   UNL     1      -7.828  18.029  68.283  1.00  0.00    -0.288 A  
HETATM   22  C   UNL     1     -10.101  17.356  68.822  1.00  0.00    -0.346 A  
HETATM   23  C   UNL     1      -7.399  16.729  68.561  1.00  0.00    -0.205 A  
HETATM   24  C   UNL     1      -9.185  18.361  68.462  1.00  0.00    -0.328 A  
BRANCH  24  25
HETATM   25  O   UNL     1      -9.508  19.673  68.210  1.00  0.00    -0.344 OA 
BRANCH  25  26
HETATM   26  C   UNL     1     -10.649  19.962  67.409  1.00  0.00    -0.369 C  
HETATM   27  C   UNL     1     -10.317  19.617  65.963  1.00  0.00    -0.620 C  
ENDBRANCH  25  26
ENDBRANCH  24  25
BRANCH  21  28
HETATM   28  O   UNL     1      -7.005  19.030  67.825  1.00  0.00    -0.213 OA 
HETATM   29  C   UNL     1      -6.568  18.949  66.474  1.00  0.00    -0.194 C  
ENDBRANCH  21  28
ENDBRANCH   1  19
BRANCH   1  30
HETATM   30  C   UNL     1     -12.092  15.474  69.358  1.00  0.00    -0.277 C  
BRANCH  30  31
HETATM   31  S   UNL     1     -12.734  15.134  70.976  1.00  0.00    -0.429 S  
HETATM   32  O   UNL     1     -11.821  15.753  71.919  1.00  0.00    -0.389 OA 
HETATM   33  C   UNL     1     -12.606  13.380  71.233  1.00  0.00    -0.322 C  
HETATM   34  O   UNL     1     -14.142  15.472  70.994  1.00  0.00    -0.513 OA 
ENDBRANCH  30  31
ENDBRANCH   1  30
TORSDOF 9
ENDMDL
MODEL       13
REMARK 921   NORMALIZED FREE ENERGY PREDICTED BY IDOCK:   -7.01 KCAL/MOL
REMARK 922        TOTAL FREE ENERGY PREDICTED BY IDOCK:  -11.75 KCAL/MOL
REMARK 923 INTER-LIGAND FREE ENERGY PREDICTED BY IDOCK:   -9.85 KCAL/MOL
REMARK 924 INTRA-LIGAND FREE ENERGY PREDICTED BY IDOCK:   -1.90 KCAL/MOL
REMARK 927      BINDING AFFINITY PREDICTED BY RF-SCORE:    0.00 PKD
ROOT
HETATM    1  C   UNL     1     -10.618  14.215  69.140  1.00  0.00    -0.158 C  
ENDROOT
BRANCH   1   2
HETATM    2  N   UNL     1     -10.353  13.348  67.980  1.00  0.00    -0.235 N  
HETATM    3  C   UNL     1      -9.007  10.288  66.640  1.00  0.00    -0.156 A  
HETATM    4  C   UNL     1      -8.891   9.908  65.313  1.00  0.00    -0.210 A  
HETATM    5  O   UNL     1     -11.280  14.452  66.152  1.00  0.00    -0.324 OA 
HETATM    6  C   UNL     1      -9.459  10.706  64.303  1.00  0.00    -0.321 A  
HETATM    7  C   UNL     1      -9.827  12.107  68.190  1.00  0.00    -0.207 C  
HETATM    8  C   UNL     1     -10.701  13.506  66.650  1.00  0.00    -0.282 C  
HETATM    9  C   UNL     1     -10.203  11.877  64.579  1.00  0.00    -0.282 A  
HETATM   10  C   UNL     1     -10.228  12.289  65.917  1.00  0.00    -0.274 A  
HETATM   11  C   UNL     1      -9.659  11.475  66.895  1.00  0.00    -0.203 A  
HETATM   12  O   UNL     1      -9.557  11.563  69.247  1.00  0.00     0.090 OA 
BRANCH   9  13
HETATM   13  N   UNL     1     -10.801  12.627  63.545  1.00  0.00    -0.511 NA 
HETATM   14  H   UNL     1     -10.176  13.059  62.865  1.00  0.00     0.000 HD 
BRANCH  13  15
HETATM   15  C   UNL     1     -12.070  12.814  63.382  1.00  0.00    -0.534 C  
HETATM   16  C   UNL     1     -13.247  11.898  63.211  1.00  0.00     0.227 C  
HETATM   17  O   UNL     1     -12.472  14.095  63.318  1.00  0.00    -1.146 OA 
HETATM   18  H   UNL     1     -13.404  14.233  63.198  1.00  0.00     0.000 HD 
ENDBRANCH  13  15
ENDBRANCH   9  13
ENDBRANCH   1   2
BRANCH   1  19
HETATM   19  C   UNL     1      -9.780  15.507  69.189  1.00  0.00    -0.252 A  
HETATM   20  C   UNL     1      -8.384  15.452  69.264  1.00  0.00    -0.254 A  
HETATM   21  C   UNL     1      -8.205  17.799  68.654  1.00  0.00    -0.271 A  
HETATM   22  C   UNL     1     -10.386  16.766  68.954  1.00  0.00    -0.317 A  
HETATM   23  C   UNL     1      -7.606  16.583  68.992  1.00  0.00    -0.233 A  
HETATM   24  C   UNL     1      -9.609  17.907  68.682  1.00  0.00    -0.328 A  
BRANCH  24  25
HETATM   25  O   UNL     1     -10.110  19.151  68.382  1.00  0.00    -0.380 OA 
BRANCH  25  26
HETATM   26  C   UNL     1     -10.928  19.307  67.227  1.00  0.00    -0.338 C  
HETATM   27  C   UNL     1     -10.064  19.860  66.101  1.00  0.00    -0.611 C  
ENDBRANCH  25  26
ENDBRANCH  24  25
BRANCH  21  28
HETATM   28  O   UNL     1      -7.509  18.921  68.275  1.00  0.00    -0.267 OA 
HETATM   29  C   UNL     1      -6.624  19.495  69.229  1.00  0.00    -0.339 C  
ENDBRANCH  21  28
ENDBRANCH   1  19
BRANCH   1  30
HETATM   30  C   UNL     1     -12.080  14.571  69.412  1.00  0.00    -0.290 C  
BRANCH  30  31
HETATM   31  S   UNL     1     -12.669  14.221  71.048  1.00  0.00    -0.377 S  
HETATM   32  O   UNL     1     -14.013  14.763  71.126  1.00  0.00    -0.389 OA 
HETATM   33  C   UNL     1     -11.678  15.174  72.176  1.00  0.00    -0.414 C  
HETATM   34  O   UNL     1     -12.428  12.823  71.336  1.00  0.00    -0.271 OA 
ENDBRANCH  30  31
ENDBRANCH   1  30
TORSDOF 9
ENDMDL
MODEL       14
REMARK 921   NORMALIZED FREE ENERGY PREDICTED BY IDOCK:   -6.97 KCAL/MOL
REMARK 922        TOTAL FREE ENERGY PREDICTED BY IDOCK:  -11.70 KCAL/MOL
REMARK 923 INTER-LIGAND FREE ENERGY PREDICTED BY IDOCK:   -9.97 KCAL/MOL
REMARK 924 INTRA-LIGAND FREE ENERGY PREDICTED BY IDOCK:   -1.73 KCAL/MOL
REMARK 927      BINDING AFFINITY PREDICTED BY RF-SCORE:    0.00 PKD
ROOT
HETATM    1  C   UNL     1     -10.635  12.618  66.582  1.00  0.00    -0.248 C  
ENDROOT
BRANCH   1   2
HETATM    2  N   UNL     1     -11.290  12.523  67.897  1.00  0.00    -0.270 N  
HETATM    3  C   UNL     1     -12.638  14.146  70.816  1.00  0.00    -0.432 A  
HETATM    4  C   UNL     1     -13.123  13.566  71.975  1.00  0.00    -0.481 A  
HETATM    5  O   UNL     1     -11.685  10.252  68.232  1.00  0.00    -0.265 OA 
HETATM    6  C   UNL     1     -13.259  12.168  72.056  1.00  0.00    -0.496 A  
HETATM    7  C   UNL     1     -11.668  13.669  68.532  1.00  0.00    -0.357 C  
HETATM    8  C   UNL     1     -11.762  11.415  68.580  1.00  0.00    -0.329 C  
HETATM    9  C   UNL     1     -12.967  11.305  70.973  1.00  0.00    -0.211 A  
HETATM   10  C   UNL     1     -12.391  11.906  69.847  1.00  0.00    -0.168 A  
HETATM   11  C   UNL     1     -12.272  13.294  69.796  1.00  0.00    -0.285 A  
HETATM   12  O   UNL     1     -11.569  14.821  68.146  1.00  0.00    -0.307 OA 
BRANCH   9  13
HETATM   13  N   UNL     1     -13.161   9.913  71.072  1.00  0.00    -0.525 NA 
HETATM   14  H   UNL     1     -13.722   9.469  70.344  1.00  0.00     0.000 HD 
BRANCH  13  15
HETATM   15  C   UNL     1     -12.692   9.147  72.003  1.00  0.00    -0.398 C  
HETATM   16  C   UNL     1     -11.372   8.471  72.232  1.00  0.00    -0.441 C  
HETATM   17  O   UNL     1     -13.546   8.836  72.994  1.00  0.00    -0.882 OA 
HETATM   18  H   UNL     1     -13.202   8.274  73.678  1.00  0.00     0.000 HD 
ENDBRANCH  13  15
ENDBRANCH   9  13
ENDBRANCH   1   2
BRANCH   1  19
HETATM   19  C   UNL     1      -9.334  11.805  66.444  1.00  0.00    -0.229 A  
HETATM   20  C   UNL     1      -9.208  10.817  65.461  1.00  0.00    -0.230 A  
HETATM   21  C   UNL     1      -6.798  10.747  65.763  1.00  0.00    -0.054 A  
HETATM   22  C   UNL     1      -8.175  12.174  67.169  1.00  0.00    -0.182 A  
HETATM   23  C   UNL     1      -7.954  10.300  65.119  1.00  0.00    -0.147 A  
HETATM   24  C   UNL     1      -6.911  11.657  66.832  1.00  0.00    -0.129 A  
BRANCH  24  25
HETATM   25  O   UNL     1      -5.727  12.006  67.436  1.00  0.00    -0.092 OA 
BRANCH  25  26
HETATM   26  C   UNL     1      -5.737  12.382  68.810  1.00  0.00    -0.058 C  
HETATM   27  C   UNL     1      -5.323  11.174  69.639  1.00  0.00    -0.043 C  
ENDBRANCH  25  26
ENDBRANCH  24  25
BRANCH  21  28
HETATM   28  O   UNL     1      -5.525  10.365  65.414  1.00  0.00    -0.082 OA 
HETATM   29  C   UNL     1      -5.352   9.752  64.142  1.00  0.00    -0.073 C  
ENDBRANCH  21  28
ENDBRANCH   1  19
BRANCH   1  30
HETATM   30  C   UNL     1     -11.510  12.350  65.357  1.00  0.00    -0.358 C  
BRANCH  30  31
HETATM   31  S   UNL     1     -12.336  13.763  64.672  1.00  0.00    -0.344 S  
HETATM   32  O   UNL     1     -12.471  13.511  63.250  1.00  0.00    -0.763 OA 
HETATM   33  C   UNL     1     -11.230  15.145  64.834  1.00  0.00    -0.417 C  
HETATM   34  O   UNL     1     -13.505  14.049  65.478  1.00  0.00    -0.677 OA 
ENDBRANCH  30  31
ENDBRANCH   1  30
TORSDOF 9
ENDMDL
MODEL       15
REMARK 921   NORMALIZED FREE ENERGY PREDICTED BY IDOCK:   -6.97 KCAL/MOL
REMARK 922        TOTAL FREE ENERGY PREDICTED BY IDOCK:  -11.69 KCAL/MOL
REMARK 923 INTER-LIGAND FREE ENERGY PREDICTED BY IDOCK:  -10.04 KCAL/MOL
REMARK 924 INTRA-LIGAND FREE ENERGY PREDICTED BY IDOCK:   -1.65 KCAL/MOL
REMARK 927      BINDING AFFINITY PREDICTED BY RF-SCORE:    0.00 PKD
ROOT
HETATM    1  C   UNL     1     -11.176  13.496  66.764  1.00  0.00    -0.310 C  
ENDROOT
BRANCH   1   2
HETATM    2  N   UNL     1     -10.654  12.208  67.250  1.00  0.00    -0.223 N  
HETATM    3  C   UNL     1      -7.924   9.876  67.532  1.00  0.00    -0.106 A  
HETATM    4  C   UNL     1      -7.936   8.599  68.065  1.00  0.00    -0.107 A  
HETATM    5  O   UNL     1     -12.404  11.235  68.438  1.00  0.00    -0.545 OA 
HETATM    6  C   UNL     1      -9.089   8.120  68.713  1.00  0.00    -0.144 A  
HETATM    7  C   UNL     1      -9.329  11.928  67.086  1.00  0.00    -0.180 C  
HETATM    8  C   UNL     1     -11.260  11.235  68.026  1.00  0.00    -0.287 C  
HETATM    9  C   UNL     1     -10.249   8.911  68.898  1.00  0.00    -0.206 A  
HETATM   10  C   UNL     1     -10.245  10.162  68.270  1.00  0.00    -0.192 A  
HETATM   11  C   UNL     1      -9.086  10.609  67.639  1.00  0.00    -0.145 A  
HETATM   12  O   UNL     1      -8.457  12.629  66.602  1.00  0.00    -0.110 OA 
BRANCH   9  13
HETATM   13  N   UNL     1     -11.369   8.416  69.595  1.00  0.00    -0.430 NA 
HETATM   14  H   UNL     1     -12.049   7.877  69.059  1.00  0.00     0.000 HD 
BRANCH  13  15
HETATM   15  C   UNL     1     -11.613   8.585  70.855  1.00  0.00    -0.263 C  
HETATM   16  C   UNL     1     -11.369   7.758  72.084  1.00  0.00    -0.353 C  
HETATM   17  O   UNL     1     -12.245   9.724  71.184  1.00  0.00    -0.316 OA 
HETATM   18  H   UNL     1     -12.423   9.848  72.109  1.00  0.00     0.000 HD 
ENDBRANCH  13  15
ENDBRANCH   9  13
ENDBRANCH   1   2
BRANCH   1  19
HETATM   19  C   UNL     1     -10.687  14.730  67.546  1.00  0.00    -0.269 A  
HETATM   20  C   UNL     1      -9.950  15.735  66.909  1.00  0.00    -0.247 A  
HETATM   21  C   UNL     1     -10.321  17.259  68.766  1.00  0.00    -0.358 A  
HETATM   22  C   UNL     1     -11.144  14.974  68.864  1.00  0.00    -0.274 A  
HETATM   23  C   UNL     1      -9.775  16.987  67.509  1.00  0.00    -0.251 A  
HETATM   24  C   UNL     1     -10.970  16.229  69.474  1.00  0.00    -0.339 A  
BRANCH  24  25
HETATM   25  O   UNL     1     -11.434  16.574  70.720  1.00  0.00    -0.302 OA 
BRANCH  25  26
HETATM   26  C   UNL     1     -11.715  15.544  71.663  1.00  0.00    -0.426 C  
HETATM   27  C   UNL     1     -12.430  16.169  72.853  1.00  0.00    -0.570 C  
ENDBRANCH  25  26
ENDBRANCH  24  25
BRANCH  21  28
HETATM   28  O   UNL     1     -10.280  18.492  69.372  1.00  0.00    -0.163 OA 
HETATM   29  C   UNL     1      -9.772  19.579  68.610  1.00  0.00    -0.433 C  
ENDBRANCH  21  28
ENDBRANCH   1  19
BRANCH   1  30
HETATM   30  C   UNL     1     -11.029  13.777  65.268  1.00  0.00    -0.322 C  
BRANCH  30  31
HETATM   31  S   UNL     1     -12.141  12.894  64.204  1.00  0.00    -0.452 S  
HETATM   32  O   UNL     1     -13.188  12.360  65.055  1.00  0.00    -0.607 OA 
HETATM   33  C   UNL     1     -11.253  11.494  63.563  1.00  0.00    -0.322 C  
HETATM   34  O   UNL     1     -12.477  13.745  63.080  1.00  0.00    -0.786 OA 
ENDBRANCH  30  31
ENDBRANCH   1  30
TORSDOF 9
ENDMDL
MODEL       16
REMARK 921   NORMALIZED FREE ENERGY PREDICTED BY IDOCK:   -6.95 KCAL/MOL
REMARK 922        TOTAL FREE ENERGY PREDICTED BY IDOCK:  -11.66 KCAL/MOL
REMARK 923 INTER-LIGAND FREE ENERGY PREDICTED BY IDOCK:   -9.87 KCAL/MOL
REMARK 924 INTRA-LIGAND FREE ENERGY PREDICTED BY IDOCK:   -1.80 KCAL/MOL
REMARK 927      BINDING AFFINITY PREDICTED BY RF-SCORE:    0.00 PKD
ROOT
HETATM    1  C   UNL     1     -10.488  13.858  66.716  1.00  0.00    -0.270 C  
ENDROOT
BRANCH   1   2
HETATM    2  N   UNL     1     -11.133  13.355  67.940  1.00  0.00    -0.256 N  
HETATM    3  C   UNL     1     -12.815  14.016  71.055  1.00  0.00    -0.410 A  
HETATM    4  C   UNL     1     -13.198  13.115  72.034  1.00  0.00    -0.543 A  
HETATM    5  O   UNL     1     -11.087  11.034  67.759  1.00  0.00    -0.251 OA 
HETATM    6  C   UNL     1     -13.063  11.734  71.806  1.00  0.00    -0.480 A  
HETATM    7  C   UNL     1     -11.735  14.243  68.782  1.00  0.00    -0.343 C  
HETATM    8  C   UNL     1     -11.393  12.056  68.342  1.00  0.00    -0.279 C  
HETATM    9  C   UNL     1     -12.591  11.200  70.582  1.00  0.00    -0.318 A  
HETATM   10  C   UNL     1     -12.125  12.131  69.646  1.00  0.00    -0.283 A  
HETATM   11  C   UNL     1     -12.276  13.493  69.900  1.00  0.00    -0.356 A  
HETATM   12  O   UNL     1     -11.855  15.449  68.657  1.00  0.00    -0.346 OA 
BRANCH   9  13
HETATM   13  N   UNL     1     -12.515   9.809  70.370  1.00  0.00    -0.495 NA 
HETATM   14  H   UNL     1     -13.333   9.355  69.964  1.00  0.00     0.000 HD 
BRANCH  13  15
HETATM   15  C   UNL     1     -11.499   9.056  70.645  1.00  0.00    -0.248 C  
HETATM   16  C   UNL     1     -10.552   8.964  71.806  1.00  0.00    -0.432 C  
HETATM   17  O   UNL     1     -11.160   8.159  69.702  1.00  0.00    -0.424 OA 
HETATM   18  H   UNL     1     -10.415   7.607  69.904  1.00  0.00     0.000 HD 
ENDBRANCH  13  15
ENDBRANCH   9  13
ENDBRANCH   1   2
BRANCH   1  19
HETATM   19  C   UNL     1      -9.016  14.282  66.885  1.00  0.00    -0.255 A  
HETATM   20  C   UNL     1      -8.622  15.605  66.657  1.00  0.00    -0.330 A  
HETATM   21  C   UNL     1      -6.499  15.222  67.778  1.00  0.00    -0.158 A  
HETATM   22  C   UNL     1      -8.077  13.398  67.469  1.00  0.00    -0.183 A  
HETATM   23  C   UNL     1      -7.381  16.071  67.105  1.00  0.00    -0.257 A  
HETATM   24  C   UNL     1      -6.826  13.859  67.920  1.00  0.00    -0.160 A  
BRANCH  24  25
HETATM   25  O   UNL     1      -5.880  13.090  68.552  1.00  0.00    -0.068 OA 
BRANCH  25  26
HETATM   26  C   UNL     1      -6.237  12.396  69.744  1.00  0.00    -0.119 C  
HETATM   27  C   UNL     1      -5.710  13.188  70.933  1.00  0.00    -0.150 C  
ENDBRANCH  25  26
ENDBRANCH  24  25
BRANCH  21  28
HETATM   28  O   UNL     1      -5.312  15.631  68.336  1.00  0.00    -0.093 OA 
HETATM   29  C   UNL     1      -5.366  16.682  69.291  1.00  0.00    -0.136 C  
ENDBRANCH  21  28
ENDBRANCH   1  19
BRANCH   1  30
HETATM   30  C   UNL     1     -10.602  12.981  65.468  1.00  0.00    -0.282 C  
BRANCH  30  31
HETATM   31  S   UNL     1     -12.009  13.290  64.433  1.00  0.00    -0.427 S  
HETATM   32  O   UNL     1     -11.619  12.918  63.086  1.00  0.00    -0.422 OA 
HETATM   33  C   UNL     1     -12.267  15.049  64.412  1.00  0.00    -0.337 C  
HETATM   34  O   UNL     1     -13.175  12.689  65.048  1.00  0.00    -0.753 OA 
ENDBRANCH  30  31
ENDBRANCH   1  30
TORSDOF 9
ENDMDL
MODEL       17
REMARK 921   NORMALIZED FREE ENERGY PREDICTED BY IDOCK:   -6.92 KCAL/MOL
REMARK 922        TOTAL FREE ENERGY PREDICTED BY IDOCK:  -11.61 KCAL/MOL
REMARK 923 INTER-LIGAND FREE ENERGY PREDICTED BY IDOCK:  -10.17 KCAL/MOL
REMARK 924 INTRA-LIGAND FREE ENERGY PREDICTED BY IDOCK:   -1.44 KCAL/MOL
REMARK 927      BINDING AFFINITY PREDICTED BY RF-SCORE:    0.00 PKD
ROOT
HETATM    1  C   UNL     1     -10.943  13.111  67.217  1.00  0.00    -0.268 C  
ENDROOT
BRANCH   1   2
HETATM    2  N   UNL     1     -10.594  11.923  68.014  1.00  0.00    -0.200 N  
HETATM    3  C   UNL     1      -8.081   9.787  69.460  1.00  0.00    -0.141 A  
HETATM    4  C   UNL     1      -8.253   8.588  70.131  1.00  0.00    -0.121 A  
HETATM    5  O   UNL     1     -12.626  11.021  68.709  1.00  0.00    -0.350 OA 
HETATM    6  C   UNL     1      -9.550   8.138  70.440  1.00  0.00    -0.171 A  
HETATM    7  C   UNL     1      -9.285  11.692  68.317  1.00  0.00    -0.187 C  
HETATM    8  C   UNL     1     -11.410  11.027  68.684  1.00  0.00    -0.281 C  
HETATM    9  C   UNL     1     -10.713   8.886  70.139  1.00  0.00    -0.225 A  
HETATM   10  C   UNL     1     -10.518  10.046  69.380  1.00  0.00    -0.252 A  
HETATM   11  C   UNL     1      -9.221  10.467  69.093  1.00  0.00    -0.183 A  
HETATM   12  O   UNL     1      -8.309  12.368  68.042  1.00  0.00    -0.152 OA 
BRANCH   9  13
HETATM   13  N   UNL     1     -11.995   8.428  70.507  1.00  0.00    -0.487 NA 
HETATM   14  H   UNL     1     -12.509   7.883  69.816  1.00  0.00     0.000 HD 
BRANCH  13  15
HETATM   15  C   UNL     1     -12.576   8.638  71.644  1.00  0.00    -0.338 C  
HETATM   16  C   UNL     1     -13.420   9.750  72.194  1.00  0.00    -0.491 C  
HETATM   17  O   UNL     1     -12.392   7.692  72.581  1.00  0.00    -0.549 OA 
HETATM   18  H   UNL     1     -12.819   7.846  73.416  1.00  0.00     0.000 HD 
ENDBRANCH  13  15
ENDBRANCH   9  13
ENDBRANCH   1   2
BRANCH   1  19
HETATM   19  C   UNL     1     -10.536  14.456  67.846  1.00  0.00    -0.239 A  
HETATM   20  C   UNL     1      -9.916  15.448  67.077  1.00  0.00    -0.239 A  
HETATM   21  C   UNL     1     -10.348  17.120  68.787  1.00  0.00    -0.353 A  
HETATM   22  C   UNL     1     -10.960  14.796  69.154  1.00  0.00    -0.277 A  
HETATM   23  C   UNL     1      -9.830  16.765  67.539  1.00  0.00    -0.255 A  
HETATM   24  C   UNL     1     -10.875  16.118  69.626  1.00  0.00    -0.338 A  
BRANCH  24  25
HETATM   25  O   UNL     1     -11.318  16.550  70.852  1.00  0.00    -0.321 OA 
BRANCH  25  26
HETATM   26  C   UNL     1     -11.696  15.586  71.830  1.00  0.00    -0.432 C  
HETATM   27  C   UNL     1     -13.214  15.599  71.950  1.00  0.00    -0.537 C  
ENDBRANCH  25  26
ENDBRANCH  24  25
BRANCH  21  28
HETATM   28  O   UNL     1     -10.393  18.408  69.265  1.00  0.00    -0.193 OA 
HETATM   29  C   UNL     1      -9.708  19.406  68.519  1.00  0.00    -0.421 C  
ENDBRANCH  21  28
ENDBRANCH   1  19
BRANCH   1  30
HETATM   30  C   UNL     1     -10.508  13.106  65.750  1.00  0.00    -0.283 C  
BRANCH  30  31
HETATM   31  S   UNL     1     -11.817  13.193  64.556  1.00  0.00    -0.402 S  
HETATM   32  O   UNL     1     -11.319  12.553  63.353  1.00  0.00    -0.466 OA 
HETATM   33  C   UNL     1     -12.045  14.910  64.153  1.00  0.00    -0.267 C  
HETATM   34  O   UNL     1     -13.040  12.729  65.178  1.00  0.00    -0.750 OA 
ENDBRANCH  30  31
ENDBRANCH   1  30
TORSDOF 9
ENDMDL
MODEL       18
REMARK 921   NORMALIZED FREE ENERGY PREDICTED BY IDOCK:   -6.89 KCAL/MOL
REMARK 922        TOTAL FREE ENERGY PREDICTED BY IDOCK:  -11.57 KCAL/MOL
REMARK 923 INTER-LIGAND FREE ENERGY PREDICTED BY IDOCK:   -9.96 KCAL/MOL
REMARK 924 INTRA-LIGAND FREE ENERGY PREDICTED BY IDOCK:   -1.62 KCAL/MOL
REMARK 927      BINDING AFFINITY PREDICTED BY RF-SCORE:    0.00 PKD
ROOT
HETATM    1  C   UNL     1     -10.823  14.318  66.450  1.00  0.00    -0.307 C  
ENDROOT
BRANCH   1   2
HETATM    2  N   UNL     1     -11.332  13.776  67.720  1.00  0.00    -0.288 N  
HETATM    3  C   UNL     1     -12.704  14.338  71.003  1.00  0.00    -0.430 A  
HETATM    4  C   UNL     1     -12.971  13.409  71.994  1.00  0.00    -0.409 A  
HETATM    5  O   UNL     1     -11.265  11.461  67.483  1.00  0.00    -0.259 OA 
HETATM    6  C   UNL     1     -12.835  12.035  71.722  1.00  0.00    -0.377 A  
HETATM    7  C   UNL     1     -11.862  14.634  68.639  1.00  0.00    -0.311 C  
HETATM    8  C   UNL     1     -11.528  12.464  68.117  1.00  0.00    -0.318 C  
HETATM    9  C   UNL     1     -12.480  11.538  70.445  1.00  0.00    -0.240 A  
HETATM   10  C   UNL     1     -12.126  12.497  69.489  1.00  0.00    -0.248 A  
HETATM   11  C   UNL     1     -12.275  13.850  69.788  1.00  0.00    -0.388 A  
HETATM   12  O   UNL     1     -12.015  15.840  68.555  1.00  0.00    -0.314 OA 
BRANCH   9  13
HETATM   13  N   UNL     1     -12.401  10.153  70.195  1.00  0.00    -0.504 NA 
HETATM   14  H   UNL     1     -13.262   9.681  69.916  1.00  0.00     0.000 HD 
BRANCH  13  15
HETATM   15  C   UNL     1     -11.335   9.426  70.286  1.00  0.00    -0.220 C  
HETATM   16  C   UNL     1     -10.370   9.124  71.395  1.00  0.00    -0.409 C  
HETATM   17  O   UNL     1     -10.948   8.806  69.158  1.00  0.00    -0.419 OA 
HETATM   18  H   UNL     1     -10.165   8.273  69.225  1.00  0.00     0.000 HD 
ENDBRANCH  13  15
ENDBRANCH   9  13
ENDBRANCH   1   2
BRANCH   1  19
HETATM   19  C   UNL     1      -9.466  15.041  66.551  1.00  0.00    -0.306 A  
HETATM   20  C   UNL     1      -9.294  16.320  66.010  1.00  0.00    -0.361 A  
HETATM   21  C   UNL     1      -7.228  16.627  67.253  1.00  0.00    -0.166 A  
HETATM   22  C   UNL     1      -8.432  14.518  67.366  1.00  0.00    -0.220 A  
HETATM   23  C   UNL     1      -8.192  17.106  66.362  1.00  0.00    -0.327 A  
HETATM   24  C   UNL     1      -7.320  15.303  67.723  1.00  0.00    -0.163 A  
BRANCH  24  25
HETATM   25  O   UNL     1      -6.305  14.902  68.556  1.00  0.00    -0.085 OA 
BRANCH  25  26
HETATM   26  C   UNL     1      -6.605  14.591  69.913  1.00  0.00    -0.151 C  
HETATM   27  C   UNL     1      -5.983  13.241  70.243  1.00  0.00    -0.134 C  
ENDBRANCH  25  26
ENDBRANCH  24  25
BRANCH  21  28
HETATM   28  O   UNL     1      -6.177  17.376  67.725  1.00  0.00    -0.143 OA 
HETATM   29  C   UNL     1      -6.421  18.751  67.992  1.00  0.00    -0.218 C  
ENDBRANCH  21  28
ENDBRANCH   1  19
BRANCH   1  30
HETATM   30  C   UNL     1     -10.775  13.356  65.262  1.00  0.00    -0.313 C  
BRANCH  30  31
HETATM   31  S   UNL     1     -12.266  13.233  64.308  1.00  0.00    -0.377 S  
HETATM   32  O   UNL     1     -13.347  13.041  65.257  1.00  0.00    -0.534 OA 
HETATM   33  C   UNL     1     -12.160  11.732  63.361  1.00  0.00    -0.340 C  
HETATM   34  O   UNL     1     -12.305  14.335  63.370  1.00  0.00    -0.678 OA 
ENDBRANCH  30  31
ENDBRANCH   1  30
TORSDOF 9
ENDMDL
MODEL       19
REMARK 921   NORMALIZED FREE ENERGY PREDICTED BY IDOCK:   -6.89 KCAL/MOL
REMARK 922        TOTAL FREE ENERGY PREDICTED BY IDOCK:  -11.57 KCAL/MOL
REMARK 923 INTER-LIGAND FREE ENERGY PREDICTED BY IDOCK:  -10.33 KCAL/MOL
REMARK 924 INTRA-LIGAND FREE ENERGY PREDICTED BY IDOCK:   -1.25 KCAL/MOL
REMARK 927      BINDING AFFINITY PREDICTED BY RF-SCORE:    0.00 PKD
ROOT
HETATM    1  C   UNL     1     -11.166  14.008  66.448  1.00  0.00    -0.319 C  
ENDROOT
BRANCH   1   2
HETATM    2  N   UNL     1     -10.586  12.934  67.272  1.00  0.00    -0.233 N  
HETATM    3  C   UNL     1      -7.685  11.312  68.657  1.00  0.00    -0.136 A  
HETATM    4  C   UNL     1      -7.622  10.136  69.386  1.00  0.00    -0.133 A  
HETATM    5  O   UNL     1     -12.403  11.749  68.120  1.00  0.00    -0.389 OA 
HETATM    6  C   UNL     1      -8.810   9.497  69.787  1.00  0.00    -0.211 A  
HETATM    7  C   UNL     1      -9.243  12.935  67.509  1.00  0.00    -0.192 C  
HETATM    8  C   UNL     1     -11.208  11.952  68.024  1.00  0.00    -0.257 C  
HETATM    9  C   UNL     1     -10.094  10.029  69.524  1.00  0.00    -0.227 A  
HETATM   10  C   UNL     1     -10.132  11.166  68.707  1.00  0.00    -0.211 A  
HETATM   11  C   UNL     1      -8.939  11.778  68.329  1.00  0.00    -0.180 A  
HETATM   12  O   UNL     1      -8.408  13.747  67.150  1.00  0.00    -0.185 OA 
BRANCH   9  13
HETATM   13  N   UNL     1     -11.262   9.387  69.984  1.00  0.00    -0.344 NA 
HETATM   14  H   UNL     1     -11.686   8.695  69.366  1.00  0.00     0.000 HD 
BRANCH  13  15
HETATM   15  C   UNL     1     -11.844   9.597  71.120  1.00  0.00    -0.367 C  
HETATM   16  C   UNL     1     -12.892  10.562  71.592  1.00  0.00    -0.581 C  
HETATM   17  O   UNL     1     -11.437   8.824  72.141  1.00  0.00    -0.354 OA 
HETATM   18  H   UNL     1     -11.864   8.978  72.975  1.00  0.00     0.000 HD 
ENDBRANCH  13  15
ENDBRANCH   9  13
ENDBRANCH   1   2
BRANCH   1  19
HETATM   19  C   UNL     1     -10.890  15.436  66.956  1.00  0.00    -0.320 A  
HETATM   20  C   UNL     1     -11.256  15.818  68.252  1.00  0.00    -0.356 A  
HETATM   21  C   UNL     1      -9.856  17.801  68.120  1.00  0.00    -0.326 A  
HETATM   22  C   UNL     1     -10.083  16.323  66.203  1.00  0.00    -0.362 A  
HETATM   23  C   UNL     1     -10.739  16.982  68.829  1.00  0.00    -0.313 A  
HETATM   24  C   UNL     1      -9.561  17.497  66.776  1.00  0.00    -0.282 A  
BRANCH  24  25
HETATM   25  O   UNL     1      -8.722  18.381  66.143  1.00  0.00    -0.462 OA 
BRANCH  25  26
HETATM   26  C   UNL     1      -7.363  18.013  65.931  1.00  0.00    -0.213 C  
HETATM   27  C   UNL     1      -6.609  19.238  65.432  1.00  0.00    -0.307 C  
ENDBRANCH  25  26
ENDBRANCH  24  25
BRANCH  21  28
HETATM   28  O   UNL     1      -9.228  18.901  68.653  1.00  0.00    -0.343 OA 
HETATM   29  C   UNL     1     -10.044  20.009  69.011  1.00  0.00    -0.229 C  
ENDBRANCH  21  28
ENDBRANCH   1  19
BRANCH   1  30
HETATM   30  C   UNL     1     -10.872  13.958  64.948  1.00  0.00    -0.405 C  
BRANCH  30  31
HETATM   31  S   UNL     1     -12.030  13.041  63.964  1.00  0.00    -0.484 S  
HETATM   32  O   UNL     1     -13.023  12.515  64.882  1.00  0.00    -0.821 OA 
HETATM   33  C   UNL     1     -11.161  11.637  63.306  1.00  0.00    -0.213 C  
HETATM   34  O   UNL     1     -12.435  13.863  62.843  1.00  0.00    -0.572 OA 
ENDBRANCH  30  31
ENDBRANCH   1  30
TORSDOF 9
ENDMDL
MODEL       20
REMARK 921   NORMALIZED FREE ENERGY PREDICTED BY IDOCK:   -6.89 KCAL/MOL
REMARK 922        TOTAL FREE ENERGY PREDICTED BY IDOCK:  -11.57 KCAL/MOL
REMARK 923 INTER-LIGAND FREE ENERGY PREDICTED BY IDOCK:  -10.13 KCAL/MOL
REMARK 924 INTRA-LIGAND FREE ENERGY PREDICTED BY IDOCK:   -1.44 KCAL/MOL
REMARK 927      BINDING AFFINITY PREDICTED BY RF-SCORE:    0.00 PKD
ROOT
HETATM    1  C   UNL     1     -10.821  12.864  66.783  1.00  0.00    -0.267 C  
ENDROOT
BRANCH   1   2
HETATM    2  N   UNL     1     -11.461  12.876  68.109  1.00  0.00    -0.292 N  
HETATM    3  C   UNL     1     -12.691  11.073  70.974  1.00  0.00    -0.485 A  
HETATM    4  C   UNL     1     -13.380  11.565  72.069  1.00  0.00    -0.397 A  
HETATM    5  O   UNL     1     -11.798  15.123  68.619  1.00  0.00    -0.339 OA 
HETATM    6  C   UNL     1     -13.555  12.953  72.221  1.00  0.00    -0.611 A  
HETATM    7  C   UNL     1     -11.567  11.706  68.802  1.00  0.00    -0.313 C  
HETATM    8  C   UNL     1     -11.861  13.941  68.898  1.00  0.00    -0.358 C  
HETATM    9  C   UNL     1     -13.009  13.898  71.320  1.00  0.00    -0.341 A  
HETATM   10  C   UNL     1     -12.397  13.373  70.175  1.00  0.00    -0.322 A  
HETATM   11  C   UNL     1     -12.237  11.994  70.056  1.00  0.00    -0.280 A  
HETATM   12  O   UNL     1     -11.165  10.598  68.490  1.00  0.00    -0.248 OA 
BRANCH   9  13
HETATM   13  N   UNL     1     -13.161  15.284  71.530  1.00  0.00    -0.422 NA 
HETATM   14  H   UNL     1     -13.880  15.759  70.984  1.00  0.00     0.000 HD 
BRANCH  13  15
HETATM   15  C   UNL     1     -12.472  16.006  72.353  1.00  0.00    -0.469 C  
HETATM   16  C   UNL     1     -12.392  16.094  73.849  1.00  0.00    -0.676 C  
HETATM   17  O   UNL     1     -11.650  16.911  71.794  1.00  0.00    -0.507 OA 
HETATM   18  H   UNL     1     -11.144  17.441  72.398  1.00  0.00     0.000 HD 
ENDBRANCH  13  15
ENDBRANCH   9  13
ENDBRANCH   1   2
BRANCH   1  19
HETATM   19  C   UNL     1      -9.308  12.573  66.796  1.00  0.00    -0.230 A  
HETATM   20  C   UNL     1      -8.436  13.349  67.569  1.00  0.00    -0.192 A  
HETATM   21  C   UNL     1      -6.669  11.696  67.332  1.00  0.00    -0.108 A  
HETATM   22  C   UNL     1      -8.798  11.397  66.195  1.00  0.00    -0.186 A  
HETATM   23  C   UNL     1      -7.135  12.912  67.839  1.00  0.00    -0.127 A  
HETATM   24  C   UNL     1      -7.489  10.953  66.461  1.00  0.00    -0.142 A  
BRANCH  24  25
HETATM   25  O   UNL     1      -6.933   9.795  65.973  1.00  0.00    -0.092 OA 
BRANCH  25  26
HETATM   26  C   UNL     1      -7.426   9.251  64.753  1.00  0.00    -0.104 C  
HETATM   27  C   UNL     1      -8.007   7.874  65.045  1.00  0.00    -0.137 C  
ENDBRANCH  25  26
ENDBRANCH  24  25
BRANCH  21  28
HETATM   28  O   UNL     1      -5.445  11.153  67.637  1.00  0.00    -0.040 OA 
HETATM   29  C   UNL     1      -5.248  10.690  68.967  1.00  0.00    -0.041 C  
ENDBRANCH  21  28
ENDBRANCH   1  19
BRANCH   1  30
HETATM   30  C   UNL     1     -11.476  11.994  65.711  1.00  0.00    -0.320 C  
BRANCH  30  31
HETATM   31  S   UNL     1     -11.847  12.805  64.177  1.00  0.00    -0.452 S  
HETATM   32  O   UNL     1     -10.667  12.667  63.344  1.00  0.00    -0.384 OA 
HETATM   33  C   UNL     1     -12.011  14.540  64.529  1.00  0.00    -0.468 C  
HETATM   34  O   UNL     1     -13.133  12.336  63.706  1.00  0.00    -0.780 OA 
ENDBRANCH  30  31
ENDBRANCH   1  30
TORSDOF 9
ENDMDL
MODEL       21
REMARK 921   NORMALIZED FREE ENERGY PREDICTED BY IDOCK:   -6.87 KCAL/MOL
REMARK 922        TOTAL FREE ENERGY PREDICTED BY IDOCK:  -11.54 KCAL/MOL
REMARK 923 INTER-LIGAND FREE ENERGY PREDICTED BY IDOCK:  -10.27 KCAL/MOL
REMARK 924 INTRA-LIGAND FREE ENERGY PREDICTED BY IDOCK:   -1.27 KCAL/MOL
REMARK 927      BINDING AFFINITY PREDICTED BY RF-SCORE:    0.00 PKD
ROOT
HETATM    1  C   UNL     1     -11.792  14.552  68.657  1.00  0.00    -0.320 C  
ENDROOT
BRANCH   1   2
HETATM    2  N   UNL     1     -10.647  15.477  68.658  1.00  0.00    -0.236 N  
HETATM    3  C   UNL     1      -7.133  16.061  69.192  1.00  0.00    -0.197 A  
HETATM    4  C   UNL     1      -6.446  17.263  69.155  1.00  0.00    -0.235 A  
HETATM    5  O   UNL     1     -11.494  17.519  67.926  1.00  0.00     0.196 OA 
HETATM    6  C   UNL     1      -7.105  18.434  68.740  1.00  0.00    -0.299 A  
HETATM    7  C   UNL     1      -9.398  14.982  68.891  1.00  0.00    -0.208 C  
HETATM    8  C   UNL     1     -10.577  16.810  68.293  1.00  0.00    -0.352 C  
HETATM    9  C   UNL     1      -8.450  18.443  68.301  1.00  0.00    -0.303 A  
HETATM   10  C   UNL     1      -9.149  17.237  68.436  1.00  0.00    -0.265 A  
HETATM   11  C   UNL     1      -8.467  16.094  68.847  1.00  0.00    -0.241 A  
HETATM   12  O   UNL     1      -9.060  13.825  69.078  1.00  0.00     0.069 OA 
BRANCH   9  13
HETATM   13  N   UNL     1      -9.065  19.628  67.845  1.00  0.00    -0.321 NA 
HETATM   14  H   UNL     1      -9.338  20.311  68.552  1.00  0.00     0.000 HD 
BRANCH  13  15
HETATM   15  C   UNL     1      -9.313  19.925  66.611  1.00  0.00    -0.395 C  
HETATM   16  C   UNL     1     -10.533  19.833  65.741  1.00  0.00    -0.545 C  
HETATM   17  O   UNL     1      -8.276  20.401  65.901  1.00  0.00    -0.549 OA 
HETATM   18  H   UNL     1      -8.459  20.619  64.994  1.00  0.00     0.000 HD 
ENDBRANCH  13  15
ENDBRANCH   9  13
ENDBRANCH   1   2
BRANCH   1  19
HETATM   19  C   UNL     1     -11.859  13.605  67.443  1.00  0.00    -0.429 A  
HETATM   20  C   UNL     1     -12.164  14.096  66.168  1.00  0.00    -0.465 A  
HETATM   21  C   UNL     1     -11.382  12.042  65.131  1.00  0.00    -0.304 A  
HETATM   22  C   UNL     1     -11.417  12.264  67.552  1.00  0.00    -0.414 A  
HETATM   23  C   UNL     1     -11.921  13.326  65.026  1.00  0.00    -0.407 A  
HETATM   24  C   UNL     1     -11.172  11.483  66.407  1.00  0.00    -0.243 A  
BRANCH  24  25
HETATM   25  O   UNL     1     -10.684  10.200  66.415  1.00  0.00    -0.125 OA 
BRANCH  25  26
HETATM   26  C   UNL     1     -10.654   9.479  67.643  1.00  0.00    -0.269 C  
HETATM   27  C   UNL     1     -10.313   8.027  67.336  1.00  0.00    -0.354 C  
ENDBRANCH  25  26
ENDBRANCH  24  25
BRANCH  21  28
HETATM   28  O   UNL     1     -11.021  11.267  64.055  1.00  0.00    -0.377 OA 
HETATM   29  C   UNL     1      -9.920  11.710  63.271  1.00  0.00    -0.419 C  
ENDBRANCH  21  28
ENDBRANCH   1  19
BRANCH   1  30
HETATM   30  C   UNL     1     -12.015  13.731  69.928  1.00  0.00    -0.347 C  
BRANCH  30  31
HETATM   31  S   UNL     1     -12.655  14.625  71.321  1.00  0.00    -0.360 S  
HETATM   32  O   UNL     1     -11.508  15.034  72.109  1.00  0.00    -0.382 OA 
HETATM   33  C   UNL     1     -13.560  13.463  72.318  1.00  0.00    -0.605 C  
HETATM   34  O   UNL     1     -13.601  15.611  70.841  1.00  0.00    -0.568 OA 
ENDBRANCH  30  31
ENDBRANCH   1  30
TORSDOF 9
ENDMDL
MODEL       22
REMARK 921   NORMALIZED FREE ENERGY PREDICTED BY IDOCK:   -6.85 KCAL/MOL
REMARK 922        TOTAL FREE ENERGY PREDICTED BY IDOCK:  -11.51 KCAL/MOL
REMARK 923 INTER-LIGAND FREE ENERGY PREDICTED BY IDOCK:  -10.19 KCAL/MOL
REMARK 924 INTRA-LIGAND FREE ENERGY PREDICTED BY IDOCK:   -1.32 KCAL/MOL
REMARK 927      BINDING AFFINITY PREDICTED BY RF-SCORE:    0.00 PKD
ROOT
HETATM    1  C   UNL     1     -11.814  13.241  67.200  1.00  0.00    -0.374 C  
ENDROOT
BRANCH   1   2
HETATM    2  N   UNL     1     -11.035  12.032  67.516  1.00  0.00    -0.240 N  
HETATM    3  C   UNL     1      -7.899  10.263  67.466  1.00  0.00    -0.102 A  
HETATM    4  C   UNL     1      -7.644   8.954  67.838  1.00  0.00    -0.093 A  
HETATM    5  O   UNL     1     -12.518  10.603  68.603  1.00  0.00    -0.252 OA 
HETATM    6  C   UNL     1      -8.657   8.186  68.441  1.00  0.00    -0.130 A  
HETATM    7  C   UNL     1      -9.689  12.038  67.298  1.00  0.00    -0.185 C  
HETATM    8  C   UNL     1     -11.412  10.875  68.176  1.00  0.00    -0.295 C  
HETATM    9  C   UNL     1      -9.939   8.707  68.739  1.00  0.00    -0.183 A  
HETATM   10  C   UNL     1     -10.201  10.001  68.270  1.00  0.00    -0.200 A  
HETATM   11  C   UNL     1      -9.175  10.736  67.680  1.00  0.00    -0.152 A  
HETATM   12  O   UNL     1      -8.987  12.947  66.890  1.00  0.00    -0.215 OA 
BRANCH   9  13
HETATM   13  N   UNL     1     -10.915   7.925  69.388  1.00  0.00    -0.428 NA 
HETATM   14  H   UNL     1     -11.321   7.154  68.858  1.00  0.00     0.000 HD 
BRANCH  13  15
HETATM   15  C   UNL     1     -11.343   8.097  70.597  1.00  0.00    -0.249 C  
HETATM   16  C   UNL     1     -10.678   8.147  71.942  1.00  0.00    -0.329 C  
HETATM   17  O   UNL     1     -12.672   8.240  70.736  1.00  0.00    -0.493 OA 
HETATM   18  H   UNL     1     -12.986   8.367  71.623  1.00  0.00     0.000 HD 
ENDBRANCH  13  15
ENDBRANCH   9  13
ENDBRANCH   1   2
BRANCH   1  19
HETATM   19  C   UNL     1     -11.968  14.236  68.366  1.00  0.00    -0.344 A  
HETATM   20  C   UNL     1     -12.565  13.842  69.569  1.00  0.00     0.031 A  
HETATM   21  C   UNL     1     -11.706  15.813  70.703  1.00  0.00    -0.385 A  
HETATM   22  C   UNL     1     -11.330  15.500  68.321  1.00  0.00    -0.360 A  
HETATM   23  C   UNL     1     -12.429  14.618  70.725  1.00  0.00    -0.407 A  
HETATM   24  C   UNL     1     -11.192  16.286  69.480  1.00  0.00    -0.308 A  
BRANCH  24  25
HETATM   25  O   UNL     1     -10.536  17.491  69.544  1.00  0.00    -0.217 OA 
BRANCH  25  26
HETATM   26  C   UNL     1     -10.236  18.181  68.335  1.00  0.00    -0.387 C  
HETATM   27  C   UNL     1      -8.942  18.958  68.537  1.00  0.00    -0.388 C  
ENDBRANCH  25  26
ENDBRANCH  24  25
BRANCH  21  28
HETATM   28  O   UNL     1     -11.443  16.574  71.816  1.00  0.00    -0.337 OA 
HETATM   29  C   UNL     1     -12.018  16.154  73.047  1.00  0.00    -0.489 C  
ENDBRANCH  21  28
ENDBRANCH   1  19
BRANCH   1  30
HETATM   30  C   UNL     1     -11.401  14.017  65.948  1.00  0.00    -0.317 C  
BRANCH  30  31
HETATM   31  S   UNL     1     -12.047  13.406  64.413  1.00  0.00    -0.416 S  
HETATM   32  O   UNL     1     -13.017  12.382  64.754  1.00  0.00    -0.786 OA 
HETATM   33  C   UNL     1     -10.716  12.577  63.577  1.00  0.00    -0.376 C  
HETATM   34  O   UNL     1     -12.436  14.535  63.594  1.00  0.00    -0.782 OA 
ENDBRANCH  30  31
ENDBRANCH   1  30
TORSDOF 9
ENDMDL
MODEL       23
REMARK 921   NORMALIZED FREE ENERGY PREDICTED BY IDOCK:   -6.81 KCAL/MOL
REMARK 922        TOTAL FREE ENERGY PREDICTED BY IDOCK:  -11.45 KCAL/MOL
REMARK 923 INTER-LIGAND FREE ENERGY PREDICTED BY IDOCK:  -10.01 KCAL/MOL
REMARK 924 INTRA-LIGAND FREE ENERGY PREDICTED BY IDOCK:   -1.44 KCAL/MOL
REMARK 927      BINDING AFFINITY PREDICTED BY RF-SCORE:    0.00 PKD
ROOT
HETATM    1  C   UNL     1      -9.835  11.875  68.687  1.00  0.00    -0.131 C  
ENDROOT
BRANCH   1   2
HETATM    2  N   UNL     1     -10.226  12.896  67.701  1.00  0.00    -0.217 N  
HETATM    3  C   UNL     1     -12.332  13.918  64.964  1.00  0.00    -0.452 A  
HETATM    4  C   UNL     1     -12.258  15.076  64.208  1.00  0.00    -0.312 A  
HETATM    5  O   UNL     1      -8.879  14.742  68.149  1.00  0.00    -0.160 OA 
HETATM    6  C   UNL     1     -11.354  16.091  64.568  1.00  0.00    -0.303 A  
HETATM    7  C   UNL     1     -11.310  12.666  66.906  1.00  0.00    -0.320 C  
HETATM    8  C   UNL     1      -9.765  14.189  67.525  1.00  0.00    -0.234 C  
HETATM    9  C   UNL     1     -10.531  16.014  65.717  1.00  0.00    -0.374 A  
HETATM   10  C   UNL     1     -10.557  14.798  66.410  1.00  0.00    -0.300 A  
HETATM   11  C   UNL     1     -11.467  13.812  66.031  1.00  0.00    -0.336 A  
HETATM   12  O   UNL     1     -12.065  11.709  66.906  1.00  0.00    -0.512 OA 
BRANCH   9  13
HETATM   13  N   UNL     1      -9.672  17.072  66.075  1.00  0.00    -0.483 NA 
HETATM   14  H   UNL     1      -8.783  17.137  65.580  1.00  0.00     0.000 HD 
BRANCH  13  15
HETATM   15  C   UNL     1      -9.910  17.969  66.977  1.00  0.00    -0.318 C  
HETATM   16  C   UNL     1     -10.705  19.242  66.998  1.00  0.00    -0.565 C  
HETATM   17  O   UNL     1      -9.315  17.778  68.167  1.00  0.00    -0.265 OA 
HETATM   18  H   UNL     1      -9.490  18.437  68.829  1.00  0.00     0.000 HD 
ENDBRANCH  13  15
ENDBRANCH   9  13
ENDBRANCH   1   2
BRANCH   1  19
HETATM   19  C   UNL     1     -10.999  11.289  69.509  1.00  0.00    -0.249 A  
HETATM   20  C   UNL     1     -11.125   9.906  69.686  1.00  0.00    -0.279 A  
HETATM   21  C   UNL     1     -12.719  10.228  71.493  1.00  0.00    -0.452 A  
HETATM   22  C   UNL     1     -11.840  12.137  70.269  1.00  0.00    -0.339 A  
HETATM   23  C   UNL     1     -11.970   9.383  70.670  1.00  0.00    -0.232 A  
HETATM   24  C   UNL     1     -12.693  11.617  71.260  1.00  0.00    -0.340 A  
BRANCH  24  25
HETATM   25  O   UNL     1     -13.495  12.367  72.086  1.00  0.00    -0.525 OA 
BRANCH  25  26
HETATM   26  C   UNL     1     -13.629  13.763  71.839  1.00  0.00    -0.429 C  
HETATM   27  C   UNL     1     -12.947  14.516  72.972  1.00  0.00    -0.596 C  
ENDBRANCH  25  26
ENDBRANCH  24  25
BRANCH  21  28
HETATM   28  O   UNL     1     -13.488   9.795  72.546  1.00  0.00    -0.354 OA 
HETATM   29  C   UNL     1     -14.357   8.695  72.311  1.00  0.00    -0.396 C  
ENDBRANCH  21  28
ENDBRANCH   1  19
BRANCH   1  30
HETATM   30  C   UNL     1      -8.970  10.722  68.176  1.00  0.00    -0.140 C  
BRANCH  30  31
HETATM   31  S   UNL     1      -7.273  10.743  68.693  1.00  0.00    -0.096 S  
HETATM   32  O   UNL     1      -6.531   9.990  67.699  1.00  0.00    -0.062 OA 
HETATM   33  C   UNL     1      -7.174   9.812  70.204  1.00  0.00    -0.145 C  
HETATM   34  O   UNL     1      -6.901  12.109  69.001  1.00  0.00    -0.097 OA 
ENDBRANCH  30  31
ENDBRANCH   1  30
TORSDOF 9
ENDMDL
MODEL       24
REMARK 921   NORMALIZED FREE ENERGY PREDICTED BY IDOCK:   -6.71 KCAL/MOL
REMARK 922        TOTAL FREE ENERGY PREDICTED BY IDOCK:  -11.29 KCAL/MOL
REMARK 923 INTER-LIGAND FREE ENERGY PREDICTED BY IDOCK:   -9.70 KCAL/MOL
REMARK 924 INTRA-LIGAND FREE ENERGY PREDICTED BY IDOCK:   -1.59 KCAL/MOL
REMARK 927      BINDING AFFINITY PREDICTED BY RF-SCORE:    0.00 PKD
ROOT
HETATM    1  C   UNL     1      -9.379  10.224  68.818  1.00  0.00    -0.166 C  
ENDROOT
BRANCH   1   2
HETATM    2  N   UNL     1      -9.605  11.481  68.086  1.00  0.00    -0.181 N  
HETATM    3  C   UNL     1      -8.533  14.814  67.242  1.00  0.00    -0.234 A  
HETATM    4  C   UNL     1      -9.202  15.770  66.497  1.00  0.00    -0.314 A  
HETATM    5  O   UNL     1     -11.552  11.143  66.853  1.00  0.00    -0.428 OA 
HETATM    6  C   UNL     1     -10.404  15.437  65.846  1.00  0.00    -0.359 A  
HETATM    7  C   UNL     1      -8.643  12.447  68.119  1.00  0.00    -0.185 C  
HETATM    8  C   UNL     1     -10.603  11.825  67.190  1.00  0.00    -0.231 C  
HETATM    9  C   UNL     1     -10.953  14.132  65.871  1.00  0.00    -0.297 A  
HETATM   10  C   UNL     1     -10.309  13.210  66.705  1.00  0.00    -0.265 A  
HETATM   11  C   UNL     1      -9.119  13.570  67.333  1.00  0.00    -0.219 A  
HETATM   12  O   UNL     1      -7.554  12.418  68.665  1.00  0.00    -0.116 OA 
BRANCH   9  13
HETATM   13  N   UNL     1     -12.133  13.821  65.166  1.00  0.00    -0.377 NA 
HETATM   14  H   UNL     1     -13.018  14.037  65.624  1.00  0.00     0.000 HD 
BRANCH  13  15
HETATM   15  C   UNL     1     -12.194  13.286  63.990  1.00  0.00    -0.410 C  
HETATM   16  C   UNL     1     -12.072  11.881  63.475  1.00  0.00    -0.575 C  
HETATM   17  O   UNL     1     -12.380  14.137  62.966  1.00  0.00    -1.070 OA 
HETATM   18  H   UNL     1     -12.424  13.744  62.102  1.00  0.00     0.000 HD 
ENDBRANCH  13  15
ENDBRANCH   9  13
ENDBRANCH   1   2
BRANCH   1  19
HETATM   19  C   UNL     1     -10.251  10.040  70.076  1.00  0.00    -0.306 A  
HETATM   20  C   UNL     1     -11.485  10.690  70.192  1.00  0.00    -0.411 A  
HETATM   21  C   UNL     1     -12.128   9.251  72.043  1.00  0.00    -0.336 A  
HETATM   22  C   UNL     1      -9.921   9.058  71.041  1.00  0.00    -0.349 A  
HETATM   23  C   UNL     1     -12.415  10.295  71.159  1.00  0.00    -0.495 A  
HETATM   24  C   UNL     1     -10.851   8.657  72.018  1.00  0.00    -0.360 A  
BRANCH  24  25
HETATM   25  O   UNL     1     -10.642   7.672  72.952  1.00  0.00    -0.288 OA 
BRANCH  25  26
HETATM   26  C   UNL     1     -10.141   6.409  72.524  1.00  0.00    -0.176 C  
HETATM   27  C   UNL     1     -10.976   5.317  73.180  1.00  0.00    -0.362 C  
ENDBRANCH  25  26
ENDBRANCH  24  25
BRANCH  21  28
HETATM   28  O   UNL     1     -13.027   8.740  72.948  1.00  0.00    -0.314 OA 
HETATM   29  C   UNL     1     -14.394   8.696  72.559  1.00  0.00    -0.259 C  
ENDBRANCH  21  28
ENDBRANCH   1  19
BRANCH   1  30
HETATM   30  C   UNL     1      -9.427   8.934  67.999  1.00  0.00    -0.143 C  
BRANCH  30  31
HETATM   31  S   UNL     1      -8.256   8.819  66.671  1.00  0.00    -0.108 S  
HETATM   32  O   UNL     1      -8.925   9.331  65.489  1.00  0.00    -0.178 OA 
HETATM   33  C   UNL     1      -7.968   7.090  66.374  1.00  0.00    -0.109 C  
HETATM   34  O   UNL     1      -7.003   9.398  67.109  1.00  0.00    -0.083 OA 
ENDBRANCH  30  31
ENDBRANCH   1  30
TORSDOF 9
ENDMDL
MODEL       25
REMARK 921   NORMALIZED FREE ENERGY PREDICTED BY IDOCK:   -6.64 KCAL/MOL
REMARK 922        TOTAL FREE ENERGY PREDICTED BY IDOCK:  -11.19 KCAL/MOL
REMARK 923 INTER-LIGAND FREE ENERGY PREDICTED BY IDOCK:   -9.77 KCAL/MOL
REMARK 924 INTRA-LIGAND FREE ENERGY PREDICTED BY IDOCK:   -1.42 KCAL/MOL
REMARK 927      BINDING AFFINITY PREDICTED BY RF-SCORE:    0.00 PKD
ROOT
HETATM    1  C   UNL     1     -10.642  15.140  68.690  1.00  0.00    -0.234 C  
ENDROOT
BRANCH   1   2
HETATM    2  N   UNL     1     -10.543  14.087  67.666  1.00  0.00    -0.248 N  
HETATM    3  C   UNL     1     -10.838  13.072  64.223  1.00  0.00    -0.430 A  
HETATM    4  C   UNL     1     -10.719  11.800  63.688  1.00  0.00    -0.503 A  
HETATM    5  O   UNL     1      -9.799  12.189  68.793  1.00  0.00    -0.145 OA 
HETATM    6  C   UNL     1     -10.308  10.731  64.505  1.00  0.00    -0.401 A  
HETATM    7  C   UNL     1     -10.714  14.421  66.355  1.00  0.00    -0.306 C  
HETATM    8  C   UNL     1     -10.131  12.769  67.777  1.00  0.00    -0.224 C  
HETATM    9  C   UNL     1      -9.954  10.898  65.865  1.00  0.00    -0.243 A  
HETATM   10  C   UNL     1     -10.171  12.172  66.405  1.00  0.00    -0.245 A  
HETATM   11  C   UNL     1     -10.576  13.210  65.568  1.00  0.00    -0.299 A  
HETATM   12  O   UNL     1     -10.916  15.522  65.871  1.00  0.00    -0.320 OA 
BRANCH   9  13
HETATM   13  N   UNL     1      -9.499   9.814  66.643  1.00  0.00    -0.163 NA 
HETATM   14  H   UNL     1      -8.490   9.688  66.719  1.00  0.00     0.000 HD 
BRANCH  13  15
HETATM   15  C   UNL     1     -10.247   8.964  67.268  1.00  0.00    -0.258 C  
HETATM   16  C   UNL     1     -10.371   7.468  67.246  1.00  0.00    -0.366 C  
HETATM   17  O   UNL     1     -11.149   9.487  68.117  1.00  0.00    -0.482 OA 
HETATM   18  H   UNL     1     -11.698   8.863  68.576  1.00  0.00     0.000 HD 
ENDBRANCH  13  15
ENDBRANCH   9  13
ENDBRANCH   1   2
BRANCH   1  19
HETATM   19  C   UNL     1      -9.789  16.393  68.416  1.00  0.00    -0.233 A  
HETATM   20  C   UNL     1     -10.367  17.668  68.427  1.00  0.00    -0.375 A  
HETATM   21  C   UNL     1      -8.178  18.718  68.541  1.00  0.00    -0.346 A  
HETATM   22  C   UNL     1      -8.378  16.302  68.350  1.00  0.00    -0.190 A  
HETATM   23  C   UNL     1      -9.571  18.816  68.496  1.00  0.00    -0.413 A  
HETATM   24  C   UNL     1      -7.571  17.453  68.417  1.00  0.00    -0.255 A  
BRANCH  24  25
HETATM   25  O   UNL     1      -6.197  17.456  68.424  1.00  0.00    -0.161 OA 
BRANCH  25  26
HETATM   26  C   UNL     1      -5.499  16.601  67.524  1.00  0.00    -0.138 C  
HETATM   27  C   UNL     1      -5.278  17.358  66.221  1.00  0.00    -0.197 C  
ENDBRANCH  25  26
ENDBRANCH  24  25
BRANCH  21  28
HETATM   28  O   UNL     1      -7.335  19.790  68.712  1.00  0.00    -0.334 OA 
HETATM   29  C   UNL     1      -6.933  20.498  67.546  1.00  0.00    -0.325 C  
ENDBRANCH  21  28
ENDBRANCH   1  19
BRANCH   1  30
HETATM   30  C   UNL     1     -12.051  15.584  69.085  1.00  0.00    -0.240 C  
BRANCH  30  31
HETATM   31  S   UNL     1     -12.581  15.117  70.712  1.00  0.00    -0.423 S  
HETATM   32  O   UNL     1     -13.960  15.551  70.835  1.00  0.00    -0.489 OA 
HETATM   33  C   UNL     1     -11.644  16.091  71.868  1.00  0.00    -0.431 C  
HETATM   34  O   UNL     1     -12.230  13.729  70.931  1.00  0.00    -0.347 OA 
ENDBRANCH  30  31
ENDBRANCH   1  30
TORSDOF 9
ENDMDL
MODEL       26
REMARK 921   NORMALIZED FREE ENERGY PREDICTED BY IDOCK:   -6.62 KCAL/MOL
REMARK 922        TOTAL FREE ENERGY PREDICTED BY IDOCK:  -11.16 KCAL/MOL
REMARK 923 INTER-LIGAND FREE ENERGY PREDICTED BY IDOCK:   -9.64 KCAL/MOL
REMARK 924 INTRA-LIGAND FREE ENERGY PREDICTED BY IDOCK:   -1.52 KCAL/MOL
REMARK 927      BINDING AFFINITY PREDICTED BY RF-SCORE:    0.00 PKD
ROOT
HETATM    1  C   UNL     1     -11.178  12.386  67.230  1.00  0.00    -0.303 C  
ENDROOT
BRANCH   1   2
HETATM    2  N   UNL     1      -9.952  11.590  67.057  1.00  0.00    -0.198 N  
HETATM    3  C   UNL     1      -6.398  11.452  66.490  1.00  0.00    -0.095 A  
HETATM    4  C   UNL     1      -5.602  10.337  66.285  1.00  0.00    -0.058 A  
HETATM    5  O   UNL     1     -10.609   9.371  67.316  1.00  0.00    -0.267 OA 
HETATM    6  C   UNL     1      -6.151   9.049  66.425  1.00  0.00    -0.063 A  
HETATM    7  C   UNL     1      -8.753  12.234  66.963  1.00  0.00    -0.199 C  
HETATM    8  C   UNL     1      -9.759  10.221  67.130  1.00  0.00    -0.173 C  
HETATM    9  C   UNL     1      -7.491   8.825  66.822  1.00  0.00    -0.086 A  
HETATM   10  C   UNL     1      -8.298   9.965  66.931  1.00  0.00    -0.124 A  
HETATM   11  C   UNL     1      -7.724  11.226  66.790  1.00  0.00    -0.155 A  
HETATM   12  O   UNL     1      -8.524  13.429  67.036  1.00  0.00    -0.194 OA 
BRANCH   9  13
HETATM   13  N   UNL     1      -7.994   7.521  67.000  1.00  0.00    -0.115 NA 
HETATM   14  H   UNL     1      -7.866   7.095  67.917  1.00  0.00     0.000 HD 
BRANCH  13  15
HETATM   15  C   UNL     1      -8.605   6.815  66.103  1.00  0.00    -0.143 C  
HETATM   16  C   UNL     1      -8.148   5.989  64.937  1.00  0.00    -0.133 C  
HETATM   17  O   UNL     1      -9.947   6.811  66.172  1.00  0.00    -0.416 OA 
HETATM   18  H   UNL     1     -10.395   6.293  65.514  1.00  0.00     0.000 HD 
ENDBRANCH  13  15
ENDBRANCH   9  13
ENDBRANCH   1   2
BRANCH   1  19
HETATM   19  C   UNL     1     -11.515  12.747  68.689  1.00  0.00    -0.341 A  
HETATM   20  C   UNL     1     -11.709  14.080  69.071  1.00  0.00    -0.368 A  
HETATM   21  C   UNL     1     -12.731  13.389  71.165  1.00  0.00    -0.328 A  
HETATM   22  C   UNL     1     -11.837  11.734  69.625  1.00  0.00    -0.407 A  
HETATM   23  C   UNL     1     -12.316  14.397  70.290  1.00  0.00    -0.410 A  
HETATM   24  C   UNL     1     -12.446  12.045  70.854  1.00  0.00    -0.288 A  
BRANCH  24  25
HETATM   25  O   UNL     1     -12.849  11.126  71.792  1.00  0.00    -0.422 OA 
BRANCH  25  26
HETATM   26  C   UNL     1     -13.399   9.887  71.355  1.00  0.00    -0.365 C  
HETATM   27  C   UNL     1     -12.642   8.760  72.043  1.00  0.00    -0.447 C  
ENDBRANCH  25  26
ENDBRANCH  24  25
BRANCH  21  28
HETATM   28  O   UNL     1     -13.425  13.617  72.329  1.00  0.00    -0.459 OA 
HETATM   29  C   UNL     1     -12.950  14.653  73.180  1.00  0.00    -0.500 C  
ENDBRANCH  21  28
ENDBRANCH   1  19
BRANCH   1  30
HETATM   30  C   UNL     1     -11.306  13.647  66.374  1.00  0.00    -0.316 C  
BRANCH  30  31
HETATM   31  S   UNL     1     -12.014  13.418  64.763  1.00  0.00    -0.414 S  
HETATM   32  O   UNL     1     -13.075  12.440  64.916  1.00  0.00    -0.765 OA 
HETATM   33  C   UNL     1     -10.771  12.653  63.748  1.00  0.00    -0.417 C  
HETATM   34  O   UNL     1     -12.296  14.719  64.194  1.00  0.00    -0.669 OA 
ENDBRANCH  30  31
ENDBRANCH   1  30
TORSDOF 9
ENDMDL
MODEL       27
REMARK 921   NORMALIZED FREE ENERGY PREDICTED BY IDOCK:   -6.61 KCAL/MOL
REMARK 922        TOTAL FREE ENERGY PREDICTED BY IDOCK:  -11.15 KCAL/MOL
REMARK 923 INTER-LIGAND FREE ENERGY PREDICTED BY IDOCK:   -9.36 KCAL/MOL
REMARK 924 INTRA-LIGAND FREE ENERGY PREDICTED BY IDOCK:   -1.79 KCAL/MOL
REMARK 927      BINDING AFFINITY PREDICTED BY RF-SCORE:    0.00 PKD
ROOT
HETATM    1  C   UNL     1     -10.833  13.555  67.902  1.00  0.00    -0.247 C  
ENDROOT
BRANCH   1   2
HETATM    2  N   UNL     1     -10.327  12.712  66.806  1.00  0.00    -0.233 N  
HETATM    3  C   UNL     1     -10.459  11.707  63.350  1.00  0.00    -0.482 A  
HETATM    4  C   UNL     1      -9.765  10.685  62.725  1.00  0.00    -0.279 A  
HETATM    5  O   UNL     1      -8.584  11.473  67.729  1.00  0.00    -0.130 OA 
HETATM    6  C   UNL     1      -8.769   9.982  63.427  1.00  0.00    -0.226 A  
HETATM    7  C   UNL     1     -10.799  12.915  65.543  1.00  0.00    -0.274 C  
HETATM    8  C   UNL     1      -9.285  11.800  66.791  1.00  0.00    -0.194 C  
HETATM    9  C   UNL     1      -8.394  10.303  64.753  1.00  0.00    -0.172 A  
HETATM   10  C   UNL     1      -9.172  11.275  65.393  1.00  0.00    -0.202 A  
HETATM   11  C   UNL     1     -10.149  11.956  64.670  1.00  0.00    -0.301 A  
HETATM   12  O   UNL     1     -11.595  13.752  65.154  1.00  0.00    -0.315 OA 
BRANCH   9  13
HETATM   13  N   UNL     1      -7.358   9.609  65.410  1.00  0.00    -0.103 NA 
HETATM   14  H   UNL     1      -6.419  10.000  65.336  1.00  0.00     0.000 HD 
BRANCH  13  15
HETATM   15  C   UNL     1      -7.491   8.521  66.097  1.00  0.00    -0.089 C  
HETATM   16  C   UNL     1      -7.526   7.062  65.745  1.00  0.00    -0.081 C  
HETATM   17  O   UNL     1      -7.667   8.679  67.420  1.00  0.00    -0.096 OA 
HETATM   18  H   UNL     1      -7.765   7.881  67.925  1.00  0.00     0.000 HD 
ENDBRANCH  13  15
ENDBRANCH   9  13
ENDBRANCH   1   2
BRANCH   1  19
HETATM   19  C   UNL     1     -11.713  12.821  68.932  1.00  0.00    -0.370 A  
HETATM   20  C   UNL     1     -11.806  11.424  68.927  1.00  0.00    -0.413 A  
HETATM   21  C   UNL     1     -12.790  11.429  71.150  1.00  0.00    -0.341 A  
HETATM   22  C   UNL     1     -12.278  13.522  70.024  1.00  0.00    -0.381 A  
HETATM   23  C   UNL     1     -12.331  10.737  70.026  1.00  0.00    -0.371 A  
HETATM   24  C   UNL     1     -12.810  12.837  71.132  1.00  0.00    -0.226 A  
BRANCH  24  25
HETATM   25  O   UNL     1     -13.320  13.433  72.260  1.00  0.00    -0.486 OA 
BRANCH  25  26
HETATM   26  C   UNL     1     -14.307  14.449  72.119  1.00  0.00    -0.519 C  
HETATM   27  C   UNL     1     -13.755  15.737  72.714  1.00  0.00    -0.639 C  
ENDBRANCH  25  26
ENDBRANCH  24  25
BRANCH  21  28
HETATM   28  O   UNL     1     -13.222  10.822  72.304  1.00  0.00    -0.402 OA 
HETATM   29  C   UNL     1     -13.348   9.406  72.291  1.00  0.00    -0.461 C  
ENDBRANCH  21  28
ENDBRANCH   1  19
BRANCH   1  30
HETATM   30  C   UNL     1      -9.803  14.399  68.653  1.00  0.00    -0.231 C  
BRANCH  30  31
HETATM   31  S   UNL     1      -9.509  16.022  68.000  1.00  0.00    -0.208 S  
HETATM   32  O   UNL     1     -10.803  16.547  67.607  1.00  0.00    -0.326 OA 
HETATM   33  C   UNL     1      -8.573  15.822  66.501  1.00  0.00    -0.308 C  
HETATM   34  O   UNL     1      -8.677  16.752  68.934  1.00  0.00    -0.255 OA 
ENDBRANCH  30  31
ENDBRANCH   1  30
TORSDOF 9
ENDMDL
MODEL       28
REMARK 921   NORMALIZED FREE ENERGY PREDICTED BY IDOCK:   -6.56 KCAL/MOL
REMARK 922        TOTAL FREE ENERGY PREDICTED BY IDOCK:  -11.06 KCAL/MOL
REMARK 923 INTER-LIGAND FREE ENERGY PREDICTED BY IDOCK:   -9.70 KCAL/MOL
REMARK 924 INTRA-LIGAND FREE ENERGY PREDICTED BY IDOCK:   -1.36 KCAL/MOL
REMARK 927      BINDING AFFINITY PREDICTED BY RF-SCORE:    0.00 PKD
ROOT
HETATM    1  C   UNL     1     -10.926  13.687  67.439  1.00  0.00    -0.276 C  
ENDROOT
BRANCH   1   2
HETATM    2  N   UNL     1      -9.787  14.486  67.922  1.00  0.00    -0.219 N  
HETATM    3  C   UNL     1      -8.298  17.706  68.539  1.00  0.00    -0.291 A  
HETATM    4  C   UNL     1      -7.013  17.992  68.969  1.00  0.00    -0.252 A  
HETATM    5  O   UNL     1      -8.225  12.940  68.694  1.00  0.00    -0.099 OA 
HETATM    6  C   UNL     1      -6.155  16.946  69.357  1.00  0.00    -0.218 A  
HETATM    7  C   UNL     1      -9.911  15.842  67.987  1.00  0.00    -0.220 C  
HETATM    8  C   UNL     1      -8.596  14.082  68.502  1.00  0.00    -0.147 C  
HETATM    9  C   UNL     1      -6.560  15.590  69.379  1.00  0.00    -0.158 A  
HETATM   10  C   UNL     1      -7.830  15.319  68.853  1.00  0.00    -0.165 A  
HETATM   11  C   UNL     1      -8.656  16.377  68.480  1.00  0.00    -0.223 A  
HETATM   12  O   UNL     1     -10.882  16.531  67.723  1.00  0.00    -0.341 OA 
BRANCH   9  13
HETATM   13  N   UNL     1      -5.690  14.572  69.820  1.00  0.00    -0.098 NA 
HETATM   14  H   UNL     1      -4.881  14.367  69.235  1.00  0.00     0.000 HD 
BRANCH  13  15
HETATM   15  C   UNL     1      -5.827  13.875  70.901  1.00  0.00    -0.199 C  
HETATM   16  C   UNL     1      -5.471  14.103  72.342  1.00  0.00    -0.190 C  
HETATM   17  O   UNL     1      -6.382  12.660  70.751  1.00  0.00    -0.499 OA 
HETATM   18  H   UNL     1      -6.482  12.148  71.545  1.00  0.00     0.000 HD 
ENDBRANCH  13  15
ENDBRANCH   9  13
ENDBRANCH   1   2
BRANCH   1  19
HETATM   19  C   UNL     1     -11.712  12.949  68.540  1.00  0.00    -0.374 A  
HETATM   20  C   UNL     1     -11.598  11.562  68.693  1.00  0.00    -0.375 A  
HETATM   21  C   UNL     1     -12.626  11.667  70.893  1.00  0.00    -0.313 A  
HETATM   22  C   UNL     1     -12.401  13.675  69.541  1.00  0.00    -0.232 A  
HETATM   23  C   UNL     1     -12.043  10.931  69.858  1.00  0.00    -0.428 A  
HETATM   24  C   UNL     1     -12.853  13.046  70.716  1.00  0.00    -0.074 A  
BRANCH  24  25
HETATM   25  O   UNL     1     -13.472  13.680  71.765  1.00  0.00    -0.374 OA 
BRANCH  25  26
HETATM   26  C   UNL     1     -13.220  15.065  71.982  1.00  0.00    -0.364 C  
HETATM   27  C   UNL     1     -12.278  15.197  73.171  1.00  0.00    -0.521 C  
ENDBRANCH  25  26
ENDBRANCH  24  25
BRANCH  21  28
HETATM   28  O   UNL     1     -12.992  11.135  72.106  1.00  0.00    -0.399 OA 
HETATM   29  C   UNL     1     -13.356   9.760  72.134  1.00  0.00    -0.431 C  
ENDBRANCH  21  28
ENDBRANCH   1  19
BRANCH   1  30
HETATM   30  C   UNL     1     -11.922  14.396  66.520  1.00  0.00    -0.386 C  
BRANCH  30  31
HETATM   31  S   UNL     1     -11.483  14.451  64.802  1.00  0.00    -0.405 S  
HETATM   32  O   UNL     1     -12.666  14.051  64.063  1.00  0.00    -0.654 OA 
HETATM   33  C   UNL     1     -10.269  13.181  64.531  1.00  0.00    -0.311 C  
HETATM   34  O   UNL     1     -10.847  15.723  64.529  1.00  0.00    -0.467 OA 
ENDBRANCH  30  31
ENDBRANCH   1  30
TORSDOF 9
ENDMDL
MODEL       29
REMARK 921   NORMALIZED FREE ENERGY PREDICTED BY IDOCK:   -6.50 KCAL/MOL
REMARK 922        TOTAL FREE ENERGY PREDICTED BY IDOCK:  -10.98 KCAL/MOL
REMARK 923 INTER-LIGAND FREE ENERGY PREDICTED BY IDOCK:   -9.59 KCAL/MOL
REMARK 924 INTRA-LIGAND FREE ENERGY PREDICTED BY IDOCK:   -1.39 KCAL/MOL
REMARK 927      BINDING AFFINITY PREDICTED BY RF-SCORE:    0.00 PKD
ROOT
HETATM    1  C   UNL     1      -9.503  11.000  68.651  1.00  0.00    -0.195 C  
ENDROOT
BRANCH   1   2
HETATM    2  N   UNL     1      -9.784  12.170  67.804  1.00  0.00    -0.192 N  
HETATM    3  C   UNL     1      -8.888  15.474  66.682  1.00  0.00    -0.325 A  
HETATM    4  C   UNL     1      -9.593  16.317  65.841  1.00  0.00    -0.336 A  
HETATM    5  O   UNL     1     -11.676  11.606  66.568  1.00  0.00    -0.498 OA 
HETATM    6  C   UNL     1     -10.756  15.855  65.199  1.00  0.00    -0.449 A  
HETATM    7  C   UNL     1      -8.881  13.192  67.768  1.00  0.00    -0.191 C  
HETATM    8  C   UNL     1     -10.777  12.372  66.861  1.00  0.00    -0.240 C  
HETATM    9  C   UNL     1     -11.229  14.527  65.331  1.00  0.00    -0.342 A  
HETATM   10  C   UNL     1     -10.552  13.724  66.257  1.00  0.00    -0.289 A  
HETATM   11  C   UNL     1      -9.401  14.210  66.874  1.00  0.00    -0.274 A  
HETATM   12  O   UNL     1      -7.805  13.278  68.335  1.00  0.00    -0.132 OA 
BRANCH   9  13
HETATM   13  N   UNL     1     -12.371  14.083  64.634  1.00  0.00    -0.573 NA 
HETATM   14  H   UNL     1     -13.272  14.454  64.936  1.00  0.00     0.000 HD 
BRANCH  13  15
HETATM   15  C   UNL     1     -12.378  13.247  63.647  1.00  0.00    -0.382 C  
HETATM   16  C   UNL     1     -12.191  11.762  63.536  1.00  0.00    -0.489 C  
HETATM   17  O   UNL     1     -12.565  13.780  62.427  1.00  0.00    -0.291 OA 
HETATM   18  H   UNL     1     -12.570  13.166  61.702  1.00  0.00     0.000 HD 
ENDBRANCH  13  15
ENDBRANCH   9  13
ENDBRANCH   1   2
BRANCH   1  19
HETATM   19  C   UNL     1     -10.690  10.518  69.506  1.00  0.00    -0.291 A  
HETATM   20  C   UNL     1     -10.832   9.166  69.838  1.00  0.00    -0.242 A  
HETATM   21  C   UNL     1     -12.466   9.703  71.555  1.00  0.00    -0.386 A  
HETATM   22  C   UNL     1     -11.544  11.453  70.141  1.00  0.00    -0.368 A  
HETATM   23  C   UNL     1     -11.703   8.765  70.855  1.00  0.00    -0.299 A  
HETATM   24  C   UNL     1     -12.424  11.056  71.164  1.00  0.00    -0.397 A  
BRANCH  24  25
HETATM   25  O   UNL     1     -13.241  11.900  71.877  1.00  0.00    -0.482 OA 
BRANCH  25  26
HETATM   26  C   UNL     1     -13.358  13.259  71.467  1.00  0.00    -0.249 C  
HETATM   27  C   UNL     1     -13.156  14.145  72.688  1.00  0.00    -0.564 C  
ENDBRANCH  25  26
ENDBRANCH  24  25
BRANCH  21  28
HETATM   28  O   UNL     1     -13.264   9.399  72.632  1.00  0.00    -0.378 OA 
HETATM   29  C   UNL     1     -14.341   8.496  72.412  1.00  0.00    -0.320 C  
ENDBRANCH  21  28
ENDBRANCH   1  19
BRANCH   1  30
HETATM   30  C   UNL     1      -8.875   9.787  67.961  1.00  0.00    -0.119 C  
BRANCH  30  31
HETATM   31  S   UNL     1      -7.123   9.872  67.695  1.00  0.00    -0.088 S  
HETATM   32  O   UNL     1      -6.935  10.481  66.391  1.00  0.00    -0.108 OA 
HETATM   33  C   UNL     1      -6.532   8.201  67.558  1.00  0.00    -0.057 C  
HETATM   34  O   UNL     1      -6.505  10.454  68.868  1.00  0.00    -0.050 OA 
ENDBRANCH  30  31
ENDBRANCH   1  30
TORSDOF 9
ENDMDL
MODEL       30
REMARK 921   NORMALIZED FREE ENERGY PREDICTED BY IDOCK:   -6.50 KCAL/MOL
REMARK 922        TOTAL FREE ENERGY PREDICTED BY IDOCK:  -10.97 KCAL/MOL
REMARK 923 INTER-LIGAND FREE ENERGY PREDICTED BY IDOCK:   -9.86 KCAL/MOL
REMARK 924 INTRA-LIGAND FREE ENERGY PREDICTED BY IDOCK:   -1.11 KCAL/MOL
REMARK 927      BINDING AFFINITY PREDICTED BY RF-SCORE:    0.00 PKD
ROOT
HETATM    1  C   UNL     1     -10.839  12.151  67.066  1.00  0.00    -0.247 C  
ENDROOT
BRANCH   1   2
HETATM    2  N   UNL     1     -10.717  11.301  68.261  1.00  0.00    -0.182 N  
HETATM    3  C   UNL     1      -8.723   9.131  70.332  1.00  0.00    -0.245 A  
HETATM    4  C   UNL     1      -9.115   8.402  71.442  1.00  0.00    -0.240 A  
HETATM    5  O   UNL     1     -12.762  11.472  69.361  1.00  0.00    -0.026 OA 
HETATM    6  C   UNL     1     -10.408   8.571  71.970  1.00  0.00    -0.408 A  
HETATM    7  C   UNL     1      -9.501  10.766  68.570  1.00  0.00    -0.181 C  
HETATM    8  C   UNL     1     -11.624  11.053  69.277  1.00  0.00    -0.314 C  
HETATM    9  C   UNL     1     -11.335   9.503  71.445  1.00  0.00    -0.392 A  
HETATM   10  C   UNL     1     -10.949  10.158  70.270  1.00  0.00    -0.380 A  
HETATM   11  C   UNL     1      -9.660   9.973  69.774  1.00  0.00    -0.249 A  
HETATM   12  O   UNL     1      -8.436  10.916  67.996  1.00  0.00    -0.123 OA 
BRANCH   9  13
HETATM   13  N   UNL     1     -12.606   9.680  72.029  1.00  0.00    -0.377 NA 
HETATM   14  H   UNL     1     -12.854  10.625  72.323  1.00  0.00     0.000 HD 
BRANCH  13  15
HETATM   15  C   UNL     1     -13.485   8.752  72.226  1.00  0.00    -0.420 C  
HETATM   16  C   UNL     1     -13.884   7.516  71.474  1.00  0.00    -0.487 C  
HETATM   17  O   UNL     1     -14.256   8.894  73.319  1.00  0.00    -1.197 OA 
HETATM   18  H   UNL     1     -14.901   8.213  73.463  1.00  0.00     0.000 HD 
ENDBRANCH  13  15
ENDBRANCH   9  13
ENDBRANCH   1   2
BRANCH   1  19
HETATM   19  C   UNL     1     -10.552  13.646  67.301  1.00  0.00    -0.267 A  
HETATM   20  C   UNL     1     -11.552  14.500  67.781  1.00  0.00    -0.390 A  
HETATM   21  C   UNL     1      -9.909  16.206  68.326  1.00  0.00    -0.224 A  
HETATM   22  C   UNL     1      -9.228  14.143  67.235  1.00  0.00    -0.222 A  
HETATM   23  C   UNL     1     -11.233  15.762  68.294  1.00  0.00    -0.356 A  
HETATM   24  C   UNL     1      -8.900  15.412  67.747  1.00  0.00    -0.168 A  
BRANCH  24  25
HETATM   25  O   UNL     1      -7.636  15.948  67.782  1.00  0.00    -0.127 OA 
BRANCH  25  26
HETATM   26  C   UNL     1      -7.103  16.542  66.602  1.00  0.00    -0.185 C  
HETATM   27  C   UNL     1      -6.224  17.715  67.013  1.00  0.00    -0.185 C  
ENDBRANCH  25  26
ENDBRANCH  24  25
BRANCH  21  28
HETATM   28  O   UNL     1      -9.506  17.385  68.905  1.00  0.00    -0.264 OA 
HETATM   29  C   UNL     1     -10.017  18.592  68.355  1.00  0.00    -0.387 C  
ENDBRANCH  21  28
ENDBRANCH   1  19
BRANCH   1  30
HETATM   30  C   UNL     1     -10.078  11.699  65.819  1.00  0.00    -0.240 C  
BRANCH  30  31
HETATM   31  S   UNL     1     -10.788  12.175  64.265  1.00  0.00    -0.376 S  
HETATM   32  O   UNL     1     -10.211  13.462  63.926  1.00  0.00    -0.252 OA 
HETATM   33  C   UNL     1     -12.520  12.460  64.546  1.00  0.00    -0.435 C  
HETATM   34  O   UNL     1     -10.677  11.061  63.346  1.00  0.00    -0.318 OA 
ENDBRANCH  30  31
ENDBRANCH   1  30
TORSDOF 9
ENDMDL
MODEL       31
REMARK 921   NORMALIZED FREE ENERGY PREDICTED BY IDOCK:   -6.42 KCAL/MOL
REMARK 922        TOTAL FREE ENERGY PREDICTED BY IDOCK:  -10.85 KCAL/MOL
REMARK 923 INTER-LIGAND FREE ENERGY PREDICTED BY IDOCK:   -9.39 KCAL/MOL
REMARK 924 INTRA-LIGAND FREE ENERGY PREDICTED BY IDOCK:   -1.46 KCAL/MOL
REMARK 927      BINDING AFFINITY PREDICTED BY RF-SCORE:    0.00 PKD
ROOT
HETATM    1  C   UNL     1     -10.499  12.467  67.507  1.00  0.00    -0.215 C  
ENDROOT
BRANCH   1   2
HETATM    2  N   UNL     1     -10.367  11.461  68.574  1.00  0.00    -0.199 N  
HETATM    3  C   UNL     1     -11.903   9.358  71.062  1.00  0.00    -0.396 A  
HETATM    4  C   UNL     1     -11.288   8.552  72.005  1.00  0.00    -0.425 A  
HETATM    5  O   UNL     1      -8.096  10.953  68.672  1.00  0.00    -0.127 OA 
HETATM    6  C   UNL     1      -9.892   8.378  71.975  1.00  0.00    -0.354 A  
HETATM    7  C   UNL     1     -11.495  10.934  69.130  1.00  0.00    -0.303 C  
HETATM    8  C   UNL     1      -9.245  10.797  69.039  1.00  0.00    -0.146 C  
HETATM    9  C   UNL     1      -9.068   8.956  70.980  1.00  0.00    -0.243 A  
HETATM   10  C   UNL     1      -9.700   9.839  70.096  1.00  0.00    -0.299 A  
HETATM   11  C   UNL     1     -11.084   9.987  70.149  1.00  0.00    -0.371 A  
HETATM   12  O   UNL     1     -12.659  11.156  68.844  1.00  0.00    -0.358 OA 
BRANCH   9  13
HETATM   13  N   UNL     1      -7.679   8.720  70.952  1.00  0.00    -0.096 NA 
HETATM   14  H   UNL     1      -7.181   8.980  70.100  1.00  0.00     0.000 HD 
BRANCH  13  15
HETATM   15  C   UNL     1      -6.978   8.204  71.909  1.00  0.00    -0.079 C  
HETATM   16  C   UNL     1      -6.501   6.816  72.222  1.00  0.00    -0.057 C  
HETATM   17  O   UNL     1      -6.591   9.053  72.877  1.00  0.00    -0.316 OA 
HETATM   18  H   UNL     1      -6.077   8.674  73.581  1.00  0.00     0.000 HD 
ENDBRANCH  13  15
ENDBRANCH   9  13
ENDBRANCH   1   2
BRANCH   1  19
HETATM   19  C   UNL     1     -10.198  13.914  67.939  1.00  0.00    -0.241 A  
HETATM   20  C   UNL     1      -9.503  14.784  67.091  1.00  0.00    -0.233 A  
HETATM   21  C   UNL     1     -10.176  16.704  68.421  1.00  0.00    -0.284 A  
HETATM   22  C   UNL     1     -10.790  14.454  69.106  1.00  0.00    -0.275 A  
HETATM   23  C   UNL     1      -9.498  16.163  67.325  1.00  0.00    -0.231 A  
HETATM   24  C   UNL     1     -10.788  15.840  69.350  1.00  0.00    -0.269 A  
BRANCH  24  25
HETATM   25  O   UNL     1     -11.390  16.456  70.419  1.00  0.00    -0.349 OA 
BRANCH  25  26
HETATM   26  C   UNL     1     -11.697  15.687  71.578  1.00  0.00    -0.433 C  
HETATM   27  C   UNL     1     -13.212  15.599  71.705  1.00  0.00    -0.554 C  
ENDBRANCH  25  26
ENDBRANCH  24  25
BRANCH  21  28
HETATM   28  O   UNL     1     -10.303  18.052  68.659  1.00  0.00    -0.369 OA 
HETATM   29  C   UNL     1     -10.552  18.893  67.540  1.00  0.00    -0.451 C  
ENDBRANCH  21  28
ENDBRANCH   1  19
BRANCH   1  30
HETATM   30  C   UNL     1      -9.758  12.184  66.199  1.00  0.00    -0.240 C  
BRANCH  30  31
HETATM   31  S   UNL     1     -10.741  12.257  64.723  1.00  0.00    -0.316 S  
HETATM   32  O   UNL     1     -10.283  13.417  63.982  1.00  0.00    -0.336 OA 
HETATM   33  C   UNL     1     -12.410  12.608  65.222  1.00  0.00    -0.466 C  
HETATM   34  O   UNL     1     -10.741  10.948  64.104  1.00  0.00    -0.362 OA 
ENDBRANCH  30  31
ENDBRANCH   1  30
TORSDOF 9
ENDMDL
MODEL       32
REMARK 921   NORMALIZED FREE ENERGY PREDICTED BY IDOCK:   -6.41 KCAL/MOL
REMARK 922        TOTAL FREE ENERGY PREDICTED BY IDOCK:  -10.83 KCAL/MOL
REMARK 923 INTER-LIGAND FREE ENERGY PREDICTED BY IDOCK:   -9.56 KCAL/MOL
REMARK 924 INTRA-LIGAND FREE ENERGY PREDICTED BY IDOCK:   -1.28 KCAL/MOL
REMARK 927      BINDING AFFINITY PREDICTED BY RF-SCORE:    0.00 PKD
ROOT
HETATM    1  C   UNL     1     -11.101  13.884  66.424  1.00  0.00    -0.309 C  
ENDROOT
BRANCH   1   2
HETATM    2  N   UNL     1     -11.158  12.748  67.360  1.00  0.00    -0.263 N  
HETATM    3  C   UNL     1     -12.135  11.410  70.558  1.00  0.00    -0.487 A  
HETATM    4  C   UNL     1     -11.859  10.162  71.088  1.00  0.00    -0.472 A  
HETATM    5  O   UNL     1     -10.210  10.953  66.219  1.00  0.00    -0.232 OA 
HETATM    6  C   UNL     1     -11.229   9.186  70.294  1.00  0.00    -0.249 A  
HETATM    7  C   UNL     1     -11.842  12.890  68.531  1.00  0.00    -0.313 C  
HETATM    8  C   UNL     1     -10.753  11.434  67.194  1.00  0.00    -0.249 C  
HETATM    9  C   UNL     1     -10.900   9.400  68.934  1.00  0.00    -0.123 A  
HETATM   10  C   UNL     1     -11.104  10.698  68.449  1.00  0.00    -0.328 A  
HETATM   11  C   UNL     1     -11.733  11.641  69.260  1.00  0.00    -0.396 A  
HETATM   12  O   UNL     1     -12.474  13.853  68.931  1.00  0.00    -0.188 OA 
BRANCH   9  13
HETATM   13  N   UNL     1     -10.314   8.383  68.153  1.00  0.00    -0.234 NA 
HETATM   14  H   UNL     1      -9.453   8.615  67.659  1.00  0.00     0.000 HD 
BRANCH  13  15
HETATM   15  C   UNL     1     -10.772   7.182  68.007  1.00  0.00    -0.171 C  
HETATM   16  C   UNL     1     -10.828   5.972  68.893  1.00  0.00    -0.400 C  
HETATM   17  O   UNL     1     -11.300   6.896  66.804  1.00  0.00    -0.661 OA 
HETATM   18  H   UNL     1     -11.636   6.014  66.697  1.00  0.00     0.000 HD 
ENDBRANCH  13  15
ENDBRANCH   9  13
ENDBRANCH   1   2
BRANCH   1  19
HETATM   19  C   UNL     1     -10.151  15.022  66.843  1.00  0.00    -0.249 A  
HETATM   20  C   UNL     1     -10.655  16.256  67.267  1.00  0.00    -0.298 A  
HETATM   21  C   UNL     1      -8.496  16.882  68.192  1.00  0.00    -0.217 A  
HETATM   22  C   UNL     1      -8.765  14.778  67.003  1.00  0.00    -0.258 A  
HETATM   23  C   UNL     1      -9.839  17.172  67.940  1.00  0.00    -0.283 A  
HETATM   24  C   UNL     1      -7.938  15.696  67.677  1.00  0.00    -0.153 A  
BRANCH  24  25
HETATM   25  O   UNL     1      -6.601  15.515  67.933  1.00  0.00    -0.130 OA 
BRANCH  25  26
HETATM   26  C   UNL     1      -6.178  14.331  68.602  1.00  0.00    -0.088 C  
HETATM   27  C   UNL     1      -6.127  14.619  70.096  1.00  0.00    -0.158 C  
ENDBRANCH  25  26
ENDBRANCH  24  25
BRANCH  21  28
HETATM   28  O   UNL     1      -7.662  17.683  68.934  1.00  0.00    -0.267 OA 
HETATM   29  C   UNL     1      -7.758  19.088  68.737  1.00  0.00    -0.347 C  
ENDBRANCH  21  28
ENDBRANCH   1  19
BRANCH   1  30
HETATM   30  C   UNL     1     -10.846  13.551  64.954  1.00  0.00    -0.362 C  
BRANCH  30  31
HETATM   31  S   UNL     1     -12.266  13.046  64.018  1.00  0.00    -0.411 S  
HETATM   32  O   UNL     1     -13.275  12.653  64.983  1.00  0.00    -0.753 OA 
HETATM   33  C   UNL     1     -11.815  11.571  63.135  1.00  0.00     0.139 C  
HETATM   34  O   UNL     1     -12.556  14.068  63.033  1.00  0.00    -0.643 OA 
ENDBRANCH  30  31
ENDBRANCH   1  30
TORSDOF 9
ENDMDL
MODEL       33
REMARK 921   NORMALIZED FREE ENERGY PREDICTED BY IDOCK:   -6.33 KCAL/MOL
REMARK 922        TOTAL FREE ENERGY PREDICTED BY IDOCK:  -10.72 KCAL/MOL
REMARK 923 INTER-LIGAND FREE ENERGY PREDICTED BY IDOCK:   -9.07 KCAL/MOL
REMARK 924 INTRA-LIGAND FREE ENERGY PREDICTED BY IDOCK:   -1.65 KCAL/MOL
REMARK 927      BINDING AFFINITY PREDICTED BY RF-SCORE:    0.00 PKD
ROOT
HETATM    1  C   UNL     1     -10.683  14.312  66.895  1.00  0.00    -0.290 C  
ENDROOT
BRANCH   1   2
HETATM    2  N   UNL     1      -9.433  15.090  66.897  1.00  0.00    -0.227 N  
HETATM    3  C   UNL     1      -5.971  15.392  67.841  1.00  0.00    -0.165 A  
HETATM    4  C   UNL     1      -5.128  16.479  67.683  1.00  0.00    -0.148 A  
HETATM    5  O   UNL     1      -9.896  17.016  65.673  1.00  0.00    -0.547 OA 
HETATM    6  C   UNL     1      -5.564  17.605  66.960  1.00  0.00    -0.169 A  
HETATM    7  C   UNL     1      -8.302  14.522  67.407  1.00  0.00    -0.200 C  
HETATM    8  C   UNL     1      -9.137  16.304  66.303  1.00  0.00    -0.331 C  
HETATM    9  C   UNL     1      -6.828  17.667  66.327  1.00  0.00    -0.287 A  
HETATM   10  C   UNL     1      -7.695  16.596  66.579  1.00  0.00    -0.337 A  
HETATM   11  C   UNL     1      -7.232  15.495  67.297  1.00  0.00    -0.242 A  
HETATM   12  O   UNL     1      -8.151  13.399  67.857  1.00  0.00    -0.135 OA 
BRANCH   9  13
HETATM   13  N   UNL     1      -7.213  18.791  65.569  1.00  0.00    -0.513 NA 
HETATM   14  H   UNL     1      -7.081  18.737  64.559  1.00  0.00     0.000 HD 
BRANCH  13  15
HETATM   15  C   UNL     1      -7.719  19.885  66.039  1.00  0.00    -0.325 C  
HETATM   16  C   UNL     1      -7.146  21.084  66.737  1.00  0.00    -0.240 C  
HETATM   17  O   UNL     1      -9.053  20.012  65.927  1.00  0.00    -0.495 OA 
HETATM   18  H   UNL     1      -9.424  20.815  66.272  1.00  0.00     0.000 HD 
ENDBRANCH  13  15
ENDBRANCH   9  13
ENDBRANCH   1   2
BRANCH   1  19
HETATM   19  C   UNL     1     -10.731  13.164  65.868  1.00  0.00    -0.287 A  
HETATM   20  C   UNL     1     -10.733  13.433  64.494  1.00  0.00    -0.434 A  
HETATM   21  C   UNL     1     -10.191  11.119  63.986  1.00  0.00    -0.361 A  
HETATM   22  C   UNL     1     -10.567  11.821  66.283  1.00  0.00    -0.292 A  
HETATM   23  C   UNL     1     -10.459  12.424  63.565  1.00  0.00    -0.430 A  
HETATM   24  C   UNL     1     -10.293  10.800  65.354  1.00  0.00    -0.247 A  
BRANCH  24  25
HETATM   25  O   UNL     1     -10.058   9.484  65.671  1.00  0.00    -0.285 OA 
BRANCH  25  26
HETATM   26  C   UNL     1      -9.762   9.140  67.021  1.00  0.00    -0.188 C  
HETATM   27  C   UNL     1      -8.918   7.873  67.016  1.00  0.00    -0.145 C  
ENDBRANCH  25  26
ENDBRANCH  24  25
BRANCH  21  28
HETATM   28  O   UNL     1      -9.813  10.101  63.144  1.00  0.00    -0.183 OA 
HETATM   29  C   UNL     1      -8.591  10.258  62.435  1.00  0.00    -0.200 C  
ENDBRANCH  21  28
ENDBRANCH   1  19
BRANCH   1  30
HETATM   30  C   UNL     1     -11.163  13.778  68.245  1.00  0.00    -0.273 C  
BRANCH  30  31
HETATM   31  S   UNL     1     -11.485  15.002  69.489  1.00  0.00    -0.315 S  
HETATM   32  O   UNL     1     -10.238  15.199  70.203  1.00  0.00    -0.202 OA 
HETATM   33  C   UNL     1     -12.620  14.281  70.651  1.00  0.00    -0.355 C  
HETATM   34  O   UNL     1     -12.156  16.125  68.868  1.00  0.00    -0.219 OA 
ENDBRANCH  30  31
ENDBRANCH   1  30
TORSDOF 9
ENDMDL
MODEL       34
REMARK 921   NORMALIZED FREE ENERGY PREDICTED BY IDOCK:   -6.33 KCAL/MOL
REMARK 922        TOTAL FREE ENERGY PREDICTED BY IDOCK:  -10.71 KCAL/MOL
REMARK 923 INTER-LIGAND FREE ENERGY PREDICTED BY IDOCK:   -8.94 KCAL/MOL
REMARK 924 INTRA-LIGAND FREE ENERGY PREDICTED BY IDOCK:   -1.77 KCAL/MOL
REMARK 927      BINDING AFFINITY PREDICTED BY RF-SCORE:    0.00 PKD
ROOT
HETATM    1  C   UNL     1     -10.909  12.752  66.956  1.00  0.00    -0.257 C  
ENDROOT
BRANCH   1   2
HETATM    2  N   UNL     1     -11.546  12.750  68.283  1.00  0.00    -0.312 N  
HETATM    3  C   UNL     1     -12.738  14.570  71.154  1.00  0.00    -0.408 A  
HETATM    4  C   UNL     1     -13.239  14.069  72.343  1.00  0.00    -0.585 A  
HETATM    5  O   UNL     1     -12.078  10.525  68.716  1.00  0.00    -0.306 OA 
HETATM    6  C   UNL     1     -13.462  12.687  72.482  1.00  0.00    -0.281 A  
HETATM    7  C   UNL     1     -11.839  13.942  68.878  1.00  0.00    -0.358 C  
HETATM    8  C   UNL     1     -12.075  11.703  69.018  1.00  0.00    -0.225 C  
HETATM    9  C   UNL     1     -13.243  11.765  71.431  1.00  0.00    -0.097 A  
HETATM   10  C   UNL     1     -12.650  12.283  70.273  1.00  0.00    -0.033 A  
HETATM   11  C   UNL     1     -12.445  13.657  70.165  1.00  0.00    -0.305 A  
HETATM   12  O   UNL     1     -11.675  15.069  68.443  1.00  0.00    -0.324 OA 
BRANCH   9  13
HETATM   13  N   UNL     1     -13.524  10.392  71.589  1.00  0.00    -0.290 NA 
HETATM   14  H   UNL     1     -14.424  10.060  71.244  1.00  0.00     0.000 HD 
BRANCH  13  15
HETATM   15  C   UNL     1     -12.741   9.517  72.132  1.00  0.00    -0.362 C  
HETATM   16  C   UNL     1     -11.343   9.050  71.849  1.00  0.00    -0.438 C  
HETATM   17  O   UNL     1     -13.256   8.828  73.165  1.00  0.00    -0.866 OA 
HETATM   18  H   UNL     1     -12.681   8.186  73.564  1.00  0.00     0.000 HD 
ENDBRANCH  13  15
ENDBRANCH   9  13
ENDBRANCH   1   2
BRANCH   1  19
HETATM   19  C   UNL     1      -9.421  12.355  66.951  1.00  0.00    -0.219 A  
HETATM   20  C   UNL     1      -8.443  13.239  67.422  1.00  0.00    -0.206 A  
HETATM   21  C   UNL     1      -6.802  11.448  67.534  1.00  0.00    -0.086 A  
HETATM   22  C   UNL     1      -9.032  11.024  66.663  1.00  0.00    -0.176 A  
HETATM   23  C   UNL     1      -7.152  12.789  67.717  1.00  0.00    -0.132 A  
HETATM   24  C   UNL     1      -7.735  10.565  66.956  1.00  0.00    -0.110 A  
BRANCH  24  25
HETATM   25  O   UNL     1      -7.291   9.279  66.770  1.00  0.00    -0.085 OA 
BRANCH  25  26
HETATM   26  C   UNL     1      -8.245   8.235  66.603  1.00  0.00    -0.106 C  
HETATM   27  C   UNL     1      -7.655   7.196  65.658  1.00  0.00    -0.093 C  
ENDBRANCH  25  26
ENDBRANCH  24  25
BRANCH  21  28
HETATM   28  O   UNL     1      -5.591  10.912  67.897  1.00  0.00    -0.040 OA 
HETATM   29  C   UNL     1      -5.135  11.161  69.221  1.00  0.00    -0.044 C  
ENDBRANCH  21  28
ENDBRANCH   1  19
BRANCH   1  30
HETATM   30  C   UNL     1     -11.625  11.976  65.849  1.00  0.00    -0.300 C  
BRANCH  30  31
HETATM   31  S   UNL     1     -11.705  12.781  64.270  1.00  0.00    -0.415 S  
HETATM   32  O   UNL     1     -12.963  12.379  63.668  1.00  0.00    -0.758 OA 
HETATM   33  C   UNL     1     -10.420  12.082  63.260  1.00  0.00    -0.359 C  
HETATM   34  O   UNL     1     -11.398  14.184  64.452  1.00  0.00    -0.361 OA 
ENDBRANCH  30  31
ENDBRANCH   1  30
TORSDOF 9
ENDMDL
MODEL       35
REMARK 921   NORMALIZED FREE ENERGY PREDICTED BY IDOCK:   -6.31 KCAL/MOL
REMARK 922        TOTAL FREE ENERGY PREDICTED BY IDOCK:  -10.68 KCAL/MOL
REMARK 923 INTER-LIGAND FREE ENERGY PREDICTED BY IDOCK:  -10.54 KCAL/MOL
REMARK 924 INTRA-LIGAND FREE ENERGY PREDICTED BY IDOCK:   -0.14 KCAL/MOL
REMARK 927      BINDING AFFINITY PREDICTED BY RF-SCORE:    0.00 PKD
ROOT
HETATM    1  C   UNL     1     -12.492  12.938  70.215  1.00  0.00    -0.127 C  
ENDROOT
BRANCH   1   2
HETATM    2  N   UNL     1     -12.043  13.355  68.876  1.00  0.00    -0.309 N  
HETATM    3  C   UNL     1     -10.586  15.856  66.733  1.00  0.00    -0.309 A  
HETATM    4  C   UNL     1     -10.430  15.826  65.358  1.00  0.00    -0.438 A  
HETATM    5  O   UNL     1     -12.402  11.513  67.497  1.00  0.00    -0.202 OA 
HETATM    6  C   UNL     1     -10.738  14.653  64.644  1.00  0.00    -0.309 A  
HETATM    7  C   UNL     1     -11.403  14.551  68.736  1.00  0.00    -0.274 C  
HETATM    8  C   UNL     1     -12.010  12.649  67.686  1.00  0.00    -0.247 C  
HETATM    9  C   UNL     1     -11.163  13.460  65.275  1.00  0.00    -0.289 A  
HETATM   10  C   UNL     1     -11.402  13.545  66.652  1.00  0.00    -0.344 A  
HETATM   11  C   UNL     1     -11.083  14.719  67.331  1.00  0.00    -0.327 A  
HETATM   12  O   UNL     1     -11.101  15.358  69.599  1.00  0.00    -0.238 OA 
BRANCH   9  13
HETATM   13  N   UNL     1     -11.416  12.289  64.533  1.00  0.00    -0.327 NA 
HETATM   14  H   UNL     1     -12.357  12.171  64.158  1.00  0.00     0.000 HD 
BRANCH  13  15
HETATM   15  C   UNL     1     -10.562  11.349  64.285  1.00  0.00    -0.355 C  
HETATM   16  C   UNL     1      -9.871  10.318  65.129  1.00  0.00    -0.389 C  
HETATM   17  O   UNL     1     -10.150  11.251  63.009  1.00  0.00    -0.502 OA 
HETATM   18  H   UNL     1      -9.523  10.562  62.827  1.00  0.00     0.000 HD 
ENDBRANCH  13  15
ENDBRANCH   9  13
ENDBRANCH   1   2
BRANCH   1  19
HETATM   19  C   UNL     1     -12.035  11.530  70.642  1.00  0.00    -0.391 A  
HETATM   20  C   UNL     1     -12.830  10.744  71.484  1.00  0.00    -0.567 A  
HETATM   21  C   UNL     1     -11.543   8.757  70.934  1.00  0.00    -0.277 A  
HETATM   22  C   UNL     1     -10.909  10.924  70.034  1.00  0.00    -0.139 A  
HETATM   23  C   UNL     1     -12.592   9.373  71.622  1.00  0.00    -0.460 A  
HETATM   24  C   UNL     1     -10.661   9.546  70.170  1.00  0.00    -0.257 A  
BRANCH  24  25
HETATM   25  O   UNL     1      -9.633   8.863  69.567  1.00  0.00    -0.166 OA 
BRANCH  25  26
HETATM   26  C   UNL     1      -8.291   9.170  69.932  1.00  0.00    -0.144 C  
HETATM   27  C   UNL     1      -8.107   8.825  71.404  1.00  0.00    -0.189 C  
ENDBRANCH  25  26
ENDBRANCH  24  25
BRANCH  21  28
HETATM   28  O   UNL     1     -11.310   7.402  70.938  1.00  0.00    -0.264 OA 
HETATM   29  C   UNL     1     -11.791   6.659  72.051  1.00  0.00    -0.324 C  
ENDBRANCH  21  28
ENDBRANCH   1  19
BRANCH   1  30
HETATM   30  C   UNL     1     -12.219  13.909  71.365  1.00  0.00    -0.207 C  
BRANCH  30  31
HETATM   31  S   UNL     1     -13.652  14.614  72.136  1.00  0.00    -0.463 S  
HETATM   32  O   UNL     1     -14.300  15.433  71.128  1.00  0.00    -0.490 OA 
HETATM   33  C   UNL     1     -13.074  15.730  73.393  1.00  0.00    -0.579 C  
HETATM   34  O   UNL     1     -14.386  13.557  72.800  1.00  0.00    -0.640 OA 
ENDBRANCH  30  31
ENDBRANCH   1  30
TORSDOF 9
ENDMDL
MODEL       36
REMARK 921   NORMALIZED FREE ENERGY PREDICTED BY IDOCK:   -6.26 KCAL/MOL
REMARK 922        TOTAL FREE ENERGY PREDICTED BY IDOCK:  -10.61 KCAL/MOL
REMARK 923 INTER-LIGAND FREE ENERGY PREDICTED BY IDOCK:   -9.22 KCAL/MOL
REMARK 924 INTRA-LIGAND FREE ENERGY PREDICTED BY IDOCK:   -1.38 KCAL/MOL
REMARK 927      BINDING AFFINITY PREDICTED BY RF-SCORE:    0.00 PKD
ROOT
HETATM    1  C   UNL     1     -10.266  15.337  68.632  1.00  0.00    -0.223 C  
ENDROOT
BRANCH   1   2
HETATM    2  N   UNL     1     -10.154  14.143  67.777  1.00  0.00    -0.236 N  
HETATM    3  C   UNL     1      -8.266  11.277  66.684  1.00  0.00    -0.164 A  
HETATM    4  C   UNL     1      -8.567  10.386  65.668  1.00  0.00    -0.175 A  
HETATM    5  O   UNL     1     -12.168  14.018  66.614  1.00  0.00    -0.442 OA 
HETATM    6  C   UNL     1      -9.810  10.463  65.013  1.00  0.00    -0.384 A  
HETATM    7  C   UNL     1      -9.082  13.315  67.935  1.00  0.00    -0.203 C  
HETATM    8  C   UNL     1     -11.067  13.586  66.897  1.00  0.00    -0.296 C  
HETATM    9  C   UNL     1     -10.813  11.393  65.377  1.00  0.00    -0.229 A  
HETATM   10  C   UNL     1     -10.450  12.341  66.342  1.00  0.00    -0.263 A  
HETATM   11  C   UNL     1      -9.213  12.236  66.974  1.00  0.00    -0.205 A  
HETATM   12  O   UNL     1      -8.168  13.398  68.738  1.00  0.00    -0.069 OA 
BRANCH   9  13
HETATM   13  N   UNL     1     -12.066  11.410  64.732  1.00  0.00     0.198 NA 
HETATM   14  H   UNL     1     -12.807  10.841  65.141  1.00  0.00     0.000 HD 
BRANCH  13  15
HETATM   15  C   UNL     1     -12.359  12.083  63.667  1.00  0.00    -0.539 C  
HETATM   16  C   UNL     1     -12.283  13.536  63.296  1.00  0.00    -0.214 C  
HETATM   17  O   UNL     1     -12.876  11.375  62.647  1.00  0.00    -0.774 OA 
HETATM   18  H   UNL     1     -13.091  11.869  61.866  1.00  0.00     0.000 HD 
ENDBRANCH  13  15
ENDBRANCH   9  13
ENDBRANCH   1   2
BRANCH   1  19
HETATM   19  C   UNL     1      -9.519  16.579  68.111  1.00  0.00    -0.222 A  
HETATM   20  C   UNL     1     -10.018  17.313  67.028  1.00  0.00    -0.289 A  
HETATM   21  C   UNL     1      -8.538  19.172  67.537  1.00  0.00    -0.288 A  
HETATM   22  C   UNL     1      -8.431  17.121  68.837  1.00  0.00    -0.187 A  
HETATM   23  C   UNL     1      -9.539  18.597  66.750  1.00  0.00    -0.332 A  
HETATM   24  C   UNL     1      -7.942  18.411  68.561  1.00  0.00    -0.314 A  
BRANCH  24  25
HETATM   25  O   UNL     1      -6.936  19.040  69.253  1.00  0.00    -0.310 OA 
BRANCH  25  26
HETATM   26  C   UNL     1      -5.671  18.397  69.372  1.00  0.00    -0.232 C  
HETATM   27  C   UNL     1      -5.296  18.351  70.847  1.00  0.00    -0.246 C  
ENDBRANCH  25  26
ENDBRANCH  24  25
BRANCH  21  28
HETATM   28  O   UNL     1      -8.090  20.463  67.390  1.00  0.00    -0.323 OA 
HETATM   29  C   UNL     1      -7.098  20.702  66.400  1.00  0.00    -0.185 C  
ENDBRANCH  21  28
ENDBRANCH   1  19
BRANCH   1  30
HETATM   30  C   UNL     1     -11.677  15.755  69.048  1.00  0.00    -0.396 C  
BRANCH  30  31
HETATM   31  S   UNL     1     -12.226  15.157  70.626  1.00  0.00    -0.385 S  
HETATM   32  O   UNL     1     -11.187  15.502  71.579  1.00  0.00    -0.377 OA 
HETATM   33  C   UNL     1     -12.253  13.382  70.533  1.00  0.00    -0.352 C  
HETATM   34  O   UNL     1     -13.588  15.600  70.838  1.00  0.00    -0.568 OA 
ENDBRANCH  30  31
ENDBRANCH   1  30
TORSDOF 9
ENDMDL
MODEL       37
REMARK 921   NORMALIZED FREE ENERGY PREDICTED BY IDOCK:   -6.25 KCAL/MOL
REMARK 922        TOTAL FREE ENERGY PREDICTED BY IDOCK:  -10.60 KCAL/MOL
REMARK 923 INTER-LIGAND FREE ENERGY PREDICTED BY IDOCK:   -9.28 KCAL/MOL
REMARK 924 INTRA-LIGAND FREE ENERGY PREDICTED BY IDOCK:   -1.32 KCAL/MOL
REMARK 927      BINDING AFFINITY PREDICTED BY RF-SCORE:    0.00 PKD
ROOT
HETATM    1  C   UNL     1     -10.680  14.622  69.027  1.00  0.00    -0.249 C  
ENDROOT
BRANCH   1   2
HETATM    2  N   UNL     1     -10.711  13.819  67.793  1.00  0.00    -0.244 N  
HETATM    3  C   UNL     1     -12.015  13.271  64.481  1.00  0.00    -0.449 A  
HETATM    4  C   UNL     1     -11.789  12.200  63.634  1.00  0.00    -0.608 A  
HETATM    5  O   UNL     1      -9.142  12.127  68.112  1.00  0.00    -0.186 OA 
HETATM    6  C   UNL     1     -10.843  11.218  63.983  1.00  0.00    -0.414 A  
HETATM    7  C   UNL     1     -11.442  14.265  66.732  1.00  0.00    -0.367 C  
HETATM    8  C   UNL     1      -9.968  12.707  67.433  1.00  0.00    -0.204 C  
HETATM    9  C   UNL     1     -10.057  11.293  65.157  1.00  0.00    -0.275 A  
HETATM   10  C   UNL     1     -10.370  12.334  66.040  1.00  0.00    -0.273 A  
HETATM   11  C   UNL     1     -11.309  13.293  65.664  1.00  0.00    -0.325 A  
HETATM   12  O   UNL     1     -12.084  15.296  66.630  1.00  0.00     0.117 OA 
BRANCH   9  13
HETATM   13  N   UNL     1      -9.084  10.317  65.452  1.00  0.00    -0.173 NA 
HETATM   14  H   UNL     1      -9.407   9.459  65.898  1.00  0.00     0.000 HD 
BRANCH  13  15
HETATM   15  C   UNL     1      -7.817  10.412  65.206  1.00  0.00    -0.137 C  
HETATM   16  C   UNL     1      -6.886   9.729  64.247  1.00  0.00    -0.120 C  
HETATM   17  O   UNL     1      -7.134  11.282  65.970  1.00  0.00    -0.354 OA 
HETATM   18  H   UNL     1      -6.204  11.352  65.790  1.00  0.00     0.000 HD 
ENDBRANCH  13  15
ENDBRANCH   9  13
ENDBRANCH   1   2
BRANCH   1  19
HETATM   19  C   UNL     1      -9.539  15.655  69.099  1.00  0.00    -0.251 A  
HETATM   20  C   UNL     1      -8.271  15.289  69.567  1.00  0.00    -0.188 A  
HETATM   21  C   UNL     1      -7.293  17.323  68.665  1.00  0.00    -0.238 A  
HETATM   22  C   UNL     1      -9.688  16.933  68.509  1.00  0.00    -0.264 A  
HETATM   23  C   UNL     1      -7.161  16.111  69.345  1.00  0.00    -0.215 A  
HETATM   24  C   UNL     1      -8.575  17.765  68.284  1.00  0.00    -0.277 A  
BRANCH  24  25
HETATM   25  O   UNL     1      -8.616  18.989  67.663  1.00  0.00    -0.283 OA 
BRANCH  25  26
HETATM   26  C   UNL     1      -9.858  19.680  67.576  1.00  0.00    -0.378 C  
HETATM   27  C   UNL     1     -10.038  20.162  66.143  1.00  0.00    -0.532 C  
ENDBRANCH  25  26
ENDBRANCH  24  25
BRANCH  21  28
HETATM   28  O   UNL     1      -6.237  18.132  68.320  1.00  0.00    -0.179 OA 
HETATM   29  C   UNL     1      -5.388  18.581  69.368  1.00  0.00    -0.204 C  
ENDBRANCH  21  28
ENDBRANCH   1  19
BRANCH   1  30
HETATM   30  C   UNL     1     -11.985  15.308  69.434  1.00  0.00    -0.315 C  
BRANCH  30  31
HETATM   31  S   UNL     1     -12.624  14.866  71.028  1.00  0.00    -0.369 S  
HETATM   32  O   UNL     1     -13.812  15.674  71.233  1.00  0.00    -0.573 OA 
HETATM   33  C   UNL     1     -11.437  15.405  72.237  1.00  0.00    -0.412 C  
HETATM   34  O   UNL     1     -12.700  13.422  71.111  1.00  0.00    -0.348 OA 
ENDBRANCH  30  31
ENDBRANCH   1  30
TORSDOF 9
ENDMDL
MODEL       38
REMARK 921   NORMALIZED FREE ENERGY PREDICTED BY IDOCK:   -6.24 KCAL/MOL
REMARK 922        TOTAL FREE ENERGY PREDICTED BY IDOCK:  -10.58 KCAL/MOL
REMARK 923 INTER-LIGAND FREE ENERGY PREDICTED BY IDOCK:   -9.19 KCAL/MOL
REMARK 924 INTRA-LIGAND FREE ENERGY PREDICTED BY IDOCK:   -1.40 KCAL/MOL
REMARK 927      BINDING AFFINITY PREDICTED BY RF-SCORE:    0.00 PKD
ROOT
HETATM    1  C   UNL     1      -9.443  12.383  66.995  1.00  0.00    -0.211 C  
ENDROOT
BRANCH   1   2
HETATM    2  N   UNL     1      -8.776  13.686  67.155  1.00  0.00    -0.219 N  
HETATM    3  C   UNL     1      -6.038  15.630  68.457  1.00  0.00    -0.102 A  
HETATM    4  C   UNL     1      -5.869  17.004  68.429  1.00  0.00    -0.135 A  
HETATM    5  O   UNL     1     -10.083  15.204  65.967  1.00  0.00    -0.265 OA 
HETATM    6  C   UNL     1      -6.773  17.807  67.709  1.00  0.00    -0.190 A  
HETATM    7  C   UNL     1      -7.552  13.734  67.755  1.00  0.00    -0.169 C  
HETATM    8  C   UNL     1      -9.110  14.928  66.642  1.00  0.00    -0.280 C  
HETATM    9  C   UNL     1      -7.843  17.270  66.954  1.00  0.00    -0.218 A  
HETATM   10  C   UNL     1      -8.047  15.890  67.074  1.00  0.00    -0.265 A  
HETATM   11  C   UNL     1      -7.132  15.122  67.792  1.00  0.00    -0.185 A  
HETATM   12  O   UNL     1      -6.874  12.811  68.174  1.00  0.00    -0.074 OA 
BRANCH   9  13
HETATM   13  N   UNL     1      -8.700  18.100  66.204  1.00  0.00    -0.492 NA 
HETATM   14  H   UNL     1      -8.936  17.793  65.261  1.00  0.00     0.000 HD 
BRANCH  13  15
HETATM   15  C   UNL     1      -9.215  19.217  66.606  1.00  0.00    -0.338 C  
HETATM   16  C   UNL     1     -10.315  19.575  67.562  1.00  0.00    -0.567 C  
HETATM   17  O   UNL     1      -8.703  20.332  66.055  1.00  0.00    -0.572 OA 
HETATM   18  H   UNL     1      -9.081  21.152  66.350  1.00  0.00     0.000 HD 
ENDBRANCH  13  15
ENDBRANCH   9  13
ENDBRANCH   1   2
BRANCH   1  19
HETATM   19  C   UNL     1     -10.539  12.084  68.035  1.00  0.00    -0.233 A  
HETATM   20  C   UNL     1     -10.774  10.775  68.472  1.00  0.00    -0.245 A  
HETATM   21  C   UNL     1     -12.080  11.581  70.357  1.00  0.00    -0.382 A  
HETATM   22  C   UNL     1     -11.190  13.140  68.717  1.00  0.00    -0.323 A  
HETATM   23  C   UNL     1     -11.528  10.527  69.623  1.00  0.00    -0.349 A  
HETATM   24  C   UNL     1     -11.952  12.898  69.875  1.00  0.00    -0.307 A  
BRANCH  24  25
HETATM   25  O   UNL     1     -12.565  13.865  70.635  1.00  0.00    -0.335 OA 
BRANCH  25  26
HETATM   26  C   UNL     1     -12.227  15.231  70.420  1.00  0.00    -0.363 C  
HETATM   27  C   UNL     1     -12.154  15.924  71.774  1.00  0.00    -0.567 C  
ENDBRANCH  25  26
ENDBRANCH  24  25
BRANCH  21  28
HETATM   28  O   UNL     1     -12.743  11.424  71.550  1.00  0.00    -0.389 OA 
HETATM   29  C   UNL     1     -13.393  10.180  71.778  1.00  0.00    -0.385 C  
ENDBRANCH  21  28
ENDBRANCH   1  19
BRANCH   1  30
HETATM   30  C   UNL     1      -9.986  12.055  65.604  1.00  0.00    -0.245 C  
BRANCH  30  31
HETATM   31  S   UNL     1      -9.427  10.528  64.897  1.00  0.00    -0.279 S  
HETATM   32  O   UNL     1      -7.984  10.506  65.053  1.00  0.00    -0.147 OA 
HETATM   33  C   UNL     1      -9.740  10.614  63.149  1.00  0.00    -0.333 C  
HETATM   34  O   UNL     1     -10.235   9.449  65.428  1.00  0.00    -0.025 OA 
ENDBRANCH  30  31
ENDBRANCH   1  30
TORSDOF 9
ENDMDL
MODEL       39
REMARK 921   NORMALIZED FREE ENERGY PREDICTED BY IDOCK:   -6.21 KCAL/MOL
REMARK 922        TOTAL FREE ENERGY PREDICTED BY IDOCK:  -10.53 KCAL/MOL
REMARK 923 INTER-LIGAND FREE ENERGY PREDICTED BY IDOCK:   -8.62 KCAL/MOL
REMARK 924 INTRA-LIGAND FREE ENERGY PREDICTED BY IDOCK:   -1.91 KCAL/MOL
REMARK 927      BINDING AFFINITY PREDICTED BY RF-SCORE:    0.00 PKD
ROOT
HETATM    1  C   UNL     1     -11.168  12.590  68.407  1.00  0.00    -0.272 C  
ENDROOT
BRANCH   1   2
HETATM    2  N   UNL     1     -10.357  11.902  67.389  1.00  0.00    -0.205 N  
HETATM    3  C   UNL     1     -10.094  10.414  64.119  1.00  0.00    -0.262 A  
HETATM    4  C   UNL     1      -9.024   9.727  63.571  1.00  0.00    -0.272 A  
HETATM    5  O   UNL     1      -8.220  11.738  68.301  1.00  0.00    -0.144 OA 
HETATM    6  C   UNL     1      -7.801   9.665  64.264  1.00  0.00    -0.130 A  
HETATM    7  C   UNL     1     -10.898  11.670  66.158  1.00  0.00    -0.294 C  
HETATM    8  C   UNL     1      -9.014  11.564  67.396  1.00  0.00    -0.156 C  
HETATM    9  C   UNL     1      -7.584  10.324  65.497  1.00  0.00    -0.149 A  
HETATM   10  C   UNL     1      -8.706  10.932  66.074  1.00  0.00    -0.192 A  
HETATM   11  C   UNL     1      -9.902  10.979  65.361  1.00  0.00    -0.301 A  
HETATM   12  O   UNL     1     -11.997  11.988  65.739  1.00  0.00    -0.514 OA 
BRANCH   9  13
HETATM   13  N   UNL     1      -6.330  10.282  66.140  1.00  0.00    -0.086 NA 
HETATM   14  H   UNL     1      -5.691  11.056  65.962  1.00  0.00     0.000 HD 
BRANCH  13  15
HETATM   15  C   UNL     1      -5.919   9.350  66.937  1.00  0.00    -0.059 C  
HETATM   16  C   UNL     1      -5.316   7.991  66.729  1.00  0.00    -0.032 C  
HETATM   17  O   UNL     1      -6.068   9.591  68.251  1.00  0.00    -0.047 OA 
HETATM   18  H   UNL     1      -5.766   8.906  68.836  1.00  0.00     0.000 HD 
ENDBRANCH  13  15
ENDBRANCH   9  13
ENDBRANCH   1   2
BRANCH   1  19
HETATM   19  C   UNL     1     -11.475  11.754  69.664  1.00  0.00    -0.341 A  
HETATM   20  C   UNL     1     -12.390  12.209  70.620  1.00  0.00    -0.385 A  
HETATM   21  C   UNL     1     -12.520  10.000  71.627  1.00  0.00    -0.418 A  
HETATM   22  C   UNL     1     -10.999  10.425  69.778  1.00  0.00    -0.345 A  
HETATM   23  C   UNL     1     -12.911  11.341  71.585  1.00  0.00    -0.537 A  
HETATM   24  C   UNL     1     -11.517   9.547  70.747  1.00  0.00    -0.310 A  
BRANCH  24  25
HETATM   25  O   UNL     1     -11.162   8.227  70.889  1.00  0.00    -0.257 OA 
BRANCH  25  26
HETATM   26  C   UNL     1     -10.780   7.485  69.736  1.00  0.00    -0.242 C  
HETATM   27  C   UNL     1     -11.387   6.093  69.841  1.00  0.00    -0.454 C  
ENDBRANCH  25  26
ENDBRANCH  24  25
BRANCH  21  28
HETATM   28  O   UNL     1     -13.062   9.065  72.475  1.00  0.00    -0.433 OA 
HETATM   29  C   UNL     1     -14.342   8.544  72.142  1.00  0.00    -0.436 C  
ENDBRANCH  21  28
ENDBRANCH   1  19
BRANCH   1  30
HETATM   30  C   UNL     1     -10.690  13.974  68.847  1.00  0.00    -0.248 C  
BRANCH  30  31
HETATM   31  S   UNL     1     -10.634  15.211  67.576  1.00  0.00    -0.275 S  
HETATM   32  O   UNL     1      -9.311  15.132  66.985  1.00  0.00    -0.213 OA 
HETATM   33  C   UNL     1     -10.730  16.793  68.381  1.00  0.00    -0.362 C  
HETATM   34  O   UNL     1     -11.814  15.075  66.747  1.00  0.00    -0.245 OA 
ENDBRANCH  30  31
ENDBRANCH   1  30
TORSDOF 9
ENDMDL
MODEL       40
REMARK 921   NORMALIZED FREE ENERGY PREDICTED BY IDOCK:   -6.20 KCAL/MOL
REMARK 922        TOTAL FREE ENERGY PREDICTED BY IDOCK:  -10.51 KCAL/MOL
REMARK 923 INTER-LIGAND FREE ENERGY PREDICTED BY IDOCK:   -8.80 KCAL/MOL
REMARK 924 INTRA-LIGAND FREE ENERGY PREDICTED BY IDOCK:   -1.72 KCAL/MOL
REMARK 927      BINDING AFFINITY PREDICTED BY RF-SCORE:    0.00 PKD
ROOT
HETATM    1  C   UNL     1     -10.607   7.707  70.862  1.00  0.00    -0.213 C  
ENDROOT
BRANCH   1   2
HETATM    2  N   UNL     1      -9.816   7.385  69.663  1.00  0.00    -0.173 N  
HETATM    3  C   UNL     1      -6.628   7.261  67.992  1.00  0.00    -0.050 A  
HETATM    4  C   UNL     1      -6.360   6.930  66.674  1.00  0.00    -0.046 A  
HETATM    5  O   UNL     1     -11.332   6.490  68.138  1.00  0.00    -0.225 OA 
HETATM    6  C   UNL     1      -7.392   6.449  65.848  1.00  0.00    -0.080 A  
HETATM    7  C   UNL     1      -8.458   7.492  69.719  1.00  0.00    -0.135 C  
HETATM    8  C   UNL     1     -10.206   6.812  68.464  1.00  0.00    -0.175 C  
HETATM    9  C   UNL     1      -8.710   6.232  66.316  1.00  0.00    -0.142 A  
HETATM   10  C   UNL     1      -8.977   6.661  67.622  1.00  0.00    -0.111 A  
HETATM   11  C   UNL     1      -7.932   7.130  68.416  1.00  0.00    -0.124 A  
HETATM   12  O   UNL     1      -7.757   7.799  70.668  1.00  0.00    -0.087 OA 
BRANCH   9  13
HETATM   13  N   UNL     1      -9.709   5.702  65.473  1.00  0.00    -0.359 NA 
HETATM   14  H   UNL     1     -10.169   6.350  64.835  1.00  0.00     0.000 HD 
BRANCH  13  15
HETATM   15  C   UNL     1     -10.092   4.467  65.438  1.00  0.00    -0.223 C  
HETATM   16  C   UNL     1      -9.411   3.155  65.697  1.00  0.00    -0.112 C  
HETATM   17  O   UNL     1     -11.368   4.258  65.068  1.00  0.00    -0.996 OA 
HETATM   18  H   UNL     1     -11.649   3.351  65.042  1.00  0.00     0.000 HD 
ENDBRANCH  13  15
ENDBRANCH   9  13
ENDBRANCH   1   2
BRANCH   1  19
HETATM   19  C   UNL     1     -11.446   8.995  70.759  1.00  0.00    -0.331 A  
HETATM   20  C   UNL     1     -12.440   9.279  71.702  1.00  0.00    -0.448 A  
HETATM   21  C   UNL     1     -12.553  11.593  70.966  1.00  0.00    -0.331 A  
HETATM   22  C   UNL     1     -11.095  10.010  69.836  1.00  0.00    -0.336 A  
HETATM   23  C   UNL     1     -12.981  10.565  71.809  1.00  0.00    -0.582 A  
HETATM   24  C   UNL     1     -11.637  11.304  69.936  1.00  0.00    -0.334 A  
BRANCH  24  25
HETATM   25  O   UNL     1     -11.308  12.364  69.126  1.00  0.00    -0.249 OA 
BRANCH  25  26
HETATM   26  C   UNL     1     -11.647  12.310  67.744  1.00  0.00    -0.351 C  
HETATM   27  C   UNL     1     -12.027  13.714  67.291  1.00  0.00    -0.420 C  
ENDBRANCH  25  26
ENDBRANCH  24  25
BRANCH  21  28
HETATM   28  O   UNL     1     -12.961  12.900  71.077  1.00  0.00    -0.223 OA 
HETATM   29  C   UNL     1     -13.720  13.253  72.227  1.00  0.00    -0.589 C  
ENDBRANCH  21  28
ENDBRANCH   1  19
BRANCH   1  30
HETATM   30  C   UNL     1     -11.492   6.592  71.421  1.00  0.00    -0.301 C  
BRANCH  30  31
HETATM   31  S   UNL     1     -10.886   5.784  72.880  1.00  0.00    -0.278 S  
HETATM   32  O   UNL     1     -10.625   6.830  73.851  1.00  0.00    -0.350 OA 
HETATM   33  C   UNL     1      -9.308   5.075  72.469  1.00  0.00    -0.132 C  
HETATM   34  O   UNL     1     -11.779   4.691  73.206  1.00  0.00    -0.290 OA 
ENDBRANCH  30  31
ENDBRANCH   1  30
TORSDOF 9
ENDMDL
MODEL       41
REMARK 921   NORMALIZED FREE ENERGY PREDICTED BY IDOCK:   -6.20 KCAL/MOL
REMARK 922        TOTAL FREE ENERGY PREDICTED BY IDOCK:  -10.51 KCAL/MOL
REMARK 923 INTER-LIGAND FREE ENERGY PREDICTED BY IDOCK:   -9.14 KCAL/MOL
REMARK 924 INTRA-LIGAND FREE ENERGY PREDICTED BY IDOCK:   -1.37 KCAL/MOL
REMARK 927      BINDING AFFINITY PREDICTED BY RF-SCORE:    0.00 PKD
ROOT
HETATM    1  C   UNL     1     -10.083  11.687  68.100  1.00  0.00    -0.196 C  
ENDROOT
BRANCH   1   2
HETATM    2  N   UNL     1      -9.686  13.105  68.094  1.00  0.00    -0.224 N  
HETATM    3  C   UNL     1      -7.229  15.641  68.805  1.00  0.00    -0.133 A  
HETATM    4  C   UNL     1      -7.358  17.015  68.703  1.00  0.00    -0.229 A  
HETATM    5  O   UNL     1     -11.467  14.247  67.121  1.00  0.00    -0.324 OA 
HETATM    6  C   UNL     1      -8.521  17.571  68.139  1.00  0.00    -0.254 A  
HETATM    7  C   UNL     1      -8.413  13.437  68.454  1.00  0.00    -0.135 C  
HETATM    8  C   UNL     1     -10.356  14.217  67.612  1.00  0.00    -0.248 C  
HETATM    9  C   UNL     1      -9.570  16.780  67.612  1.00  0.00    -0.244 A  
HETATM   10  C   UNL     1      -9.458  15.399  67.811  1.00  0.00    -0.204 A  
HETATM   11  C   UNL     1      -8.292  14.880  68.370  1.00  0.00    -0.153 A  
HETATM   12  O   UNL     1      -7.495  12.699  68.769  1.00  0.00    -0.106 OA 
BRANCH   9  13
HETATM   13  N   UNL     1     -10.700  17.370  67.009  1.00  0.00    -0.229 NA 
HETATM   14  H   UNL     1     -11.607  17.171  67.429  1.00  0.00     0.000 HD 
BRANCH  13  15
HETATM   15  C   UNL     1     -10.688  18.140  65.969  1.00  0.00    -0.146 C  
HETATM   16  C   UNL     1     -10.412  19.600  65.756  1.00  0.00    -0.540 C  
HETATM   17  O   UNL     1     -11.013  17.558  64.802  1.00  0.00    -0.950 OA 
HETATM   18  H   UNL     1     -11.004  18.123  64.039  1.00  0.00     0.000 HD 
ENDBRANCH  13  15
ENDBRANCH   9  13
ENDBRANCH   1   2
BRANCH   1  19
HETATM   19  C   UNL     1     -10.744  11.206  69.406  1.00  0.00    -0.220 A  
HETATM   20  C   UNL     1     -11.894  11.833  69.900  1.00  0.00    -0.423 A  
HETATM   21  C   UNL     1     -12.319   9.980  71.415  1.00  0.00    -0.415 A  
HETATM   22  C   UNL     1     -10.327  10.000  70.020  1.00  0.00    -0.323 A  
HETATM   23  C   UNL     1     -12.675  11.223  70.887  1.00  0.00    -0.412 A  
HETATM   24  C   UNL     1     -11.107   9.382  71.015  1.00  0.00    -0.344 A  
BRANCH  24  25
HETATM   25  O   UNL     1     -10.815   8.184  71.619  1.00  0.00    -0.231 OA 
BRANCH  25  26
HETATM   26  C   UNL     1      -9.489   7.950  72.084  1.00  0.00    -0.177 C  
HETATM   27  C   UNL     1      -8.994   6.644  71.476  1.00  0.00    -0.139 C  
ENDBRANCH  25  26
ENDBRANCH  24  25
BRANCH  21  28
HETATM   28  O   UNL     1     -13.087   9.273  72.308  1.00  0.00    -0.412 OA 
HETATM   29  C   UNL     1     -14.213   8.575  71.793  1.00  0.00    -0.446 C  
ENDBRANCH  21  28
ENDBRANCH   1  19
BRANCH   1  30
HETATM   30  C   UNL     1     -10.926  11.204  66.919  1.00  0.00    -0.273 C  
BRANCH  30  31
HETATM   31  S   UNL     1     -10.064  10.257  65.692  1.00  0.00    -0.243 S  
HETATM   32  O   UNL     1     -10.188   8.866  66.084  1.00  0.00    -0.259 OA 
HETATM   33  C   UNL     1      -8.339  10.666  65.831  1.00  0.00    -0.161 C  
HETATM   34  O   UNL     1     -10.507  10.689  64.382  1.00  0.00    -0.350 OA 
ENDBRANCH  30  31
ENDBRANCH   1  30
TORSDOF 9
ENDMDL
MODEL       42
REMARK 921   NORMALIZED FREE ENERGY PREDICTED BY IDOCK:   -6.17 KCAL/MOL
REMARK 922        TOTAL FREE ENERGY PREDICTED BY IDOCK:  -10.47 KCAL/MOL
REMARK 923 INTER-LIGAND FREE ENERGY PREDICTED BY IDOCK:   -8.67 KCAL/MOL
REMARK 924 INTRA-LIGAND FREE ENERGY PREDICTED BY IDOCK:   -1.80 KCAL/MOL
REMARK 927      BINDING AFFINITY PREDICTED BY RF-SCORE:    0.00 PKD
ROOT
HETATM    1  C   UNL     1     -10.690   9.145  69.131  1.00  0.00    -0.172 C  
ENDROOT
BRANCH   1   2
HETATM    2  N   UNL     1     -10.525   8.365  70.369  1.00  0.00    -0.210 N  
HETATM    3  C   UNL     1     -11.371   5.482  72.355  1.00  0.00    -0.294 A  
HETATM    4  C   UNL     1     -10.987   5.188  73.652  1.00  0.00    -0.350 A  
HETATM    5  O   UNL     1      -8.929   9.511  71.619  1.00  0.00    -0.128 OA 
HETATM    6  C   UNL     1     -10.047   6.005  74.306  1.00  0.00    -0.307 A  
HETATM    7  C   UNL     1     -11.137   7.151  70.472  1.00  0.00    -0.271 C  
HETATM    8  C   UNL     1      -9.689   8.577  71.452  1.00  0.00    -0.220 C  
HETATM    9  C   UNL     1      -9.420   7.108  73.678  1.00  0.00    -0.224 A  
HETATM   10  C   UNL     1      -9.893   7.439  72.403  1.00  0.00    -0.207 A  
HETATM   11  C   UNL     1     -10.823   6.608  71.780  1.00  0.00    -0.265 A  
HETATM   12  O   UNL     1     -11.811   6.565  69.642  1.00  0.00    -0.310 OA 
BRANCH   9  13
HETATM   13  N   UNL     1      -8.446   7.876  74.348  1.00  0.00    -0.388 NA 
HETATM   14  H   UNL     1      -8.774   8.512  75.074  1.00  0.00     0.000 HD 
BRANCH  13  15
HETATM   15  C   UNL     1      -7.172   7.845  74.123  1.00  0.00    -0.146 C  
HETATM   16  C   UNL     1      -6.072   6.888  74.482  1.00  0.00    -0.072 C  
HETATM   17  O   UNL     1      -6.669   8.891  73.445  1.00  0.00    -0.326 OA 
HETATM   18  H   UNL     1      -5.734   8.868  73.280  1.00  0.00     0.000 HD 
ENDBRANCH  13  15
ENDBRANCH   9  13
ENDBRANCH   1   2
BRANCH   1  19
HETATM   19  C   UNL     1     -11.434  10.483  69.301  1.00  0.00    -0.323 A  
HETATM   20  C   UNL     1     -11.997  10.837  70.532  1.00  0.00    -0.456 A  
HETATM   21  C   UNL     1     -12.241  13.147  69.817  1.00  0.00    -0.202 A  
HETATM   22  C   UNL     1     -11.388  11.465  68.283  1.00  0.00    -0.354 A  
HETATM   23  C   UNL     1     -12.389  12.155  70.789  1.00  0.00    -0.391 A  
HETATM   24  C   UNL     1     -11.782  12.793  68.534  1.00  0.00    -0.333 A  
BRANCH  24  25
HETATM   25  O   UNL     1     -11.712  13.823  67.628  1.00  0.00    -0.325 OA 
BRANCH  25  26
HETATM   26  C   UNL     1     -11.333  13.539  66.285  1.00  0.00    -0.309 C  
HETATM   27  C   UNL     1     -12.314  14.239  65.354  1.00  0.00    -0.421 C  
ENDBRANCH  25  26
ENDBRANCH  24  25
BRANCH  21  28
HETATM   28  O   UNL     1     -12.505  14.479  70.029  1.00  0.00    -0.334 OA 
HETATM   29  C   UNL     1     -11.732  15.150  71.016  1.00  0.00    -0.340 C  
ENDBRANCH  21  28
ENDBRANCH   1  19
BRANCH   1  30
HETATM   30  C   UNL     1      -9.430   9.389  68.300  1.00  0.00    -0.137 C  
BRANCH  30  31
HETATM   31  S   UNL     1      -9.368   8.566  66.730  1.00  0.00    -0.198 S  
HETATM   32  O   UNL     1      -8.003   8.103  66.562  1.00  0.00    -0.098 OA 
HETATM   33  C   UNL     1      -9.636   9.801  65.479  1.00  0.00    -0.282 C  
HETATM   34  O   UNL     1     -10.471   7.630  66.656  1.00  0.00    -0.281 OA 
ENDBRANCH  30  31
ENDBRANCH   1  30
TORSDOF 9
ENDMDL
MODEL       43
REMARK 921   NORMALIZED FREE ENERGY PREDICTED BY IDOCK:   -6.16 KCAL/MOL
REMARK 922        TOTAL FREE ENERGY PREDICTED BY IDOCK:  -10.45 KCAL/MOL
REMARK 923 INTER-LIGAND FREE ENERGY PREDICTED BY IDOCK:   -9.53 KCAL/MOL
REMARK 924 INTRA-LIGAND FREE ENERGY PREDICTED BY IDOCK:   -0.92 KCAL/MOL
REMARK 927      BINDING AFFINITY PREDICTED BY RF-SCORE:    0.00 PKD
ROOT
HETATM    1  C   UNL     1     -10.697  10.660  69.069  1.00  0.00    -0.221 C  
ENDROOT
BRANCH   1   2
HETATM    2  N   UNL     1     -11.320  11.811  69.744  1.00  0.00    -0.215 N  
HETATM    3  C   UNL     1     -13.782  13.105  72.032  1.00  0.00    -0.486 A  
HETATM    4  C   UNL     1     -14.089  14.427  72.309  1.00  0.00    -0.609 A  
HETATM    5  O   UNL     1     -10.118  13.675  69.033  1.00  0.00    -0.104 OA 
HETATM    6  C   UNL     1     -13.302  15.458  71.763  1.00  0.00    -0.567 A  
HETATM    7  C   UNL     1     -12.269  11.585  70.697  1.00  0.00    -0.378 C  
HETATM    8  C   UNL     1     -10.993  13.156  69.699  1.00  0.00     0.180 C  
HETATM    9  C   UNL     1     -12.157  15.210  70.969  1.00  0.00    -0.333 A  
HETATM   10  C   UNL     1     -11.923  13.872  70.628  1.00  0.00    -0.364 A  
HETATM   11  C   UNL     1     -12.718  12.874  71.187  1.00  0.00    -0.366 A  
HETATM   12  O   UNL     1     -12.682  10.519  71.121  1.00  0.00    -0.350 OA 
BRANCH   9  13
HETATM   13  N   UNL     1     -11.363  16.267  70.479  1.00  0.00    -0.473 NA 
HETATM   14  H   UNL     1     -10.822  16.797  71.162  1.00  0.00     0.000 HD 
BRANCH  13  15
HETATM   15  C   UNL     1     -11.258  16.624  69.240  1.00  0.00    -0.123 C  
HETATM   16  C   UNL     1     -10.442  17.656  68.517  1.00  0.00    -0.337 C  
HETATM   17  O   UNL     1     -12.053  15.975  68.372  1.00  0.00    -0.348 OA 
HETATM   18  H   UNL     1     -11.976  16.238  67.462  1.00  0.00     0.000 HD 
ENDBRANCH  13  15
ENDBRANCH   9  13
ENDBRANCH   1   2
BRANCH   1  19
HETATM   19  C   UNL     1     -10.425  10.859  67.566  1.00  0.00    -0.252 A  
HETATM   20  C   UNL     1      -9.550  10.010  66.878  1.00  0.00    -0.219 A  
HETATM   21  C   UNL     1     -10.383  10.798  64.735  1.00  0.00    -0.310 A  
HETATM   22  C   UNL     1     -11.202  11.769  66.809  1.00  0.00    -0.388 A  
HETATM   23  C   UNL     1      -9.535   9.975  65.480  1.00  0.00    -0.296 A  
HETATM   24  C   UNL     1     -11.191  11.740  65.402  1.00  0.00    -0.251 A  
BRANCH  24  25
HETATM   25  O   UNL     1     -11.957  12.539  64.589  1.00  0.00    -0.363 OA 
BRANCH  25  26
HETATM   26  C   UNL     1     -12.600  13.680  65.147  1.00  0.00    -0.430 C  
HETATM   27  C   UNL     1     -12.045  14.923  64.464  1.00  0.00    -0.420 C  
ENDBRANCH  25  26
ENDBRANCH  24  25
BRANCH  21  28
HETATM   28  O   UNL     1     -10.499  10.748  63.367  1.00  0.00    -0.252 OA 
HETATM   29  C   UNL     1      -9.442  11.310  62.600  1.00  0.00    -0.244 C  
ENDBRANCH  21  28
ENDBRANCH   1  19
BRANCH   1  30
HETATM   30  C   UNL     1      -9.441  10.079  69.720  1.00  0.00    -0.207 C  
BRANCH  30  31
HETATM   31  S   UNL     1      -9.661   8.550  70.593  1.00  0.00    -0.182 S  
HETATM   32  O   UNL     1      -8.465   7.765  70.353  1.00  0.00    -0.128 OA 
HETATM   33  C   UNL     1     -10.997   7.683  69.803  1.00  0.00    -0.170 C  
HETATM   34  O   UNL     1     -10.079   8.848  71.947  1.00  0.00    -0.321 OA 
ENDBRANCH  30  31
ENDBRANCH   1  30
TORSDOF 9
ENDMDL
MODEL       44
REMARK 921   NORMALIZED FREE ENERGY PREDICTED BY IDOCK:   -6.13 KCAL/MOL
REMARK 922        TOTAL FREE ENERGY PREDICTED BY IDOCK:  -10.41 KCAL/MOL
REMARK 923 INTER-LIGAND FREE ENERGY PREDICTED BY IDOCK:   -9.08 KCAL/MOL
REMARK 924 INTRA-LIGAND FREE ENERGY PREDICTED BY IDOCK:   -1.32 KCAL/MOL
REMARK 927      BINDING AFFINITY PREDICTED BY RF-SCORE:    0.00 PKD
ROOT
HETATM    1  C   UNL     1     -10.312  11.915  66.937  1.00  0.00    -0.210 C  
ENDROOT
BRANCH   1   2
HETATM    2  N   UNL     1     -10.651  12.951  67.928  1.00  0.00    -0.217 N  
HETATM    3  C   UNL     1     -12.564  13.989  70.797  1.00  0.00    -0.431 A  
HETATM    4  C   UNL     1     -12.617  15.240  71.389  1.00  0.00    -0.444 A  
HETATM    5  O   UNL     1      -9.264  14.757  67.441  1.00  0.00    -0.186 OA 
HETATM    6  C   UNL     1     -11.749  16.258  70.953  1.00  0.00    -0.270 A  
HETATM    7  C   UNL     1     -11.497  12.635  68.950  1.00  0.00    -0.306 C  
HETATM    8  C   UNL     1     -10.120  14.215  68.115  1.00  0.00    -0.239 C  
HETATM    9  C   UNL     1     -10.768  16.055  69.954  1.00  0.00    -0.334 A  
HETATM   10  C   UNL     1     -10.798  14.813  69.308  1.00  0.00    -0.275 A  
HETATM   11  C   UNL     1     -11.667  13.824  69.765  1.00  0.00    -0.367 A  
HETATM   12  O   UNL     1     -12.019  11.563  69.203  1.00  0.00    -0.321 OA 
BRANCH   9  13
HETATM   13  N   UNL     1      -9.882  17.084  69.576  1.00  0.00    -0.009 NA 
HETATM   14  H   UNL     1      -8.947  17.063  69.982  1.00  0.00     0.000 HD 
BRANCH  13  15
HETATM   15  C   UNL     1     -10.150  18.053  68.761  1.00  0.00    -0.381 C  
HETATM   16  C   UNL     1     -10.400  18.134  67.284  1.00  0.00    -0.399 C  
HETATM   17  O   UNL     1     -10.199  19.281  69.305  1.00  0.00    -0.577 OA 
HETATM   18  H   UNL     1     -10.396  19.992  68.706  1.00  0.00     0.000 HD 
ENDBRANCH  13  15
ENDBRANCH   9  13
ENDBRANCH   1   2
BRANCH   1  19
HETATM   19  C   UNL     1      -9.789  10.595  67.533  1.00  0.00    -0.194 A  
HETATM   20  C   UNL     1      -8.710  10.590  68.426  1.00  0.00    -0.137 A  
HETATM   21  C   UNL     1      -9.214   8.311  69.106  1.00  0.00    -0.151 A  
HETATM   22  C   UNL     1     -10.510   9.390  67.354  1.00  0.00    -0.343 A  
HETATM   23  C   UNL     1      -8.431   9.464  69.207  1.00  0.00    -0.141 A  
HETATM   24  C   UNL     1     -10.234   8.253  68.136  1.00  0.00    -0.210 A  
BRANCH  24  25
HETATM   25  O   UNL     1     -10.921   7.065  68.075  1.00  0.00    -0.187 OA 
BRANCH  25  26
HETATM   26  C   UNL     1     -10.946   6.342  66.849  1.00  0.00    -0.329 C  
HETATM   27  C   UNL     1     -10.056   5.115  67.000  1.00  0.00    -0.252 C  
ENDBRANCH  25  26
ENDBRANCH  24  25
BRANCH  21  28
HETATM   28  O   UNL     1      -9.067   7.207  69.910  1.00  0.00    -0.142 OA 
HETATM   29  C   UNL     1      -7.875   6.445  69.763  1.00  0.00    -0.114 C  
ENDBRANCH  21  28
ENDBRANCH   1  19
BRANCH   1  30
HETATM   30  C   UNL     1     -11.378  11.590  65.891  1.00  0.00    -0.108 C  
BRANCH  30  31
HETATM   31  S   UNL     1     -11.273  12.501  64.372  1.00  0.00    -0.367 S  
HETATM   32  O   UNL     1     -12.582  12.416  63.751  1.00  0.00    -0.633 OA 
HETATM   33  C   UNL     1     -10.155  11.618  63.308  1.00  0.00    -0.423 C  
HETATM   34  O   UNL     1     -10.678  13.792  64.649  1.00  0.00    -0.387 OA 
ENDBRANCH  30  31
ENDBRANCH   1  30
TORSDOF 9
ENDMDL
MODEL       45
REMARK 921   NORMALIZED FREE ENERGY PREDICTED BY IDOCK:   -6.13 KCAL/MOL
REMARK 922        TOTAL FREE ENERGY PREDICTED BY IDOCK:  -10.40 KCAL/MOL
REMARK 923 INTER-LIGAND FREE ENERGY PREDICTED BY IDOCK:   -8.63 KCAL/MOL
REMARK 924 INTRA-LIGAND FREE ENERGY PREDICTED BY IDOCK:   -1.77 KCAL/MOL
REMARK 927      BINDING AFFINITY PREDICTED BY RF-SCORE:    0.00 PKD
ROOT
HETATM    1  C   UNL     1      -9.918   8.321  67.386  1.00  0.00    -0.209 C  
ENDROOT
BRANCH   1   2
HETATM    2  N   UNL     1     -10.264   9.668  66.903  1.00  0.00    -0.230 N  
HETATM    3  C   UNL     1     -10.172  12.144  64.288  1.00  0.00    -0.351 A  
HETATM    4  C   UNL     1     -10.603  13.459  64.333  1.00  0.00    -0.423 A  
HETATM    5  O   UNL     1     -11.492  10.650  68.620  1.00  0.00    -0.274 OA 
HETATM    6  C   UNL     1     -11.290  13.932  65.466  1.00  0.00    -0.310 A  
HETATM    7  C   UNL     1      -9.987   9.997  65.608  1.00  0.00    -0.285 C  
HETATM    8  C   UNL     1     -11.003  10.671  67.508  1.00  0.00    -0.310 C  
HETATM    9  C   UNL     1     -11.617  13.105  66.567  1.00  0.00    -0.356 A  
HETATM   10  C   UNL     1     -11.090  11.808  66.538  1.00  0.00    -0.364 A  
HETATM   11  C   UNL     1     -10.416  11.367  65.400  1.00  0.00    -0.336 A  
HETATM   12  O   UNL     1      -9.499   9.302  64.734  1.00  0.00    -0.136 OA 
BRANCH   9  13
HETATM   13  N   UNL     1     -12.350  13.600  67.664  1.00  0.00    -0.350 NA 
HETATM   14  H   UNL     1     -13.356  13.433  67.663  1.00  0.00     0.000 HD 
BRANCH  13  15
HETATM   15  C   UNL     1     -11.861  14.248  68.671  1.00  0.00    -0.344 C  
HETATM   16  C   UNL     1     -11.692  15.705  68.992  1.00  0.00    -0.408 C  
HETATM   17  O   UNL     1     -11.355  13.497  69.664  1.00  0.00    -0.400 OA 
HETATM   18  H   UNL     1     -10.996  13.972  70.404  1.00  0.00     0.000 HD 
ENDBRANCH  13  15
ENDBRANCH   9  13
ENDBRANCH   1   2
BRANCH   1  19
HETATM   19  C   UNL     1      -9.614   8.231  68.893  1.00  0.00    -0.153 A  
HETATM   20  C   UNL     1      -8.415   8.734  69.413  1.00  0.00    -0.125 A  
HETATM   21  C   UNL     1      -9.298   8.649  71.676  1.00  0.00    -0.263 A  
HETATM   22  C   UNL     1     -10.618   7.828  69.806  1.00  0.00    -0.241 A  
HETATM   23  C   UNL     1      -8.263   8.947  70.787  1.00  0.00    -0.198 A  
HETATM   24  C   UNL     1     -10.471   8.038  71.190  1.00  0.00    -0.198 A  
BRANCH  24  25
HETATM   25  O   UNL     1     -11.416   7.738  72.141  1.00  0.00    -0.275 OA 
BRANCH  25  26
HETATM   26  C   UNL     1     -12.762   8.152  71.932  1.00  0.00    -0.332 C  
HETATM   27  C   UNL     1     -12.850   9.647  72.205  1.00  0.00    -0.407 C  
ENDBRANCH  25  26
ENDBRANCH  24  25
BRANCH  21  28
HETATM   28  O   UNL     1      -9.262   8.925  73.022  1.00  0.00    -0.146 OA 
HETATM   29  C   UNL     1      -8.353   8.175  73.819  1.00  0.00    -0.248 C  
ENDBRANCH  21  28
ENDBRANCH   1  19
BRANCH   1  30
HETATM   30  C   UNL     1     -10.877   7.190  67.013  1.00  0.00    -0.312 C  
BRANCH  30  31
HETATM   31  S   UNL     1     -10.117   5.673  66.493  1.00  0.00    -0.177 S  
HETATM   32  O   UNL     1     -11.129   4.937  65.759  1.00  0.00    -0.174 OA 
HETATM   33  C   UNL     1      -9.775   4.728  67.959  1.00  0.00    -0.147 C  
HETATM   34  O   UNL     1      -8.846   5.984  65.872  1.00  0.00    -0.152 OA 
ENDBRANCH  30  31
ENDBRANCH   1  30
TORSDOF 9
ENDMDL
MODEL       46
REMARK 921   NORMALIZED FREE ENERGY PREDICTED BY IDOCK:   -6.12 KCAL/MOL
REMARK 922        TOTAL FREE ENERGY PREDICTED BY IDOCK:  -10.40 KCAL/MOL
REMARK 923 INTER-LIGAND FREE ENERGY PREDICTED BY IDOCK:   -8.99 KCAL/MOL
REMARK 924 INTRA-LIGAND FREE ENERGY PREDICTED BY IDOCK:   -1.42 KCAL/MOL
REMARK 927      BINDING AFFINITY PREDICTED BY RF-SCORE:    0.00 PKD
ROOT
HETATM    1  C   UNL     1     -10.649  12.029  66.427  1.00  0.00    -0.243 C  
ENDROOT
BRANCH   1   2
HETATM    2  N   UNL     1     -10.868  13.024  67.490  1.00  0.00    -0.243 N  
HETATM    3  C   UNL     1     -12.540  13.999  70.527  1.00  0.00    -0.399 A  
HETATM    4  C   UNL     1     -12.486  15.216  71.186  1.00  0.00    -0.416 A  
HETATM    5  O   UNL     1      -9.415  14.779  67.011  1.00  0.00    -0.215 OA 
HETATM    6  C   UNL     1     -11.591  16.210  70.750  1.00  0.00    -0.382 A  
HETATM    7  C   UNL     1     -11.666  12.697  68.547  1.00  0.00    -0.330 C  
HETATM    8  C   UNL     1     -10.256  14.246  67.708  1.00  0.00    -0.235 C  
HETATM    9  C   UNL     1     -10.686  16.011  69.680  1.00  0.00    -0.316 A  
HETATM   10  C   UNL     1     -10.825  14.811  68.973  1.00  0.00    -0.250 A  
HETATM   11  C   UNL     1     -11.719  13.845  69.432  1.00  0.00    -0.367 A  
HETATM   12  O   UNL     1     -12.231  11.641  68.776  1.00  0.00    -0.416 OA 
BRANCH   9  13
HETATM   13  N   UNL     1      -9.769  17.012  69.300  1.00  0.00    -0.148 NA 
HETATM   14  H   UNL     1      -8.807  16.907  69.623  1.00  0.00     0.000 HD 
BRANCH  13  15
HETATM   15  C   UNL     1     -10.038  18.052  68.579  1.00  0.00    -0.393 C  
HETATM   16  C   UNL     1     -10.134  18.301  67.102  1.00  0.00    -0.367 C  
HETATM   17  O   UNL     1     -10.261  19.193  69.253  1.00  0.00    -0.547 OA 
HETATM   18  H   UNL     1     -10.459  19.957  68.724  1.00  0.00     0.000 HD 
ENDBRANCH  13  15
ENDBRANCH   9  13
ENDBRANCH   1   2
BRANCH   1  19
HETATM   19  C   UNL     1     -10.051  10.692  66.903  1.00  0.00    -0.260 A  
HETATM   20  C   UNL     1     -10.409   9.487  66.286  1.00  0.00    -0.226 A  
HETATM   21  C   UNL     1      -8.532   8.339  67.319  1.00  0.00    -0.124 A  
HETATM   22  C   UNL     1      -8.980  10.673  67.830  1.00  0.00    -0.140 A  
HETATM   23  C   UNL     1      -9.653   8.327  66.486  1.00  0.00    -0.312 A  
HETATM   24  C   UNL     1      -8.218   9.509  68.037  1.00  0.00    -0.114 A  
BRANCH  24  25
HETATM   25  O   UNL     1      -7.127   9.416  68.866  1.00  0.00    -0.066 OA 
BRANCH  25  26
HETATM   26  C   UNL     1      -7.273   9.753  70.242  1.00  0.00    -0.149 C  
HETATM   27  C   UNL     1      -8.345   8.855  70.843  1.00  0.00    -0.219 C  
ENDBRANCH  25  26
ENDBRANCH  24  25
BRANCH  21  28
HETATM   28  O   UNL     1      -7.683   7.271  67.483  1.00  0.00    -0.107 OA 
HETATM   29  C   UNL     1      -8.049   6.044  66.864  1.00  0.00    -0.105 C  
ENDBRANCH  21  28
ENDBRANCH   1  19
BRANCH   1  30
HETATM   30  C   UNL     1     -11.835  11.733  65.508  1.00  0.00     0.083 C  
BRANCH  30  31
HETATM   31  S   UNL     1     -11.795  12.517  63.917  1.00  0.00    -0.510 S  
HETATM   32  O   UNL     1     -10.457  12.315  63.393  1.00  0.00    -0.435 OA 
HETATM   33  C   UNL     1     -11.967  14.265  64.190  1.00  0.00    -0.373 C  
HETATM   34  O   UNL     1     -12.949  12.082  63.158  1.00  0.00    -0.662 OA 
ENDBRANCH  30  31
ENDBRANCH   1  30
TORSDOF 9
ENDMDL
MODEL       47
REMARK 921   NORMALIZED FREE ENERGY PREDICTED BY IDOCK:   -6.11 KCAL/MOL
REMARK 922        TOTAL FREE ENERGY PREDICTED BY IDOCK:  -10.38 KCAL/MOL
REMARK 923 INTER-LIGAND FREE ENERGY PREDICTED BY IDOCK:   -8.43 KCAL/MOL
REMARK 924 INTRA-LIGAND FREE ENERGY PREDICTED BY IDOCK:   -1.96 KCAL/MOL
REMARK 927      BINDING AFFINITY PREDICTED BY RF-SCORE:    0.00 PKD
ROOT
HETATM    1  C   UNL     1      -9.941  11.815  66.524  1.00  0.00    -0.204 C  
ENDROOT
BRANCH   1   2
HETATM    2  N   UNL     1     -10.419  12.788  67.519  1.00  0.00    -0.217 N  
HETATM    3  C   UNL     1     -10.101  16.001  69.116  1.00  0.00    -0.242 A  
HETATM    4  C   UNL     1     -10.810  16.498  70.196  1.00  0.00    -0.208 A  
HETATM    5  O   UNL     1     -12.297  11.813  68.492  1.00  0.00    -0.348 OA 
HETATM    6  C   UNL     1     -11.896  15.771  70.717  1.00  0.00    -0.438 A  
HETATM    7  C   UNL     1      -9.846  14.025  67.562  1.00  0.00    -0.236 C  
HETATM    8  C   UNL     1     -11.512  12.734  68.368  1.00  0.00    -0.311 C  
HETATM    9  C   UNL     1     -12.345  14.553  70.152  1.00  0.00    -0.342 A  
HETATM   10  C   UNL     1     -11.556  14.026  69.122  1.00  0.00    -0.356 A  
HETATM   11  C   UNL     1     -10.489  14.773  68.626  1.00  0.00    -0.250 A  
HETATM   12  O   UNL     1      -8.973  14.485  66.846  1.00  0.00    -0.227 OA 
BRANCH   9  13
HETATM   13  N   UNL     1     -13.467  13.874  70.669  1.00  0.00    -0.066 NA 
HETATM   14  H   UNL     1     -14.344  13.970  70.158  1.00  0.00     0.000 HD 
BRANCH  13  15
HETATM   15  C   UNL     1     -13.484  13.142  71.735  1.00  0.00    -0.335 C  
HETATM   16  C   UNL     1     -13.041  11.741  72.046  1.00  0.00    -0.436 C  
HETATM   17  O   UNL     1     -14.033  13.703  72.826  1.00  0.00    -0.725 OA 
HETATM   18  H   UNL     1     -14.046  13.165  73.609  1.00  0.00     0.000 HD 
ENDBRANCH  13  15
ENDBRANCH   9  13
ENDBRANCH   1   2
BRANCH   1  19
HETATM   19  C   UNL     1      -9.218  10.588  67.112  1.00  0.00    -0.158 A  
HETATM   20  C   UNL     1      -8.223  10.741  68.083  1.00  0.00    -0.119 A  
HETATM   21  C   UNL     1      -8.329   8.378  68.643  1.00  0.00    -0.120 A  
HETATM   22  C   UNL     1      -9.683   9.279  66.836  1.00  0.00    -0.248 A  
HETATM   23  C   UNL     1      -7.789   9.651  68.845  1.00  0.00    -0.081 A  
HETATM   24  C   UNL     1      -9.250   8.177  67.596  1.00  0.00    -0.137 A  
BRANCH  24  25
HETATM   25  O   UNL     1      -9.693   6.886  67.442  1.00  0.00    -0.130 OA 
BRANCH  25  26
HETATM   26  C   UNL     1     -11.082   6.609  67.592  1.00  0.00    -0.271 C  
HETATM   27  C   UNL     1     -11.341   6.242  69.046  1.00  0.00    -0.319 C  
ENDBRANCH  25  26
ENDBRANCH  24  25
BRANCH  21  28
HETATM   28  O   UNL     1      -8.031   7.283  69.418  1.00  0.00    -0.120 OA 
HETATM   29  C   UNL     1      -6.660   6.928  69.547  1.00  0.00    -0.048 C  
ENDBRANCH  21  28
ENDBRANCH   1  19
BRANCH   1  30
HETATM   30  C   UNL     1     -10.959  11.332  65.490  1.00  0.00    -0.131 C  
BRANCH  30  31
HETATM   31  S   UNL     1     -11.794  12.603  64.576  1.00  0.00    -0.406 S  
HETATM   32  O   UNL     1     -12.958  12.975  65.359  1.00  0.00    -0.626 OA 
HETATM   33  C   UNL     1     -12.411  11.857  63.085  1.00  0.00    -0.236 C  
HETATM   34  O   UNL     1     -10.823  13.606  64.189  1.00  0.00    -0.340 OA 
ENDBRANCH  30  31
ENDBRANCH   1  30
TORSDOF 9
ENDMDL
MODEL       48
REMARK 921   NORMALIZED FREE ENERGY PREDICTED BY IDOCK:   -6.11 KCAL/MOL
REMARK 922        TOTAL FREE ENERGY PREDICTED BY IDOCK:  -10.38 KCAL/MOL
REMARK 923 INTER-LIGAND FREE ENERGY PREDICTED BY IDOCK:   -8.86 KCAL/MOL
REMARK 924 INTRA-LIGAND FREE ENERGY PREDICTED BY IDOCK:   -1.52 KCAL/MOL
REMARK 927      BINDING AFFINITY PREDICTED BY RF-SCORE:    0.00 PKD
ROOT
HETATM    1  C   UNL     1      -8.769  10.944  68.046  1.00  0.00    -0.132 C  
ENDROOT
BRANCH   1   2
HETATM    2  N   UNL     1      -9.873  10.810  69.012  1.00  0.00    -0.203 N  
HETATM    3  C   UNL     1     -11.643   8.827  71.442  1.00  0.00    -0.366 A  
HETATM    4  C   UNL     1     -12.822   9.128  72.103  1.00  0.00    -0.486 A  
HETATM    5  O   UNL     1     -10.967  12.866  68.997  1.00  0.00    -0.246 OA 
HETATM    6  C   UNL     1     -13.402  10.401  71.958  1.00  0.00    -0.440 A  
HETATM    7  C   UNL     1      -9.940   9.690  69.787  1.00  0.00    -0.227 C  
HETATM    8  C   UNL     1     -10.824  11.732  69.413  1.00  0.00    -0.064 C  
HETATM    9  C   UNL     1     -12.805  11.433  71.195  1.00  0.00    -0.341 A  
HETATM   10  C   UNL     1     -11.665  11.076  70.464  1.00  0.00    -0.416 A  
HETATM   11  C   UNL     1     -11.114   9.808  70.632  1.00  0.00    -0.398 A  
HETATM   12  O   UNL     1      -9.170   8.746  69.828  1.00  0.00    -0.149 OA 
BRANCH   9  13
HETATM   13  N   UNL     1     -13.389  12.714  71.111  1.00  0.00     0.082 NA 
HETATM   14  H   UNL     1     -14.164  12.829  70.459  1.00  0.00     0.000 HD 
BRANCH  13  15
HETATM   15  C   UNL     1     -13.028  13.756  71.787  1.00  0.00    -0.355 C  
HETATM   16  C   UNL     1     -12.019  14.845  71.567  1.00  0.00    -0.408 C  
HETATM   17  O   UNL     1     -13.645  13.933  72.969  1.00  0.00    -0.628 OA 
HETATM   18  H   UNL     1     -13.380  14.698  73.465  1.00  0.00     0.000 HD 
ENDBRANCH  13  15
ENDBRANCH   9  13
ENDBRANCH   1   2
BRANCH   1  19
HETATM   19  C   UNL     1      -9.204  11.274  66.606  1.00  0.00    -0.191 A  
HETATM   20  C   UNL     1      -9.471  10.252  65.687  1.00  0.00    -0.274 A  
HETATM   21  C   UNL     1     -10.585  11.812  64.193  1.00  0.00    -0.353 A  
HETATM   22  C   UNL     1      -9.540  12.600  66.242  1.00  0.00    -0.244 A  
HETATM   23  C   UNL     1     -10.160  10.517  64.499  1.00  0.00    -0.402 A  
HETATM   24  C   UNL     1     -10.231  12.875  65.047  1.00  0.00    -0.269 A  
BRANCH  24  25
HETATM   25  O   UNL     1     -10.652  14.119  64.645  1.00  0.00    -0.420 OA 
BRANCH  25  26
HETATM   26  C   UNL     1     -11.082  15.055  65.628  1.00  0.00    -0.349 C  
HETATM   27  C   UNL     1     -10.081  16.202  65.665  1.00  0.00    -0.366 C  
ENDBRANCH  25  26
ENDBRANCH  24  25
BRANCH  21  28
HETATM   28  O   UNL     1     -11.354  12.132  63.100  1.00  0.00    -0.343 OA 
HETATM   29  C   UNL     1     -12.757  11.930  63.205  1.00  0.00    -0.271 C  
ENDBRANCH  21  28
ENDBRANCH   1  19
BRANCH   1  30
HETATM   30  C   UNL     1      -7.625  11.881  68.437  1.00  0.00    -0.120 C  
BRANCH  30  31
HETATM   31  S   UNL     1      -6.283  11.133  69.324  1.00  0.00    -0.076 S  
HETATM   32  O   UNL     1      -5.160  12.044  69.215  1.00  0.00    -0.052 OA 
HETATM   33  C   UNL     1      -5.824   9.662  68.437  1.00  0.00    -0.040 C  
HETATM   34  O   UNL     1      -6.765  10.719  70.626  1.00  0.00    -0.310 OA 
ENDBRANCH  30  31
ENDBRANCH   1  30
TORSDOF 9
ENDMDL
MODEL       49
REMARK 921   NORMALIZED FREE ENERGY PREDICTED BY IDOCK:   -6.09 KCAL/MOL
REMARK 922        TOTAL FREE ENERGY PREDICTED BY IDOCK:  -10.34 KCAL/MOL
REMARK 923 INTER-LIGAND FREE ENERGY PREDICTED BY IDOCK:   -9.07 KCAL/MOL
REMARK 924 INTRA-LIGAND FREE ENERGY PREDICTED BY IDOCK:   -1.27 KCAL/MOL
REMARK 927      BINDING AFFINITY PREDICTED BY RF-SCORE:    0.00 PKD
ROOT
HETATM    1  C   UNL     1      -9.836  10.482  68.239  1.00  0.00    -0.149 C  
ENDROOT
BRANCH   1   2
HETATM    2  N   UNL     1     -10.295  11.841  68.573  1.00  0.00    -0.213 N  
HETATM    3  C   UNL     1      -9.866  15.408  68.321  1.00  0.00    -0.213 A  
HETATM    4  C   UNL     1     -10.581  16.407  68.959  1.00  0.00    -0.308 A  
HETATM    5  O   UNL     1     -12.247  11.553  69.810  1.00  0.00    -0.288 OA 
HETATM    6  C   UNL     1     -11.716  16.079  69.722  1.00  0.00    -0.267 A  
HETATM    7  C   UNL     1      -9.662  12.909  68.008  1.00  0.00    -0.224 C  
HETATM    8  C   UNL     1     -11.414  12.258  69.274  1.00  0.00    -0.292 C  
HETATM    9  C   UNL     1     -12.208  14.756  69.836  1.00  0.00    -0.311 A  
HETATM   10  C   UNL     1     -11.416  13.755  69.260  1.00  0.00    -0.344 A  
HETATM   11  C   UNL     1     -10.299  14.113  68.508  1.00  0.00    -0.249 A  
HETATM   12  O   UNL     1      -8.747  12.913  67.203  1.00  0.00    -0.195 OA 
BRANCH   9  13
HETATM   13  N   UNL     1     -13.377  14.469  70.569  1.00  0.00    -0.488 NA 
HETATM   14  H   UNL     1     -14.253  14.428  70.048  1.00  0.00     0.000 HD 
BRANCH  13  15
HETATM   15  C   UNL     1     -13.439  14.254  71.843  1.00  0.00    -0.401 C  
HETATM   16  C   UNL     1     -13.220  15.109  73.057  1.00  0.00    -0.604 C  
HETATM   17  O   UNL     1     -13.733  12.996  72.213  1.00  0.00    -0.552 OA 
HETATM   18  H   UNL     1     -13.778  12.838  73.149  1.00  0.00     0.000 HD 
ENDBRANCH  13  15
ENDBRANCH   9  13
ENDBRANCH   1   2
BRANCH   1  19
HETATM   19  C   UNL     1      -9.907   9.471  69.399  1.00  0.00    -0.194 A  
HETATM   20  C   UNL     1      -9.055   9.588  70.504  1.00  0.00    -0.276 A  
HETATM   21  C   UNL     1     -10.420   8.041  71.789  1.00  0.00    -0.229 A  
HETATM   22  C   UNL     1     -10.963   8.531  69.470  1.00  0.00    -0.057 A  
HETATM   23  C   UNL     1      -9.313   8.887  71.686  1.00  0.00    -0.328 A  
HETATM   24  C   UNL     1     -11.228   7.821  70.655  1.00  0.00    -0.268 A  
BRANCH  24  25
HETATM   25  O   UNL     1     -12.266   6.939  70.834  1.00  0.00    -0.381 OA 
BRANCH  25  26
HETATM   26  C   UNL     1     -13.248   7.219  71.827  1.00  0.00    -0.312 C  
HETATM   27  C   UNL     1     -14.288   8.150  71.219  1.00  0.00    -0.381 C  
ENDBRANCH  25  26
ENDBRANCH  24  25
BRANCH  21  28
HETATM   28  O   UNL     1     -10.797   7.402  72.945  1.00  0.00    -0.290 OA 
HETATM   29  C   UNL     1      -9.762   6.894  73.778  1.00  0.00    -0.254 C  
ENDBRANCH  21  28
ENDBRANCH   1  19
BRANCH   1  30
HETATM   30  C   UNL     1     -10.445   9.838  66.993  1.00  0.00    -0.227 C  
BRANCH  30  31
HETATM   31  S   UNL     1      -9.287   9.176  65.822  1.00  0.00    -0.236 S  
HETATM   32  O   UNL     1      -9.283   7.739  66.017  1.00  0.00    -0.161 OA 
HETATM   33  C   UNL     1      -7.674   9.752  66.298  1.00  0.00    -0.103 C  
HETATM   34  O   UNL     1      -9.579   9.736  64.518  1.00  0.00    -0.273 OA 
ENDBRANCH  30  31
ENDBRANCH   1  30
TORSDOF 9
ENDMDL
MODEL       50
REMARK 921   NORMALIZED FREE ENERGY PREDICTED BY IDOCK:   -6.07 KCAL/MOL
REMARK 922        TOTAL FREE ENERGY PREDICTED BY IDOCK:  -10.32 KCAL/MOL
REMARK 923 INTER-LIGAND FREE ENERGY PREDICTED BY IDOCK:   -9.04 KCAL/MOL
REMARK 924 INTRA-LIGAND FREE ENERGY PREDICTED BY IDOCK:   -1.27 KCAL/MOL
REMARK 927      BINDING AFFINITY PREDICTED BY RF-SCORE:    0.00 PKD
ROOT
HETATM    1  C   UNL     1      -9.517  11.021  68.294  1.00  0.00    -0.172 C  
ENDROOT
BRANCH   1   2
HETATM    2  N   UNL     1      -9.959  12.162  67.475  1.00  0.00    -0.196 N  
HETATM    3  C   UNL     1     -12.115  13.490  64.913  1.00  0.00    -0.431 A  
HETATM    4  C   UNL     1     -12.100  14.753  64.346  1.00  0.00    -0.457 A  
HETATM    5  O   UNL     1      -8.709  13.982  68.215  1.00  0.00    -0.171 OA 
HETATM    6  C   UNL     1     -11.249  15.745  64.867  1.00  0.00    -0.358 A  
HETATM    7  C   UNL     1     -11.030  12.005  66.645  1.00  0.00    -0.287 C  
HETATM    8  C   UNL     1      -9.565  13.489  67.506  1.00  0.00    -0.221 C  
HETATM    9  C   UNL     1     -10.424  15.532  65.997  1.00  0.00    -0.323 A  
HETATM   10  C   UNL     1     -10.387  14.223  66.493  1.00  0.00    -0.278 A  
HETATM   11  C   UNL     1     -11.245  13.264  65.957  1.00  0.00    -0.316 A  
HETATM   12  O   UNL     1     -11.735  11.022  66.491  1.00  0.00    -0.134 OA 
BRANCH   9  13
HETATM   13  N   UNL     1      -9.620  16.564  66.523  1.00  0.00    -0.256 NA 
HETATM   14  H   UNL     1      -8.703  16.700  66.097  1.00  0.00     0.000 HD 
BRANCH  13  15
HETATM   15  C   UNL     1      -9.941  17.353  67.496  1.00  0.00    -0.298 C  
HETATM   16  C   UNL     1     -10.638  18.680  67.577  1.00  0.00    -0.472 C  
HETATM   17  O   UNL     1      -9.567  16.954  68.724  1.00  0.00    -0.253 OA 
HETATM   18  H   UNL     1      -9.803  17.534  69.439  1.00  0.00     0.000 HD 
ENDBRANCH  13  15
ENDBRANCH   9  13
ENDBRANCH   1   2
BRANCH   1  19
HETATM   19  C   UNL     1     -10.363  10.761  69.555  1.00  0.00    -0.178 A  
HETATM   20  C   UNL     1     -11.560  11.454  69.769  1.00  0.00    -0.407 A  
HETATM   21  C   UNL     1     -12.225   9.880  71.497  1.00  0.00    -0.416 A  
HETATM   22  C   UNL     1     -10.057   9.679  70.415  1.00  0.00    -0.336 A  
HETATM   23  C   UNL     1     -12.482  11.014  70.724  1.00  0.00    -0.491 A  
HETATM   24  C   UNL     1     -10.979   9.232  71.379  1.00  0.00    -0.359 A  
BRANCH  24  25
HETATM   25  O   UNL     1     -10.794   8.155  72.211  1.00  0.00    -0.270 OA 
BRANCH  25  26
HETATM   26  C   UNL     1     -10.700   6.852  71.644  1.00  0.00    -0.222 C  
HETATM   27  C   UNL     1     -11.221   5.849  72.665  1.00  0.00    -0.335 C  
ENDBRANCH  25  26
ENDBRANCH  24  25
BRANCH  21  28
HETATM   28  O   UNL     1     -13.123   9.328  72.379  1.00  0.00    -0.419 OA 
HETATM   29  C   UNL     1     -14.282   8.712  71.832  1.00  0.00    -0.427 C  
ENDBRANCH  21  28
ENDBRANCH   1  19
BRANCH   1  30
HETATM   30  C   UNL     1      -9.306   9.694  67.565  1.00  0.00    -0.130 C  
BRANCH  30  31
HETATM   31  S   UNL     1      -7.998   9.669  66.366  1.00  0.00    -0.109 S  
HETATM   32  O   UNL     1      -7.418   8.341  66.418  1.00  0.00    -0.078 OA 
HETATM   33  C   UNL     1      -6.742  10.789  66.940  1.00  0.00    -0.099 C  
HETATM   34  O   UNL     1      -8.508  10.195  65.117  1.00  0.00    -0.146 OA 
ENDBRANCH  30  31
ENDBRANCH   1  30
TORSDOF 9
ENDMDL
MODEL       51
REMARK 921   NORMALIZED FREE ENERGY PREDICTED BY IDOCK:   -6.06 KCAL/MOL
REMARK 922        TOTAL FREE ENERGY PREDICTED BY IDOCK:  -10.30 KCAL/MOL
REMARK 923 INTER-LIGAND FREE ENERGY PREDICTED BY IDOCK:   -8.53 KCAL/MOL
REMARK 924 INTRA-LIGAND FREE ENERGY PREDICTED BY IDOCK:   -1.77 KCAL/MOL
REMARK 927      BINDING AFFINITY PREDICTED BY RF-SCORE:    0.00 PKD
ROOT
HETATM    1  C   UNL     1      -9.596   9.030  65.964  1.00  0.00    -0.272 C  
ENDROOT
BRANCH   1   2
HETATM    2  N   UNL     1      -9.783   8.563  67.347  1.00  0.00    -0.159 N  
HETATM    3  C   UNL     1     -11.345   6.297  69.671  1.00  0.00    -0.492 A  
HETATM    4  C   UNL     1     -11.277   6.301  71.054  1.00  0.00    -0.372 A  
HETATM    5  O   UNL     1      -8.366   9.877  68.646  1.00  0.00    -0.104 OA 
HETATM    6  C   UNL     1     -10.409   7.193  71.710  1.00  0.00    -0.216 A  
HETATM    7  C   UNL     1     -10.536   7.448  67.572  1.00  0.00    -0.268 C  
HETATM    8  C   UNL     1      -9.175   8.978  68.519  1.00  0.00    -0.136 C  
HETATM    9  C   UNL     1      -9.545   8.073  71.016  1.00  0.00    -0.160 A  
HETATM   10  C   UNL     1      -9.700   8.115  69.625  1.00  0.00    -0.170 A  
HETATM   11  C   UNL     1     -10.565   7.217  69.004  1.00  0.00    -0.225 A  
HETATM   12  O   UNL     1     -11.082   6.721  66.759  1.00  0.00    -0.338 OA 
BRANCH   9  13
HETATM   13  N   UNL     1      -8.652   8.919  71.705  1.00  0.00    -0.337 NA 
HETATM   14  H   UNL     1      -9.058   9.586  72.361  1.00  0.00     0.000 HD 
BRANCH  13  15
HETATM   15  C   UNL     1      -7.365   8.925  71.579  1.00  0.00    -0.052 C  
HETATM   16  C   UNL     1      -6.282   7.932  71.885  1.00  0.00    -0.041 C  
HETATM   17  O   UNL     1      -6.827  10.059  71.096  1.00  0.00    -0.336 OA 
HETATM   18  H   UNL     1      -5.881  10.063  71.004  1.00  0.00     0.000 HD 
ENDBRANCH  13  15
ENDBRANCH   9  13
ENDBRANCH   1   2
BRANCH   1  19
HETATM   19  C   UNL     1     -10.231  10.398  65.650  1.00  0.00    -0.308 A  
HETATM   20  C   UNL     1     -10.372  10.836  64.328  1.00  0.00    -0.401 A  
HETATM   21  C   UNL     1     -11.925  12.575  65.013  1.00  0.00    -0.427 A  
HETATM   22  C   UNL     1     -10.865  11.147  66.671  1.00  0.00    -0.308 A  
HETATM   23  C   UNL     1     -11.215  11.907  64.013  1.00  0.00    -0.470 A  
HETATM   24  C   UNL     1     -11.713  12.226  66.361  1.00  0.00    -0.365 A  
BRANCH  24  25
HETATM   25  O   UNL     1     -12.418  12.967  67.279  1.00  0.00    -0.209 OA 
BRANCH  25  26
HETATM   26  C   UNL     1     -11.712  13.620  68.329  1.00  0.00    -0.363 C  
HETATM   27  C   UNL     1     -11.445  15.057  67.904  1.00  0.00    -0.354 C  
ENDBRANCH  25  26
ENDBRANCH  24  25
BRANCH  21  28
HETATM   28  O   UNL     1     -12.848  13.565  64.772  1.00  0.00    -0.677 OA 
HETATM   29  C   UNL     1     -12.355  14.826  64.338  1.00  0.00    -0.368 C  
ENDBRANCH  21  28
ENDBRANCH   1  19
BRANCH   1  30
HETATM   30  C   UNL     1      -8.166   9.020  65.422  1.00  0.00    -0.130 C  
BRANCH  30  31
HETATM   31  S   UNL     1      -7.787   7.727  64.267  1.00  0.00    -0.125 S  
HETATM   32  O   UNL     1      -8.247   6.490  64.870  1.00  0.00    -0.136 OA 
HETATM   33  C   UNL     1      -6.016   7.612  64.173  1.00  0.00    -0.048 C  
HETATM   34  O   UNL     1      -8.264   8.123  62.958  1.00  0.00    -0.165 OA 
ENDBRANCH  30  31
ENDBRANCH   1  30
TORSDOF 9
ENDMDL
MODEL       52
REMARK 921   NORMALIZED FREE ENERGY PREDICTED BY IDOCK:   -6.03 KCAL/MOL
REMARK 922        TOTAL FREE ENERGY PREDICTED BY IDOCK:  -10.26 KCAL/MOL
REMARK 923 INTER-LIGAND FREE ENERGY PREDICTED BY IDOCK:   -8.78 KCAL/MOL
REMARK 924 INTRA-LIGAND FREE ENERGY PREDICTED BY IDOCK:   -1.48 KCAL/MOL
REMARK 927      BINDING AFFINITY PREDICTED BY RF-SCORE:    0.00 PKD
ROOT
HETATM    1  C   UNL     1     -10.327  15.065  67.461  1.00  0.00    -0.241 C  
ENDROOT
BRANCH   1   2
HETATM    2  N   UNL     1     -10.035  13.896  66.615  1.00  0.00    -0.271 N  
HETATM    3  C   UNL     1     -10.290  12.230  63.432  1.00  0.00    -0.395 A  
HETATM    4  C   UNL     1      -9.893  10.946  63.099  1.00  0.00    -0.392 A  
HETATM    5  O   UNL     1      -8.771  12.463  67.947  1.00  0.00    -0.158 OA 
HETATM    6  C   UNL     1      -9.177  10.171  64.029  1.00  0.00    -0.315 A  
HETATM    7  C   UNL     1     -10.368  13.937  65.293  1.00  0.00    -0.378 C  
HETATM    8  C   UNL     1      -9.302  12.754  66.892  1.00  0.00    -0.234 C  
HETATM    9  C   UNL     1      -8.788  10.661  65.298  1.00  0.00    -0.189 A  
HETATM   10  C   UNL     1      -9.281  11.925  65.646  1.00  0.00    -0.060 A  
HETATM   11  C   UNL     1      -9.984  12.669  64.702  1.00  0.00    -0.168 A  
HETATM   12  O   UNL     1     -10.870  14.852  64.663  1.00  0.00    -0.370 OA 
BRANCH   9  13
HETATM   13  N   UNL     1      -8.028   9.873  66.187  1.00  0.00    -0.107 NA 
HETATM   14  H   UNL     1      -7.022  10.035  66.206  1.00  0.00     0.000 HD 
BRANCH  13  15
HETATM   15  C   UNL     1      -8.494   8.963  66.979  1.00  0.00    -0.112 C  
HETATM   16  C   UNL     1      -9.350   8.991  68.212  1.00  0.00    -0.145 C  
HETATM   17  O   UNL     1      -8.138   7.698  66.695  1.00  0.00    -0.113 OA 
HETATM   18  H   UNL     1      -8.480   7.029  67.276  1.00  0.00     0.000 HD 
ENDBRANCH  13  15
ENDBRANCH   9  13
ENDBRANCH   1   2
BRANCH   1  19
HETATM   19  C   UNL     1     -11.218  14.774  68.684  1.00  0.00    -0.288 A  
HETATM   20  C   UNL     1     -12.159  13.737  68.654  1.00  0.00    -0.333 A  
HETATM   21  C   UNL     1     -12.407  13.820  71.070  1.00  0.00    -0.372 A  
HETATM   22  C   UNL     1     -10.967  15.408  69.924  1.00  0.00    -0.305 A  
HETATM   23  C   UNL     1     -12.740  13.262  69.833  1.00  0.00     0.175 A  
HETATM   24  C   UNL     1     -11.549  14.936  71.115  1.00  0.00    -0.298 A  
BRANCH  24  25
HETATM   25  O   UNL     1     -11.314  15.448  72.368  1.00  0.00    -0.438 OA 
BRANCH  25  26
HETATM   26  C   UNL     1     -12.284  16.307  72.957  1.00  0.00    -0.523 C  
HETATM   27  C   UNL     1     -12.438  15.920  74.422  1.00  0.00    -0.767 C  
ENDBRANCH  25  26
ENDBRANCH  24  25
BRANCH  21  28
HETATM   28  O   UNL     1     -12.855  13.340  72.277  1.00  0.00    -0.247 OA 
HETATM   29  C   UNL     1     -13.308  11.993  72.318  1.00  0.00    -0.156 C  
ENDBRANCH  21  28
ENDBRANCH   1  19
BRANCH   1  30
HETATM   30  C   UNL     1      -9.130  15.899  67.918  1.00  0.00    -0.190 C  
BRANCH  30  31
HETATM   31  S   UNL     1      -8.892  17.438  67.069  1.00  0.00    -0.241 S  
HETATM   32  O   UNL     1      -8.093  17.141  65.895  1.00  0.00    -0.516 OA 
HETATM   33  C   UNL     1      -7.884  18.463  68.115  1.00  0.00    -0.289 C  
HETATM   34  O   UNL     1     -10.177  18.092  66.931  1.00  0.00    -0.337 OA 
ENDBRANCH  30  31
ENDBRANCH   1  30
TORSDOF 9
ENDMDL
MODEL       53
REMARK 921   NORMALIZED FREE ENERGY PREDICTED BY IDOCK:   -6.00 KCAL/MOL
REMARK 922        TOTAL FREE ENERGY PREDICTED BY IDOCK:  -10.22 KCAL/MOL
REMARK 923 INTER-LIGAND FREE ENERGY PREDICTED BY IDOCK:   -9.35 KCAL/MOL
REMARK 924 INTRA-LIGAND FREE ENERGY PREDICTED BY IDOCK:   -0.87 KCAL/MOL
REMARK 927      BINDING AFFINITY PREDICTED BY RF-SCORE:    0.00 PKD
ROOT
HETATM    1  C   UNL     1      -9.516   9.616  68.435  1.00  0.00    -0.137 C  
ENDROOT
BRANCH   1   2
HETATM    2  N   UNL     1     -10.141  10.532  67.467  1.00  0.00    -0.182 N  
HETATM    3  C   UNL     1     -10.953  11.359  64.057  1.00  0.00    -0.428 A  
HETATM    4  C   UNL     1     -11.544  12.512  63.569  1.00  0.00    -0.584 A  
HETATM    5  O   UNL     1     -11.101  12.227  68.744  1.00  0.00    -0.225 OA 
HETATM    6  C   UNL     1     -12.034  13.481  64.463  1.00  0.00    -0.451 A  
HETATM    7  C   UNL     1     -10.194  10.170  66.153  1.00  0.00    -0.215 C  
HETATM    8  C   UNL     1     -10.867  11.693  67.677  1.00  0.00    -0.225 C  
HETATM    9  C   UNL     1     -12.001  13.314  65.868  1.00  0.00    -0.419 A  
HETATM   10  C   UNL     1     -11.316  12.186  66.337  1.00  0.00    -0.411 A  
HETATM   11  C   UNL     1     -10.845  11.244  65.426  1.00  0.00    -0.255 A  
HETATM   12  O   UNL     1      -9.811   9.137  65.633  1.00  0.00    -0.264 OA 
BRANCH   9  13
HETATM   13  N   UNL     1     -12.546  14.284  66.734  1.00  0.00    -0.490 NA 
HETATM   14  H   UNL     1     -13.562  14.369  66.755  1.00  0.00     0.000 HD 
BRANCH  13  15
HETATM   15  C   UNL     1     -11.873  15.075  67.506  1.00  0.00    -0.164 C  
HETATM   16  C   UNL     1     -10.723  16.015  67.288  1.00  0.00    -0.295 C  
HETATM   17  O   UNL     1     -12.224  15.071  68.803  1.00  0.00    -0.569 OA 
HETATM   18  H   UNL     1     -11.730  15.651  69.369  1.00  0.00     0.000 HD 
ENDBRANCH  13  15
ENDBRANCH   9  13
ENDBRANCH   1   2
BRANCH   1  19
HETATM   19  C   UNL     1     -10.502   8.728  69.218  1.00  0.00    -0.228 A  
HETATM   20  C   UNL     1     -10.638   7.369  68.913  1.00  0.00    -0.191 A  
HETATM   21  C   UNL     1     -11.806   6.962  71.006  1.00  0.00    -0.364 A  
HETATM   22  C   UNL     1     -11.135   9.215  70.387  1.00  0.00    -0.293 A  
HETATM   23  C   UNL     1     -11.276   6.495  69.800  1.00  0.00    -0.456 A  
HETATM   24  C   UNL     1     -11.780   8.343  71.282  1.00  0.00    -0.285 A  
BRANCH  24  25
HETATM   25  O   UNL     1     -12.365   8.716  72.468  1.00  0.00    -0.390 OA 
BRANCH  25  26
HETATM   26  C   UNL     1     -13.631   9.368  72.440  1.00  0.00    -0.429 C  
HETATM   27  C   UNL     1     -13.410  10.824  72.054  1.00  0.00    -0.403 C  
ENDBRANCH  25  26
ENDBRANCH  24  25
BRANCH  21  28
HETATM   28  O   UNL     1     -12.354   6.151  71.971  1.00  0.00    -0.290 OA 
HETATM   29  C   UNL     1     -11.459   5.511  72.872  1.00  0.00    -0.267 C  
ENDBRANCH  21  28
ENDBRANCH   1  19
BRANCH   1  30
HETATM   30  C   UNL     1      -8.377   8.738  67.914  1.00  0.00    -0.118 C  
BRANCH  30  31
HETATM   31  S   UNL     1      -7.002   8.524  69.014  1.00  0.00    -0.065 S  
HETATM   32  O   UNL     1      -7.167   7.220  69.629  1.00  0.00    -0.074 OA 
HETATM   33  C   UNL     1      -7.183   9.719  70.318  1.00  0.00    -0.149 C  
HETATM   34  O   UNL     1      -5.784   8.845  68.299  1.00  0.00    -0.038 OA 
ENDBRANCH  30  31
ENDBRANCH   1  30
TORSDOF 9
ENDMDL
MODEL       54
REMARK 921   NORMALIZED FREE ENERGY PREDICTED BY IDOCK:   -6.00 KCAL/MOL
REMARK 922        TOTAL FREE ENERGY PREDICTED BY IDOCK:  -10.21 KCAL/MOL
REMARK 923 INTER-LIGAND FREE ENERGY PREDICTED BY IDOCK:   -9.92 KCAL/MOL
REMARK 924 INTRA-LIGAND FREE ENERGY PREDICTED BY IDOCK:   -0.29 KCAL/MOL
REMARK 927      BINDING AFFINITY PREDICTED BY RF-SCORE:    0.00 PKD
ROOT
HETATM    1  C   UNL     1     -10.965  10.186  68.911  1.00  0.00    -0.223 C  
ENDROOT
BRANCH   1   2
HETATM    2  N   UNL     1     -11.544  11.402  69.505  1.00  0.00    -0.300 N  
HETATM    3  C   UNL     1     -13.430  12.970  72.142  1.00  0.00    -0.638 A  
HETATM    4  C   UNL     1     -13.849  14.286  72.235  1.00  0.00    -0.622 A  
HETATM    5  O   UNL     1     -10.898  13.147  68.105  1.00  0.00    -0.236 OA 
HETATM    6  C   UNL     1     -13.419  15.227  71.281  1.00  0.00    -0.591 A  
HETATM    7  C   UNL     1     -12.138  11.321  70.730  1.00  0.00    -0.349 C  
HETATM    8  C   UNL     1     -11.457  12.723  69.098  1.00  0.00    -0.306 C  
HETATM    9  C   UNL     1     -12.521  14.904  70.236  1.00  0.00    -0.336 A  
HETATM   10  C   UNL     1     -12.187  13.550  70.109  1.00  0.00    -0.400 A  
HETATM   11  C   UNL     1     -12.626  12.644  71.072  1.00  0.00    -0.354 A  
HETATM   12  O   UNL     1     -12.243  10.352  71.462  1.00  0.00    -0.367 OA 
BRANCH   9  13
HETATM   13  N   UNL     1     -12.072  15.883  69.327  1.00  0.00    -0.457 NA 
HETATM   14  H   UNL     1     -12.728  16.182  68.605  1.00  0.00     0.000 HD 
BRANCH  13  15
HETATM   15  C   UNL     1     -10.903  16.437  69.326  1.00  0.00    -0.327 C  
HETATM   16  C   UNL     1      -9.498  15.909  69.336  1.00  0.00    -0.248 C  
HETATM   17  O   UNL     1     -10.889  17.781  69.349  1.00  0.00    -0.256 OA 
HETATM   18  H   UNL     1     -10.031  18.188  69.349  1.00  0.00     0.000 HD 
ENDBRANCH  13  15
ENDBRANCH   9  13
ENDBRANCH   1   2
BRANCH   1  19
HETATM   19  C   UNL     1     -10.073  10.427  67.678  1.00  0.00    -0.223 A  
HETATM   20  C   UNL     1      -8.691  10.219  67.744  1.00  0.00    -0.121 A  
HETATM   21  C   UNL     1      -8.517  10.254  65.320  1.00  0.00    -0.163 A  
HETATM   22  C   UNL     1     -10.651  10.666  66.408  1.00  0.00    -0.240 A  
HETATM   23  C   UNL     1      -7.923  10.126  66.578  1.00  0.00    -0.118 A  
HETATM   24  C   UNL     1      -9.885  10.575  65.231  1.00  0.00    -0.284 A  
BRANCH  24  25
HETATM   25  O   UNL     1     -10.373  10.728  63.956  1.00  0.00    -0.354 OA 
BRANCH  25  26
HETATM   26  C   UNL     1     -10.726  12.031  63.502  1.00  0.00    -0.455 C  
HETATM   27  C   UNL     1     -12.245  12.134  63.479  1.00  0.00    -0.670 C  
ENDBRANCH  25  26
ENDBRANCH  24  25
BRANCH  21  28
HETATM   28  O   UNL     1      -7.850  10.073  64.132  1.00  0.00    -0.138 OA 
HETATM   29  C   UNL     1      -6.861   9.052  64.086  1.00  0.00    -0.087 C  
ENDBRANCH  21  28
ENDBRANCH   1  19
BRANCH   1  30
HETATM   30  C   UNL     1     -10.236   9.236  69.862  1.00  0.00    -0.214 C  
BRANCH  30  31
HETATM   31  S   UNL     1     -10.646   7.517  69.701  1.00  0.00    -0.231 S  
HETATM   32  O   UNL     1     -11.709   7.257  70.655  1.00  0.00    -0.303 OA 
HETATM   33  C   UNL     1      -9.236   6.588  70.257  1.00  0.00    -0.155 C  
HETATM   34  O   UNL     1     -10.836   7.217  68.297  1.00  0.00    -0.157 OA 
ENDBRANCH  30  31
ENDBRANCH   1  30
TORSDOF 9
ENDMDL
MODEL       55
REMARK 921   NORMALIZED FREE ENERGY PREDICTED BY IDOCK:   -5.99 KCAL/MOL
REMARK 922        TOTAL FREE ENERGY PREDICTED BY IDOCK:  -10.20 KCAL/MOL
REMARK 923 INTER-LIGAND FREE ENERGY PREDICTED BY IDOCK:   -8.99 KCAL/MOL
REMARK 924 INTRA-LIGAND FREE ENERGY PREDICTED BY IDOCK:   -1.21 KCAL/MOL
REMARK 927      BINDING AFFINITY PREDICTED BY RF-SCORE:    0.00 PKD
ROOT
HETATM    1  C   UNL     1      -9.968  12.728  66.549  1.00  0.00    -0.253 C  
ENDROOT
BRANCH   1   2
HETATM    2  N   UNL     1     -10.388  11.956  67.730  1.00  0.00    -0.195 N  
HETATM    3  C   UNL     1     -12.574  11.572  70.568  1.00  0.00    -0.286 A  
HETATM    4  C   UNL     1     -12.523  10.617  71.569  1.00  0.00    -0.471 A  
HETATM    5  O   UNL     1      -9.033  10.062  67.752  1.00  0.00    -0.131 OA 
HETATM    6  C   UNL     1     -11.611   9.550  71.475  1.00  0.00    -0.465 A  
HETATM    7  C   UNL     1     -11.494  12.355  68.421  1.00  0.00    -0.310 C  
HETATM    8  C   UNL     1      -9.935  10.738  68.208  1.00  0.00    -0.168 C  
HETATM    9  C   UNL     1     -10.756   9.368  70.362  1.00  0.00    -0.263 A  
HETATM   10  C   UNL     1     -10.760  10.395  69.410  1.00  0.00    -0.277 A  
HETATM   11  C   UNL     1     -11.678  11.437  69.530  1.00  0.00    -0.417 A  
HETATM   12  O   UNL     1     -12.247  13.284  68.182  1.00  0.00    -0.266 OA 
BRANCH   9  13
HETATM   13  N   UNL     1      -9.888   8.260  70.277  1.00  0.00    -0.182 NA 
HETATM   14  H   UNL     1      -8.888   8.456  70.238  1.00  0.00     0.000 HD 
BRANCH  13  15
HETATM   15  C   UNL     1     -10.248   7.018  70.246  1.00  0.00    -0.193 C  
HETATM   16  C   UNL     1     -11.454   6.294  69.723  1.00  0.00    -0.449 C  
HETATM   17  O   UNL     1      -9.400   6.146  70.820  1.00  0.00    -0.156 OA 
HETATM   18  H   UNL     1      -9.664   5.234  70.797  1.00  0.00     0.000 HD 
ENDBRANCH  13  15
ENDBRANCH   9  13
ENDBRANCH   1   2
BRANCH   1  19
HETATM   19  C   UNL     1      -9.296  14.078  66.864  1.00  0.00    -0.266 A  
HETATM   20  C   UNL     1      -8.067  14.128  67.533  1.00  0.00    -0.199 A  
HETATM   21  C   UNL     1      -7.755  16.453  66.899  1.00  0.00    -0.241 A  
HETATM   22  C   UNL     1      -9.799  15.278  66.306  1.00  0.00    -0.316 A  
HETATM   23  C   UNL     1      -7.304  15.299  67.544  1.00  0.00    -0.223 A  
HETATM   24  C   UNL     1      -9.037  16.461  66.316  1.00  0.00    -0.327 A  
BRANCH  24  25
HETATM   25  O   UNL     1      -9.417  17.651  65.745  1.00  0.00    -0.516 OA 
BRANCH  25  26
HETATM   26  C   UNL     1     -10.392  18.454  66.404  1.00  0.00    -0.405 C  
HETATM   27  C   UNL     1      -9.984  19.914  66.261  1.00  0.00    -0.596 C  
ENDBRANCH  25  26
ENDBRANCH  24  25
BRANCH  21  28
HETATM   28  O   UNL     1      -7.018  17.607  66.779  1.00  0.00    -0.169 OA 
HETATM   29  C   UNL     1      -5.660  17.476  66.379  1.00  0.00    -0.206 C  
ENDBRANCH  21  28
ENDBRANCH   1  19
BRANCH   1  30
HETATM   30  C   UNL     1      -9.120  11.990  65.512  1.00  0.00     0.144 C  
BRANCH  30  31
HETATM   31  S   UNL     1     -10.017  11.015  64.333  1.00  0.00    -0.339 S  
HETATM   32  O   UNL     1      -9.768   9.627  64.673  1.00  0.00    -0.202 OA 
HETATM   33  C   UNL     1      -9.263  11.287  62.746  1.00  0.00    -0.322 C  
HETATM   34  O   UNL     1     -11.374  11.516  64.258  1.00  0.00    -0.323 OA 
ENDBRANCH  30  31
ENDBRANCH   1  30
TORSDOF 9
ENDMDL
MODEL       56
REMARK 921   NORMALIZED FREE ENERGY PREDICTED BY IDOCK:   -5.99 KCAL/MOL
REMARK 922        TOTAL FREE ENERGY PREDICTED BY IDOCK:  -10.19 KCAL/MOL
REMARK 923 INTER-LIGAND FREE ENERGY PREDICTED BY IDOCK:   -8.96 KCAL/MOL
REMARK 924 INTRA-LIGAND FREE ENERGY PREDICTED BY IDOCK:   -1.23 KCAL/MOL
REMARK 927      BINDING AFFINITY PREDICTED BY RF-SCORE:    0.00 PKD
ROOT
HETATM    1  C   UNL     1     -10.862  13.253  67.004  1.00  0.00    -0.269 C  
ENDROOT
BRANCH   1   2
HETATM    2  N   UNL     1      -9.614  12.523  67.282  1.00  0.00    -0.200 N  
HETATM    3  C   UNL     1      -7.648   9.519  66.991  1.00  0.00    -0.091 A  
HETATM    4  C   UNL     1      -6.419   9.237  67.563  1.00  0.00    -0.063 A  
HETATM    5  O   UNL     1      -8.241  14.037  68.397  1.00  0.00    -0.141 OA 
HETATM    6  C   UNL     1      -5.722  10.242  68.257  1.00  0.00    -0.041 A  
HETATM    7  C   UNL     1      -9.438  11.284  66.739  1.00  0.00    -0.179 C  
HETATM    8  C   UNL     1      -8.451  12.947  67.902  1.00  0.00    -0.181 C  
HETATM    9  C   UNL     1      -6.197  11.571  68.364  1.00  0.00    -0.049 A  
HETATM   10  C   UNL     1      -7.482  11.807  67.859  1.00  0.00    -0.108 A  
HETATM   11  C   UNL     1      -8.145  10.791  67.174  1.00  0.00    -0.124 A  
HETATM   12  O   UNL     1     -10.181  10.667  65.994  1.00  0.00    -0.242 OA 
BRANCH   9  13
HETATM   13  N   UNL     1      -5.449  12.566  69.026  1.00  0.00    -0.066 NA 
HETATM   14  H   UNL     1      -4.647  12.952  68.528  1.00  0.00     0.000 HD 
BRANCH  13  15
HETATM   15  C   UNL     1      -5.688  13.032  70.208  1.00  0.00    -0.159 C  
HETATM   16  C   UNL     1      -5.553  14.386  70.843  1.00  0.00    -0.178 C  
HETATM   17  O   UNL     1      -6.133  12.142  71.112  1.00  0.00    -0.485 OA 
HETATM   18  H   UNL     1      -6.309  12.485  71.981  1.00  0.00     0.000 HD 
ENDBRANCH  13  15
ENDBRANCH   9  13
ENDBRANCH   1   2
BRANCH   1  19
HETATM   19  C   UNL     1     -11.348  14.165  68.147  1.00  0.00    -0.316 A  
HETATM   20  C   UNL     1     -11.973  13.626  69.277  1.00  0.00    -0.384 A  
HETATM   21  C   UNL     1     -11.678  15.705  70.499  1.00  0.00    -0.366 A  
HETATM   22  C   UNL     1     -10.991  15.535  68.173  1.00  0.00    -0.312 A  
HETATM   23  C   UNL     1     -12.130  14.385  70.441  1.00  0.00    -0.399 A  
HETATM   24  C   UNL     1     -11.148  16.305  69.341  1.00  0.00    -0.328 A  
BRANCH  24  25
HETATM   25  O   UNL     1     -10.773  17.620  69.477  1.00  0.00     0.011 OA 
BRANCH  25  26
HETATM   26  C   UNL     1      -9.824  18.167  68.566  1.00  0.00    -0.382 C  
HETATM   27  C   UNL     1     -10.463  19.362  67.872  1.00  0.00    -0.536 C  
ENDBRANCH  25  26
ENDBRANCH  24  25
BRANCH  21  28
HETATM   28  O   UNL     1     -11.703  16.478  71.635  1.00  0.00    -0.415 OA 
HETATM   29  C   UNL     1     -12.190  15.874  72.827  1.00  0.00    -0.500 C  
ENDBRANCH  21  28
ENDBRANCH   1  19
BRANCH   1  30
HETATM   30  C   UNL     1     -10.921  14.039  65.694  1.00  0.00    -0.300 C  
BRANCH  30  31
HETATM   31  S   UNL     1     -11.867  13.296  64.389  1.00  0.00    -0.422 S  
HETATM   32  O   UNL     1     -12.705  12.288  65.012  1.00  0.00    -0.581 OA 
HETATM   33  C   UNL     1     -10.723  12.422  63.346  1.00  0.00    -0.352 C  
HETATM   34  O   UNL     1     -12.461  14.349  63.593  1.00  0.00    -0.805 OA 
ENDBRANCH  30  31
ENDBRANCH   1  30
TORSDOF 9
ENDMDL
MODEL       57
REMARK 921   NORMALIZED FREE ENERGY PREDICTED BY IDOCK:   -5.98 KCAL/MOL
REMARK 922        TOTAL FREE ENERGY PREDICTED BY IDOCK:  -10.19 KCAL/MOL
REMARK 923 INTER-LIGAND FREE ENERGY PREDICTED BY IDOCK:   -9.65 KCAL/MOL
REMARK 924 INTRA-LIGAND FREE ENERGY PREDICTED BY IDOCK:   -0.54 KCAL/MOL
REMARK 927      BINDING AFFINITY PREDICTED BY RF-SCORE:    0.00 PKD
ROOT
HETATM    1  C   UNL     1     -11.339  10.327  69.510  1.00  0.00    -0.241 C  
ENDROOT
BRANCH   1   2
HETATM    2  N   UNL     1     -11.789  11.624  70.042  1.00  0.00    -0.344 N  
HETATM    3  C   UNL     1     -13.969  13.499  72.211  1.00  0.00    -0.638 A  
HETATM    4  C   UNL     1     -14.104  14.873  72.316  1.00  0.00    -0.600 A  
HETATM    5  O   UNL     1     -10.411  13.217  69.048  1.00  0.00    -0.107 OA 
HETATM    6  C   UNL     1     -13.228  15.719  71.611  1.00  0.00    -0.462 A  
HETATM    7  C   UNL     1     -12.712  11.643  71.046  1.00  0.00    -0.298 C  
HETATM    8  C   UNL     1     -11.308  12.901  69.806  1.00  0.00    -0.037 C  
HETATM    9  C   UNL     1     -12.160  15.231  70.822  1.00  0.00    -0.351 A  
HETATM   10  C   UNL     1     -12.102  13.841  70.658  1.00  0.00    -0.405 A  
HETATM   11  C   UNL     1     -12.982  13.030  71.372  1.00  0.00    -0.373 A  
HETATM   12  O   UNL     1     -13.227  10.700  71.623  1.00  0.00    -0.412 OA 
BRANCH   9  13
HETATM   13  N   UNL     1     -11.270  16.108  70.169  1.00  0.00    -0.365 NA 
HETATM   14  H   UNL     1     -10.566  16.569  70.745  1.00  0.00     0.000 HD 
BRANCH  13  15
HETATM   15  C   UNL     1     -11.268  16.382  68.905  1.00  0.00    -0.304 C  
HETATM   16  C   UNL     1     -10.560  17.400  68.059  1.00  0.00    -0.389 C  
HETATM   17  O   UNL     1     -12.084  15.635  68.140  1.00  0.00    -0.398 OA 
HETATM   18  H   UNL     1     -12.082  15.836  67.212  1.00  0.00     0.000 HD 
ENDBRANCH  13  15
ENDBRANCH   9  13
ENDBRANCH   1   2
BRANCH   1  19
HETATM   19  C   UNL     1     -11.132  10.289  67.984  1.00  0.00    -0.336 A  
HETATM   20  C   UNL     1     -11.533  11.362  67.180  1.00  0.00    -0.268 A  
HETATM   21  C   UNL     1     -10.218  10.526  65.315  1.00  0.00    -0.282 A  
HETATM   22  C   UNL     1     -10.354   9.266  67.390  1.00  0.00    -0.327 A  
HETATM   23  C   UNL     1     -11.075  11.483  65.864  1.00  0.00    -0.274 A  
HETATM   24  C   UNL     1      -9.891   9.380  66.066  1.00  0.00    -0.296 A  
BRANCH  24  25
HETATM   25  O   UNL     1      -9.081   8.471  65.430  1.00  0.00    -0.152 OA 
BRANCH  25  26
HETATM   26  C   UNL     1      -7.836   8.120  66.024  1.00  0.00    -0.093 C  
HETATM   27  C   UNL     1      -6.721   8.511  65.062  1.00  0.00    -0.064 C  
ENDBRANCH  25  26
ENDBRANCH  24  25
BRANCH  21  28
HETATM   28  O   UNL     1      -9.647  10.629  64.069  1.00  0.00    -0.246 OA 
HETATM   29  C   UNL     1      -9.976  11.772  63.291  1.00  0.00    -0.410 C  
ENDBRANCH  21  28
ENDBRANCH   1  19
BRANCH   1  30
HETATM   30  C   UNL     1     -10.121   9.693  70.184  1.00  0.00    -0.262 C  
BRANCH  30  31
HETATM   31  S   UNL     1     -10.398   8.119  70.954  1.00  0.00    -0.192 S  
HETATM   32  O   UNL     1     -11.810   7.826  70.796  1.00  0.00    -0.271 OA 
HETATM   33  C   UNL     1     -10.122   8.334  72.698  1.00  0.00    -0.295 C  
HETATM   34  O   UNL     1      -9.400   7.187  70.471  1.00  0.00    -0.159 OA 
ENDBRANCH  30  31
ENDBRANCH   1  30
TORSDOF 9
ENDMDL
MODEL       58
REMARK 921   NORMALIZED FREE ENERGY PREDICTED BY IDOCK:   -5.98 KCAL/MOL
REMARK 922        TOTAL FREE ENERGY PREDICTED BY IDOCK:  -10.18 KCAL/MOL
REMARK 923 INTER-LIGAND FREE ENERGY PREDICTED BY IDOCK:   -9.45 KCAL/MOL
REMARK 924 INTRA-LIGAND FREE ENERGY PREDICTED BY IDOCK:   -0.73 KCAL/MOL
REMARK 927      BINDING AFFINITY PREDICTED BY RF-SCORE:    0.00 PKD
ROOT
HETATM    1  C   UNL     1      -9.462  10.883  68.825  1.00  0.00    -0.190 C  
ENDROOT
BRANCH   1   2
HETATM    2  N   UNL     1     -10.008  11.414  67.566  1.00  0.00    -0.181 N  
HETATM    3  C   UNL     1     -11.089  10.856  64.175  1.00  0.00     0.217 A  
HETATM    4  C   UNL     1     -11.487  11.791  63.235  1.00  0.00    -0.332 A  
HETATM    5  O   UNL     1     -10.409  13.673  67.963  1.00  0.00    -0.238 OA 
HETATM    6  C   UNL     1     -11.637  13.139  63.607  1.00  0.00    -0.445 A  
HETATM    7  C   UNL     1     -10.315  10.545  66.560  1.00  0.00    -0.233 C  
HETATM    8  C   UNL     1     -10.440  12.690  67.247  1.00  0.00    -0.228 C  
HETATM    9  C   UNL     1     -11.446  13.595  64.933  1.00  0.00    -0.340 A  
HETATM   10  C   UNL     1     -10.955  12.650  65.842  1.00  0.00    -0.310 A  
HETATM   11  C   UNL     1     -10.821  11.322  65.444  1.00  0.00    -0.255 A  
HETATM   12  O   UNL     1     -10.232   9.329  66.554  1.00  0.00    -0.269 OA 
BRANCH   9  13
HETATM   13  N   UNL     1     -11.653  14.945  65.281  1.00  0.00    -0.330 NA 
HETATM   14  H   UNL     1     -12.548  15.183  65.708  1.00  0.00     0.000 HD 
BRANCH  13  15
HETATM   15  C   UNL     1     -10.809  15.910  65.107  1.00  0.00    -0.421 C  
HETATM   16  C   UNL     1      -9.494  16.272  65.736  1.00  0.00    -0.229 C  
HETATM   17  O   UNL     1     -11.150  16.832  64.191  1.00  0.00    -1.346 OA 
HETATM   18  H   UNL     1     -10.530  17.541  64.064  1.00  0.00     0.000 HD 
ENDBRANCH  13  15
ENDBRANCH   9  13
ENDBRANCH   1   2
BRANCH   1  19
HETATM   19  C   UNL     1     -10.511  10.587  69.913  1.00  0.00    -0.213 A  
HETATM   20  C   UNL     1     -11.758  11.222  69.897  1.00  0.00    -0.430 A  
HETATM   21  C   UNL     1     -12.653   9.622  71.494  1.00  0.00    -0.391 A  
HETATM   22  C   UNL     1     -10.317   9.523  70.828  1.00  0.00    -0.377 A  
HETATM   23  C   UNL     1     -12.818  10.740  70.672  1.00  0.00    -0.377 A  
HETATM   24  C   UNL     1     -11.379   9.035  71.612  1.00  0.00    -0.360 A  
BRANCH  24  25
HETATM   25  O   UNL     1     -11.299   7.971  72.477  1.00  0.00    -0.353 OA 
BRANCH  25  26
HETATM   26  C   UNL     1     -11.023   6.675  71.954  1.00  0.00    -0.244 C  
HETATM   27  C   UNL     1     -10.032   5.987  72.883  1.00  0.00    -0.187 C  
ENDBRANCH  25  26
ENDBRANCH  24  25
BRANCH  21  28
HETATM   28  O   UNL     1     -13.671   9.031  72.203  1.00  0.00    -0.422 OA 
HETATM   29  C   UNL     1     -14.329   7.923  71.601  1.00  0.00    -0.479 C  
ENDBRANCH  21  28
ENDBRANCH   1  19
BRANCH   1  30
HETATM   30  C   UNL     1      -8.521   9.683  68.715  1.00  0.00    -0.123 C  
BRANCH  30  31
HETATM   31  S   UNL     1      -6.890   9.916  69.372  1.00  0.00    -0.067 S  
HETATM   32  O   UNL     1      -5.982   9.884  68.241  1.00  0.00    -0.043 OA 
HETATM   33  C   UNL     1      -6.513   8.486  70.359  1.00  0.00    -0.036 C  
HETATM   34  O   UNL     1      -6.910  11.061  70.260  1.00  0.00    -0.217 OA 
ENDBRANCH  30  31
ENDBRANCH   1  30
TORSDOF 9
ENDMDL
MODEL       59
REMARK 921   NORMALIZED FREE ENERGY PREDICTED BY IDOCK:   -5.97 KCAL/MOL
REMARK 922        TOTAL FREE ENERGY PREDICTED BY IDOCK:  -10.17 KCAL/MOL
REMARK 923 INTER-LIGAND FREE ENERGY PREDICTED BY IDOCK:   -8.36 KCAL/MOL
REMARK 924 INTRA-LIGAND FREE ENERGY PREDICTED BY IDOCK:   -1.82 KCAL/MOL
REMARK 927      BINDING AFFINITY PREDICTED BY RF-SCORE:    0.00 PKD
ROOT
HETATM    1  C   UNL     1      -8.529  10.566  67.890  1.00  0.00    -0.119 C  
ENDROOT
BRANCH   1   2
HETATM    2  N   UNL     1      -9.120   9.384  68.538  1.00  0.00    -0.131 N  
HETATM    3  C   UNL     1      -8.860   5.926  69.513  1.00  0.00    -0.123 A  
HETATM    4  C   UNL     1      -9.826   5.121  70.092  1.00  0.00    -0.300 A  
HETATM    5  O   UNL     1     -11.179  10.091  69.366  1.00  0.00    -0.231 OA 
HETATM    6  C   UNL     1     -11.053   5.678  70.497  1.00  0.00    -0.199 A  
HETATM    7  C   UNL     1      -8.363   8.258  68.678  1.00  0.00    -0.125 C  
HETATM    8  C   UNL     1     -10.322   9.242  69.211  1.00  0.00    -0.215 C  
HETATM    9  C   UNL     1     -11.340   7.060  70.390  1.00  0.00    -0.310 A  
HETATM   10  C   UNL     1     -10.386   7.835  69.719  1.00  0.00    -0.221 A  
HETATM   11  C   UNL     1      -9.180   7.254  69.332  1.00  0.00    -0.148 A  
HETATM   12  O   UNL     1      -7.199   8.080  68.360  1.00  0.00    -0.084 OA 
BRANCH   9  13
HETATM   13  N   UNL     1     -12.561   7.593  70.852  1.00  0.00    -0.537 NA 
HETATM   14  H   UNL     1     -13.407   7.314  70.355  1.00  0.00     0.000 HD 
BRANCH  13  15
HETATM   15  C   UNL     1     -12.703   8.405  71.849  1.00  0.00    -0.355 C  
HETATM   16  C   UNL     1     -13.373   9.737  72.022  1.00  0.00    -0.547 C  
HETATM   17  O   UNL     1     -12.118   8.031  73.000  1.00  0.00    -0.646 OA 
HETATM   18  H   UNL     1     -12.223   8.627  73.732  1.00  0.00     0.000 HD 
ENDBRANCH  13  15
ENDBRANCH   9  13
ENDBRANCH   1   2
BRANCH   1  19
HETATM   19  C   UNL     1      -9.410  11.222  66.810  1.00  0.00    -0.191 A  
HETATM   20  C   UNL     1      -9.751  10.526  65.644  1.00  0.00    -0.289 A  
HETATM   21  C   UNL     1     -11.498  12.136  65.130  1.00  0.00    -0.323 A  
HETATM   22  C   UNL     1     -10.058  12.455  67.063  1.00  0.00    -0.223 A  
HETATM   23  C   UNL     1     -10.787  10.974  64.819  1.00  0.00    -0.234 A  
HETATM   24  C   UNL     1     -11.100  12.913  66.236  1.00  0.00    -0.288 A  
BRANCH  24  25
HETATM   25  O   UNL     1     -11.825  14.062  66.439  1.00  0.00    -0.377 OA 
BRANCH  25  26
HETATM   26  C   UNL     1     -11.134  15.296  66.604  1.00  0.00    -0.276 C  
HETATM   27  C   UNL     1     -10.676  15.773  65.233  1.00  0.00    -0.446 C  
ENDBRANCH  25  26
ENDBRANCH  24  25
BRANCH  21  28
HETATM   28  O   UNL     1     -12.591  12.582  64.427  1.00  0.00    -0.574 OA 
HETATM   29  C   UNL     1     -12.374  13.032  63.096  1.00  0.00    -0.146 C  
ENDBRANCH  21  28
ENDBRANCH   1  19
BRANCH   1  30
HETATM   30  C   UNL     1      -7.993  11.660  68.814  1.00  0.00    -0.086 C  
BRANCH  30  31
HETATM   31  S   UNL     1      -6.412  11.343  69.552  1.00  0.00    -0.129 S  
HETATM   32  O   UNL     1      -6.674  10.693  70.822  1.00  0.00    -0.322 OA 
HETATM   33  C   UNL     1      -5.686  12.920  69.935  1.00  0.00    -0.122 C  
HETATM   34  O   UNL     1      -5.563  10.704  68.567  1.00  0.00    -0.041 OA 
ENDBRANCH  30  31
ENDBRANCH   1  30
TORSDOF 9
ENDMDL
MODEL       60
REMARK 921   NORMALIZED FREE ENERGY PREDICTED BY IDOCK:   -5.96 KCAL/MOL
REMARK 922        TOTAL FREE ENERGY PREDICTED BY IDOCK:  -10.15 KCAL/MOL
REMARK 923 INTER-LIGAND FREE ENERGY PREDICTED BY IDOCK:   -9.15 KCAL/MOL
REMARK 924 INTRA-LIGAND FREE ENERGY PREDICTED BY IDOCK:   -1.00 KCAL/MOL
REMARK 927      BINDING AFFINITY PREDICTED BY RF-SCORE:    0.00 PKD
ROOT
HETATM    1  C   UNL     1     -10.904  14.023  69.085  1.00  0.00    -0.206 C  
ENDROOT
BRANCH   1   2
HETATM    2  N   UNL     1     -10.582  12.830  68.284  1.00  0.00    -0.232 N  
HETATM    3  C   UNL     1     -10.266   9.251  68.040  1.00  0.00    -0.255 A  
HETATM    4  C   UNL     1      -9.783   8.500  66.982  1.00  0.00    -0.266 A  
HETATM    5  O   UNL     1     -10.085  13.627  66.153  1.00  0.00    -0.291 OA 
HETATM    6  C   UNL     1      -9.472   9.128  65.762  1.00  0.00    -0.322 A  
HETATM    7  C   UNL     1     -10.784  11.595  68.827  1.00  0.00    -0.219 C  
HETATM    8  C   UNL     1     -10.237  12.719  66.948  1.00  0.00    -0.236 C  
HETATM    9  C   UNL     1      -9.678  10.510  65.536  1.00  0.00    -0.242 A  
HETATM   10  C   UNL     1     -10.078  11.261  66.648  1.00  0.00    -0.251 A  
HETATM   11  C   UNL     1     -10.381  10.609  67.842  1.00  0.00    -0.231 A  
HETATM   12  O   UNL     1     -11.243  11.310  69.919  1.00  0.00    -0.255 OA 
BRANCH   9  13
HETATM   13  N   UNL     1      -9.401  11.098  64.285  1.00  0.00    -0.325 NA 
HETATM   14  H   UNL     1      -9.169  12.091  64.279  1.00  0.00     0.000 HD 
BRANCH  13  15
HETATM   15  C   UNL     1      -9.416  10.489  63.143  1.00  0.00    -0.336 C  
HETATM   16  C   UNL     1      -8.391   9.727  62.354  1.00  0.00    -0.158 C  
HETATM   17  O   UNL     1     -10.573  10.546  62.461  1.00  0.00    -0.554 OA 
HETATM   18  H   UNL     1     -10.583  10.100  61.623  1.00  0.00     0.000 HD 
ENDBRANCH  13  15
ENDBRANCH   9  13
ENDBRANCH   1   2
BRANCH   1  19
HETATM   19  C   UNL     1     -10.237  15.326  68.606  1.00  0.00    -0.223 A  
HETATM   20  C   UNL     1     -11.008  16.449  68.286  1.00  0.00    -0.355 A  
HETATM   21  C   UNL     1      -9.042  17.878  68.335  1.00  0.00    -0.289 A  
HETATM   22  C   UNL     1      -8.831  15.480  68.674  1.00  0.00    -0.193 A  
HETATM   23  C   UNL     1     -10.418  17.711  68.160  1.00  0.00    -0.386 A  
HETATM   24  C   UNL     1      -8.231  16.746  68.546  1.00  0.00    -0.242 A  
BRANCH  24  25
HETATM   25  O   UNL     1      -6.885  16.999  68.660  1.00  0.00    -0.168 OA 
BRANCH  25  26
HETATM   26  C   UNL     1      -6.235  16.735  69.899  1.00  0.00    -0.149 C  
HETATM   27  C   UNL     1      -5.506  17.999  70.335  1.00  0.00    -0.251 C  
ENDBRANCH  25  26
ENDBRANCH  24  25
BRANCH  21  28
HETATM   28  O   UNL     1      -8.407  19.097  68.328  1.00  0.00    -0.308 OA 
HETATM   29  C   UNL     1      -9.098  20.191  67.737  1.00  0.00    -0.298 C  
ENDBRANCH  21  28
ENDBRANCH   1  19
BRANCH   1  30
HETATM   30  C   UNL     1     -12.386  14.299  69.341  1.00  0.00    -0.199 C  
BRANCH  30  31
HETATM   31  S   UNL     1     -12.849  14.520  71.039  1.00  0.00    -0.367 S  
HETATM   32  O   UNL     1     -13.886  15.535  71.053  1.00  0.00    -0.545 OA 
HETATM   33  C   UNL     1     -11.448  15.224  71.877  1.00  0.00    -0.424 C  
HETATM   34  O   UNL     1     -13.094  13.218  71.624  1.00  0.00    -0.376 OA 
ENDBRANCH  30  31
ENDBRANCH   1  30
TORSDOF 9
ENDMDL
MODEL       61
REMARK 921   NORMALIZED FREE ENERGY PREDICTED BY IDOCK:   -5.95 KCAL/MOL
REMARK 922        TOTAL FREE ENERGY PREDICTED BY IDOCK:  -10.14 KCAL/MOL
REMARK 923 INTER-LIGAND FREE ENERGY PREDICTED BY IDOCK:   -8.93 KCAL/MOL
REMARK 924 INTRA-LIGAND FREE ENERGY PREDICTED BY IDOCK:   -1.21 KCAL/MOL
REMARK 927      BINDING AFFINITY PREDICTED BY RF-SCORE:    0.00 PKD
ROOT
HETATM    1  C   UNL     1     -10.793  10.161  68.715  1.00  0.00    -0.225 C  
ENDROOT
BRANCH   1   2
HETATM    2  N   UNL     1     -10.243   9.461  69.888  1.00  0.00    -0.207 N  
HETATM    3  C   UNL     1      -7.419   8.642  71.967  1.00  0.00    -0.078 A  
HETATM    4  C   UNL     1      -7.364   7.766  73.038  1.00  0.00    -0.119 A  
HETATM    5  O   UNL     1     -12.065   8.434  70.912  1.00  0.00    -0.253 OA 
HETATM    6  C   UNL     1      -8.547   7.175  73.520  1.00  0.00    -0.168 A  
HETATM    7  C   UNL     1      -8.938   9.665  70.227  1.00  0.00    -0.219 C  
HETATM    8  C   UNL     1     -10.882   8.710  70.860  1.00  0.00    -0.239 C  
HETATM    9  C   UNL     1      -9.824   7.471  72.989  1.00  0.00    -0.238 A  
HETATM   10  C   UNL     1      -9.842   8.286  71.850  1.00  0.00    -0.300 A  
HETATM   11  C   UNL     1      -8.655   8.859  71.399  1.00  0.00    -0.238 A  
HETATM   12  O   UNL     1      -8.120  10.400  69.699  1.00  0.00    -0.161 OA 
BRANCH   9  13
HETATM   13  N   UNL     1     -10.994   6.898  73.529  1.00  0.00    -0.534 NA 
HETATM   14  H   UNL     1     -11.472   7.421  74.261  1.00  0.00     0.000 HD 
BRANCH  13  15
HETATM   15  C   UNL     1     -11.513   5.766  73.178  1.00  0.00    -0.053 C  
HETATM   16  C   UNL     1     -11.051   4.340  73.246  1.00  0.00    -0.342 C  
HETATM   17  O   UNL     1     -12.723   5.830  72.595  1.00  0.00    -0.473 OA 
HETATM   18  H   UNL     1     -13.105   5.000  72.338  1.00  0.00     0.000 HD 
ENDBRANCH  13  15
ENDBRANCH   9  13
ENDBRANCH   1   2
BRANCH   1  19
HETATM   19  C   UNL     1     -11.488  11.500  69.026  1.00  0.00    -0.355 A  
HETATM   20  C   UNL     1     -12.058  11.736  70.283  1.00  0.00    -0.426 A  
HETATM   21  C   UNL     1     -12.200  14.120  69.831  1.00  0.00    -0.359 A  
HETATM   22  C   UNL     1     -11.386  12.589  68.126  1.00  0.00    -0.343 A  
HETATM   23  C   UNL     1     -12.403  13.031  70.682  1.00  0.00    -0.391 A  
HETATM   24  C   UNL     1     -11.733  13.894  68.521  1.00  0.00    -0.355 A  
BRANCH  24  25
HETATM   25  O   UNL     1     -11.608  15.016  67.739  1.00  0.00    -0.332 OA 
BRANCH  25  26
HETATM   26  C   UNL     1     -10.310  15.424  67.316  1.00  0.00    -0.271 C  
HETATM   27  C   UNL     1     -10.452  16.180  66.002  1.00  0.00    -0.349 C  
ENDBRANCH  25  26
ENDBRANCH  24  25
BRANCH  21  28
HETATM   28  O   UNL     1     -12.417  15.429  70.189  1.00  0.00    -0.368 OA 
HETATM   29  C   UNL     1     -11.673  15.938  71.288  1.00  0.00    -0.448 C  
ENDBRANCH  21  28
ENDBRANCH   1  19
BRANCH   1  30
HETATM   30  C   UNL     1      -9.848  10.365  67.531  1.00  0.00    -0.172 C  
BRANCH  30  31
HETATM   31  S   UNL     1      -9.738   9.013  66.388  1.00  0.00    -0.285 S  
HETATM   32  O   UNL     1     -10.697   8.020  66.833  1.00  0.00    -0.322 OA 
HETATM   33  C   UNL     1      -8.129   8.283  66.593  1.00  0.00    -0.102 C  
HETATM   34  O   UNL     1      -9.804   9.540  65.041  1.00  0.00    -0.203 OA 
ENDBRANCH  30  31
ENDBRANCH   1  30
TORSDOF 9
ENDMDL
MODEL       62
REMARK 921   NORMALIZED FREE ENERGY PREDICTED BY IDOCK:   -5.94 KCAL/MOL
REMARK 922        TOTAL FREE ENERGY PREDICTED BY IDOCK:  -10.12 KCAL/MOL
REMARK 923 INTER-LIGAND FREE ENERGY PREDICTED BY IDOCK:   -8.87 KCAL/MOL
REMARK 924 INTRA-LIGAND FREE ENERGY PREDICTED BY IDOCK:   -1.25 KCAL/MOL
REMARK 927      BINDING AFFINITY PREDICTED BY RF-SCORE:    0.00 PKD
ROOT
HETATM    1  C   UNL     1      -9.090  10.332  69.324  1.00  0.00    -0.194 C  
ENDROOT
BRANCH   1   2
HETATM    2  N   UNL     1      -9.530  10.574  67.940  1.00  0.00    -0.146 N  
HETATM    3  C   UNL     1      -9.165   9.940  64.414  1.00  0.00    -0.317 A  
HETATM    4  C   UNL     1      -9.829  10.542  63.358  1.00  0.00    -0.323 A  
HETATM    5  O   UNL     1     -11.356  12.010  68.109  1.00  0.00    -0.246 OA 
HETATM    6  C   UNL     1     -10.885  11.436  63.613  1.00  0.00    -0.459 A  
HETATM    7  C   UNL     1      -8.965   9.852  66.931  1.00  0.00    -0.138 C  
HETATM    8  C   UNL     1     -10.584  11.333  67.459  1.00  0.00    -0.218 C  
HETATM    9  C   UNL     1     -11.349  11.722  64.919  1.00  0.00    -0.236 A  
HETATM   10  C   UNL     1     -10.603  11.175  65.970  1.00  0.00    -0.298 A  
HETATM   11  C   UNL     1      -9.565  10.290  65.685  1.00  0.00    -0.289 A  
HETATM   12  O   UNL     1      -8.128   8.969  67.003  1.00  0.00    -0.104 OA 
BRANCH   9  13
HETATM   13  N   UNL     1     -12.443  12.586  65.136  1.00  0.00    -0.628 NA 
HETATM   14  H   UNL     1     -13.368  12.160  65.181  1.00  0.00     0.000 HD 
BRANCH  13  15
HETATM   15  C   UNL     1     -12.376  13.870  65.281  1.00  0.00    -0.464 C  
HETATM   16  C   UNL     1     -12.121  15.014  64.344  1.00  0.00    -0.373 C  
HETATM   17  O   UNL     1     -12.540  14.328  66.534  1.00  0.00    -0.545 OA 
HETATM   18  H   UNL     1     -12.491  15.271  66.641  1.00  0.00     0.000 HD 
ENDBRANCH  13  15
ENDBRANCH   9  13
ENDBRANCH   1   2
BRANCH   1  19
HETATM   19  C   UNL     1     -10.001   9.395  70.140  1.00  0.00    -0.269 A  
HETATM   20  C   UNL     1     -11.111   9.897  70.828  1.00  0.00    -0.417 A  
HETATM   21  C   UNL     1     -12.017   7.659  71.109  1.00  0.00    -0.297 A  
HETATM   22  C   UNL     1      -9.856   7.990  70.045  1.00  0.00    -0.185 A  
HETATM   23  C   UNL     1     -12.110   9.039  71.300  1.00  0.00    -0.375 A  
HETATM   24  C   UNL     1     -10.856   7.121  70.519  1.00  0.00    -0.246 A  
BRANCH  24  25
HETATM   25  O   UNL     1     -10.830   5.752  70.413  1.00  0.00    -0.291 OA 
BRANCH  25  26
HETATM   26  C   UNL     1      -9.690   5.043  70.889  1.00  0.00    -0.190 C  
HETATM   27  C   UNL     1      -9.622   5.209  72.401  1.00  0.00    -0.176 C  
ENDBRANCH  25  26
ENDBRANCH  24  25
BRANCH  21  28
HETATM   28  O   UNL     1     -13.003   6.765  71.451  1.00  0.00    -0.314 OA 
HETATM   29  C   UNL     1     -14.334   7.259  71.531  1.00  0.00    -0.396 C  
ENDBRANCH  21  28
ENDBRANCH   1  19
BRANCH   1  30
HETATM   30  C   UNL     1      -7.638   9.890  69.516  1.00  0.00    -0.125 C  
BRANCH  30  31
HETATM   31  S   UNL     1      -6.424  11.182  69.459  1.00  0.00    -0.131 S  
HETATM   32  O   UNL     1      -6.108  11.510  70.836  1.00  0.00    -0.360 OA 
HETATM   33  C   UNL     1      -7.218  12.617  68.771  1.00  0.00    -0.083 C  
HETATM   34  O   UNL     1      -5.374  10.788  68.542  1.00  0.00    -0.041 OA 
ENDBRANCH  30  31
ENDBRANCH   1  30
TORSDOF 9
ENDMDL
MODEL       63
REMARK 921   NORMALIZED FREE ENERGY PREDICTED BY IDOCK:   -5.93 KCAL/MOL
REMARK 922        TOTAL FREE ENERGY PREDICTED BY IDOCK:  -10.10 KCAL/MOL
REMARK 923 INTER-LIGAND FREE ENERGY PREDICTED BY IDOCK:   -8.89 KCAL/MOL
REMARK 924 INTRA-LIGAND FREE ENERGY PREDICTED BY IDOCK:   -1.21 KCAL/MOL
REMARK 927      BINDING AFFINITY PREDICTED BY RF-SCORE:    0.00 PKD
ROOT
HETATM    1  C   UNL     1      -9.049  10.691  69.146  1.00  0.00    -0.139 C  
ENDROOT
BRANCH   1   2
HETATM    2  N   UNL     1      -9.543  10.955  67.785  1.00  0.00    -0.162 N  
HETATM    3  C   UNL     1      -9.599  10.101  64.286  1.00  0.00    -0.354 A  
HETATM    4  C   UNL     1     -10.212  10.777  63.245  1.00  0.00    -0.243 A  
HETATM    5  O   UNL     1     -11.024  12.740  67.994  1.00  0.00    -0.222 OA 
HETATM    6  C   UNL     1     -11.044  11.879  63.519  1.00  0.00    -0.506 A  
HETATM    7  C   UNL     1      -9.217  10.088  66.784  1.00  0.00    -0.148 C  
HETATM    8  C   UNL     1     -10.459  11.890  67.333  1.00  0.00    -0.217 C  
HETATM    9  C   UNL     1     -11.334  12.312  64.834  1.00  0.00    -0.325 A  
HETATM   10  C   UNL     1     -10.630  11.672  65.862  1.00  0.00    -0.318 A  
HETATM   11  C   UNL     1      -9.816  10.583  65.559  1.00  0.00    -0.324 A  
HETATM   12  O   UNL     1      -8.571   9.057  66.851  1.00  0.00    -0.121 OA 
BRANCH   9  13
HETATM   13  N   UNL     1     -12.212  13.389  65.074  1.00  0.00    -0.399 NA 
HETATM   14  H   UNL     1     -13.126  13.165  65.466  1.00  0.00     0.000 HD 
BRANCH  13  15
HETATM   15  C   UNL     1     -11.960  14.637  64.841  1.00  0.00    -0.400 C  
HETATM   16  C   UNL     1     -11.106  15.672  65.514  1.00  0.00    -0.229 C  
HETATM   17  O   UNL     1     -12.602  15.180  63.792  1.00  0.00    -0.982 OA 
HETATM   18  H   UNL     1     -12.417  16.096  63.622  1.00  0.00     0.000 HD 
ENDBRANCH  13  15
ENDBRANCH   9  13
ENDBRANCH   1   2
BRANCH   1  19
HETATM   19  C   UNL     1      -9.716   9.498  69.858  1.00  0.00    -0.252 A  
HETATM   20  C   UNL     1      -9.133   8.226  69.821  1.00  0.00    -0.147 A  
HETATM   21  C   UNL     1     -10.554   7.463  71.638  1.00  0.00    -0.205 A  
HETATM   22  C   UNL     1     -10.813   9.703  70.728  1.00  0.00    -0.400 A  
HETATM   23  C   UNL     1      -9.543   7.224  70.705  1.00  0.00    -0.171 A  
HETATM   24  C   UNL     1     -11.232   8.698  71.620  1.00  0.00    -0.309 A  
BRANCH  24  25
HETATM   25  O   UNL     1     -12.243   8.829  72.540  1.00  0.00    -0.364 OA 
BRANCH  25  26
HETATM   26  C   UNL     1     -13.528   9.257  72.101  1.00  0.00    -0.473 C  
HETATM   27  C   UNL     1     -14.315   8.030  71.659  1.00  0.00    -0.581 C  
ENDBRANCH  25  26
ENDBRANCH  24  25
BRANCH  21  28
HETATM   28  O   UNL     1     -10.939   6.565  72.605  1.00  0.00    -0.235 OA 
HETATM   29  C   UNL     1     -10.870   5.183  72.278  1.00  0.00    -0.176 C  
ENDBRANCH  21  28
ENDBRANCH   1  19
BRANCH   1  30
HETATM   30  C   UNL     1      -7.534  10.577  69.318  1.00  0.00    -0.122 C  
BRANCH  30  31
HETATM   31  S   UNL     1      -6.601  12.037  68.935  1.00  0.00    -0.095 S  
HETATM   32  O   UNL     1      -5.796  11.717  67.771  1.00  0.00    -0.047 OA 
HETATM   33  C   UNL     1      -5.463  12.298  70.276  1.00  0.00    -0.139 C  
HETATM   34  O   UNL     1      -7.505  13.168  68.910  1.00  0.00    -0.084 OA 
ENDBRANCH  30  31
ENDBRANCH   1  30
TORSDOF 9
ENDMDL
MODEL       64
REMARK 921   NORMALIZED FREE ENERGY PREDICTED BY IDOCK:   -5.93 KCAL/MOL
REMARK 922        TOTAL FREE ENERGY PREDICTED BY IDOCK:  -10.10 KCAL/MOL
REMARK 923 INTER-LIGAND FREE ENERGY PREDICTED BY IDOCK:   -8.59 KCAL/MOL
REMARK 924 INTRA-LIGAND FREE ENERGY PREDICTED BY IDOCK:   -1.51 KCAL/MOL
REMARK 927      BINDING AFFINITY PREDICTED BY RF-SCORE:    0.00 PKD
ROOT
HETATM    1  C   UNL     1      -8.795  10.730  68.248  1.00  0.00    -0.139 C  
ENDROOT
BRANCH   1   2
HETATM    2  N   UNL     1      -9.886  10.266  69.121  1.00  0.00    -0.205 N  
HETATM    3  C   UNL     1     -12.749  11.016  71.174  1.00  0.00    -0.521 A  
HETATM    4  C   UNL     1     -13.487  10.156  71.968  1.00  0.00    -0.418 A  
HETATM    5  O   UNL     1      -9.706   7.944  69.162  1.00  0.00    -0.159 OA 
HETATM    6  C   UNL     1     -13.231   8.773  71.929  1.00  0.00    -0.424 A  
HETATM    7  C   UNL     1     -10.812  11.166  69.558  1.00  0.00    -0.188 C  
HETATM    8  C   UNL     1     -10.258   8.980  69.479  1.00  0.00    -0.203 C  
HETATM    9  C   UNL     1     -12.271   8.195  71.065  1.00  0.00    -0.177 A  
HETATM   10  C   UNL     1     -11.476   9.092  70.342  1.00  0.00    -0.228 A  
HETATM   11  C   UNL     1     -11.756  10.456  70.400  1.00  0.00    -0.419 A  
HETATM   12  O   UNL     1     -10.899  12.354  69.299  1.00  0.00    -0.150 OA 
BRANCH   9  13
HETATM   13  N   UNL     1     -12.075   6.799  71.016  1.00  0.00    -0.379 NA 
HETATM   14  H   UNL     1     -12.701   6.263  70.416  1.00  0.00     0.000 HD 
BRANCH  13  15
HETATM   15  C   UNL     1     -11.171   6.139  71.665  1.00  0.00    -0.286 C  
HETATM   16  C   UNL     1     -10.908   5.886  73.121  1.00  0.00    -0.296 C  
HETATM   17  O   UNL     1     -10.221   5.552  70.917  1.00  0.00    -0.203 OA 
HETATM   18  H   UNL     1      -9.558   5.067  71.393  1.00  0.00     0.000 HD 
ENDBRANCH  13  15
ENDBRANCH   9  13
ENDBRANCH   1   2
BRANCH   1  19
HETATM   19  C   UNL     1      -9.234  11.150  66.832  1.00  0.00    -0.179 A  
HETATM   20  C   UNL     1      -9.692  10.199  65.913  1.00  0.00    -0.292 A  
HETATM   21  C   UNL     1     -10.613  11.941  64.489  1.00  0.00    -0.311 A  
HETATM   22  C   UNL     1      -9.375  12.519  66.500  1.00  0.00    -0.233 A  
HETATM   23  C   UNL     1     -10.380  10.590  64.759  1.00  0.00    -0.300 A  
HETATM   24  C   UNL     1     -10.065  12.920  65.341  1.00  0.00    -0.251 A  
BRANCH  24  25
HETATM   25  O   UNL     1     -10.305  14.221  64.973  1.00  0.00    -0.397 OA 
BRANCH  25  26
HETATM   26  C   UNL     1     -11.074  15.053  65.836  1.00  0.00    -0.334 C  
HETATM   27  C   UNL     1     -10.373  16.401  65.950  1.00  0.00    -0.378 C  
ENDBRANCH  25  26
ENDBRANCH  24  25
BRANCH  21  28
HETATM   28  O   UNL     1     -11.368  12.397  63.435  1.00  0.00    -0.452 OA 
HETATM   29  C   UNL     1     -12.703  11.918  63.331  1.00  0.00    -0.366 C  
ENDBRANCH  21  28
ENDBRANCH   1  19
BRANCH   1  30
HETATM   30  C   UNL     1      -7.873  11.810  68.814  1.00  0.00    -0.076 C  
BRANCH  30  31
HETATM   31  S   UNL     1      -6.490  11.227  69.760  1.00  0.00    -0.126 S  
HETATM   32  O   UNL     1      -5.745  12.404  70.167  1.00  0.00    -0.127 OA 
HETATM   33  C   UNL     1      -5.436  10.327  68.646  1.00  0.00    -0.038 C  
HETATM   34  O   UNL     1      -6.972  10.289  70.752  1.00  0.00    -0.332 OA 
ENDBRANCH  30  31
ENDBRANCH   1  30
TORSDOF 9
ENDMDL
MODEL       65
REMARK 921   NORMALIZED FREE ENERGY PREDICTED BY IDOCK:   -5.91 KCAL/MOL
REMARK 922        TOTAL FREE ENERGY PREDICTED BY IDOCK:  -10.08 KCAL/MOL
REMARK 923 INTER-LIGAND FREE ENERGY PREDICTED BY IDOCK:   -8.37 KCAL/MOL
REMARK 924 INTRA-LIGAND FREE ENERGY PREDICTED BY IDOCK:   -1.72 KCAL/MOL
REMARK 927      BINDING AFFINITY PREDICTED BY RF-SCORE:    0.00 PKD
ROOT
HETATM    1  C   UNL     1     -10.622   9.527  69.523  1.00  0.00    -0.221 C  
ENDROOT
BRANCH   1   2
HETATM    2  N   UNL     1      -9.683   8.851  68.613  1.00  0.00    -0.158 N  
HETATM    3  C   UNL     1      -6.295   8.182  67.589  1.00  0.00    -0.053 A  
HETATM    4  C   UNL     1      -5.855   7.472  66.485  1.00  0.00    -0.036 A  
HETATM    5  O   UNL     1     -11.008   7.574  67.186  1.00  0.00    -0.293 OA 
HETATM    6  C   UNL     1      -6.781   6.788  65.677  1.00  0.00    -0.051 A  
HETATM    7  C   UNL     1      -8.344   8.945  68.855  1.00  0.00    -0.122 C  
HETATM    8  C   UNL     1      -9.925   7.957  67.584  1.00  0.00    -0.181 C  
HETATM    9  C   UNL     1      -8.165   6.742  65.967  1.00  0.00    -0.129 A  
HETATM   10  C   UNL     1      -8.596   7.542  67.032  1.00  0.00    -0.122 A  
HETATM   11  C   UNL     1      -7.654   8.205  67.815  1.00  0.00    -0.098 A  
HETATM   12  O   UNL     1      -7.775   9.506  69.776  1.00  0.00    -0.093 OA 
BRANCH   9  13
HETATM   13  N   UNL     1      -9.058   6.005  65.163  1.00  0.00    -0.363 NA 
HETATM   14  H   UNL     1      -9.257   6.373  64.232  1.00  0.00     0.000 HD 
BRANCH  13  15
HETATM   15  C   UNL     1      -9.648   4.904  65.500  1.00  0.00    -0.132 C  
HETATM   16  C   UNL     1      -9.191   3.485  65.669  1.00  0.00    -0.158 C  
HETATM   17  O   UNL     1     -10.969   4.993  65.735  1.00  0.00    -0.709 OA 
HETATM   18  H   UNL     1     -11.402   4.185  65.982  1.00  0.00     0.000 HD 
ENDBRANCH  13  15
ENDBRANCH   9  13
ENDBRANCH   1   2
BRANCH   1  19
HETATM   19  C   UNL     1     -11.251  10.818  68.965  1.00  0.00    -0.322 A  
HETATM   20  C   UNL     1     -11.692  11.830  69.825  1.00  0.00    -0.408 A  
HETATM   21  C   UNL     1     -11.820  13.413  67.985  1.00  0.00    -0.357 A  
HETATM   22  C   UNL     1     -11.211  11.094  67.577  1.00  0.00    -0.369 A  
HETATM   23  C   UNL     1     -11.965  13.113  69.342  1.00  0.00    -0.347 A  
HETATM   24  C   UNL     1     -11.487  12.383  67.083  1.00  0.00    -0.357 A  
BRANCH  24  25
HETATM   25  O   UNL     1     -11.412  12.758  65.764  1.00  0.00    -0.316 OA 
BRANCH  25  26
HETATM   26  C   UNL     1     -12.515  12.489  64.905  1.00  0.00    -0.450 C  
HETATM   27  C   UNL     1     -11.976  12.209  63.509  1.00  0.00    -0.619 C  
ENDBRANCH  25  26
ENDBRANCH  24  25
BRANCH  21  28
HETATM   28  O   UNL     1     -11.970  14.671  67.454  1.00  0.00    -0.384 OA 
HETATM   29  C   UNL     1     -11.364  15.752  68.151  1.00  0.00    -0.337 C  
ENDBRANCH  21  28
ENDBRANCH   1  19
BRANCH   1  30
HETATM   30  C   UNL     1     -11.731   8.666  70.130  1.00  0.00     0.183 C  
BRANCH  30  31
HETATM   31  S   UNL     1     -11.653   8.431  71.886  1.00  0.00    -0.357 S  
HETATM   32  O   UNL     1     -10.328   8.854  72.299  1.00  0.00    -0.302 OA 
HETATM   33  C   UNL     1     -11.736   6.680  72.185  1.00  0.00    -0.304 C  
HETATM   34  O   UNL     1     -12.829   9.028  72.484  1.00  0.00    -0.404 OA 
ENDBRANCH  30  31
ENDBRANCH   1  30
TORSDOF 9
ENDMDL
MODEL       66
REMARK 921   NORMALIZED FREE ENERGY PREDICTED BY IDOCK:   -5.91 KCAL/MOL
REMARK 922        TOTAL FREE ENERGY PREDICTED BY IDOCK:  -10.08 KCAL/MOL
REMARK 923 INTER-LIGAND FREE ENERGY PREDICTED BY IDOCK:   -8.93 KCAL/MOL
REMARK 924 INTRA-LIGAND FREE ENERGY PREDICTED BY IDOCK:   -1.15 KCAL/MOL
REMARK 927      BINDING AFFINITY PREDICTED BY RF-SCORE:    0.00 PKD
ROOT
HETATM    1  C   UNL     1     -11.015  14.720  68.942  1.00  0.00    -0.254 C  
ENDROOT
BRANCH   1   2
HETATM    2  N   UNL     1      -9.931  15.492  68.313  1.00  0.00    -0.212 N  
HETATM    3  C   UNL     1      -6.419  15.931  67.647  1.00  0.00    -0.192 A  
HETATM    4  C   UNL     1      -5.790  16.987  67.008  1.00  0.00    -0.214 A  
HETATM    5  O   UNL     1     -10.984  17.225  67.167  1.00  0.00    -0.145 OA 
HETATM    6  C   UNL     1      -6.558  17.997  66.402  1.00  0.00    -0.256 A  
HETATM    7  C   UNL     1      -8.658  15.005  68.361  1.00  0.00    -0.162 C  
HETATM    8  C   UNL     1      -9.988  16.611  67.499  1.00  0.00    -0.264 C  
HETATM    9  C   UNL     1      -7.973  17.967  66.365  1.00  0.00    -0.262 A  
HETATM   10  C   UNL     1      -8.585  16.942  67.096  1.00  0.00    -0.217 A  
HETATM   11  C   UNL     1      -7.796  15.954  67.683  1.00  0.00    -0.164 A  
HETATM   12  O   UNL     1      -8.262  13.957  68.843  1.00  0.00    -0.078 OA 
BRANCH   9  13
HETATM   13  N   UNL     1      -8.710  18.972  65.706  1.00  0.00    -0.330 NA 
HETATM   14  H   UNL     1      -8.524  19.108  64.713  1.00  0.00     0.000 HD 
BRANCH  13  15
HETATM   15  C   UNL     1      -9.602  19.736  66.248  1.00  0.00    -0.423 C  
HETATM   16  C   UNL     1      -9.685  20.483  67.548  1.00  0.00    -0.554 C  
HETATM   17  O   UNL     1     -10.734  19.911  65.544  1.00  0.00    -0.461 OA 
HETATM   18  H   UNL     1     -11.388  20.472  65.943  1.00  0.00     0.000 HD 
ENDBRANCH  13  15
ENDBRANCH   9  13
ENDBRANCH   1   2
BRANCH   1  19
HETATM   19  C   UNL     1     -11.264  13.331  68.324  1.00  0.00    -0.309 A  
HETATM   20  C   UNL     1     -11.271  13.156  66.935  1.00  0.00    -0.328 A  
HETATM   21  C   UNL     1     -11.093  10.745  67.184  1.00  0.00    -0.227 A  
HETATM   22  C   UNL     1     -11.288  12.175  69.141  1.00  0.00    -0.333 A  
HETATM   23  C   UNL     1     -11.179  11.879  66.373  1.00  0.00    -0.387 A  
HETATM   24  C   UNL     1     -11.197  10.887  68.581  1.00  0.00    -0.267 A  
BRANCH  24  25
HETATM   25  O   UNL     1     -11.150   9.715  69.297  1.00  0.00    -0.208 OA 
BRANCH  25  26
HETATM   26  C   UNL     1     -10.709   9.749  70.651  1.00  0.00    -0.326 C  
HETATM   27  C   UNL     1     -11.924   9.579  71.553  1.00  0.00    -0.475 C  
ENDBRANCH  25  26
ENDBRANCH  24  25
BRANCH  21  28
HETATM   28  O   UNL     1     -10.897   9.471  66.708  1.00  0.00    -0.117 OA 
HETATM   29  C   UNL     1      -9.688   9.214  66.005  1.00  0.00    -0.287 C  
ENDBRANCH  21  28
ENDBRANCH   1  19
BRANCH   1  30
HETATM   30  C   UNL     1     -10.962  14.575  70.463  1.00  0.00     0.149 C  
BRANCH  30  31
HETATM   31  S   UNL     1     -12.442  15.024  71.333  1.00  0.00    -0.364 S  
HETATM   32  O   UNL     1     -13.279  15.731  70.383  1.00  0.00    -0.365 OA 
HETATM   33  C   UNL     1     -11.980  16.209  72.575  1.00  0.00    -0.561 C  
HETATM   34  O   UNL     1     -12.946  13.852  72.021  1.00  0.00    -0.337 OA 
ENDBRANCH  30  31
ENDBRANCH   1  30
TORSDOF 9
ENDMDL
MODEL       67
REMARK 921   NORMALIZED FREE ENERGY PREDICTED BY IDOCK:   -5.90 KCAL/MOL
REMARK 922        TOTAL FREE ENERGY PREDICTED BY IDOCK:  -10.07 KCAL/MOL
REMARK 923 INTER-LIGAND FREE ENERGY PREDICTED BY IDOCK:   -8.16 KCAL/MOL
REMARK 924 INTRA-LIGAND FREE ENERGY PREDICTED BY IDOCK:   -1.90 KCAL/MOL
REMARK 927      BINDING AFFINITY PREDICTED BY RF-SCORE:    0.00 PKD
ROOT
HETATM    1  C   UNL     1     -10.573   8.911  70.129  1.00  0.00    -0.222 C  
ENDROOT
BRANCH   1   2
HETATM    2  N   UNL     1     -10.834   9.998  69.170  1.00  0.00    -0.216 N  
HETATM    3  C   UNL     1     -10.856  11.200  65.775  1.00  0.00    -0.218 A  
HETATM    4  C   UNL     1     -11.125  12.479  65.318  1.00  0.00    -0.332 A  
HETATM    5  O   UNL     1     -11.674  11.760  70.440  1.00  0.00    -0.300 OA 
HETATM    6  C   UNL     1     -11.578  13.464  66.214  1.00  0.00    -0.378 A  
HETATM    7  C   UNL     1     -10.719   9.744  67.835  1.00  0.00    -0.258 C  
HETATM    8  C   UNL     1     -11.357  11.263  69.377  1.00  0.00    -0.292 C  
HETATM    9  C   UNL     1     -11.827  13.199  67.582  1.00  0.00    -0.359 A  
HETATM   10  C   UNL     1     -11.460  11.927  68.039  1.00  0.00    -0.389 A  
HETATM   11  C   UNL     1     -11.017  10.973  67.125  1.00  0.00    -0.344 A  
HETATM   12  O   UNL     1     -10.448   8.692  67.282  1.00  0.00    -0.274 OA 
BRANCH   9  13
HETATM   13  N   UNL     1     -12.328  14.197  68.442  1.00  0.00    -0.541 NA 
HETATM   14  H   UNL     1     -13.342  14.277  68.520  1.00  0.00     0.000 HD 
BRANCH  13  15
HETATM   15  C   UNL     1     -11.617  15.021  69.142  1.00  0.00    -0.310 C  
HETATM   16  C   UNL     1     -11.001  16.361  68.867  1.00  0.00    -0.332 C  
HETATM   17  O   UNL     1     -11.313  14.622  70.389  1.00  0.00    -0.365 OA 
HETATM   18  H   UNL     1     -10.791  15.226  70.903  1.00  0.00     0.000 HD 
ENDBRANCH  13  15
ENDBRANCH   9  13
ENDBRANCH   1   2
BRANCH   1  19
HETATM   19  C   UNL     1      -9.241   9.027  70.893  1.00  0.00    -0.320 A  
HETATM   20  C   UNL     1      -9.077   8.417  72.142  1.00  0.00    -0.309 A  
HETATM   21  C   UNL     1      -6.665   8.688  72.018  1.00  0.00    -0.070 A  
HETATM   22  C   UNL     1      -8.096   9.572  70.263  1.00  0.00    -0.200 A  
HETATM   23  C   UNL     1      -7.803   8.244  72.694  1.00  0.00    -0.184 A  
HETATM   24  C   UNL     1      -6.812   9.403  70.813  1.00  0.00    -0.109 A  
BRANCH  24  25
HETATM   25  O   UNL     1      -5.643   9.841  70.242  1.00  0.00    -0.039 OA 
BRANCH  25  26
HETATM   26  C   UNL     1      -5.626  11.103  69.582  1.00  0.00    -0.052 C  
HETATM   27  C   UNL     1      -5.328  12.179  70.617  1.00  0.00    -0.152 C  
ENDBRANCH  25  26
ENDBRANCH  24  25
BRANCH  21  28
HETATM   28  O   UNL     1      -5.378   8.462  72.445  1.00  0.00    -0.037 OA 
HETATM   29  C   UNL     1      -5.204   7.625  73.581  1.00  0.00    -0.045 C  
ENDBRANCH  21  28
ENDBRANCH   1  19
BRANCH   1  30
HETATM   30  C   UNL     1     -11.685   8.597  71.131  1.00  0.00    -0.288 C  
BRANCH  30  31
HETATM   31  S   UNL     1     -12.376   6.966  71.032  1.00  0.00    -0.279 S  
HETATM   32  O   UNL     1     -13.807   7.114  71.221  1.00  0.00    -0.341 OA 
HETATM   33  C   UNL     1     -11.776   6.057  72.438  1.00  0.00    -0.271 C  
HETATM   34  O   UNL     1     -11.859   6.317  69.845  1.00  0.00    -0.340 OA 
ENDBRANCH  30  31
ENDBRANCH   1  30
TORSDOF 9
ENDMDL
MODEL       68
REMARK 921   NORMALIZED FREE ENERGY PREDICTED BY IDOCK:   -5.88 KCAL/MOL
REMARK 922        TOTAL FREE ENERGY PREDICTED BY IDOCK:  -10.02 KCAL/MOL
REMARK 923 INTER-LIGAND FREE ENERGY PREDICTED BY IDOCK:   -8.73 KCAL/MOL
REMARK 924 INTRA-LIGAND FREE ENERGY PREDICTED BY IDOCK:   -1.29 KCAL/MOL
REMARK 927      BINDING AFFINITY PREDICTED BY RF-SCORE:    0.00 PKD
ROOT
HETATM    1  C   UNL     1     -11.071  12.528  67.959  1.00  0.00    -0.245 C  
ENDROOT
BRANCH   1   2
HETATM    2  N   UNL     1     -10.280  11.454  68.581  1.00  0.00    -0.204 N  
HETATM    3  C   UNL     1      -7.070  10.011  69.346  1.00  0.00    -0.074 A  
HETATM    4  C   UNL     1      -6.795   8.794  69.946  1.00  0.00    -0.042 A  
HETATM    5  O   UNL     1     -11.832  10.040  69.589  1.00  0.00    -0.115 OA 
HETATM    6  C   UNL     1      -7.845   8.016  70.466  1.00  0.00    -0.094 A  
HETATM    7  C   UNL     1      -8.921  11.563  68.606  1.00  0.00    -0.112 C  
HETATM    8  C   UNL     1     -10.689  10.362  69.328  1.00  0.00    -0.237 C  
HETATM    9  C   UNL     1      -9.194   8.443  70.455  1.00  0.00    -0.153 A  
HETATM   10  C   UNL     1      -9.457   9.631  69.762  1.00  0.00    -0.242 A  
HETATM   11  C   UNL     1      -8.394  10.380  69.260  1.00  0.00    -0.161 A  
HETATM   12  O   UNL     1      -8.223  12.476  68.198  1.00  0.00    -0.154 OA 
BRANCH   9  13
HETATM   13  N   UNL     1     -10.216   7.660  71.030  1.00  0.00    -0.194 NA 
HETATM   14  H   UNL     1     -10.542   6.856  70.493  1.00  0.00     0.000 HD 
BRANCH  13  15
HETATM   15  C   UNL     1     -10.776   7.869  72.177  1.00  0.00    -0.257 C  
HETATM   16  C   UNL     1     -10.512   7.380  73.571  1.00  0.00    -0.396 C  
HETATM   17  O   UNL     1     -11.852   8.675  72.168  1.00  0.00    -0.344 OA 
HETATM   18  H   UNL     1     -12.263   8.829  73.010  1.00  0.00     0.000 HD 
ENDBRANCH  13  15
ENDBRANCH   9  13
ENDBRANCH   1   2
BRANCH   1  19
HETATM   19  C   UNL     1     -11.510  13.650  68.920  1.00  0.00    -0.344 A  
HETATM   20  C   UNL     1     -12.286  13.362  70.049  1.00  0.00    -0.367 A  
HETATM   21  C   UNL     1     -11.800  15.543  71.004  1.00  0.00    -0.382 A  
HETATM   22  C   UNL     1     -10.972  14.954  68.796  1.00  0.00    -0.259 A  
HETATM   23  C   UNL     1     -12.423  14.295  71.081  1.00  0.00    -0.433 A  
HETATM   24  C   UNL     1     -11.108  15.898  69.830  1.00  0.00    -0.324 A  
BRANCH  24  25
HETATM   25  O   UNL     1     -10.567  17.161  69.824  1.00  0.00    -0.200 OA 
BRANCH  25  26
HETATM   26  C   UNL     1      -9.803  17.581  68.697  1.00  0.00    -0.338 C  
HETATM   27  C   UNL     1      -9.773  19.103  68.682  1.00  0.00    -0.478 C  
ENDBRANCH  25  26
ENDBRANCH  24  25
BRANCH  21  28
HETATM   28  O   UNL     1     -11.803  16.470  72.020  1.00  0.00    -0.478 OA 
HETATM   29  C   UNL     1     -12.134  16.009  73.324  1.00  0.00    -0.500 C  
ENDBRANCH  21  28
ENDBRANCH   1  19
BRANCH   1  30
HETATM   30  C   UNL     1     -10.490  13.167  66.697  1.00  0.00    -0.277 C  
BRANCH  30  31
HETATM   31  S   UNL     1     -10.839  12.324  65.175  1.00  0.00    -0.312 S  
HETATM   32  O   UNL     1     -10.084  13.010  64.143  1.00  0.00    -0.344 OA 
HETATM   33  C   UNL     1     -12.556  12.599  64.806  1.00  0.00    -0.454 C  
HETATM   34  O   UNL     1     -10.663  10.902  65.384  1.00  0.00    -0.219 OA 
ENDBRANCH  30  31
ENDBRANCH   1  30
TORSDOF 9
ENDMDL
MODEL       69
REMARK 921   NORMALIZED FREE ENERGY PREDICTED BY IDOCK:   -5.86 KCAL/MOL
REMARK 922        TOTAL FREE ENERGY PREDICTED BY IDOCK:  -10.00 KCAL/MOL
REMARK 923 INTER-LIGAND FREE ENERGY PREDICTED BY IDOCK:   -9.65 KCAL/MOL
REMARK 924 INTRA-LIGAND FREE ENERGY PREDICTED BY IDOCK:   -0.34 KCAL/MOL
REMARK 927      BINDING AFFINITY PREDICTED BY RF-SCORE:    0.00 PKD
ROOT
HETATM    1  C   UNL     1     -11.797  12.793  70.205  1.00  0.00    -0.251 C  
ENDROOT
BRANCH   1   2
HETATM    2  N   UNL     1     -11.683  11.334  70.363  1.00  0.00    -0.329 N  
HETATM    3  C   UNL     1     -12.640   8.317  72.082  1.00  0.00    -0.379 A  
HETATM    4  C   UNL     1     -12.137   7.037  71.918  1.00  0.00    -0.358 A  
HETATM    5  O   UNL     1     -10.237  10.635  68.677  1.00  0.00    -0.166 OA 
HETATM    6  C   UNL     1     -11.223   6.771  70.882  1.00  0.00    -0.338 A  
HETATM    7  C   UNL     1     -12.495  10.701  71.257  1.00  0.00    -0.410 C  
HETATM    8  C   UNL     1     -10.972  10.408  69.619  1.00  0.00    -0.277 C  
HETATM    9  C   UNL     1     -10.818   7.752  69.946  1.00  0.00    -0.226 A  
HETATM   10  C   UNL     1     -11.266   9.056  70.189  1.00  0.00    -0.191 A  
HETATM   11  C   UNL     1     -12.174   9.287  71.221  1.00  0.00    -0.410 A  
HETATM   12  O   UNL     1     -13.369  11.177  71.962  1.00  0.00    -0.454 OA 
BRANCH   9  13
HETATM   13  N   UNL     1      -9.938   7.438  68.890  1.00  0.00    -0.165 NA 
HETATM   14  H   UNL     1      -8.980   7.195  69.141  1.00  0.00     0.000 HD 
BRANCH  13  15
HETATM   15  C   UNL     1     -10.237   7.431  67.632  1.00  0.00    -0.201 C  
HETATM   16  C   UNL     1      -9.589   7.996  66.401  1.00  0.00    -0.267 C  
HETATM   17  O   UNL     1     -11.387   6.816  67.305  1.00  0.00    -0.690 OA 
HETATM   18  H   UNL     1     -11.607   6.810  66.381  1.00  0.00     0.000 HD 
ENDBRANCH  13  15
ENDBRANCH   9  13
ENDBRANCH   1   2
BRANCH   1  19
HETATM   19  C   UNL     1     -11.335  13.335  68.839  1.00  0.00    -0.333 A  
HETATM   20  C   UNL     1     -12.207  13.355  67.744  1.00  0.00    -0.171 A  
HETATM   21  C   UNL     1     -10.741  14.870  66.534  1.00  0.00    -0.309 A  
HETATM   22  C   UNL     1     -10.096  14.009  68.715  1.00  0.00    -0.183 A  
HETATM   23  C   UNL     1     -11.917  14.119  66.609  1.00  0.00    -0.470 A  
HETATM   24  C   UNL     1      -9.796  14.778  67.575  1.00  0.00    -0.218 A  
BRANCH  24  25
HETATM   25  O   UNL     1      -8.650  15.513  67.396  1.00  0.00    -0.162 OA 
BRANCH  25  26
HETATM   26  C   UNL     1      -7.463  15.121  68.079  1.00  0.00    -0.120 C  
HETATM   27  C   UNL     1      -6.273  15.742  67.360  1.00  0.00    -0.144 C  
ENDBRANCH  25  26
ENDBRANCH  24  25
BRANCH  21  28
HETATM   28  O   UNL     1     -10.436  15.722  65.501  1.00  0.00    -0.353 OA 
HETATM   29  C   UNL     1     -11.408  15.879  64.474  1.00  0.00    -0.309 C  
ENDBRANCH  21  28
ENDBRANCH   1  19
BRANCH   1  30
HETATM   30  C   UNL     1     -13.151  13.418  70.545  1.00  0.00     0.214 C  
BRANCH  30  31
HETATM   31  S   UNL     1     -13.128  14.680  71.792  1.00  0.00    -0.368 S  
HETATM   32  O   UNL     1     -13.871  15.804  71.253  1.00  0.00    -0.547 OA 
HETATM   33  C   UNL     1     -11.444  15.224  71.955  1.00  0.00    -0.413 C  
HETATM   34  O   UNL     1     -13.516  14.087  73.055  1.00  0.00    -0.655 OA 
ENDBRANCH  30  31
ENDBRANCH   1  30
TORSDOF 9
ENDMDL
MODEL       70
REMARK 921   NORMALIZED FREE ENERGY PREDICTED BY IDOCK:   -5.86 KCAL/MOL
REMARK 922        TOTAL FREE ENERGY PREDICTED BY IDOCK:   -9.99 KCAL/MOL
REMARK 923 INTER-LIGAND FREE ENERGY PREDICTED BY IDOCK:  -10.27 KCAL/MOL
REMARK 924 INTRA-LIGAND FREE ENERGY PREDICTED BY IDOCK:    0.28 KCAL/MOL
REMARK 927      BINDING AFFINITY PREDICTED BY RF-SCORE:    0.00 PKD
ROOT
HETATM    1  C   UNL     1      -9.526  12.619  67.684  1.00  0.00    -0.189 C  
ENDROOT
BRANCH   1   2
HETATM    2  N   UNL     1     -10.531  12.498  68.753  1.00  0.00    -0.187 N  
HETATM    3  C   UNL     1     -12.646  14.063  71.213  1.00  0.00    -0.444 A  
HETATM    4  C   UNL     1     -13.449  13.459  72.166  1.00  0.00    -0.646 A  
HETATM    5  O   UNL     1     -11.024  10.226  68.891  1.00  0.00    -0.219 OA 
HETATM    6  C   UNL     1     -13.613  12.062  72.161  1.00  0.00    -0.236 A  
HETATM    7  C   UNL     1     -11.066  13.632  69.289  1.00  0.00    -0.193 C  
HETATM    8  C   UNL     1     -11.188  11.380  69.238  1.00  0.00    -0.277 C  
HETATM    9  C   UNL     1     -13.029  11.224  71.181  1.00  0.00    -0.272 A  
HETATM   10  C   UNL     1     -12.150  11.847  70.286  1.00  0.00    -0.409 A  
HETATM   11  C   UNL     1     -12.011  13.233  70.315  1.00  0.00    -0.372 A  
HETATM   12  O   UNL     1     -10.852  14.793  68.983  1.00  0.00    -0.229 OA 
BRANCH   9  13
HETATM   13  N   UNL     1     -13.254   9.833  71.177  1.00  0.00    -0.492 NA 
HETATM   14  H   UNL     1     -13.652   9.430  70.329  1.00  0.00     0.000 HD 
BRANCH  13  15
HETATM   15  C   UNL     1     -13.002   9.022  72.153  1.00  0.00    -0.424 C  
HETATM   16  C   UNL     1     -11.853   8.115  72.486  1.00  0.00    -0.438 C  
HETATM   17  O   UNL     1     -13.961   8.912  73.089  1.00  0.00    -1.118 OA 
HETATM   18  H   UNL     1     -13.776   8.317  73.805  1.00  0.00     0.000 HD 
ENDBRANCH  13  15
ENDBRANCH   9  13
ENDBRANCH   1   2
BRANCH   1  19
HETATM   19  C   UNL     1      -9.806  13.730  66.654  1.00  0.00    -0.286 A  
HETATM   20  C   UNL     1     -10.995  13.737  65.914  1.00  0.00    -0.283 A  
HETATM   21  C   UNL     1     -10.625  16.043  65.241  1.00  0.00    -0.402 A  
HETATM   22  C   UNL     1      -8.969  14.869  66.580  1.00  0.00    -0.301 A  
HETATM   23  C   UNL     1     -11.402  14.882  65.222  1.00  0.00    -0.358 A  
HETATM   24  C   UNL     1      -9.372  16.024  65.885  1.00  0.00    -0.300 A  
BRANCH  24  25
HETATM   25  O   UNL     1      -8.656  17.194  65.813  1.00  0.00    -0.525 OA 
BRANCH  25  26
HETATM   26  C   UNL     1      -7.675  17.467  66.808  1.00  0.00    -0.230 C  
HETATM   27  C   UNL     1      -6.361  17.785  66.108  1.00  0.00    -0.278 C  
ENDBRANCH  25  26
ENDBRANCH  24  25
BRANCH  21  28
HETATM   28  O   UNL     1     -11.007  17.235  64.673  1.00  0.00    -1.013 OA 
HETATM   29  C   UNL     1     -10.912  18.402  65.479  1.00  0.00     0.360 C  
ENDBRANCH  21  28
ENDBRANCH   1  19
BRANCH   1  30
HETATM   30  C   UNL     1      -8.065  12.718  68.123  1.00  0.00    -0.158 C  
BRANCH  30  31
HETATM   31  S   UNL     1      -7.111  11.230  67.973  1.00  0.00    -0.073 S  
HETATM   32  O   UNL     1      -7.984  10.241  67.368  1.00  0.00    -0.106 OA 
HETATM   33  C   UNL     1      -6.771  10.657  69.621  1.00  0.00    -0.116 C  
HETATM   34  O   UNL     1      -5.841  11.556  67.357  1.00  0.00    -0.061 OA 
ENDBRANCH  30  31
ENDBRANCH   1  30
TORSDOF 9
ENDMDL
MODEL       71
REMARK 921   NORMALIZED FREE ENERGY PREDICTED BY IDOCK:   -5.84 KCAL/MOL
REMARK 922        TOTAL FREE ENERGY PREDICTED BY IDOCK:   -9.97 KCAL/MOL
REMARK 923 INTER-LIGAND FREE ENERGY PREDICTED BY IDOCK:   -8.66 KCAL/MOL
REMARK 924 INTRA-LIGAND FREE ENERGY PREDICTED BY IDOCK:   -1.31 KCAL/MOL
REMARK 927      BINDING AFFINITY PREDICTED BY RF-SCORE:    0.00 PKD
ROOT
HETATM    1  C   UNL     1     -10.662  12.356  67.136  1.00  0.00    -0.235 C  
ENDROOT
BRANCH   1   2
HETATM    2  N   UNL     1     -10.182  13.709  67.463  1.00  0.00    -0.239 N  
HETATM    3  C   UNL     1     -10.898  17.167  68.167  1.00  0.00    -0.316 A  
HETATM    4  C   UNL     1     -10.007  18.212  68.344  1.00  0.00    -0.392 A  
HETATM    5  O   UNL     1      -7.870  13.518  67.667  1.00  0.00    -0.147 OA 
HETATM    6  C   UNL     1      -8.625  17.952  68.395  1.00  0.00    -0.296 A  
HETATM    7  C   UNL     1     -11.094  14.686  67.733  1.00  0.00    -0.298 C  
HETATM    8  C   UNL     1      -8.899  14.164  67.713  1.00  0.00    -0.185 C  
HETATM    9  C   UNL     1      -8.087  16.645  68.323  1.00  0.00    -0.198 A  
HETATM   10  C   UNL     1      -9.000  15.619  68.052  1.00  0.00    -0.178 A  
HETATM   11  C   UNL     1     -10.362  15.908  68.011  1.00  0.00    -0.262 A  
HETATM   12  O   UNL     1     -12.309  14.601  67.779  1.00  0.00    -0.160 OA 
BRANCH   9  13
HETATM   13  N   UNL     1      -6.699  16.417  68.427  1.00  0.00    -0.137 NA 
HETATM   14  H   UNL     1      -6.317  16.297  69.365  1.00  0.00     0.000 HD 
BRANCH  13  15
HETATM   15  C   UNL     1      -5.867  16.348  67.439  1.00  0.00    -0.158 C  
HETATM   16  C   UNL     1      -5.411  17.319  66.388  1.00  0.00    -0.197 C  
HETATM   17  O   UNL     1      -5.274  15.156  67.252  1.00  0.00    -0.320 OA 
HETATM   18  H   UNL     1      -4.663  15.105  66.527  1.00  0.00     0.000 HD 
ENDBRANCH  13  15
ENDBRANCH   9  13
ENDBRANCH   1   2
BRANCH   1  19
HETATM   19  C   UNL     1     -10.662  11.365  68.316  1.00  0.00    -0.240 A  
HETATM   20  C   UNL     1     -11.498  11.568  69.420  1.00  0.00    -0.376 A  
HETATM   21  C   UNL     1     -11.145   9.284  70.173  1.00  0.00    -0.230 A  
HETATM   22  C   UNL     1      -9.974  10.131  68.218  1.00  0.00    -0.168 A  
HETATM   23  C   UNL     1     -11.742  10.537  70.333  1.00  0.00    -0.434 A  
HETATM   24  C   UNL     1     -10.214   9.091  69.135  1.00  0.00    -0.205 A  
BRANCH  24  25
HETATM   25  O   UNL     1      -9.642   7.843  69.081  1.00  0.00    -0.152 OA 
BRANCH  25  26
HETATM   26  C   UNL     1      -9.646   7.132  67.847  1.00  0.00    -0.133 C  
HETATM   27  C   UNL     1     -10.986   6.421  67.710  1.00  0.00    -0.425 C  
ENDBRANCH  25  26
ENDBRANCH  24  25
BRANCH  21  28
HETATM   28  O   UNL     1     -11.416   8.195  70.967  1.00  0.00    -0.274 OA 
HETATM   29  C   UNL     1     -11.056   8.282  72.340  1.00  0.00    -0.377 C  
ENDBRANCH  21  28
ENDBRANCH   1  19
BRANCH   1  30
HETATM   30  C   UNL     1     -12.008  12.259  66.417  1.00  0.00    -0.209 C  
BRANCH  30  31
HETATM   31  S   UNL     1     -11.964  12.499  64.660  1.00  0.00    -0.417 S  
HETATM   32  O   UNL     1     -13.311  12.255  64.178  1.00  0.00    -0.731 OA 
HETATM   33  C   UNL     1     -10.948  11.208  63.980  1.00  0.00    -0.197 C  
HETATM   34  O   UNL     1     -11.306  13.759  64.382  1.00  0.00    -0.373 OA 
ENDBRANCH  30  31
ENDBRANCH   1  30
TORSDOF 9
ENDMDL
MODEL       72
REMARK 921   NORMALIZED FREE ENERGY PREDICTED BY IDOCK:   -5.82 KCAL/MOL
REMARK 922        TOTAL FREE ENERGY PREDICTED BY IDOCK:   -9.93 KCAL/MOL
REMARK 923 INTER-LIGAND FREE ENERGY PREDICTED BY IDOCK:   -8.03 KCAL/MOL
REMARK 924 INTRA-LIGAND FREE ENERGY PREDICTED BY IDOCK:   -1.90 KCAL/MOL
REMARK 927      BINDING AFFINITY PREDICTED BY RF-SCORE:    0.00 PKD
ROOT
HETATM    1  C   UNL     1      -9.885   9.424  69.039  1.00  0.00    -0.169 C  
ENDROOT
BRANCH   1   2
HETATM    2  N   UNL     1     -10.069  10.880  68.925  1.00  0.00    -0.194 N  
HETATM    3  C   UNL     1      -8.789  14.100  67.940  1.00  0.00    -0.182 A  
HETATM    4  C   UNL     1      -9.355  15.347  68.137  1.00  0.00    -0.197 A  
HETATM    5  O   UNL     1     -12.222  11.301  69.707  1.00  0.00    -0.300 OA 
HETATM    6  C   UNL     1     -10.652  15.452  68.672  1.00  0.00    -0.239 A  
HETATM    7  C   UNL     1      -9.117  11.618  68.285  1.00  0.00    -0.187 C  
HETATM    8  C   UNL     1     -11.167  11.668  69.227  1.00  0.00    -0.265 C  
HETATM    9  C   UNL     1     -11.448  14.323  68.979  1.00  0.00    -0.284 A  
HETATM   10  C   UNL     1     -10.820  13.077  68.858  1.00  0.00    -0.244 A  
HETATM   11  C   UNL     1      -9.536  13.007  68.322  1.00  0.00    -0.208 A  
HETATM   12  O   UNL     1      -8.098  11.235  67.737  1.00  0.00    -0.113 OA 
BRANCH   9  13
HETATM   13  N   UNL     1     -12.763  14.464  69.466  1.00  0.00    -0.492 NA 
HETATM   14  H   UNL     1     -13.521  14.395  68.787  1.00  0.00     0.000 HD 
BRANCH  13  15
HETATM   15  C   UNL     1     -13.095  14.673  70.699  1.00  0.00    -0.271 C  
HETATM   16  C   UNL     1     -12.727  14.026  72.003  1.00  0.00    -0.367 C  
HETATM   17  O   UNL     1     -13.985  15.659  70.910  1.00  0.00    -0.827 OA 
HETATM   18  H   UNL     1     -14.229  15.812  71.815  1.00  0.00     0.000 HD 
ENDBRANCH  13  15
ENDBRANCH   9  13
ENDBRANCH   1   2
BRANCH   1  19
HETATM   19  C   UNL     1     -10.336   8.818  70.382  1.00  0.00    -0.230 A  
HETATM   20  C   UNL     1     -11.410   7.922  70.437  1.00  0.00    -0.201 A  
HETATM   21  C   UNL     1     -10.785   7.228  72.682  1.00  0.00    -0.278 A  
HETATM   22  C   UNL     1      -9.553   8.991  71.548  1.00  0.00    -0.340 A  
HETATM   23  C   UNL     1     -11.627   7.131  71.571  1.00  0.00    -0.310 A  
HETATM   24  C   UNL     1      -9.767   8.201  72.693  1.00  0.00    -0.290 A  
BRANCH  24  25
HETATM   25  O   UNL     1      -9.018   8.256  73.843  1.00  0.00    -0.195 OA 
BRANCH  25  26
HETATM   26  C   UNL     1      -7.604   8.111  73.755  1.00  0.00    -0.171 C  
HETATM   27  C   UNL     1      -7.289   6.640  73.515  1.00  0.00    -0.080 C  
ENDBRANCH  25  26
ENDBRANCH  24  25
BRANCH  21  28
HETATM   28  O   UNL     1     -10.871   6.416  73.787  1.00  0.00    -0.222 OA 
HETATM   29  C   UNL     1     -10.853   5.011  73.568  1.00  0.00    -0.308 C  
ENDBRANCH  21  28
ENDBRANCH   1  19
BRANCH   1  30
HETATM   30  C   UNL     1     -10.449   8.569  67.904  1.00  0.00    -0.201 C  
BRANCH  30  31
HETATM   31  S   UNL     1      -9.252   7.869  66.797  1.00  0.00    -0.176 S  
HETATM   32  O   UNL     1      -9.683   6.510  66.530  1.00  0.00    -0.167 OA 
HETATM   33  C   UNL     1      -7.721   7.743  67.692  1.00  0.00    -0.121 C  
HETATM   34  O   UNL     1      -9.038   8.795  65.704  1.00  0.00    -0.203 OA 
ENDBRANCH  30  31
ENDBRANCH   1  30
TORSDOF 9
ENDMDL
MODEL       73
REMARK 921   NORMALIZED FREE ENERGY PREDICTED BY IDOCK:   -5.81 KCAL/MOL
REMARK 922        TOTAL FREE ENERGY PREDICTED BY IDOCK:   -9.92 KCAL/MOL
REMARK 923 INTER-LIGAND FREE ENERGY PREDICTED BY IDOCK:   -8.89 KCAL/MOL
REMARK 924 INTRA-LIGAND FREE ENERGY PREDICTED BY IDOCK:   -1.03 KCAL/MOL
REMARK 927      BINDING AFFINITY PREDICTED BY RF-SCORE:    0.00 PKD
ROOT
HETATM    1  C   UNL     1     -10.945   9.976  69.777  1.00  0.00    -0.276 C  
ENDROOT
BRANCH   1   2
HETATM    2  N   UNL     1     -11.591  11.257  70.106  1.00  0.00    -0.318 N  
HETATM    3  C   UNL     1     -13.903  13.136  72.130  1.00  0.00    -0.506 A  
HETATM    4  C   UNL     1     -14.291  14.457  71.990  1.00  0.00    -0.636 A  
HETATM    5  O   UNL     1     -10.633  12.823  68.672  1.00  0.00    -0.247 OA 
HETATM    6  C   UNL     1     -13.657  15.277  71.039  1.00  0.00    -0.486 A  
HETATM    7  C   UNL     1     -12.413  11.324  71.192  1.00  0.00    -0.373 C  
HETATM    8  C   UNL     1     -11.386  12.521  69.578  1.00  0.00    -0.171 C  
HETATM    9  C   UNL     1     -12.584  14.828  70.233  1.00  0.00    -0.315 A  
HETATM   10  C   UNL     1     -12.273  13.466  70.327  1.00  0.00    -0.405 A  
HETATM   11  C   UNL     1     -12.917  12.681  71.281  1.00  0.00    -0.306 A  
HETATM   12  O   UNL     1     -12.686  10.448  71.994  1.00  0.00    -0.397 OA 
BRANCH   9  13
HETATM   13  N   UNL     1     -11.938  15.691  69.324  1.00  0.00    -0.489 NA 
HETATM   14  H   UNL     1     -12.447  15.937  68.476  1.00  0.00     0.000 HD 
BRANCH  13  15
HETATM   15  C   UNL     1     -10.758  16.200  69.471  1.00  0.00    -0.313 C  
HETATM   16  C   UNL     1     -10.115  17.486  69.041  1.00  0.00    -0.291 C  
HETATM   17  O   UNL     1      -9.865  15.435  70.124  1.00  0.00    -0.433 OA 
HETATM   18  H   UNL     1      -8.999  15.808  70.231  1.00  0.00     0.000 HD 
ENDBRANCH  13  15
ENDBRANCH   9  13
ENDBRANCH   1   2
BRANCH   1  19
HETATM   19  C   UNL     1     -10.269   9.926  68.394  1.00  0.00    -0.203 A  
HETATM   20  C   UNL     1     -11.030  10.012  67.222  1.00  0.00    -0.225 A  
HETATM   21  C   UNL     1      -9.041  10.464  65.900  1.00  0.00    -0.165 A  
HETATM   22  C   UNL     1      -8.860   9.999  68.279  1.00  0.00    -0.116 A  
HETATM   23  C   UNL     1     -10.424  10.285  65.991  1.00  0.00    -0.181 A  
HETATM   24  C   UNL     1      -8.243  10.271  67.044  1.00  0.00    -0.122 A  
BRANCH  24  25
HETATM   25  O   UNL     1      -6.892  10.422  66.851  1.00  0.00    -0.081 OA 
BRANCH  25  26
HETATM   26  C   UNL     1      -6.106  11.005  67.886  1.00  0.00    -0.049 C  
HETATM   27  C   UNL     1      -6.080  12.512  67.675  1.00  0.00    -0.140 C  
ENDBRANCH  25  26
ENDBRANCH  24  25
BRANCH  21  28
HETATM   28  O   UNL     1      -8.388  10.835  64.749  1.00  0.00    -0.118 OA 
HETATM   29  C   UNL     1      -9.072  10.645  63.518  1.00  0.00    -0.238 C  
ENDBRANCH  21  28
ENDBRANCH   1  19
BRANCH   1  30
HETATM   30  C   UNL     1      -9.975   9.409  70.815  1.00  0.00    -0.289 C  
BRANCH  30  31
HETATM   31  S   UNL     1     -10.257   7.725  71.297  1.00  0.00    -0.194 S  
HETATM   32  O   UNL     1     -11.496   7.317  70.661  1.00  0.00    -0.283 OA 
HETATM   33  C   UNL     1     -10.570   7.727  73.047  1.00  0.00    -0.379 C  
HETATM   34  O   UNL     1      -9.040   6.971  71.076  1.00  0.00    -0.151 OA 
ENDBRANCH  30  31
ENDBRANCH   1  30
TORSDOF 9
ENDMDL
MODEL       74
REMARK 921   NORMALIZED FREE ENERGY PREDICTED BY IDOCK:   -5.78 KCAL/MOL
REMARK 922        TOTAL FREE ENERGY PREDICTED BY IDOCK:   -9.88 KCAL/MOL
REMARK 923 INTER-LIGAND FREE ENERGY PREDICTED BY IDOCK:   -8.10 KCAL/MOL
REMARK 924 INTRA-LIGAND FREE ENERGY PREDICTED BY IDOCK:   -1.78 KCAL/MOL
REMARK 927      BINDING AFFINITY PREDICTED BY RF-SCORE:    0.00 PKD
ROOT
HETATM    1  C   UNL     1     -10.068   8.587  69.018  1.00  0.00    -0.199 C  
ENDROOT
BRANCH   1   2
HETATM    2  N   UNL     1      -9.387   7.679  68.080  1.00  0.00    -0.144 N  
HETATM    3  C   UNL     1      -6.438   6.795  66.210  1.00  0.00    -0.047 A  
HETATM    4  C   UNL     1      -6.283   5.784  65.277  1.00  0.00    -0.037 A  
HETATM    5  O   UNL     1     -10.922   5.990  67.621  1.00  0.00    -0.305 OA 
HETATM    6  C   UNL     1      -7.322   4.860  65.065  1.00  0.00    -0.071 A  
HETATM    7  C   UNL     1      -8.063   7.873  67.817  1.00  0.00    -0.128 C  
HETATM    8  C   UNL     1      -9.826   6.502  67.499  1.00  0.00    -0.124 C  
HETATM    9  C   UNL     1      -8.528   4.878  65.807  1.00  0.00    -0.121 A  
HETATM   10  C   UNL     1      -8.698   5.963  66.676  1.00  0.00    -0.121 A  
HETATM   11  C   UNL     1      -7.648   6.859  66.866  1.00  0.00    -0.094 A  
HETATM   12  O   UNL     1      -7.308   8.707  68.287  1.00  0.00    -0.084 OA 
BRANCH   9  13
HETATM   13  N   UNL     1      -9.529   3.906  65.603  1.00  0.00    -0.166 NA 
HETATM   14  H   UNL     1      -9.510   3.086  66.208  1.00  0.00     0.000 HD 
BRANCH  13  15
HETATM   15  C   UNL     1     -10.468   3.962  64.715  1.00  0.00    -0.150 C  
HETATM   16  C   UNL     1     -10.555   3.592  63.263  1.00  0.00    -0.246 C  
HETATM   17  O   UNL     1     -11.637   4.484  65.128  1.00  0.00    -1.102 OA 
HETATM   18  H   UNL     1     -12.326   4.525  64.476  1.00  0.00     0.000 HD 
ENDBRANCH  13  15
ENDBRANCH   9  13
ENDBRANCH   1   2
BRANCH   1  19
HETATM   19  C   UNL     1     -10.752   9.802  68.363  1.00  0.00    -0.262 A  
HETATM   20  C   UNL     1     -11.597  10.635  69.107  1.00  0.00    -0.342 A  
HETATM   21  C   UNL     1     -11.510  12.349  67.386  1.00  0.00    -0.352 A  
HETATM   22  C   UNL     1     -10.384  10.219  67.061  1.00  0.00    -0.299 A  
HETATM   23  C   UNL     1     -11.965  11.896  68.626  1.00  0.00    -0.291 A  
HETATM   24  C   UNL     1     -10.752  11.485  66.571  1.00  0.00    -0.273 A  
BRANCH  24  25
HETATM   25  O   UNL     1     -10.388  11.997  65.350  1.00  0.00    -0.248 OA 
BRANCH  25  26
HETATM   26  C   UNL     1     -10.852  11.357  64.165  1.00  0.00    -0.365 C  
HETATM   27  C   UNL     1     -12.051  12.134  63.641  1.00  0.00    -0.648 C  
ENDBRANCH  25  26
ENDBRANCH  24  25
BRANCH  21  28
HETATM   28  O   UNL     1     -11.744  13.611  66.894  1.00  0.00    -0.347 OA 
HETATM   29  C   UNL     1     -11.651  14.696  67.807  1.00  0.00    -0.359 C  
ENDBRANCH  21  28
ENDBRANCH   1  19
BRANCH   1  30
HETATM   30  C   UNL     1     -11.048   7.948  70.003  1.00  0.00    -0.162 C  
BRANCH  30  31
HETATM   31  S   UNL     1     -10.484   7.820  71.681  1.00  0.00    -0.206 S  
HETATM   32  O   UNL     1     -11.415   8.587  72.487  1.00  0.00    -0.371 OA 
HETATM   33  C   UNL     1      -8.924   8.668  71.774  1.00  0.00    -0.237 C  
HETATM   34  O   UNL     1     -10.236   6.425  71.979  1.00  0.00    -0.192 OA 
ENDBRANCH  30  31
ENDBRANCH   1  30
TORSDOF 9
ENDMDL
MODEL       75
REMARK 921   NORMALIZED FREE ENERGY PREDICTED BY IDOCK:   -5.77 KCAL/MOL
REMARK 922        TOTAL FREE ENERGY PREDICTED BY IDOCK:   -9.86 KCAL/MOL
REMARK 923 INTER-LIGAND FREE ENERGY PREDICTED BY IDOCK:   -8.06 KCAL/MOL
REMARK 924 INTRA-LIGAND FREE ENERGY PREDICTED BY IDOCK:   -1.79 KCAL/MOL
REMARK 927      BINDING AFFINITY PREDICTED BY RF-SCORE:    0.00 PKD
ROOT
HETATM    1  C   UNL     1      -9.394   9.059  67.014  1.00  0.00    -0.150 C  
ENDROOT
BRANCH   1   2
HETATM    2  N   UNL     1     -10.075  10.246  66.471  1.00  0.00    -0.222 N  
HETATM    3  C   UNL     1     -11.067  12.223  63.628  1.00  0.00    -0.537 A  
HETATM    4  C   UNL     1     -11.691  13.458  63.616  1.00  0.00    -0.376 A  
HETATM    5  O   UNL     1     -10.982  11.343  68.315  1.00  0.00    -0.187 OA 
HETATM    6  C   UNL     1     -12.143  14.028  64.820  1.00  0.00    -0.455 A  
HETATM    7  C   UNL     1     -10.193  10.379  65.119  1.00  0.00    -0.256 C  
HETATM    8  C   UNL     1     -10.798  11.234  67.117  1.00  0.00    -0.270 C  
HETATM    9  C   UNL     1     -12.036  13.368  66.068  1.00  0.00    -0.415 A  
HETATM   10  C   UNL     1     -11.319  12.165  66.067  1.00  0.00    -0.410 A  
HETATM   11  C   UNL     1     -10.888  11.626  64.857  1.00  0.00    -0.359 A  
HETATM   12  O   UNL     1      -9.829   9.612  64.244  1.00  0.00     0.023 OA 
BRANCH   9  13
HETATM   13  N   UNL     1     -12.543  13.947  67.249  1.00  0.00    -0.364 NA 
HETATM   14  H   UNL     1     -13.498  13.704  67.511  1.00  0.00     0.000 HD 
BRANCH  13  15
HETATM   15  C   UNL     1     -11.906  14.759  68.029  1.00  0.00    -0.294 C  
HETATM   16  C   UNL     1     -10.608  15.504  67.923  1.00  0.00    -0.274 C  
HETATM   17  O   UNL     1     -12.478  14.999  69.221  1.00  0.00    -0.562 OA 
HETATM   18  H   UNL     1     -12.010  15.595  69.794  1.00  0.00     0.000 HD 
ENDBRANCH  13  15
ENDBRANCH   9  13
ENDBRANCH   1   2
BRANCH   1  19
HETATM   19  C   UNL     1      -8.336   9.357  68.094  1.00  0.00    -0.119 A  
HETATM   20  C   UNL     1      -7.221  10.152  67.805  1.00  0.00    -0.087 A  
HETATM   21  C   UNL     1      -6.734  10.425  70.170  1.00  0.00    -0.150 A  
HETATM   22  C   UNL     1      -8.571   9.006  69.446  1.00  0.00    -0.137 A  
HETATM   23  C   UNL     1      -6.435  10.686  68.831  1.00  0.00    -0.049 A  
HETATM   24  C   UNL     1      -7.783   9.538  70.483  1.00  0.00    -0.157 A  
BRANCH  24  25
HETATM   25  O   UNL     1      -7.976   9.304  71.823  1.00  0.00    -0.300 OA 
BRANCH  25  26
HETATM   26  C   UNL     1      -9.170   8.654  72.246  1.00  0.00    -0.227 C  
HETATM   27  C   UNL     1      -8.874   7.908  73.540  1.00  0.00    -0.333 C  
ENDBRANCH  25  26
ENDBRANCH  24  25
BRANCH  21  28
HETATM   28  O   UNL     1      -6.073  10.995  71.232  1.00  0.00    -0.334 OA 
HETATM   29  C   UNL     1      -5.485  12.273  71.026  1.00  0.00    -0.100 C  
ENDBRANCH  21  28
ENDBRANCH   1  19
BRANCH   1  30
HETATM   30  C   UNL     1     -10.286   7.919  67.506  1.00  0.00    -0.259 C  
BRANCH  30  31
HETATM   31  S   UNL     1      -9.725   6.280  67.126  1.00  0.00    -0.148 S  
HETATM   32  O   UNL     1      -9.066   5.784  68.319  1.00  0.00    -0.118 OA 
HETATM   33  C   UNL     1      -8.464   6.433  65.882  1.00  0.00    -0.147 C  
HETATM   34  O   UNL     1     -10.824   5.541  66.538  1.00  0.00    -0.288 OA 
ENDBRANCH  30  31
ENDBRANCH   1  30
TORSDOF 9
ENDMDL
MODEL       76
REMARK 921   NORMALIZED FREE ENERGY PREDICTED BY IDOCK:   -5.76 KCAL/MOL
REMARK 922        TOTAL FREE ENERGY PREDICTED BY IDOCK:   -9.85 KCAL/MOL
REMARK 923 INTER-LIGAND FREE ENERGY PREDICTED BY IDOCK:   -9.08 KCAL/MOL
REMARK 924 INTRA-LIGAND FREE ENERGY PREDICTED BY IDOCK:   -0.77 KCAL/MOL
REMARK 927      BINDING AFFINITY PREDICTED BY RF-SCORE:    0.00 PKD
ROOT
HETATM    1  C   UNL     1      -9.869  17.082  67.530  1.00  0.00    -0.258 C  
ENDROOT
BRANCH   1   2
HETATM    2  N   UNL     1     -10.289  15.671  67.527  1.00  0.00    -0.271 N  
HETATM    3  C   UNL     1     -11.893  12.908  69.191  1.00  0.00    -0.353 A  
HETATM    4  C   UNL     1     -11.973  11.588  68.783  1.00  0.00    -0.335 A  
HETATM    5  O   UNL     1      -9.663  14.839  65.444  1.00  0.00    -0.305 OA 
HETATM    6  C   UNL     1     -11.503  11.218  67.510  1.00  0.00    -0.324 A  
HETATM    7  C   UNL     1     -11.046  15.203  68.561  1.00  0.00    -0.276 C  
HETATM    8  C   UNL     1     -10.184  14.710  66.535  1.00  0.00    -0.278 C  
HETATM    9  C   UNL     1     -10.986  12.153  66.582  1.00  0.00    -0.282 A  
HETATM   10  C   UNL     1     -10.830  13.463  67.051  1.00  0.00    -0.280 A  
HETATM   11  C   UNL     1     -11.309  13.798  68.316  1.00  0.00    -0.317 A  
HETATM   12  O   UNL     1     -11.478  15.814  69.524  1.00  0.00    -0.305 OA 
BRANCH   9  13
HETATM   13  N   UNL     1     -10.569  11.755  65.295  1.00  0.00    -0.269 NA 
HETATM   14  H   UNL     1      -9.675  11.270  65.226  1.00  0.00     0.000 HD 
BRANCH  13  15
HETATM   15  C   UNL     1     -11.221  11.949  64.194  1.00  0.00    -0.376 C  
HETATM   16  C   UNL     1     -12.283  12.920  63.768  1.00  0.00    -0.555 C  
HETATM   17  O   UNL     1     -10.940  11.103  63.188  1.00  0.00    -0.802 OA 
HETATM   18  H   UNL     1     -11.418  11.246  62.380  1.00  0.00     0.000 HD 
ENDBRANCH  13  15
ENDBRANCH   9  13
ENDBRANCH   1   2
BRANCH   1  19
HETATM   19  C   UNL     1      -8.484  17.344  68.150  1.00  0.00    -0.241 A  
HETATM   20  C   UNL     1      -8.045  18.651  68.394  1.00  0.00    -0.360 A  
HETATM   21  C   UNL     1      -6.260  17.841  69.832  1.00  0.00    -0.113 A  
HETATM   22  C   UNL     1      -7.716  16.276  68.673  1.00  0.00    -0.192 A  
HETATM   23  C   UNL     1      -6.951  18.896  69.230  1.00  0.00    -0.273 A  
HETATM   24  C   UNL     1      -6.613  16.515  69.513  1.00  0.00    -0.217 A  
BRANCH  24  25
HETATM   25  O   UNL     1      -5.851  15.543  70.114  1.00  0.00    -0.144 OA 
BRANCH  25  26
HETATM   26  C   UNL     1      -5.143  14.615  69.297  1.00  0.00    -0.086 C  
HETATM   27  C   UNL     1      -5.634  13.213  69.631  1.00  0.00    -0.097 C  
ENDBRANCH  25  26
ENDBRANCH  24  25
BRANCH  21  28
HETATM   28  O   UNL     1      -5.245  18.005  70.743  1.00  0.00    -0.256 OA 
HETATM   29  C   UNL     1      -5.138  19.271  71.381  1.00  0.00    -0.326 C  
ENDBRANCH  21  28
ENDBRANCH   1  19
BRANCH   1  30
HETATM   30  C   UNL     1      -9.957  17.828  66.198  1.00  0.00    -0.276 C  
BRANCH  30  31
HETATM   31  S   UNL     1     -10.495  19.516  66.293  1.00  0.00    -0.516 S  
HETATM   32  O   UNL     1     -11.329  19.748  65.129  1.00  0.00    -0.174 OA 
HETATM   33  C   UNL     1      -9.054  20.537  66.088  1.00  0.00     0.109 C  
HETATM   34  O   UNL     1     -11.013  19.761  67.623  1.00  0.00    -0.333 OA 
ENDBRANCH  30  31
ENDBRANCH   1  30
TORSDOF 9
ENDMDL
MODEL       77
REMARK 921   NORMALIZED FREE ENERGY PREDICTED BY IDOCK:   -5.74 KCAL/MOL
REMARK 922        TOTAL FREE ENERGY PREDICTED BY IDOCK:   -9.82 KCAL/MOL
REMARK 923 INTER-LIGAND FREE ENERGY PREDICTED BY IDOCK:   -8.26 KCAL/MOL
REMARK 924 INTRA-LIGAND FREE ENERGY PREDICTED BY IDOCK:   -1.57 KCAL/MOL
REMARK 927      BINDING AFFINITY PREDICTED BY RF-SCORE:    0.00 PKD
ROOT
HETATM    1  C   UNL     1     -10.286   7.986  69.578  1.00  0.00    -0.221 C  
ENDROOT
BRANCH   1   2
HETATM    2  N   UNL     1      -9.529   7.192  68.597  1.00  0.00    -0.140 N  
HETATM    3  C   UNL     1      -6.499   5.479  67.669  1.00  0.00    -0.051 A  
HETATM    4  C   UNL     1      -6.183   4.886  66.459  1.00  0.00    -0.032 A  
HETATM    5  O   UNL     1     -10.993   6.833  66.822  1.00  0.00    -0.337 OA 
HETATM    6  C   UNL     1      -7.159   4.785  65.451  1.00  0.00    -0.064 A  
HETATM    7  C   UNL     1      -8.300   6.712  68.943  1.00  0.00    -0.120 C  
HETATM    8  C   UNL     1      -9.918   6.682  67.370  1.00  0.00    -0.145 C  
HETATM    9  C   UNL     1      -8.493   5.223  65.630  1.00  0.00    -0.135 A  
HETATM   10  C   UNL     1      -8.763   5.901  66.825  1.00  0.00    -0.117 A  
HETATM   11  C   UNL     1      -7.775   5.982  67.804  1.00  0.00    -0.101 A  
HETATM   12  O   UNL     1      -7.714   6.817  70.007  1.00  0.00    -0.097 OA 
BRANCH   9  13
HETATM   13  N   UNL     1      -9.459   5.061  64.616  1.00  0.00    -0.358 NA 
HETATM   14  H   UNL     1      -9.491   5.774  63.887  1.00  0.00     0.000 HD 
BRANCH  13  15
HETATM   15  C   UNL     1     -10.310   4.090  64.528  1.00  0.00    -0.206 C  
HETATM   16  C   UNL     1     -10.269   2.720  63.916  1.00  0.00    -0.140 C  
HETATM   17  O   UNL     1     -11.521   4.319  65.063  1.00  0.00    -1.020 OA 
HETATM   18  H   UNL     1     -12.145   3.606  64.998  1.00  0.00     0.000 HD 
ENDBRANCH  13  15
ENDBRANCH   9  13
ENDBRANCH   1   2
BRANCH   1  19
HETATM   19  C   UNL     1     -10.542   9.449  69.170  1.00  0.00    -0.234 A  
HETATM   20  C   UNL     1     -10.346   9.869  67.849  1.00  0.00    -0.256 A  
HETATM   21  C   UNL     1     -11.582  11.921  68.260  1.00  0.00    -0.327 A  
HETATM   22  C   UNL     1     -11.171  10.347  70.067  1.00  0.00    -0.385 A  
HETATM   23  C   UNL     1     -10.866  11.086  67.398  1.00  0.00    -0.327 A  
HETATM   24  C   UNL     1     -11.695  11.574  69.620  1.00  0.00    -0.351 A  
BRANCH  24  25
HETATM   25  O   UNL     1     -12.375  12.475  70.403  1.00  0.00    -0.309 OA 
BRANCH  25  26
HETATM   26  C   UNL     1     -13.029  12.013  71.581  1.00  0.00    -0.334 C  
HETATM   27  C   UNL     1     -13.649  13.213  72.284  1.00  0.00    -0.677 C  
ENDBRANCH  25  26
ENDBRANCH  24  25
BRANCH  21  28
HETATM   28  O   UNL     1     -12.209  13.079  67.867  1.00  0.00    -0.249 OA 
HETATM   29  C   UNL     1     -12.182  13.398  66.481  1.00  0.00    -0.356 C  
ENDBRANCH  21  28
ENDBRANCH   1  19
BRANCH   1  30
HETATM   30  C   UNL     1     -11.598   7.384  70.083  1.00  0.00    -0.066 C  
BRANCH  30  31
HETATM   31  S   UNL     1     -11.525   6.591  71.668  1.00  0.00    -0.310 S  
HETATM   32  O   UNL     1     -12.896   6.309  72.051  1.00  0.00    -0.178 OA 
HETATM   33  C   UNL     1     -10.918   7.795  72.828  1.00  0.00    -0.388 C  
HETATM   34  O   UNL     1     -10.550   5.522  71.605  1.00  0.00    -0.225 OA 
ENDBRANCH  30  31
ENDBRANCH   1  30
TORSDOF 9
ENDMDL
MODEL       78
REMARK 921   NORMALIZED FREE ENERGY PREDICTED BY IDOCK:   -5.73 KCAL/MOL
REMARK 922        TOTAL FREE ENERGY PREDICTED BY IDOCK:   -9.80 KCAL/MOL
REMARK 923 INTER-LIGAND FREE ENERGY PREDICTED BY IDOCK:   -7.94 KCAL/MOL
REMARK 924 INTRA-LIGAND FREE ENERGY PREDICTED BY IDOCK:   -1.85 KCAL/MOL
REMARK 927      BINDING AFFINITY PREDICTED BY RF-SCORE:    0.00 PKD
ROOT
HETATM    1  C   UNL     1      -9.380   8.340  66.921  1.00  0.00    -0.176 C  
ENDROOT
BRANCH   1   2
HETATM    2  N   UNL     1      -9.702   8.087  68.335  1.00  0.00    -0.154 N  
HETATM    3  C   UNL     1     -11.778   6.484  70.804  1.00  0.00    -0.427 A  
HETATM    4  C   UNL     1     -11.751   6.636  72.180  1.00  0.00    -0.342 A  
HETATM    5  O   UNL     1      -8.076   9.220  69.558  1.00  0.00    -0.098 OA 
HETATM    6  C   UNL     1     -10.732   7.398  72.781  1.00  0.00    -0.362 A  
HETATM    7  C   UNL     1     -10.682   7.188  68.639  1.00  0.00    -0.163 C  
HETATM    8  C   UNL     1      -9.054   8.501  69.487  1.00  0.00    -0.150 C  
HETATM    9  C   UNL     1      -9.681   7.991  72.043  1.00  0.00    -0.203 A  
HETATM   10  C   UNL     1      -9.782   7.901  70.649  1.00  0.00    -0.175 A  
HETATM   11  C   UNL     1     -10.801   7.137  70.084  1.00  0.00    -0.279 A  
HETATM   12  O   UNL     1     -11.346   6.501  67.882  1.00  0.00    -0.245 OA 
BRANCH   9  13
HETATM   13  N   UNL     1      -8.649   8.707  72.683  1.00  0.00    -0.407 NA 
HETATM   14  H   UNL     1      -8.813   9.697  72.862  1.00  0.00     0.000 HD 
BRANCH  13  15
HETATM   15  C   UNL     1      -7.512   8.219  73.063  1.00  0.00    -0.108 C  
HETATM   16  C   UNL     1      -7.101   6.966  73.779  1.00  0.00    -0.074 C  
HETATM   17  O   UNL     1      -6.432   8.978  72.806  1.00  0.00    -0.301 OA 
HETATM   18  H   UNL     1      -5.598   8.620  73.085  1.00  0.00     0.000 HD 
ENDBRANCH  13  15
ENDBRANCH   9  13
ENDBRANCH   1   2
BRANCH   1  19
HETATM   19  C   UNL     1      -9.811   9.723  66.396  1.00  0.00    -0.298 A  
HETATM   20  C   UNL     1      -9.642  10.061  65.048  1.00  0.00    -0.362 A  
HETATM   21  C   UNL     1     -11.136  11.963  65.281  1.00  0.00    -0.299 A  
HETATM   22  C   UNL     1     -10.568  10.598  67.211  1.00  0.00    -0.313 A  
HETATM   23  C   UNL     1     -10.303  11.163  64.496  1.00  0.00    -0.400 A  
HETATM   24  C   UNL     1     -11.234  11.710  66.664  1.00  0.00    -0.299 A  
BRANCH  24  25
HETATM   25  O   UNL     1     -12.039  12.574  67.365  1.00  0.00    -0.466 OA 
BRANCH  25  26
HETATM   26  C   UNL     1     -11.561  13.127  68.587  1.00  0.00    -0.321 C  
HETATM   27  C   UNL     1     -10.647  14.299  68.256  1.00  0.00    -0.247 C  
ENDBRANCH  25  26
ENDBRANCH  24  25
BRANCH  21  28
HETATM   28  O   UNL     1     -11.897  12.997  64.791  1.00  0.00    -0.330 OA 
HETATM   29  C   UNL     1     -12.122  13.034  63.387  1.00  0.00    -0.515 C  
ENDBRANCH  21  28
ENDBRANCH   1  19
BRANCH   1  30
HETATM   30  C   UNL     1      -7.936   8.082  66.489  1.00  0.00    -0.102 C  
BRANCH  30  31
HETATM   31  S   UNL     1      -7.491   6.380  66.261  1.00  0.00    -0.087 S  
HETATM   32  O   UNL     1      -8.719   5.672  65.954  1.00  0.00    -0.138 OA 
HETATM   33  C   UNL     1      -6.938   5.768  67.835  1.00  0.00    -0.066 C  
HETATM   34  O   UNL     1      -6.365   6.315  65.352  1.00  0.00    -0.036 OA 
ENDBRANCH  30  31
ENDBRANCH   1  30
TORSDOF 9
ENDMDL
MODEL       79
REMARK 921   NORMALIZED FREE ENERGY PREDICTED BY IDOCK:   -5.73 KCAL/MOL
REMARK 922        TOTAL FREE ENERGY PREDICTED BY IDOCK:   -9.79 KCAL/MOL
REMARK 923 INTER-LIGAND FREE ENERGY PREDICTED BY IDOCK:   -8.73 KCAL/MOL
REMARK 924 INTRA-LIGAND FREE ENERGY PREDICTED BY IDOCK:   -1.06 KCAL/MOL
REMARK 927      BINDING AFFINITY PREDICTED BY RF-SCORE:    0.00 PKD
ROOT
HETATM    1  C   UNL     1     -10.597  15.170  68.742  1.00  0.00    -0.236 C  
ENDROOT
BRANCH   1   2
HETATM    2  N   UNL     1     -10.363  14.063  67.801  1.00  0.00    -0.234 N  
HETATM    3  C   UNL     1     -11.371  12.206  64.884  1.00  0.00    -0.378 A  
HETATM    4  C   UNL     1     -10.822  11.043  64.373  1.00  0.00    -0.263 A  
HETATM    5  O   UNL     1      -8.377  13.065  68.495  1.00  0.00    -0.139 OA 
HETATM    6  C   UNL     1      -9.639  10.522  64.930  1.00  0.00    -0.334 A  
HETATM    7  C   UNL     1     -11.168  13.944  66.706  1.00  0.00    -0.318 C  
HETATM    8  C   UNL     1      -9.319  13.155  67.733  1.00  0.00    -0.206 C  
HETATM    9  C   UNL     1      -8.937  11.165  65.978  1.00  0.00    -0.200 A  
HETATM   10  C   UNL     1      -9.562  12.286  66.538  1.00  0.00    -0.242 A  
HETATM   11  C   UNL     1     -10.731  12.779  65.961  1.00  0.00    -0.295 A  
HETATM   12  O   UNL     1     -12.080  14.670  66.351  1.00  0.00    -0.333 OA 
BRANCH   9  13
HETATM   13  N   UNL     1      -7.728  10.641  66.479  1.00  0.00    -0.130 NA 
HETATM   14  H   UNL     1      -7.791   9.809  67.065  1.00  0.00     0.000 HD 
BRANCH  13  15
HETATM   15  C   UNL     1      -6.547  11.123  66.263  1.00  0.00    -0.069 C  
HETATM   16  C   UNL     1      -5.591  11.946  67.077  1.00  0.00    -0.126 C  
HETATM   17  O   UNL     1      -6.028  10.883  65.047  1.00  0.00    -0.360 OA 
HETATM   18  H   UNL     1      -5.161  11.236  64.888  1.00  0.00     0.000 HD 
ENDBRANCH  13  15
ENDBRANCH   9  13
ENDBRANCH   1   2
BRANCH   1  19
HETATM   19  C   UNL     1      -9.848  16.474  68.409  1.00  0.00    -0.237 A  
HETATM   20  C   UNL     1     -10.550  17.661  68.166  1.00  0.00    -0.359 A  
HETATM   21  C   UNL     1      -8.521  18.975  68.416  1.00  0.00    -0.348 A  
HETATM   22  C   UNL     1      -8.440  16.548  68.542  1.00  0.00    -0.226 A  
HETATM   23  C   UNL     1      -9.895  18.896  68.176  1.00  0.00    -0.420 A  
HETATM   24  C   UNL     1      -7.775  17.788  68.552  1.00  0.00    -0.289 A  
BRANCH  24  25
HETATM   25  O   UNL     1      -6.425  17.959  68.738  1.00  0.00    -0.211 OA 
BRANCH  25  26
HETATM   26  C   UNL     1      -5.883  17.814  70.047  1.00  0.00    -0.221 C  
HETATM   27  C   UNL     1      -5.147  16.483  70.114  1.00  0.00    -0.175 C  
ENDBRANCH  25  26
ENDBRANCH  24  25
BRANCH  21  28
HETATM   28  O   UNL     1      -7.827  20.155  68.544  1.00  0.00    -0.177 OA 
HETATM   29  C   UNL     1      -7.412  20.802  67.348  1.00  0.00    -0.324 C  
ENDBRANCH  21  28
ENDBRANCH   1  19
BRANCH   1  30
HETATM   30  C   UNL     1     -12.056  15.511  69.053  1.00  0.00    -0.221 C  
BRANCH  30  31
HETATM   31  S   UNL     1     -12.623  15.070  70.675  1.00  0.00    -0.387 S  
HETATM   32  O   UNL     1     -13.922  15.695  70.840  1.00  0.00    -0.479 OA 
HETATM   33  C   UNL     1     -11.536  15.855  71.842  1.00  0.00    -0.449 C  
HETATM   34  O   UNL     1     -12.475  13.639  70.842  1.00  0.00    -0.347 OA 
ENDBRANCH  30  31
ENDBRANCH   1  30
TORSDOF 9
ENDMDL
MODEL       80
REMARK 921   NORMALIZED FREE ENERGY PREDICTED BY IDOCK:   -5.72 KCAL/MOL
REMARK 922        TOTAL FREE ENERGY PREDICTED BY IDOCK:   -9.79 KCAL/MOL
REMARK 923 INTER-LIGAND FREE ENERGY PREDICTED BY IDOCK:   -8.39 KCAL/MOL
REMARK 924 INTRA-LIGAND FREE ENERGY PREDICTED BY IDOCK:   -1.40 KCAL/MOL
REMARK 927      BINDING AFFINITY PREDICTED BY RF-SCORE:    0.00 PKD
ROOT
HETATM    1  C   UNL     1      -9.546  11.731  68.066  1.00  0.00    -0.187 C  
ENDROOT
BRANCH   1   2
HETATM    2  N   UNL     1      -9.769  10.285  68.235  1.00  0.00    -0.140 N  
HETATM    3  C   UNL     1     -10.683   7.102  66.819  1.00  0.00    -0.259 A  
HETATM    4  C   UNL     1     -10.862   5.892  67.467  1.00  0.00    -0.335 A  
HETATM    5  O   UNL     1      -9.236   9.827  70.455  1.00  0.00    -0.237 OA 
HETATM    6  C   UNL     1     -10.546   5.775  68.833  1.00  0.00    -0.337 A  
HETATM    7  C   UNL     1     -10.046   9.526  67.136  1.00  0.00    -0.229 C  
HETATM    8  C   UNL     1      -9.588   9.478  69.345  1.00  0.00    -0.180 C  
HETATM    9  C   UNL     1      -9.995   6.839  69.586  1.00  0.00    -0.173 A  
HETATM   10  C   UNL     1      -9.911   8.075  68.934  1.00  0.00    -0.176 A  
HETATM   11  C   UNL     1     -10.228   8.157  67.579  1.00  0.00    -0.309 A  
HETATM   12  O   UNL     1     -10.110   9.872  65.968  1.00  0.00    -0.259 OA 
BRANCH   9  13
HETATM   13  N   UNL     1      -9.644   6.673  70.941  1.00  0.00    -0.175 NA 
HETATM   14  H   UNL     1      -8.666   6.465  71.146  1.00  0.00     0.000 HD 
BRANCH  13  15
HETATM   15  C   UNL     1     -10.451   6.759  71.949  1.00  0.00    -0.199 C  
HETATM   16  C   UNL     1     -10.983   7.902  72.764  1.00  0.00    -0.456 C  
HETATM   17  O   UNL     1     -10.923   5.594  72.425  1.00  0.00    -0.234 OA 
HETATM   18  H   UNL     1     -11.516   5.658  73.165  1.00  0.00     0.000 HD 
ENDBRANCH  13  15
ENDBRANCH   9  13
ENDBRANCH   1   2
BRANCH   1  19
HETATM   19  C   UNL     1     -10.680  12.628  68.597  1.00  0.00    -0.269 A  
HETATM   20  C   UNL     1     -11.542  12.173  69.602  1.00  0.00    -0.361 A  
HETATM   21  C   UNL     1     -12.340  14.431  70.015  1.00  0.00    -0.336 A  
HETATM   22  C   UNL     1     -10.747  13.994  68.231  1.00  0.00    -0.262 A  
HETATM   23  C   UNL     1     -12.356  13.065  70.307  1.00  0.00    -0.311 A  
HETATM   24  C   UNL     1     -11.566  14.897  68.934  1.00  0.00    -0.315 A  
BRANCH  24  25
HETATM   25  O   UNL     1     -11.646  16.246  68.691  1.00  0.00    -0.355 OA 
BRANCH  25  26
HETATM   26  C   UNL     1     -10.451  17.020  68.678  1.00  0.00    -0.363 C  
HETATM   27  C   UNL     1     -10.681  18.241  67.798  1.00  0.00    -0.358 C  
ENDBRANCH  25  26
ENDBRANCH  24  25
BRANCH  21  28
HETATM   28  O   UNL     1     -13.032  15.380  70.729  1.00  0.00    -0.448 OA 
HETATM   29  C   UNL     1     -13.959  14.917  71.704  1.00  0.00    -0.485 C  
ENDBRANCH  21  28
ENDBRANCH   1  19
BRANCH   1  30
HETATM   30  C   UNL     1      -8.211  12.283  68.567  1.00  0.00    -0.096 C  
BRANCH  30  31
HETATM   31  S   UNL     1      -6.816  12.011  67.505  1.00  0.00    -0.143 S  
HETATM   32  O   UNL     1      -7.332  11.391  66.299  1.00  0.00    -0.066 OA 
HETATM   33  C   UNL     1      -5.787  10.795  68.294  1.00  0.00    -0.043 C  
HETATM   34  O   UNL     1      -6.051  13.238  67.426  1.00  0.00    -0.298 OA 
ENDBRANCH  30  31
ENDBRANCH   1  30
TORSDOF 9
ENDMDL
MODEL       81
REMARK 921   NORMALIZED FREE ENERGY PREDICTED BY IDOCK:   -5.72 KCAL/MOL
REMARK 922        TOTAL FREE ENERGY PREDICTED BY IDOCK:   -9.78 KCAL/MOL
REMARK 923 INTER-LIGAND FREE ENERGY PREDICTED BY IDOCK:   -8.60 KCAL/MOL
REMARK 924 INTRA-LIGAND FREE ENERGY PREDICTED BY IDOCK:   -1.19 KCAL/MOL
REMARK 927      BINDING AFFINITY PREDICTED BY RF-SCORE:    0.00 PKD
ROOT
HETATM    1  C   UNL     1     -10.997  12.284  68.021  1.00  0.00    -0.225 C  
ENDROOT
BRANCH   1   2
HETATM    2  N   UNL     1     -10.324  13.591  68.086  1.00  0.00    -0.240 N  
HETATM    3  C   UNL     1      -7.365  15.525  68.777  1.00  0.00    -0.141 A  
HETATM    4  C   UNL     1      -7.220  16.902  68.788  1.00  0.00    -0.220 A  
HETATM    5  O   UNL     1     -11.900  15.141  67.353  1.00  0.00    -0.264 OA 
HETATM    6  C   UNL     1      -8.283  17.722  68.365  1.00  0.00    -0.298 A  
HETATM    7  C   UNL     1      -8.989  13.635  68.363  1.00  0.00    -0.160 C  
HETATM    8  C   UNL     1     -10.786  14.852  67.746  1.00  0.00    -0.286 C  
HETATM    9  C   UNL     1      -9.502  17.202  67.870  1.00  0.00    -0.257 A  
HETATM   10  C   UNL     1      -9.658  15.813  67.956  1.00  0.00    -0.210 A  
HETATM   11  C   UNL     1      -8.586  15.028  68.376  1.00  0.00    -0.162 A  
HETATM   12  O   UNL     1      -8.219  12.707  68.545  1.00  0.00    -0.145 OA 
BRANCH   9  13
HETATM   13  N   UNL     1     -10.528  18.052  67.409  1.00  0.00    -0.384 NA 
HETATM   14  H   UNL     1     -11.409  18.038  67.922  1.00  0.00     0.000 HD 
BRANCH  13  15
HETATM   15  C   UNL     1     -10.451  18.848  66.392  1.00  0.00    -0.439 C  
HETATM   16  C   UNL     1      -9.921  20.238  66.193  1.00  0.00    -0.443 C  
HETATM   17  O   UNL     1     -10.972  18.385  65.242  1.00  0.00    -0.563 OA 
HETATM   18  H   UNL     1     -10.916  18.970  64.496  1.00  0.00     0.000 HD 
ENDBRANCH  13  15
ENDBRANCH   9  13
ENDBRANCH   1   2
BRANCH   1  19
HETATM   19  C   UNL     1     -10.846  11.543  66.679  1.00  0.00    -0.335 A  
HETATM   20  C   UNL     1     -11.279  12.131  65.484  1.00  0.00    -0.381 A  
HETATM   21  C   UNL     1     -10.032  10.510  64.171  1.00  0.00    -0.318 A  
HETATM   22  C   UNL     1     -10.088  10.350  66.597  1.00  0.00    -0.279 A  
HETATM   23  C   UNL     1     -10.870  11.625  64.246  1.00  0.00    -0.418 A  
HETATM   24  C   UNL     1      -9.675   9.834  65.355  1.00  0.00    -0.313 A  
BRANCH  24  25
HETATM   25  O   UNL     1      -8.887   8.722  65.183  1.00  0.00    -0.186 OA 
BRANCH  25  26
HETATM   26  C   UNL     1      -8.561   7.924  66.316  1.00  0.00    -0.149 C  
HETATM   27  C   UNL     1      -7.091   7.538  66.222  1.00  0.00    -0.070 C  
ENDBRANCH  25  26
ENDBRANCH  24  25
BRANCH  21  28
HETATM   28  O   UNL     1      -9.507  10.018  63.001  1.00  0.00    -0.297 OA 
HETATM   29  C   UNL     1      -8.513  10.800  62.350  1.00  0.00    -0.266 C  
ENDBRANCH  21  28
ENDBRANCH   1  19
BRANCH   1  30
HETATM   30  C   UNL     1     -10.702  11.302  69.156  1.00  0.00    -0.207 C  
BRANCH  30  31
HETATM   31  S   UNL     1     -12.051  10.969  70.258  1.00  0.00    -0.384 S  
HETATM   32  O   UNL     1     -12.264  12.181  71.026  1.00  0.00    -0.310 OA 
HETATM   33  C   UNL     1     -11.493   9.736  71.412  1.00  0.00    -0.365 C  
HETATM   34  O   UNL     1     -13.137  10.387  69.496  1.00  0.00     0.118 OA 
ENDBRANCH  30  31
ENDBRANCH   1  30
TORSDOF 9
ENDMDL
MODEL       82
REMARK 921   NORMALIZED FREE ENERGY PREDICTED BY IDOCK:   -5.70 KCAL/MOL
REMARK 922        TOTAL FREE ENERGY PREDICTED BY IDOCK:   -9.75 KCAL/MOL
REMARK 923 INTER-LIGAND FREE ENERGY PREDICTED BY IDOCK:   -8.37 KCAL/MOL
REMARK 924 INTRA-LIGAND FREE ENERGY PREDICTED BY IDOCK:   -1.39 KCAL/MOL
REMARK 927      BINDING AFFINITY PREDICTED BY RF-SCORE:    0.00 PKD
ROOT
HETATM    1  C   UNL     1     -11.037   9.379  69.965  1.00  0.00    -0.221 C  
ENDROOT
BRANCH   1   2
HETATM    2  N   UNL     1     -11.208  10.543  69.079  1.00  0.00    -0.248 N  
HETATM    3  C   UNL     1     -11.101  11.965  65.772  1.00  0.00    -0.367 A  
HETATM    4  C   UNL     1     -11.273  13.287  65.398  1.00  0.00    -0.306 A  
HETATM    5  O   UNL     1     -11.937  12.273  70.457  1.00  0.00    -0.335 OA 
HETATM    6  C   UNL     1     -11.667  14.241  66.355  1.00  0.00    -0.403 A  
HETATM    7  C   UNL     1     -11.093  10.370  67.731  1.00  0.00    -0.299 C  
HETATM    8  C   UNL     1     -11.642  11.826  69.365  1.00  0.00    -0.322 C  
HETATM    9  C   UNL     1     -11.951  13.905  67.701  1.00  0.00    -0.368 A  
HETATM   10  C   UNL     1     -11.681  12.582  68.074  1.00  0.00    -0.410 A  
HETATM   11  C   UNL     1     -11.295  11.661  67.102  1.00  0.00    -0.373 A  
HETATM   12  O   UNL     1     -10.891   9.340  67.111  1.00  0.00    -0.217 OA 
BRANCH   9  13
HETATM   13  N   UNL     1     -12.391  14.877  68.621  1.00  0.00    -0.592 NA 
HETATM   14  H   UNL     1     -13.395  15.049  68.671  1.00  0.00     0.000 HD 
BRANCH  13  15
HETATM   15  C   UNL     1     -11.635  15.571  69.409  1.00  0.00    -0.355 C  
HETATM   16  C   UNL     1     -10.508  16.538  69.188  1.00  0.00    -0.317 C  
HETATM   17  O   UNL     1     -11.848  15.405  70.726  1.00  0.00    -0.291 OA 
HETATM   18  H   UNL     1     -11.293  15.915  71.304  1.00  0.00     0.000 HD 
ENDBRANCH  13  15
ENDBRANCH   9  13
ENDBRANCH   1   2
BRANCH   1  19
HETATM   19  C   UNL     1      -9.619   8.776  69.976  1.00  0.00    -0.177 A  
HETATM   20  C   UNL     1      -8.541   9.492  70.511  1.00  0.00    -0.231 A  
HETATM   21  C   UNL     1      -7.173   7.484  70.579  1.00  0.00    -0.064 A  
HETATM   22  C   UNL     1      -9.414   7.417  69.638  1.00  0.00    -0.156 A  
HETATM   23  C   UNL     1      -7.336   8.851  70.815  1.00  0.00    -0.091 A  
HETATM   24  C   UNL     1      -8.203   6.767  69.939  1.00  0.00    -0.127 A  
BRANCH  24  25
HETATM   25  O   UNL     1      -7.939   5.439  69.706  1.00  0.00    -0.085 OA 
BRANCH  25  26
HETATM   26  C   UNL     1      -8.592   4.454  70.499  1.00  0.00    -0.081 C  
HETATM   27  C   UNL     1      -9.361   3.525  69.569  1.00  0.00    -0.243 C  
ENDBRANCH  25  26
ENDBRANCH  24  25
BRANCH  21  28
HETATM   28  O   UNL     1      -6.060   6.766  70.945  1.00  0.00    -0.031 OA 
HETATM   29  C   UNL     1      -5.744   6.711  72.331  1.00  0.00    -0.038 C  
ENDBRANCH  21  28
ENDBRANCH   1  19
BRANCH   1  30
HETATM   30  C   UNL     1     -11.510   9.540  71.410  1.00  0.00    -0.392 C  
BRANCH  30  31
HETATM   31  S   UNL     1     -12.286   8.117  72.132  1.00  0.00    -0.349 S  
HETATM   32  O   UNL     1     -13.297   8.618  73.044  1.00  0.00    -0.226 OA 
HETATM   33  C   UNL     1     -11.063   7.306  73.135  1.00  0.00    -0.292 C  
HETATM   34  O   UNL     1     -12.649   7.202  71.070  1.00  0.00    -0.357 OA 
ENDBRANCH  30  31
ENDBRANCH   1  30
TORSDOF 9
ENDMDL
MODEL       83
REMARK 921   NORMALIZED FREE ENERGY PREDICTED BY IDOCK:   -5.66 KCAL/MOL
REMARK 922        TOTAL FREE ENERGY PREDICTED BY IDOCK:   -9.70 KCAL/MOL
REMARK 923 INTER-LIGAND FREE ENERGY PREDICTED BY IDOCK:   -9.70 KCAL/MOL
REMARK 924 INTRA-LIGAND FREE ENERGY PREDICTED BY IDOCK:    0.00 KCAL/MOL
REMARK 927      BINDING AFFINITY PREDICTED BY RF-SCORE:    0.00 PKD
ROOT
HETATM    1  C   UNL     1     -11.799  12.865  70.328  1.00  0.00    -0.213 C  
ENDROOT
BRANCH   1   2
HETATM    2  N   UNL     1     -11.512  11.427  70.199  1.00  0.00    -0.262 N  
HETATM    3  C   UNL     1     -12.161   8.032  71.211  1.00  0.00    -0.314 A  
HETATM    4  C   UNL     1     -11.497   6.879  70.830  1.00  0.00    -0.381 A  
HETATM    5  O   UNL     1      -9.917  11.259  68.511  1.00  0.00    -0.190 OA 
HETATM    6  C   UNL     1     -10.512   6.937  69.827  1.00  0.00    -0.240 A  
HETATM    7  C   UNL     1     -12.278  10.535  70.891  1.00  0.00    -0.388 C  
HETATM    8  C   UNL     1     -10.659  10.761  69.335  1.00  0.00    -0.221 C  
HETATM    9  C   UNL     1     -10.191   8.129  69.135  1.00  0.00    -0.214 A  
HETATM   10  C   UNL     1     -10.808   9.296  69.603  1.00  0.00    -0.228 A  
HETATM   11  C   UNL     1     -11.782   9.205  70.595  1.00  0.00    -0.256 A  
HETATM   12  O   UNL     1     -13.234  10.754  71.615  1.00  0.00    -0.413 OA 
BRANCH   9  13
HETATM   13  N   UNL     1      -9.233   8.141  68.101  1.00  0.00    -0.134 NA 
HETATM   14  H   UNL     1      -8.256   8.029  68.372  1.00  0.00     0.000 HD 
BRANCH  13  15
HETATM   15  C   UNL     1      -9.482   8.282  66.839  1.00  0.00    -0.186 C  
HETATM   16  C   UNL     1     -10.062   9.388  66.007  1.00  0.00    -0.302 C  
HETATM   17  O   UNL     1      -9.203   7.220  66.063  1.00  0.00    -0.321 OA 
HETATM   18  H   UNL     1      -9.386   7.323  65.137  1.00  0.00     0.000 HD 
ENDBRANCH  13  15
ENDBRANCH   9  13
ENDBRANCH   1   2
BRANCH   1  19
HETATM   19  C   UNL     1     -11.579  13.688  69.045  1.00  0.00    -0.356 A  
HETATM   20  C   UNL     1     -10.549  14.633  68.968  1.00  0.00    -0.248 A  
HETATM   21  C   UNL     1     -10.759  14.745  66.549  1.00  0.00    -0.319 A  
HETATM   22  C   UNL     1     -12.276  13.364  67.855  1.00  0.00    -0.149 A  
HETATM   23  C   UNL     1     -10.140  15.149  67.734  1.00  0.00    -0.230 A  
HETATM   24  C   UNL     1     -11.871  13.881  66.611  1.00  0.00    -0.420 A  
BRANCH  24  25
HETATM   25  O   UNL     1     -12.445  13.574  65.402  1.00  0.00    -0.445 OA 
BRANCH  25  26
HETATM   26  C   UNL     1     -12.259  12.271  64.858  1.00  0.00    -0.339 C  
HETATM   27  C   UNL     1     -11.739  12.418  63.434  1.00  0.00    -0.554 C  
ENDBRANCH  25  26
ENDBRANCH  24  25
BRANCH  21  28
HETATM   28  O   UNL     1     -10.347  15.127  65.295  1.00  0.00    -0.360 OA 
HETATM   29  C   UNL     1     -11.052  16.193  64.672  1.00  0.00    -0.296 C  
ENDBRANCH  21  28
ENDBRANCH   1  19
BRANCH   1  30
HETATM   30  C   UNL     1     -13.156  13.245  70.924  1.00  0.00    -0.004 C  
BRANCH  30  31
HETATM   31  S   UNL     1     -13.213  14.791  71.791  1.00  0.00    -0.381 S  
HETATM   32  O   UNL     1     -13.485  15.811  70.795  1.00  0.00    -0.520 OA 
HETATM   33  C   UNL     1     -11.573  15.111  72.401  1.00  0.00    -0.360 C  
HETATM   34  O   UNL     1     -14.081  14.644  72.941  1.00  0.00    -0.457 OA 
ENDBRANCH  30  31
ENDBRANCH   1  30
TORSDOF 9
ENDMDL
MODEL       84
REMARK 921   NORMALIZED FREE ENERGY PREDICTED BY IDOCK:   -5.66 KCAL/MOL
REMARK 922        TOTAL FREE ENERGY PREDICTED BY IDOCK:   -9.69 KCAL/MOL
REMARK 923 INTER-LIGAND FREE ENERGY PREDICTED BY IDOCK:   -8.00 KCAL/MOL
REMARK 924 INTRA-LIGAND FREE ENERGY PREDICTED BY IDOCK:   -1.69 KCAL/MOL
REMARK 927      BINDING AFFINITY PREDICTED BY RF-SCORE:    0.00 PKD
ROOT
HETATM    1  C   UNL     1      -9.542   7.793  67.760  1.00  0.00    -0.146 C  
ENDROOT
BRANCH   1   2
HETATM    2  N   UNL     1      -9.825   8.870  66.796  1.00  0.00    -0.217 N  
HETATM    3  C   UNL     1      -9.191  10.428  63.612  1.00  0.00    -0.310 A  
HETATM    4  C   UNL     1      -9.693  11.622  63.124  1.00  0.00    -0.385 A  
HETATM    5  O   UNL     1     -11.515  10.145  67.767  1.00  0.00    -0.287 OA 
HETATM    6  C   UNL     1     -10.680  12.316  63.848  1.00  0.00    -0.463 A  
HETATM    7  C   UNL     1      -9.238   8.828  65.566  1.00  0.00    -0.137 C  
HETATM    8  C   UNL     1     -10.752   9.897  66.853  1.00  0.00    -0.125 C  
HETATM    9  C   UNL     1     -11.236  11.823  65.053  1.00  0.00    -0.257 A  
HETATM   10  C   UNL     1     -10.647  10.664  65.572  1.00  0.00    -0.180 A  
HETATM   11  C   UNL     1      -9.674   9.998  64.828  1.00  0.00    -0.363 A  
HETATM   12  O   UNL     1      -8.499   7.975  65.105  1.00  0.00    -0.152 OA 
BRANCH   9  13
HETATM   13  N   UNL     1     -12.258  12.521  65.727  1.00  0.00    -0.626 NA 
HETATM   14  H   UNL     1     -13.029  11.968  66.101  1.00  0.00     0.000 HD 
BRANCH  13  15
HETATM   15  C   UNL     1     -12.306  13.800  65.914  1.00  0.00    -0.476 C  
HETATM   16  C   UNL     1     -11.352  14.807  66.489  1.00  0.00    -0.344 C  
HETATM   17  O   UNL     1     -13.452  14.404  65.557  1.00  0.00    -0.609 OA 
HETATM   18  H   UNL     1     -13.487  15.344  65.694  1.00  0.00     0.000 HD 
ENDBRANCH  13  15
ENDBRANCH   9  13
ENDBRANCH   1   2
BRANCH   1  19
HETATM   19  C   UNL     1      -9.268   8.267  69.200  1.00  0.00    -0.151 A  
HETATM   20  C   UNL     1      -9.929   7.679  70.285  1.00  0.00    -0.189 A  
HETATM   21  C   UNL     1      -8.349   8.663  71.849  1.00  0.00    -0.124 A  
HETATM   22  C   UNL     1      -8.201   9.157  69.473  1.00  0.00    -0.120 A  
HETATM   23  C   UNL     1      -9.470   7.869  71.592  1.00  0.00    -0.194 A  
HETATM   24  C   UNL     1      -7.736   9.355  70.786  1.00  0.00    -0.115 A  
BRANCH  24  25
HETATM   25  O   UNL     1      -6.670  10.147  71.137  1.00  0.00    -0.335 OA 
BRANCH  25  26
HETATM   26  C   UNL     1      -5.783  10.603  70.120  1.00  0.00    -0.076 C  
HETATM   27  C   UNL     1      -6.007  12.097  69.926  1.00  0.00    -0.149 C  
ENDBRANCH  25  26
ENDBRANCH  24  25
BRANCH  21  28
HETATM   28  O   UNL     1      -7.780   8.813  73.090  1.00  0.00    -0.385 OA 
HETATM   29  C   UNL     1      -8.188   7.911  74.110  1.00  0.00    -0.251 C  
ENDBRANCH  21  28
ENDBRANCH   1  19
BRANCH   1  30
HETATM   30  C   UNL     1     -10.539   6.635  67.809  1.00  0.00    -0.252 C  
BRANCH  30  31
HETATM   31  S   UNL     1      -9.850   5.013  67.598  1.00  0.00    -0.153 S  
HETATM   32  O   UNL     1     -10.019   4.327  68.866  1.00  0.00    -0.113 OA 
HETATM   33  C   UNL     1      -8.099   5.214  67.367  1.00  0.00    -0.100 C  
HETATM   34  O   UNL     1     -10.384   4.440  66.381  1.00  0.00    -0.222 OA 
ENDBRANCH  30  31
ENDBRANCH   1  30
TORSDOF 9
ENDMDL
MODEL       85
REMARK 921   NORMALIZED FREE ENERGY PREDICTED BY IDOCK:   -5.65 KCAL/MOL
REMARK 922        TOTAL FREE ENERGY PREDICTED BY IDOCK:   -9.69 KCAL/MOL
REMARK 923 INTER-LIGAND FREE ENERGY PREDICTED BY IDOCK:   -8.32 KCAL/MOL
REMARK 924 INTRA-LIGAND FREE ENERGY PREDICTED BY IDOCK:   -1.36 KCAL/MOL
REMARK 927      BINDING AFFINITY PREDICTED BY RF-SCORE:    0.00 PKD
ROOT
HETATM    1  C   UNL     1      -9.943   9.778  68.533  1.00  0.00    -0.160 C  
ENDROOT
BRANCH   1   2
HETATM    2  N   UNL     1      -9.845  11.149  68.008  1.00  0.00    -0.170 N  
HETATM    3  C   UNL     1      -7.924  14.158  67.528  1.00  0.00    -0.202 A  
HETATM    4  C   UNL     1      -8.337  15.366  66.992  1.00  0.00    -0.268 A  
HETATM    5  O   UNL     1     -11.875  11.553  66.940  1.00  0.00    -0.542 OA 
HETATM    6  C   UNL     1      -9.620  15.479  66.424  1.00  0.00    -0.317 A  
HETATM    7  C   UNL     1      -8.649  11.801  68.077  1.00  0.00    -0.158 C  
HETATM    8  C   UNL     1     -10.755  11.890  67.271  1.00  0.00    -0.236 C  
HETATM    9  C   UNL     1     -10.513  14.385  66.323  1.00  0.00    -0.290 A  
HETATM   10  C   UNL     1     -10.109  13.202  66.954  1.00  0.00    -0.245 A  
HETATM   11  C   UNL     1      -8.832  13.121  67.505  1.00  0.00    -0.199 A  
HETATM   12  O   UNL     1      -7.583  11.390  68.503  1.00  0.00    -0.113 OA 
BRANCH   9  13
HETATM   13  N   UNL     1     -11.771  14.522  65.703  1.00  0.00    -0.347 NA 
HETATM   14  H   UNL     1     -12.538  14.868  66.280  1.00  0.00     0.000 HD 
BRANCH  13  15
HETATM   15  C   UNL     1     -12.041  14.248  64.468  1.00  0.00    -0.480 C  
HETATM   16  C   UNL     1     -11.855  13.035  63.604  1.00  0.00    -0.580 C  
HETATM   17  O   UNL     1     -12.584  15.246  63.749  1.00  0.00    -0.966 OA 
HETATM   18  H   UNL     1     -12.782  15.044  62.843  1.00  0.00     0.000 HD 
ENDBRANCH  13  15
ENDBRANCH   9  13
ENDBRANCH   1   2
BRANCH   1  19
HETATM   19  C   UNL     1      -9.214   8.709  67.696  1.00  0.00    -0.148 A  
HETATM   20  C   UNL     1      -8.999   7.424  68.206  1.00  0.00    -0.130 A  
HETATM   21  C   UNL     1      -8.461   6.576  65.993  1.00  0.00    -0.145 A  
HETATM   22  C   UNL     1      -8.932   8.938  66.327  1.00  0.00    -0.207 A  
HETATM   23  C   UNL     1      -8.634   6.369  67.364  1.00  0.00    -0.107 A  
HETATM   24  C   UNL     1      -8.563   7.882  65.474  1.00  0.00    -0.116 A  
BRANCH  24  25
HETATM   25  O   UNL     1      -8.332   7.999  64.125  1.00  0.00    -0.100 OA 
BRANCH  25  26
HETATM   26  C   UNL     1      -7.953   9.266  63.596  1.00  0.00    -0.141 C  
HETATM   27  C   UNL     1      -9.150   9.853  62.860  1.00  0.00    -0.291 C  
ENDBRANCH  25  26
ENDBRANCH  24  25
BRANCH  21  28
HETATM   28  O   UNL     1      -8.205   5.574  65.089  1.00  0.00    -0.127 OA 
HETATM   29  C   UNL     1      -9.066   4.442  65.107  1.00  0.00    -0.148 C  
ENDBRANCH  21  28
ENDBRANCH   1  19
BRANCH   1  30
HETATM   30  C   UNL     1      -9.576   9.578  70.005  1.00  0.00    -0.238 C  
BRANCH  30  31
HETATM   31  S   UNL     1     -10.914   9.132  71.080  1.00  0.00    -0.352 S  
HETATM   32  O   UNL     1     -11.642   8.070  70.412  1.00  0.00    -0.203 OA 
HETATM   33  C   UNL     1     -12.015  10.526  71.153  1.00  0.00    -0.336 C  
HETATM   34  O   UNL     1     -10.386   8.928  72.414  1.00  0.00    -0.259 OA 
ENDBRANCH  30  31
ENDBRANCH   1  30
TORSDOF 9
ENDMDL
MODEL       86
REMARK 921   NORMALIZED FREE ENERGY PREDICTED BY IDOCK:   -5.65 KCAL/MOL
REMARK 922        TOTAL FREE ENERGY PREDICTED BY IDOCK:   -9.68 KCAL/MOL
REMARK 923 INTER-LIGAND FREE ENERGY PREDICTED BY IDOCK:   -8.20 KCAL/MOL
REMARK 924 INTRA-LIGAND FREE ENERGY PREDICTED BY IDOCK:   -1.48 KCAL/MOL
REMARK 927      BINDING AFFINITY PREDICTED BY RF-SCORE:    0.00 PKD
ROOT
HETATM    1  C   UNL     1     -10.438  14.213  68.368  1.00  0.00    -0.254 C  
ENDROOT
BRANCH   1   2
HETATM    2  N   UNL     1      -9.453  15.252  68.023  1.00  0.00    -0.197 N  
HETATM    3  C   UNL     1      -6.081  16.507  68.192  1.00  0.00    -0.127 A  
HETATM    4  C   UNL     1      -5.591  17.720  67.739  1.00  0.00    -0.142 A  
HETATM    5  O   UNL     1     -10.603  16.788  66.705  1.00  0.00    -0.286 OA 
HETATM    6  C   UNL     1      -6.422  18.577  66.995  1.00  0.00    -0.198 A  
HETATM    7  C   UNL     1      -8.144  15.056  68.352  1.00  0.00    -0.141 C  
HETATM    8  C   UNL     1      -9.589  16.387  67.243  1.00  0.00    -0.234 C  
HETATM    9  C   UNL     1      -7.747  18.237  66.633  1.00  0.00    -0.236 A  
HETATM   10  C   UNL     1      -8.248  17.050  67.181  1.00  0.00    -0.214 A  
HETATM   11  C   UNL     1      -7.399  16.221  67.911  1.00  0.00    -0.140 A  
HETATM   12  O   UNL     1      -7.630  14.090  68.889  1.00  0.00    -0.123 OA 
BRANCH   9  13
HETATM   13  N   UNL     1      -8.536  19.099  65.844  1.00  0.00    -0.433 NA 
HETATM   14  H   UNL     1      -8.289  19.181  64.858  1.00  0.00     0.000 HD 
BRANCH  13  15
HETATM   15  C   UNL     1      -9.544  19.796  66.260  1.00  0.00    -0.423 C  
HETATM   16  C   UNL     1      -9.741  20.784  67.373  1.00  0.00    -0.473 C  
HETATM   17  O   UNL     1     -10.699  19.611  65.598  1.00  0.00    -0.503 OA 
HETATM   18  H   UNL     1     -11.439  20.122  65.903  1.00  0.00     0.000 HD 
ENDBRANCH  13  15
ENDBRANCH   9  13
ENDBRANCH   1   2
BRANCH   1  19
HETATM   19  C   UNL     1     -10.148  12.822  67.775  1.00  0.00    -0.224 A  
HETATM   20  C   UNL     1     -10.017  11.703  68.605  1.00  0.00    -0.192 A  
HETATM   21  C   UNL     1     -10.243  10.201  66.707  1.00  0.00    -0.228 A  
HETATM   22  C   UNL     1     -10.212  12.610  66.376  1.00  0.00    -0.263 A  
HETATM   23  C   UNL     1     -10.071  10.408  68.078  1.00  0.00    -0.189 A  
HETATM   24  C   UNL     1     -10.265  11.310  65.839  1.00  0.00    -0.249 A  
BRANCH  24  25
HETATM   25  O   UNL     1     -10.390  11.011  64.504  1.00  0.00    -0.315 OA 
BRANCH  25  26
HETATM   26  C   UNL     1     -10.668  12.061  63.583  1.00  0.00    -0.449 C  
HETATM   27  C   UNL     1     -12.176  12.136  63.385  1.00  0.00    -0.635 C  
ENDBRANCH  25  26
ENDBRANCH  24  25
BRANCH  21  28
HETATM   28  O   UNL     1     -10.409   8.965  66.129  1.00  0.00    -0.187 OA 
HETATM   29  C   UNL     1     -10.553   7.851  67.001  1.00  0.00    -0.311 C  
ENDBRANCH  21  28
ENDBRANCH   1  19
BRANCH   1  30
HETATM   30  C   UNL     1     -10.774  14.051  69.852  1.00  0.00     0.305 C  
BRANCH  30  31
HETATM   31  S   UNL     1     -12.262  14.847  70.398  1.00  0.00    -0.361 S  
HETATM   32  O   UNL     1     -12.656  15.755  69.337  1.00  0.00    -0.055 OA 
HETATM   33  C   UNL     1     -11.832  15.861  71.793  1.00  0.00    -0.497 C  
HETATM   34  O   UNL     1     -13.182  13.831  70.869  1.00  0.00    -0.219 OA 
ENDBRANCH  30  31
ENDBRANCH   1  30
TORSDOF 9
ENDMDL
MODEL       87
REMARK 921   NORMALIZED FREE ENERGY PREDICTED BY IDOCK:   -5.62 KCAL/MOL
REMARK 922        TOTAL FREE ENERGY PREDICTED BY IDOCK:   -9.64 KCAL/MOL
REMARK 923 INTER-LIGAND FREE ENERGY PREDICTED BY IDOCK:   -8.54 KCAL/MOL
REMARK 924 INTRA-LIGAND FREE ENERGY PREDICTED BY IDOCK:   -1.09 KCAL/MOL
REMARK 927      BINDING AFFINITY PREDICTED BY RF-SCORE:    0.00 PKD
ROOT
HETATM    1  C   UNL     1      -9.739  10.718  68.216  1.00  0.00    -0.164 C  
ENDROOT
BRANCH   1   2
HETATM    2  N   UNL     1     -10.118  12.091  68.587  1.00  0.00    -0.195 N  
HETATM    3  C   UNL     1      -9.341  15.607  68.673  1.00  0.00    -0.201 A  
HETATM    4  C   UNL     1     -10.049  16.630  69.281  1.00  0.00    -0.257 A  
HETATM    5  O   UNL     1     -12.246  11.920  69.519  1.00  0.00    -0.235 OA 
HETATM    6  C   UNL     1     -11.307  16.367  69.853  1.00  0.00    -0.175 A  
HETATM    7  C   UNL     1      -9.319  13.125  68.199  1.00  0.00    -0.217 C  
HETATM    8  C   UNL     1     -11.285  12.572  69.158  1.00  0.00    -0.239 C  
HETATM    9  C   UNL     1     -11.926  15.095  69.796  1.00  0.00    -0.334 A  
HETATM   10  C   UNL     1     -11.152  14.059  69.259  1.00  0.00    -0.271 A  
HETATM   11  C   UNL     1      -9.910  14.352  68.697  1.00  0.00    -0.231 A  
HETATM   12  O   UNL     1      -8.300  13.090  67.530  1.00  0.00    -0.161 OA 
BRANCH   9  13
HETATM   13  N   UNL     1     -13.209  14.880  70.337  1.00  0.00    -0.632 NA 
HETATM   14  H   UNL     1     -14.003  14.981  69.705  1.00  0.00     0.000 HD 
BRANCH  13  15
HETATM   15  C   UNL     1     -13.471  14.565  71.565  1.00  0.00    -0.374 C  
HETATM   16  C   UNL     1     -13.772  15.357  72.803  1.00  0.00    -0.613 C  
HETATM   17  O   UNL     1     -13.455  13.252  71.851  1.00  0.00    -0.427 OA 
HETATM   18  H   UNL     1     -13.647  13.021  72.752  1.00  0.00     0.000 HD 
ENDBRANCH  13  15
ENDBRANCH   9  13
ENDBRANCH   1   2
BRANCH   1  19
HETATM   19  C   UNL     1      -9.378  10.524  66.731  1.00  0.00    -0.180 A  
HETATM   20  C   UNL     1      -8.439   9.561  66.343  1.00  0.00    -0.131 A  
HETATM   21  C   UNL     1      -9.157   9.718  64.026  1.00  0.00    -0.237 A  
HETATM   22  C   UNL     1     -10.131  11.166  65.719  1.00  0.00    -0.299 A  
HETATM   23  C   UNL     1      -8.335   9.158  65.007  1.00  0.00    -0.165 A  
HETATM   24  C   UNL     1     -10.030  10.767  64.373  1.00  0.00    -0.338 A  
BRANCH  24  25
HETATM   25  O   UNL     1     -10.765  11.289  63.336  1.00  0.00    -0.370 OA 
BRANCH  25  26
HETATM   26  C   UNL     1     -11.980  11.974  63.626  1.00  0.00    -0.515 C  
HETATM   27  C   UNL     1     -11.667  13.455  63.783  1.00  0.00    -0.426 C  
ENDBRANCH  25  26
ENDBRANCH  24  25
BRANCH  21  28
HETATM   28  O   UNL     1      -9.185   9.303  62.716  1.00  0.00    -0.142 OA 
HETATM   29  C   UNL     1      -8.262   8.292  62.331  1.00  0.00    -0.171 C  
ENDBRANCH  21  28
ENDBRANCH   1  19
BRANCH   1  30
HETATM   30  C   UNL     1      -8.664  10.046  69.071  1.00  0.00    -0.158 C  
BRANCH  30  31
HETATM   31  S   UNL     1      -9.252   8.910  70.300  1.00  0.00    -0.201 S  
HETATM   32  O   UNL     1      -8.678   7.619  69.975  1.00  0.00    -0.140 OA 
HETATM   33  C   UNL     1     -11.008   8.751  70.069  1.00  0.00    -0.209 C  
HETATM   34  O   UNL     1      -9.040   9.495  71.608  1.00  0.00    -0.135 OA 
ENDBRANCH  30  31
ENDBRANCH   1  30
TORSDOF 9
ENDMDL
MODEL       88
REMARK 921   NORMALIZED FREE ENERGY PREDICTED BY IDOCK:   -5.62 KCAL/MOL
REMARK 922        TOTAL FREE ENERGY PREDICTED BY IDOCK:   -9.63 KCAL/MOL
REMARK 923 INTER-LIGAND FREE ENERGY PREDICTED BY IDOCK:   -8.36 KCAL/MOL
REMARK 924 INTRA-LIGAND FREE ENERGY PREDICTED BY IDOCK:   -1.28 KCAL/MOL
REMARK 927      BINDING AFFINITY PREDICTED BY RF-SCORE:    0.00 PKD
ROOT
HETATM    1  C   UNL     1     -10.612  13.130  66.325  1.00  0.00    -0.284 C  
ENDROOT
BRANCH   1   2
HETATM    2  N   UNL     1     -10.159  12.205  67.376  1.00  0.00    -0.198 N  
HETATM    3  C   UNL     1     -10.945   9.861  69.995  1.00  0.00    -0.338 A  
HETATM    4  C   UNL     1     -10.081   9.238  70.879  1.00  0.00    -0.373 A  
HETATM    5  O   UNL     1      -7.832  12.232  67.269  1.00  0.00    -0.160 OA 
HETATM    6  C   UNL     1      -8.691   9.387  70.724  1.00  0.00    -0.216 A  
HETATM    7  C   UNL     1     -11.082  11.446  68.033  1.00  0.00    -0.257 C  
HETATM    8  C   UNL     1      -8.877  11.825  67.739  1.00  0.00    -0.163 C  
HETATM    9  C   UNL     1      -8.112  10.116  69.657  1.00  0.00    -0.168 A  
HETATM   10  C   UNL     1      -9.005  10.812  68.833  1.00  0.00    -0.158 A  
HETATM   11  C   UNL     1     -10.377  10.641  69.012  1.00  0.00    -0.237 A  
HETATM   12  O   UNL     1     -12.287  11.390  67.853  1.00  0.00    -0.380 OA 
BRANCH   9  13
HETATM   13  N   UNL     1      -6.714  10.204  69.504  1.00  0.00    -0.056 NA 
HETATM   14  H   UNL     1      -6.199   9.327  69.430  1.00  0.00     0.000 HD 
BRANCH  13  15
HETATM   15  C   UNL     1      -6.026  11.299  69.447  1.00  0.00    -0.063 C  
HETATM   16  C   UNL     1      -5.990  12.552  70.271  1.00  0.00    -0.126 C  
HETATM   17  O   UNL     1      -5.156  11.394  68.426  1.00  0.00    -0.040 OA 
HETATM   18  H   UNL     1      -4.651  12.197  68.384  1.00  0.00     0.000 HD 
ENDBRANCH  13  15
ENDBRANCH   9  13
ENDBRANCH   1   2
BRANCH   1  19
HETATM   19  C   UNL     1     -10.568  14.621  66.709  1.00  0.00    -0.288 A  
HETATM   20  C   UNL     1     -11.241  15.088  67.844  1.00  0.00    -0.330 A  
HETATM   21  C   UNL     1     -10.005  17.180  67.782  1.00  0.00    -0.290 A  
HETATM   22  C   UNL     1      -9.685  15.508  66.046  1.00  0.00    -0.378 A  
HETATM   23  C   UNL     1     -10.957  16.349  68.378  1.00  0.00    -0.353 A  
HETATM   24  C   UNL     1      -9.397  16.779  66.577  1.00  0.00    -0.264 A  
BRANCH  24  25
HETATM   25  O   UNL     1      -8.509  17.678  66.038  1.00  0.00    -0.499 OA 
BRANCH  25  26
HETATM   26  C   UNL     1      -7.120  17.532  66.317  1.00  0.00    -0.305 C  
HETATM   27  C   UNL     1      -6.476  18.910  66.271  1.00  0.00    -0.224 C  
ENDBRANCH  25  26
ENDBRANCH  24  25
BRANCH  21  28
HETATM   28  O   UNL     1      -9.599  18.385  68.305  1.00  0.00    -0.304 OA 
HETATM   29  C   UNL     1     -10.482  19.490  68.161  1.00  0.00    -0.377 C  
ENDBRANCH  21  28
ENDBRANCH   1  19
BRANCH   1  30
HETATM   30  C   UNL     1      -9.979  12.964  64.943  1.00  0.00    -0.130 C  
BRANCH  30  31
HETATM   31  S   UNL     1     -10.517  11.553  64.011  1.00  0.00    -0.408 S  
HETATM   32  O   UNL     1      -9.662  11.482  62.842  1.00  0.00    -0.372 OA 
HETATM   33  C   UNL     1     -12.153  11.912  63.415  1.00  0.00    -0.432 C  
HETATM   34  O   UNL     1     -10.623  10.421  64.909  1.00  0.00    -0.183 OA 
ENDBRANCH  30  31
ENDBRANCH   1  30
TORSDOF 9
ENDMDL
MODEL       89
REMARK 921   NORMALIZED FREE ENERGY PREDICTED BY IDOCK:   -5.62 KCAL/MOL
REMARK 922        TOTAL FREE ENERGY PREDICTED BY IDOCK:   -9.63 KCAL/MOL
REMARK 923 INTER-LIGAND FREE ENERGY PREDICTED BY IDOCK:   -8.12 KCAL/MOL
REMARK 924 INTRA-LIGAND FREE ENERGY PREDICTED BY IDOCK:   -1.51 KCAL/MOL
REMARK 927      BINDING AFFINITY PREDICTED BY RF-SCORE:    0.00 PKD
ROOT
HETATM    1  C   UNL     1     -10.347   8.594  68.786  1.00  0.00    -0.208 C  
ENDROOT
BRANCH   1   2
HETATM    2  N   UNL     1     -10.516   9.689  67.816  1.00  0.00    -0.240 N  
HETATM    3  C   UNL     1     -12.158  12.742  66.840  1.00  0.00    -0.267 A  
HETATM    4  C   UNL     1     -12.037  13.443  65.652  1.00  0.00    -0.476 A  
HETATM    5  O   UNL     1      -8.952   9.282  66.139  1.00  0.00    -0.147 OA 
HETATM    6  C   UNL     1     -11.077  13.048  64.701  1.00  0.00    -0.357 A  
HETATM    7  C   UNL     1     -11.344  10.727  68.128  1.00  0.00    -0.308 C  
HETATM    8  C   UNL     1      -9.832   9.954  66.641  1.00  0.00    -0.207 C  
HETATM    9  C   UNL     1     -10.175  11.980  64.920  1.00  0.00    -0.270 A  
HETATM   10  C   UNL     1     -10.380  11.232  66.085  1.00  0.00    -0.300 A  
HETATM   11  C   UNL     1     -11.336  11.650  67.009  1.00  0.00    -0.373 A  
HETATM   12  O   UNL     1     -11.975  10.914  69.154  1.00  0.00    -0.326 OA 
BRANCH   9  13
HETATM   13  N   UNL     1      -9.193  11.643  63.965  1.00  0.00    -0.437 NA 
HETATM   14  H   UNL     1      -8.358  12.227  63.933  1.00  0.00     0.000 HD 
BRANCH  13  15
HETATM   15  C   UNL     1      -9.258  10.660  63.127  1.00  0.00    -0.294 C  
HETATM   16  C   UNL     1      -8.355   9.506  62.801  1.00  0.00    -0.169 C  
HETATM   17  O   UNL     1     -10.341  10.636  62.332  1.00  0.00    -0.716 OA 
HETATM   18  H   UNL     1     -10.389   9.914  61.717  1.00  0.00     0.000 HD 
ENDBRANCH  13  15
ENDBRANCH   9  13
ENDBRANCH   1   2
BRANCH   1  19
HETATM   19  C   UNL     1     -10.154   7.199  68.162  1.00  0.00    -0.195 A  
HETATM   20  C   UNL     1     -11.130   6.649  67.323  1.00  0.00    -0.418 A  
HETATM   21  C   UNL     1      -9.572   4.962  66.527  1.00  0.00    -0.169 A  
HETATM   22  C   UNL     1      -8.907   6.536  68.257  1.00  0.00    -0.119 A  
HETATM   23  C   UNL     1     -10.840   5.548  66.510  1.00  0.00    -0.237 A  
HETATM   24  C   UNL     1      -8.608   5.427  67.443  1.00  0.00    -0.108 A  
BRANCH  24  25
HETATM   25  O   UNL     1      -7.407   4.762  67.422  1.00  0.00    -0.072 OA 
BRANCH  25  26
HETATM   26  C   UNL     1      -6.239   5.457  66.995  1.00  0.00    -0.031 C  
HETATM   27  C   UNL     1      -5.188   5.344  68.091  1.00  0.00    -0.004 C  
ENDBRANCH  25  26
ENDBRANCH  24  25
BRANCH  21  28
HETATM   28  O   UNL     1      -9.181   3.948  65.686  1.00  0.00    -0.137 OA 
HETATM   29  C   UNL     1      -9.901   3.793  64.470  1.00  0.00    -0.190 C  
ENDBRANCH  21  28
ENDBRANCH   1  19
BRANCH   1  30
HETATM   30  C   UNL     1      -9.287   8.795  69.870  1.00  0.00    -0.162 C  
BRANCH  30  31
HETATM   31  S   UNL     1      -9.855   8.632  71.543  1.00  0.00    -0.300 S  
HETATM   32  O   UNL     1      -8.733   8.985  72.394  1.00  0.00    -0.347 OA 
HETATM   33  C   UNL     1     -10.171   6.905  71.823  1.00  0.00    -0.189 C  
HETATM   34  O   UNL     1     -11.118   9.329  71.672  1.00  0.00    -0.349 OA 
ENDBRANCH  30  31
ENDBRANCH   1  30
TORSDOF 9
ENDMDL
MODEL       90
REMARK 921   NORMALIZED FREE ENERGY PREDICTED BY IDOCK:   -5.62 KCAL/MOL
REMARK 922        TOTAL FREE ENERGY PREDICTED BY IDOCK:   -9.63 KCAL/MOL
REMARK 923 INTER-LIGAND FREE ENERGY PREDICTED BY IDOCK:   -8.45 KCAL/MOL
REMARK 924 INTRA-LIGAND FREE ENERGY PREDICTED BY IDOCK:   -1.18 KCAL/MOL
REMARK 927      BINDING AFFINITY PREDICTED BY RF-SCORE:    0.00 PKD
ROOT
HETATM    1  C   UNL     1     -10.172   8.523  68.271  1.00  0.00    -0.205 C  
ENDROOT
BRANCH   1   2
HETATM    2  N   UNL     1     -10.457   9.843  67.685  1.00  0.00    -0.227 N  
HETATM    3  C   UNL     1     -10.149  12.146  64.932  1.00  0.00    -0.280 A  
HETATM    4  C   UNL     1     -10.551  13.469  64.869  1.00  0.00    -0.409 A  
HETATM    5  O   UNL     1     -11.762  10.956  69.260  1.00  0.00    -0.283 OA 
HETATM    6  C   UNL     1     -11.293  14.027  65.926  1.00  0.00    -0.317 A  
HETATM    7  C   UNL     1     -10.095  10.084  66.392  1.00  0.00    -0.241 C  
HETATM    8  C   UNL     1     -11.206  10.897  68.180  1.00  0.00    -0.301 C  
HETATM    9  C   UNL     1     -11.705  13.278  67.054  1.00  0.00    -0.389 A  
HETATM   10  C   UNL     1     -11.208  11.971  67.138  1.00  0.00    -0.374 A  
HETATM   11  C   UNL     1     -10.478  11.447  66.073  1.00  0.00    -0.305 A  
HETATM   12  O   UNL     1      -9.573   9.325  65.594  1.00  0.00    -0.265 OA 
BRANCH   9  13
HETATM   13  N   UNL     1     -12.490  13.857  68.072  1.00  0.00    -0.357 NA 
HETATM   14  H   UNL     1     -13.485  13.634  68.073  1.00  0.00     0.000 HD 
BRANCH  13  15
HETATM   15  C   UNL     1     -12.061  14.644  69.004  1.00  0.00    -0.235 C  
HETATM   16  C   UNL     1     -11.579  14.432  70.410  1.00  0.00    -0.288 C  
HETATM   17  O   UNL     1     -12.051  15.955  68.707  1.00  0.00    -0.526 OA 
HETATM   18  H   UNL     1     -11.736  16.534  69.392  1.00  0.00     0.000 HD 
ENDBRANCH  13  15
ENDBRANCH   9  13
ENDBRANCH   1   2
BRANCH   1  19
HETATM   19  C   UNL     1     -10.341   8.442  69.800  1.00  0.00    -0.216 A  
HETATM   20  C   UNL     1     -11.478   7.851  70.364  1.00  0.00    -0.154 A  
HETATM   21  C   UNL     1     -10.397   7.722  72.537  1.00  0.00    -0.268 A  
HETATM   22  C   UNL     1      -9.267   8.775  70.660  1.00  0.00    -0.233 A  
HETATM   23  C   UNL     1     -11.502   7.489  71.715  1.00  0.00    -0.295 A  
HETATM   24  C   UNL     1      -9.286   8.415  72.020  1.00  0.00    -0.234 A  
BRANCH  24  25
HETATM   25  O   UNL     1      -8.265   8.640  72.912  1.00  0.00    -0.393 OA 
BRANCH  25  26
HETATM   26  C   UNL     1      -7.071   7.872  72.804  1.00  0.00    -0.084 C  
HETATM   27  C   UNL     1      -5.904   8.830  72.604  1.00  0.00    -0.079 C  
ENDBRANCH  25  26
ENDBRANCH  24  25
BRANCH  21  28
HETATM   28  O   UNL     1     -10.307   7.302  73.843  1.00  0.00    -0.352 OA 
HETATM   29  C   UNL     1     -10.183   5.905  74.074  1.00  0.00    -0.274 C  
ENDBRANCH  21  28
ENDBRANCH   1  19
BRANCH   1  30
HETATM   30  C   UNL     1     -10.879   7.323  67.638  1.00  0.00    -0.180 C  
BRANCH  30  31
HETATM   31  S   UNL     1      -9.886   5.869  67.420  1.00  0.00    -0.144 S  
HETATM   32  O   UNL     1      -8.593   6.322  66.943  1.00  0.00    -0.112 OA 
HETATM   33  C   UNL     1     -10.611   4.934  66.093  1.00  0.00    -0.271 C  
HETATM   34  O   UNL     1      -9.981   5.062  68.619  1.00  0.00    -0.160 OA 
ENDBRANCH  30  31
ENDBRANCH   1  30
TORSDOF 9
ENDMDL
MODEL       91
REMARK 921   NORMALIZED FREE ENERGY PREDICTED BY IDOCK:   -5.59 KCAL/MOL
REMARK 922        TOTAL FREE ENERGY PREDICTED BY IDOCK:   -9.58 KCAL/MOL
REMARK 923 INTER-LIGAND FREE ENERGY PREDICTED BY IDOCK:   -8.23 KCAL/MOL
REMARK 924 INTRA-LIGAND FREE ENERGY PREDICTED BY IDOCK:   -1.35 KCAL/MOL
REMARK 927      BINDING AFFINITY PREDICTED BY RF-SCORE:    0.00 PKD
ROOT
HETATM    1  C   UNL     1      -7.955  11.570  68.123  1.00  0.00    -0.136 C  
ENDROOT
BRANCH   1   2
HETATM    2  N   UNL     1      -8.603  10.640  69.063  1.00  0.00    -0.154 N  
HETATM    3  C   UNL     1      -8.322   8.126  71.626  1.00  0.00    -0.165 A  
HETATM    4  C   UNL     1      -9.331   7.383  72.217  1.00  0.00    -0.174 A  
HETATM    5  O   UNL     1     -10.891  10.989  68.808  1.00  0.00    -0.182 OA 
HETATM    6  C   UNL     1     -10.676   7.673  71.926  1.00  0.00    -0.259 A  
HETATM    7  C   UNL     1      -7.828   9.945  69.945  1.00  0.00    -0.173 C  
HETATM    8  C   UNL     1      -9.945  10.442  69.340  1.00  0.00    -0.218 C  
HETATM    9  C   UNL     1     -11.066   8.740  71.082  1.00  0.00    -0.276 A  
HETATM   10  C   UNL     1     -10.029   9.414  70.426  1.00  0.00    -0.306 A  
HETATM   11  C   UNL     1      -8.707   9.106  70.737  1.00  0.00    -0.285 A  
HETATM   12  O   UNL     1      -6.621  10.001  70.105  1.00  0.00    -0.085 OA 
BRANCH   9  13
HETATM   13  N   UNL     1     -12.426   9.033  70.851  1.00  0.00    -0.494 NA 
HETATM   14  H   UNL     1     -12.646   9.596  70.030  1.00  0.00     0.000 HD 
BRANCH  13  15
HETATM   15  C   UNL     1     -13.418   8.652  71.588  1.00  0.00    -0.357 C  
HETATM   16  C   UNL     1     -14.242   7.399  71.662  1.00  0.00    -0.583 C  
HETATM   17  O   UNL     1     -13.864   9.549  72.484  1.00  0.00    -0.662 OA 
HETATM   18  H   UNL     1     -14.593   9.269  73.025  1.00  0.00     0.000 HD 
ENDBRANCH  13  15
ENDBRANCH   9  13
ENDBRANCH   1   2
BRANCH   1  19
HETATM   19  C   UNL     1      -8.014  11.143  66.644  1.00  0.00    -0.159 A  
HETATM   20  C   UNL     1      -7.025  10.318  66.097  1.00  0.00    -0.116 A  
HETATM   21  C   UNL     1      -8.412   9.848  64.158  1.00  0.00    -0.175 A  
HETATM   22  C   UNL     1      -9.168  11.404  65.866  1.00  0.00    -0.231 A  
HETATM   23  C   UNL     1      -7.225   9.673  64.873  1.00  0.00    -0.118 A  
HETATM   24  C   UNL     1      -9.375  10.760  64.632  1.00  0.00    -0.233 A  
BRANCH  24  25
HETATM   25  O   UNL     1     -10.490  10.904  63.842  1.00  0.00    -0.363 OA 
BRANCH  25  26
HETATM   26  C   UNL     1     -10.832  12.199  63.358  1.00  0.00    -0.414 C  
HETATM   27  C   UNL     1     -12.350  12.323  63.360  1.00  0.00    -0.624 C  
ENDBRANCH  25  26
ENDBRANCH  24  25
BRANCH  21  28
HETATM   28  O   UNL     1      -8.724   9.171  63.003  1.00  0.00    -0.213 OA 
HETATM   29  C   UNL     1      -7.901   8.065  62.652  1.00  0.00    -0.139 C  
ENDBRANCH  21  28
ENDBRANCH   1  19
BRANCH   1  30
HETATM   30  C   UNL     1      -8.361  13.041  68.223  1.00  0.00    -0.158 C  
BRANCH  30  31
HETATM   31  S   UNL     1      -7.082  14.220  67.874  1.00  0.00    -0.176 S  
HETATM   32  O   UNL     1      -5.891  13.454  67.562  1.00  0.00    -0.292 OA 
HETATM   33  C   UNL     1      -6.740  15.085  69.390  1.00  0.00    -0.158 C  
HETATM   34  O   UNL     1      -7.594  15.191  66.929  1.00  0.00    -0.151 OA 
ENDBRANCH  30  31
ENDBRANCH   1  30
TORSDOF 9
ENDMDL
MODEL       92
REMARK 921   NORMALIZED FREE ENERGY PREDICTED BY IDOCK:   -5.58 KCAL/MOL
REMARK 922        TOTAL FREE ENERGY PREDICTED BY IDOCK:   -9.57 KCAL/MOL
REMARK 923 INTER-LIGAND FREE ENERGY PREDICTED BY IDOCK:   -8.47 KCAL/MOL
REMARK 924 INTRA-LIGAND FREE ENERGY PREDICTED BY IDOCK:   -1.09 KCAL/MOL
REMARK 927      BINDING AFFINITY PREDICTED BY RF-SCORE:    0.00 PKD
ROOT
HETATM    1  C   UNL     1     -11.584  11.700  68.773  1.00  0.00    -0.313 C  
ENDROOT
BRANCH   1   2
HETATM    2  N   UNL     1     -11.411  12.962  68.034  1.00  0.00    -0.272 N  
HETATM    3  C   UNL     1     -11.467  14.763  64.915  1.00  0.00    -0.412 A  
HETATM    4  C   UNL     1     -11.098  16.075  64.673  1.00  0.00    -0.346 A  
HETATM    5  O   UNL     1     -10.908  14.565  69.647  1.00  0.00    -0.229 OA 
HETATM    6  C   UNL     1     -10.766  16.920  65.749  1.00  0.00    -0.165 A  
HETATM    7  C   UNL     1     -11.718  12.998  66.706  1.00  0.00    -0.382 C  
HETATM    8  C   UNL     1     -11.125  14.235  68.497  1.00  0.00    -0.257 C  
HETATM    9  C   UNL     1     -10.838  16.505  67.100  1.00  0.00    -0.142 A  
HETATM   10  C   UNL     1     -11.123  15.151  67.313  1.00  0.00    -0.332 A  
HETATM   11  C   UNL     1     -11.451  14.341  66.227  1.00  0.00    -0.360 A  
HETATM   12  O   UNL     1     -12.167  12.108  66.004  1.00  0.00    -0.609 OA 
BRANCH   9  13
HETATM   13  N   UNL     1     -10.546  17.393  68.155  1.00  0.00    -0.380 NA 
HETATM   14  H   UNL     1     -10.909  17.153  69.078  1.00  0.00     0.000 HD 
BRANCH  13  15
HETATM   15  C   UNL     1      -9.859  18.485  68.058  1.00  0.00    -0.341 C  
HETATM   16  C   UNL     1     -10.209  19.917  67.776  1.00  0.00    -0.567 C  
HETATM   17  O   UNL     1      -8.529  18.357  68.208  1.00  0.00    -0.287 OA 
HETATM   18  H   UNL     1      -8.024  19.159  68.137  1.00  0.00     0.000 HD 
ENDBRANCH  13  15
ENDBRANCH   9  13
ENDBRANCH   1   2
BRANCH   1  19
HETATM   19  C   UNL     1     -10.516  10.629  68.485  1.00  0.00    -0.212 A  
HETATM   20  C   UNL     1      -9.160  10.888  68.719  1.00  0.00    -0.174 A  
HETATM   21  C   UNL     1      -8.626   8.522  68.566  1.00  0.00    -0.138 A  
HETATM   22  C   UNL     1     -10.896   9.300  68.174  1.00  0.00    -0.145 A  
HETATM   23  C   UNL     1      -8.229   9.846  68.766  1.00  0.00    -0.114 A  
HETATM   24  C   UNL     1      -9.963   8.248  68.218  1.00  0.00    -0.191 A  
BRANCH  24  25
HETATM   25  O   UNL     1     -10.254   6.924  67.995  1.00  0.00    -0.158 OA 
BRANCH  25  26
HETATM   26  C   UNL     1     -11.194   6.270  68.841  1.00  0.00    -0.309 C  
HETATM   27  C   UNL     1     -10.543   6.052  70.200  1.00  0.00    -0.341 C  
ENDBRANCH  25  26
ENDBRANCH  24  25
BRANCH  21  28
HETATM   28  O   UNL     1      -7.791   7.438  68.699  1.00  0.00    -0.117 OA 
HETATM   29  C   UNL     1      -6.905   7.160  67.622  1.00  0.00    -0.074 C  
ENDBRANCH  21  28
ENDBRANCH   1  19
BRANCH   1  30
HETATM   30  C   UNL     1     -11.769  11.810  70.287  1.00  0.00    -0.228 C  
BRANCH  30  31
HETATM   31  S   UNL     1     -12.849  10.610  71.022  1.00  0.00    -0.393 S  
HETATM   32  O   UNL     1     -13.485  11.265  72.149  1.00  0.00    -0.390 OA 
HETATM   33  C   UNL     1     -11.823   9.327  71.701  1.00  0.00    -0.383 C  
HETATM   34  O   UNL     1     -13.654  10.012  69.976  1.00  0.00     0.288 OA 
ENDBRANCH  30  31
ENDBRANCH   1  30
TORSDOF 9
ENDMDL
MODEL       93
REMARK 921   NORMALIZED FREE ENERGY PREDICTED BY IDOCK:   -5.56 KCAL/MOL
REMARK 922        TOTAL FREE ENERGY PREDICTED BY IDOCK:   -9.55 KCAL/MOL
REMARK 923 INTER-LIGAND FREE ENERGY PREDICTED BY IDOCK:   -8.02 KCAL/MOL
REMARK 924 INTRA-LIGAND FREE ENERGY PREDICTED BY IDOCK:   -1.53 KCAL/MOL
REMARK 927      BINDING AFFINITY PREDICTED BY RF-SCORE:    0.00 PKD
ROOT
HETATM    1  C   UNL     1     -10.113   5.831  70.264  1.00  0.00    -0.211 C  
ENDROOT
BRANCH   1   2
HETATM    2  N   UNL     1     -10.748   7.137  70.507  1.00  0.00    -0.232 N  
HETATM    3  C   UNL     1     -13.181   9.121  72.273  1.00  0.00    -0.528 A  
HETATM    4  C   UNL     1     -13.516  10.449  72.073  1.00  0.00    -0.360 A  
HETATM    5  O   UNL     1      -9.617   8.645  69.140  1.00  0.00    -0.160 OA 
HETATM    6  C   UNL     1     -12.773  11.231  71.170  1.00  0.00    -0.492 A  
HETATM    7  C   UNL     1     -11.664   7.249  71.511  1.00  0.00    -0.289 C  
HETATM    8  C   UNL     1     -10.459   8.383  69.978  1.00  0.00    -0.224 C  
HETATM    9  C   UNL     1     -11.644  10.736  70.476  1.00  0.00    -0.330 A  
HETATM   10  C   UNL     1     -11.383   9.368  70.624  1.00  0.00    -0.352 A  
HETATM   11  C   UNL     1     -12.135   8.621  71.528  1.00  0.00    -0.369 A  
HETATM   12  O   UNL     1     -12.036   6.397  72.301  1.00  0.00    -0.292 OA 
BRANCH   9  13
HETATM   13  N   UNL     1     -10.892  11.561  69.615  1.00  0.00    -0.458 NA 
HETATM   14  H   UNL     1      -9.972  11.857  69.942  1.00  0.00     0.000 HD 
BRANCH  13  15
HETATM   15  C   UNL     1     -11.265  11.978  68.449  1.00  0.00    -0.262 C  
HETATM   16  C   UNL     1     -11.200  13.302  67.744  1.00  0.00    -0.308 C  
HETATM   17  O   UNL     1     -11.874  11.070  67.667  1.00  0.00    -0.599 OA 
HETATM   18  H   UNL     1     -12.148  11.376  66.811  1.00  0.00     0.000 HD 
ENDBRANCH  13  15
ENDBRANCH   9  13
ENDBRANCH   1   2
BRANCH   1  19
HETATM   19  C   UNL     1     -10.271   5.291  68.830  1.00  0.00    -0.231 A  
HETATM   20  C   UNL     1     -10.990   6.011  67.869  1.00  0.00    -0.334 A  
HETATM   21  C   UNL     1     -10.058   4.656  66.079  1.00  0.00    -0.264 A  
HETATM   22  C   UNL     1      -9.529   4.164  68.400  1.00  0.00    -0.212 A  
HETATM   23  C   UNL     1     -10.878   5.702  66.509  1.00  0.00    -0.239 A  
HETATM   24  C   UNL     1      -9.413   3.847  67.034  1.00  0.00    -0.200 A  
BRANCH  24  25
HETATM   25  O   UNL     1      -8.665   2.814  66.523  1.00  0.00    -0.109 OA 
BRANCH  25  26
HETATM   26  C   UNL     1      -7.412   2.505  67.124  1.00  0.00    -0.061 C  
HETATM   27  C   UNL     1      -6.343   3.370  66.470  1.00  0.00    -0.032 C  
ENDBRANCH  25  26
ENDBRANCH  24  25
BRANCH  21  28
HETATM   28  O   UNL     1      -9.817   4.360  64.759  1.00  0.00    -0.167 OA 
HETATM   29  C   UNL     1     -10.908   3.868  63.990  1.00  0.00    -0.151 C  
ENDBRANCH  21  28
ENDBRANCH   1  19
BRANCH   1  30
HETATM   30  C   UNL     1      -8.647   5.692  70.678  1.00  0.00    -0.130 C  
BRANCH  30  31
HETATM   31  S   UNL     1      -8.364   5.201  72.360  1.00  0.00    -0.122 S  
HETATM   32  O   UNL     1      -9.483   4.358  72.736  1.00  0.00    -0.129 OA 
HETATM   33  C   UNL     1      -8.481   6.666  73.360  1.00  0.00    -0.118 C  
HETATM   34  O   UNL     1      -7.007   4.707  72.474  1.00  0.00    -0.061 OA 
ENDBRANCH  30  31
ENDBRANCH   1  30
TORSDOF 9
ENDMDL
MODEL       94
REMARK 921   NORMALIZED FREE ENERGY PREDICTED BY IDOCK:   -5.56 KCAL/MOL
REMARK 922        TOTAL FREE ENERGY PREDICTED BY IDOCK:   -9.55 KCAL/MOL
REMARK 923 INTER-LIGAND FREE ENERGY PREDICTED BY IDOCK:   -8.56 KCAL/MOL
REMARK 924 INTRA-LIGAND FREE ENERGY PREDICTED BY IDOCK:   -0.99 KCAL/MOL
REMARK 927      BINDING AFFINITY PREDICTED BY RF-SCORE:    0.00 PKD
ROOT
HETATM    1  C   UNL     1     -10.698  14.195  68.955  1.00  0.00    -0.256 C  
ENDROOT
BRANCH   1   2
HETATM    2  N   UNL     1      -9.974  13.136  68.232  1.00  0.00    -0.233 N  
HETATM    3  C   UNL     1      -6.867  11.779  67.016  1.00  0.00    -0.137 A  
HETATM    4  C   UNL     1      -6.670  10.671  66.209  1.00  0.00    -0.129 A  
HETATM    5  O   UNL     1     -11.592  11.575  67.628  1.00  0.00    -0.442 OA 
HETATM    6  C   UNL     1      -7.757   9.842  65.880  1.00  0.00    -0.105 A  
HETATM    7  C   UNL     1      -8.610  13.168  68.205  1.00  0.00    -0.166 C  
HETATM    8  C   UNL     1     -10.439  11.959  67.672  1.00  0.00    -0.208 C  
HETATM    9  C   UNL     1      -9.064  10.054  66.381  1.00  0.00    -0.149 A  
HETATM   10  C   UNL     1      -9.255  11.230  67.117  1.00  0.00    -0.169 A  
HETATM   11  C   UNL     1      -8.157  12.029  67.429  1.00  0.00    -0.168 A  
HETATM   12  O   UNL     1      -7.857  13.963  68.742  1.00  0.00    -0.134 OA 
BRANCH   9  13
HETATM   13  N   UNL     1     -10.120   9.174  66.070  1.00  0.00    -0.361 NA 
HETATM   14  H   UNL     1     -10.661   9.377  65.229  1.00  0.00     0.000 HD 
BRANCH  13  15
HETATM   15  C   UNL     1     -10.465   8.133  66.756  1.00  0.00    -0.246 C  
HETATM   16  C   UNL     1     -10.295   6.654  66.563  1.00  0.00    -0.120 C  
HETATM   17  O   UNL     1     -11.153   8.374  67.885  1.00  0.00    -0.470 OA 
HETATM   18  H   UNL     1     -11.407   7.609  68.388  1.00  0.00     0.000 HD 
ENDBRANCH  13  15
ENDBRANCH   9  13
ENDBRANCH   1   2
BRANCH   1  19
HETATM   19  C   UNL     1     -10.818  15.531  68.197  1.00  0.00    -0.296 A  
HETATM   20  C   UNL     1     -10.412  16.731  68.793  1.00  0.00    -0.338 A  
HETATM   21  C   UNL     1     -10.440  17.869  66.645  1.00  0.00    -0.316 A  
HETATM   22  C   UNL     1     -11.147  15.549  66.820  1.00  0.00    -0.206 A  
HETATM   23  C   UNL     1     -10.218  17.883  68.025  1.00  0.00    -0.381 A  
HETATM   24  C   UNL     1     -10.957  16.706  66.042  1.00  0.00     0.085 A  
BRANCH  24  25
HETATM   25  O   UNL     1     -11.188  16.797  64.691  1.00  0.00    -0.835 OA 
BRANCH  25  26
HETATM   26  C   UNL     1     -12.127  15.912  64.089  1.00  0.00     0.182 C  
HETATM   27  C   UNL     1     -11.530  14.511  64.086  1.00  0.00    -0.072 C  
ENDBRANCH  25  26
ENDBRANCH  24  25
BRANCH  21  28
HETATM   28  O   UNL     1     -10.174  18.928  65.811  1.00  0.00    -0.531 OA 
HETATM   29  C   UNL     1      -9.345  19.967  66.318  1.00  0.00    -0.385 C  
ENDBRANCH  21  28
ENDBRANCH   1  19
BRANCH   1  30
HETATM   30  C   UNL     1     -12.072  13.827  69.516  1.00  0.00    -0.334 C  
BRANCH  30  31
HETATM   31  S   UNL     1     -12.504  14.588  71.060  1.00  0.00    -0.368 S  
HETATM   32  O   UNL     1     -11.256  14.844  71.755  1.00  0.00    -0.257 OA 
HETATM   33  C   UNL     1     -13.371  13.368  72.020  1.00  0.00    -0.479 C  
HETATM   34  O   UNL     1     -13.429  15.670  70.799  1.00  0.00    -0.536 OA 
ENDBRANCH  30  31
ENDBRANCH   1  30
TORSDOF 9
ENDMDL
MODEL       95
REMARK 921   NORMALIZED FREE ENERGY PREDICTED BY IDOCK:   -5.56 KCAL/MOL
REMARK 922        TOTAL FREE ENERGY PREDICTED BY IDOCK:   -9.54 KCAL/MOL
REMARK 923 INTER-LIGAND FREE ENERGY PREDICTED BY IDOCK:   -8.02 KCAL/MOL
REMARK 924 INTRA-LIGAND FREE ENERGY PREDICTED BY IDOCK:   -1.52 KCAL/MOL
REMARK 927      BINDING AFFINITY PREDICTED BY RF-SCORE:    0.00 PKD
ROOT
HETATM    1  C   UNL     1      -9.940   7.846  67.538  1.00  0.00    -0.192 C  
ENDROOT
BRANCH   1   2
HETATM    2  N   UNL     1      -9.618   7.845  68.974  1.00  0.00    -0.154 N  
HETATM    3  C   UNL     1      -7.250   8.442  71.622  1.00  0.00    -0.099 A  
HETATM    4  C   UNL     1      -7.388   8.178  72.974  1.00  0.00    -0.161 A  
HETATM    5  O   UNL     1     -11.577   7.195  70.052  1.00  0.00    -0.210 OA 
HETATM    6  C   UNL     1      -8.624   7.737  73.480  1.00  0.00    -0.279 A  
HETATM    7  C   UNL     1      -8.416   8.343  69.382  1.00  0.00    -0.125 C  
HETATM    8  C   UNL     1     -10.417   7.559  70.068  1.00  0.00    -0.228 C  
HETATM    9  C   UNL     1      -9.776   7.592  72.671  1.00  0.00    -0.196 A  
HETATM   10  C   UNL     1      -9.588   7.775  71.295  1.00  0.00    -0.178 A  
HETATM   11  C   UNL     1      -8.352   8.215  70.826  1.00  0.00    -0.120 A  
HETATM   12  O   UNL     1      -7.531   8.844  68.709  1.00  0.00    -0.081 OA 
BRANCH   9  13
HETATM   13  N   UNL     1     -11.012   7.195  73.220  1.00  0.00    -0.507 NA 
HETATM   14  H   UNL     1     -11.490   7.866  73.821  1.00  0.00     0.000 HD 
BRANCH  13  15
HETATM   15  C   UNL     1     -11.595   6.055  73.029  1.00  0.00     0.031 C  
HETATM   16  C   UNL     1     -11.210   4.629  73.297  1.00  0.00    -0.411 C  
HETATM   17  O   UNL     1     -12.802   6.103  72.439  1.00  0.00    -0.519 OA 
HETATM   18  H   UNL     1     -13.229   5.267  72.299  1.00  0.00     0.000 HD 
ENDBRANCH  13  15
ENDBRANCH   9  13
ENDBRANCH   1   2
BRANCH   1  19
HETATM   19  C   UNL     1     -10.094   9.244  66.909  1.00  0.00    -0.324 A  
HETATM   20  C   UNL     1      -9.676   9.488  65.595  1.00  0.00    -0.361 A  
HETATM   21  C   UNL     1     -10.918  11.577  65.531  1.00  0.00    -0.229 A  
HETATM   22  C   UNL     1     -10.842  10.250  67.567  1.00  0.00    -0.355 A  
HETATM   23  C   UNL     1     -10.090  10.637  64.913  1.00  0.00    -0.402 A  
HETATM   24  C   UNL     1     -11.260  11.409  66.887  1.00  0.00    -0.264 A  
BRANCH  24  25
HETATM   25  O   UNL     1     -12.039  12.404  67.426  1.00  0.00    -0.505 OA 
BRANCH  25  26
HETATM   26  C   UNL     1     -11.478  13.264  68.413  1.00  0.00    -0.314 C  
HETATM   27  C   UNL     1     -11.629  14.702  67.935  1.00  0.00    -0.373 C  
ENDBRANCH  25  26
ENDBRANCH  24  25
BRANCH  21  28
HETATM   28  O   UNL     1     -11.448  12.674  64.895  1.00  0.00    -0.303 OA 
HETATM   29  C   UNL     1     -10.542  13.683  64.469  1.00  0.00    -0.411 C  
ENDBRANCH  21  28
ENDBRANCH   1  19
BRANCH   1  30
HETATM   30  C   UNL     1      -9.045   7.000  66.632  1.00  0.00    -0.152 C  
BRANCH  30  31
HETATM   31  S   UNL     1      -9.445   5.274  66.546  1.00  0.00    -0.159 S  
HETATM   32  O   UNL     1      -9.202   4.729  67.869  1.00  0.00    -0.113 OA 
HETATM   33  C   UNL     1      -8.255   4.513  65.466  1.00  0.00    -0.110 C  
HETATM   34  O   UNL     1     -10.745   5.132  65.925  1.00  0.00    -0.217 OA 
ENDBRANCH  30  31
ENDBRANCH   1  30
TORSDOF 9
ENDMDL
MODEL       96
REMARK 921   NORMALIZED FREE ENERGY PREDICTED BY IDOCK:   -5.52 KCAL/MOL
REMARK 922        TOTAL FREE ENERGY PREDICTED BY IDOCK:   -9.48 KCAL/MOL
REMARK 923 INTER-LIGAND FREE ENERGY PREDICTED BY IDOCK:   -8.52 KCAL/MOL
REMARK 924 INTRA-LIGAND FREE ENERGY PREDICTED BY IDOCK:   -0.96 KCAL/MOL
REMARK 927      BINDING AFFINITY PREDICTED BY RF-SCORE:    0.00 PKD
ROOT
HETATM    1  C   UNL     1      -8.506  11.972  67.921  1.00  0.00    -0.160 C  
ENDROOT
BRANCH   1   2
HETATM    2  N   UNL     1      -9.436  11.267  68.818  1.00  0.00    -0.172 N  
HETATM    3  C   UNL     1     -12.510  11.233  70.695  1.00  0.00    -0.439 A  
HETATM    4  C   UNL     1     -12.973  10.265  71.570  1.00  0.00    -0.556 A  
HETATM    5  O   UNL     1      -8.507   9.156  69.144  1.00  0.00    -0.126 OA 
HETATM    6  C   UNL     1     -12.275   9.051  71.705  1.00  0.00    -0.418 A  
HETATM    7  C   UNL     1     -10.632  11.848  69.120  1.00  0.00    -0.044 C  
HETATM    8  C   UNL     1      -9.387   9.977  69.319  1.00  0.00    -0.214 C  
HETATM    9  C   UNL     1     -11.126   8.738  70.940  1.00  0.00    -0.268 A  
HETATM   10  C   UNL     1     -10.626   9.767  70.133  1.00  0.00    -0.337 A  
HETATM   11  C   UNL     1     -11.342  10.957  70.018  1.00  0.00    -0.386 A  
HETATM   12  O   UNL     1     -11.089  12.904  68.716  1.00  0.00    -0.243 OA 
BRANCH   9  13
HETATM   13  N   UNL     1     -10.479   7.491  71.066  1.00  0.00    -0.214 NA 
HETATM   14  H   UNL     1      -9.797   7.395  71.818  1.00  0.00     0.000 HD 
BRANCH  13  15
HETATM   15  C   UNL     1     -10.674   6.458  70.312  1.00  0.00    -0.266 C  
HETATM   16  C   UNL     1      -9.923   5.179  70.081  1.00  0.00    -0.324 C  
HETATM   17  O   UNL     1     -11.760   6.503  69.522  1.00  0.00    -0.640 OA 
HETATM   18  H   UNL     1     -11.903   5.744  68.968  1.00  0.00     0.000 HD 
ENDBRANCH  13  15
ENDBRANCH   9  13
ENDBRANCH   1   2
BRANCH   1  19
HETATM   19  C   UNL     1      -8.489  11.456  66.469  1.00  0.00    -0.170 A  
HETATM   20  C   UNL     1      -7.498  10.566  66.038  1.00  0.00    -0.137 A  
HETATM   21  C   UNL     1      -8.778  10.023  64.045  1.00  0.00    -0.208 A  
HETATM   22  C   UNL     1      -9.581  11.707  65.604  1.00  0.00    -0.252 A  
HETATM   23  C   UNL     1      -7.645   9.853  64.844  1.00  0.00    -0.135 A  
HETATM   24  C   UNL     1      -9.734  10.994  64.400  1.00  0.00    -0.280 A  
BRANCH  24  25
HETATM   25  O   UNL     1     -10.791  11.126  63.532  1.00  0.00    -0.352 OA 
BRANCH  25  26
HETATM   26  C   UNL     1     -11.436  12.390  63.414  1.00  0.00    -0.448 C  
HETATM   27  C   UNL     1     -12.901  12.215  63.790  1.00  0.00    -0.451 C  
ENDBRANCH  25  26
ENDBRANCH  24  25
BRANCH  21  28
HETATM   28  O   UNL     1      -9.041   9.286  62.915  1.00  0.00    -0.196 OA 
HETATM   29  C   UNL     1      -8.143   8.229  62.600  1.00  0.00    -0.172 C  
ENDBRANCH  21  28
ENDBRANCH   1  19
BRANCH   1  30
HETATM   30  C   UNL     1      -8.602  13.499  67.895  1.00  0.00    -0.182 C  
BRANCH  30  31
HETATM   31  S   UNL     1      -7.070  14.371  68.092  1.00  0.00    -0.143 S  
HETATM   32  O   UNL     1      -6.050  13.562  67.452  1.00  0.00    -0.330 OA 
HETATM   33  C   UNL     1      -6.689  14.375  69.829  1.00  0.00    -0.124 C  
HETATM   34  O   UNL     1      -7.268  15.749  67.690  1.00  0.00    -0.135 OA 
ENDBRANCH  30  31
ENDBRANCH   1  30
TORSDOF 9
ENDMDL
MODEL       97
REMARK 921   NORMALIZED FREE ENERGY PREDICTED BY IDOCK:   -5.51 KCAL/MOL
REMARK 922        TOTAL FREE ENERGY PREDICTED BY IDOCK:   -9.47 KCAL/MOL
REMARK 923 INTER-LIGAND FREE ENERGY PREDICTED BY IDOCK:   -8.47 KCAL/MOL
REMARK 924 INTRA-LIGAND FREE ENERGY PREDICTED BY IDOCK:   -1.00 KCAL/MOL
REMARK 927      BINDING AFFINITY PREDICTED BY RF-SCORE:    0.00 PKD
ROOT
HETATM    1  C   UNL     1     -10.440   9.446  68.842  1.00  0.00    -0.216 C  
ENDROOT
BRANCH   1   2
HETATM    2  N   UNL     1     -10.475  10.146  67.547  1.00  0.00    -0.234 N  
HETATM    3  C   UNL     1      -9.659  10.222  64.040  1.00  0.00    -0.365 A  
HETATM    4  C   UNL     1      -9.834  11.258  63.138  1.00  0.00    -0.403 A  
HETATM    5  O   UNL     1     -11.657  12.114  67.934  1.00  0.00    -0.310 OA 
HETATM    6  C   UNL     1     -10.527  12.418  63.530  1.00  0.00    -0.430 A  
HETATM    7  C   UNL     1     -10.015   9.503  66.436  1.00  0.00    -0.269 C  
HETATM    8  C   UNL     1     -11.066  11.349  67.198  1.00  0.00    -0.305 C  
HETATM    9  C   UNL     1     -11.111  12.567  64.811  1.00  0.00    -0.301 A  
HETATM   10  C   UNL     1     -10.840  11.548  65.732  1.00  0.00    -0.319 A  
HETATM   11  C   UNL     1     -10.154  10.410  65.312  1.00  0.00    -0.370 A  
HETATM   12  O   UNL     1      -9.585   8.366  66.337  1.00  0.00    -0.213 OA 
BRANCH   9  13
HETATM   13  N   UNL     1     -11.841  13.723  65.153  1.00  0.00    -0.336 NA 
HETATM   14  H   UNL     1     -12.757  13.585  65.579  1.00  0.00     0.000 HD 
BRANCH  13  15
HETATM   15  C   UNL     1     -11.452  14.944  64.975  1.00  0.00    -0.379 C  
HETATM   16  C   UNL     1     -10.553  15.874  65.736  1.00  0.00    -0.368 C  
HETATM   17  O   UNL     1     -11.959  15.572  63.900  1.00  0.00    -0.974 OA 
HETATM   18  H   UNL     1     -11.674  16.468  63.769  1.00  0.00     0.000 HD 
ENDBRANCH  13  15
ENDBRANCH   9  13
ENDBRANCH   1   2
BRANCH   1  19
HETATM   19  C   UNL     1      -9.030   9.095  69.351  1.00  0.00    -0.147 A  
HETATM   20  C   UNL     1      -8.115  10.104  69.677  1.00  0.00    -0.178 A  
HETATM   21  C   UNL     1      -6.702   8.516  70.856  1.00  0.00    -0.046 A  
HETATM   22  C   UNL     1      -8.700   7.762  69.694  1.00  0.00    -0.135 A  
HETATM   23  C   UNL     1      -6.969   9.818  70.426  1.00  0.00    -0.139 A  
HETATM   24  C   UNL     1      -7.548   7.467  70.446  1.00  0.00    -0.091 A  
BRANCH  24  25
HETATM   25  O   UNL     1      -7.183   6.214  70.876  1.00  0.00    -0.071 OA 
BRANCH  25  26
HETATM   26  C   UNL     1      -8.094   5.465  71.675  1.00  0.00    -0.117 C  
HETATM   27  C   UNL     1      -7.578   5.457  73.107  1.00  0.00    -0.096 C  
ENDBRANCH  25  26
ENDBRANCH  24  25
BRANCH  21  28
HETATM   28  O   UNL     1      -5.656   8.176  71.680  1.00  0.00    -0.034 OA 
HETATM   29  C   UNL     1      -5.636   8.747  72.982  1.00  0.00    -0.083 C  
ENDBRANCH  21  28
ENDBRANCH   1  19
BRANCH   1  30
HETATM   30  C   UNL     1     -11.229  10.081  69.988  1.00  0.00    -0.288 C  
BRANCH  30  31
HETATM   31  S   UNL     1     -11.620   9.007  71.345  1.00  0.00    -0.354 S  
HETATM   32  O   UNL     1     -12.070   7.757  70.763  1.00  0.00    -0.226 OA 
HETATM   33  C   UNL     1     -13.025   9.707  72.179  1.00  0.00    -0.406 C  
HETATM   34  O   UNL     1     -10.512   9.021  72.278  1.00  0.00    -0.269 OA 
ENDBRANCH  30  31
ENDBRANCH   1  30
TORSDOF 9
ENDMDL
MODEL       98
REMARK 921   NORMALIZED FREE ENERGY PREDICTED BY IDOCK:   -5.51 KCAL/MOL
REMARK 922        TOTAL FREE ENERGY PREDICTED BY IDOCK:   -9.46 KCAL/MOL
REMARK 923 INTER-LIGAND FREE ENERGY PREDICTED BY IDOCK:   -8.06 KCAL/MOL
REMARK 924 INTRA-LIGAND FREE ENERGY PREDICTED BY IDOCK:   -1.40 KCAL/MOL
REMARK 927      BINDING AFFINITY PREDICTED BY RF-SCORE:    0.00 PKD
ROOT
HETATM    1  C   UNL     1     -10.183  11.100  67.975  1.00  0.00    -0.181 C  
ENDROOT
BRANCH   1   2
HETATM    2  N   UNL     1      -9.315  10.029  67.459  1.00  0.00    -0.143 N  
HETATM    3  C   UNL     1      -6.010   8.696  66.936  1.00  0.00    -0.057 A  
HETATM    4  C   UNL     1      -5.642   7.559  66.236  1.00  0.00    -0.028 A  
HETATM    5  O   UNL     1     -10.760   8.404  66.626  1.00  0.00    -0.195 OA 
HETATM    6  C   UNL     1      -6.631   6.690  65.741  1.00  0.00    -0.047 A  
HETATM    7  C   UNL     1      -7.974  10.092  67.696  1.00  0.00    -0.102 C  
HETATM    8  C   UNL     1      -9.644   8.817  66.875  1.00  0.00    -0.190 C  
HETATM    9  C   UNL     1      -8.014   6.892  65.968  1.00  0.00    -0.109 A  
HETATM   10  C   UNL     1      -8.364   8.094  66.596  1.00  0.00    -0.111 A  
HETATM   11  C   UNL     1      -7.360   8.932  67.078  1.00  0.00    -0.083 A  
HETATM   12  O   UNL     1      -7.352  10.928  68.330  1.00  0.00    -0.085 OA 
BRANCH   9  13
HETATM   13  N   UNL     1      -8.975   5.974  65.499  1.00  0.00    -0.332 NA 
HETATM   14  H   UNL     1      -9.068   5.874  64.489  1.00  0.00     0.000 HD 
BRANCH  13  15
HETATM   15  C   UNL     1      -9.751   5.247  66.237  1.00  0.00    -0.169 C  
HETATM   16  C   UNL     1      -9.515   4.273  67.354  1.00  0.00    -0.213 C  
HETATM   17  O   UNL     1     -11.065   5.325  65.964  1.00  0.00    -0.762 OA 
HETATM   18  H   UNL     1     -11.634   4.791  66.506  1.00  0.00     0.000 HD 
ENDBRANCH  13  15
ENDBRANCH   9  13
ENDBRANCH   1   2
BRANCH   1  19
HETATM   19  C   UNL     1     -10.779  10.835  69.371  1.00  0.00    -0.272 A  
HETATM   20  C   UNL     1     -11.923  11.518  69.802  1.00  0.00    -0.415 A  
HETATM   21  C   UNL     1     -12.243   9.941  71.624  1.00  0.00    -0.395 A  
HETATM   22  C   UNL     1     -10.310   9.758  70.160  1.00  0.00    -0.335 A  
HETATM   23  C   UNL     1     -12.649  11.071  70.911  1.00  0.00    -0.488 A  
HETATM   24  C   UNL     1     -11.035   9.304  71.278  1.00  0.00    -0.351 A  
BRANCH  24  25
HETATM   25  O   UNL     1     -10.689   8.231  72.062  1.00  0.00    -0.252 OA 
BRANCH  25  26
HETATM   26  C   UNL     1     -10.368   6.992  71.437  1.00  0.00    -0.197 C  
HETATM   27  C   UNL     1     -11.652   6.389  70.884  1.00  0.00    -0.393 C  
ENDBRANCH  25  26
ENDBRANCH  24  25
BRANCH  21  28
HETATM   28  O   UNL     1     -12.958   9.383  72.656  1.00  0.00    -0.333 OA 
HETATM   29  C   UNL     1     -14.281   8.945  72.374  1.00  0.00    -0.374 C  
ENDBRANCH  21  28
ENDBRANCH   1  19
BRANCH   1  30
HETATM   30  C   UNL     1      -9.613  12.519  67.950  1.00  0.00    -0.206 C  
BRANCH  30  31
HETATM   31  S   UNL     1     -10.511  13.695  66.971  1.00  0.00    -0.271 S  
HETATM   32  O   UNL     1     -11.202  14.564  67.905  1.00  0.00    -0.272 OA 
HETATM   33  C   UNL     1     -11.771  12.795  66.097  1.00  0.00    -0.403 C  
HETATM   34  O   UNL     1      -9.613  14.253  65.981  1.00  0.00    -0.295 OA 
ENDBRANCH  30  31
ENDBRANCH   1  30
TORSDOF 9
ENDMDL
MODEL       99
REMARK 921   NORMALIZED FREE ENERGY PREDICTED BY IDOCK:   -5.50 KCAL/MOL
REMARK 922        TOTAL FREE ENERGY PREDICTED BY IDOCK:   -9.44 KCAL/MOL
REMARK 923 INTER-LIGAND FREE ENERGY PREDICTED BY IDOCK:   -8.12 KCAL/MOL
REMARK 924 INTRA-LIGAND FREE ENERGY PREDICTED BY IDOCK:   -1.33 KCAL/MOL
REMARK 927      BINDING AFFINITY PREDICTED BY RF-SCORE:    0.00 PKD
ROOT
HETATM    1  C   UNL     1      -9.589  11.493  67.660  1.00  0.00    -0.171 C  
ENDROOT
BRANCH   1   2
HETATM    2  N   UNL     1     -10.039  10.704  68.819  1.00  0.00    -0.183 N  
HETATM    3  C   UNL     1     -12.645   9.805  71.137  1.00  0.00    -0.438 A  
HETATM    4  C   UNL     1     -12.561   8.987  72.251  1.00  0.00    -0.445 A  
HETATM    5  O   UNL     1      -8.223   9.369  69.406  1.00  0.00    -0.104 OA 
HETATM    6  C   UNL     1     -11.374   8.277  72.511  1.00  0.00    -0.455 A  
HETATM    7  C   UNL     1     -11.351  10.759  69.188  1.00  0.00    -0.282 C  
HETATM    8  C   UNL     1      -9.372   9.737  69.554  1.00  0.00    -0.213 C  
HETATM    9  C   UNL     1     -10.253   8.316  71.649  1.00  0.00    -0.221 A  
HETATM   10  C   UNL     1     -10.329   9.220  70.582  1.00  0.00    -0.326 A  
HETATM   11  C   UNL     1     -11.519   9.906  70.349  1.00  0.00    -0.372 A  
HETATM   12  O   UNL     1     -12.264  11.370  68.661  1.00  0.00    -0.532 OA 
BRANCH   9  13
HETATM   13  N   UNL     1      -9.097   7.554  71.915  1.00  0.00    -0.128 NA 
HETATM   14  H   UNL     1      -8.579   7.200  71.111  1.00  0.00     0.000 HD 
BRANCH  13  15
HETATM   15  C   UNL     1      -8.636   7.262  73.088  1.00  0.00    -0.133 C  
HETATM   16  C   UNL     1      -8.059   8.072  74.213  1.00  0.00    -0.312 C  
HETATM   17  O   UNL     1      -8.623   5.957  73.408  1.00  0.00    -0.121 OA 
HETATM   18  H   UNL     1      -8.285   5.743  74.269  1.00  0.00     0.000 HD 
ENDBRANCH  13  15
ENDBRANCH   9  13
ENDBRANCH   1   2
BRANCH   1  19
HETATM   19  C   UNL     1      -9.034  12.888  68.003  1.00  0.00    -0.196 A  
HETATM   20  C   UNL     1      -7.735  13.253  67.631  1.00  0.00    -0.171 A  
HETATM   21  C   UNL     1      -8.214  15.598  68.053  1.00  0.00    -0.144 A  
HETATM   22  C   UNL     1      -9.887  13.896  68.515  1.00  0.00    -0.214 A  
HETATM   23  C   UNL     1      -7.333  14.592  67.649  1.00  0.00    -0.204 A  
HETATM   24  C   UNL     1      -9.488  15.245  68.538  1.00  0.00    -0.200 A  
BRANCH  24  25
HETATM   25  O   UNL     1     -10.270  16.294  68.957  1.00  0.00    -0.230 OA 
BRANCH  25  26
HETATM   26  C   UNL     1     -11.577  16.026  69.456  1.00  0.00    -0.304 C  
HETATM   27  C   UNL     1     -11.507  15.976  70.976  1.00  0.00    -0.460 C  
ENDBRANCH  25  26
ENDBRANCH  24  25
BRANCH  21  28
HETATM   28  O   UNL     1      -7.927  16.941  67.999  1.00  0.00    -0.176 OA 
HETATM   29  C   UNL     1      -7.835  17.539  66.713  1.00  0.00    -0.230 C  
ENDBRANCH  21  28
ENDBRANCH   1  19
BRANCH   1  30
HETATM   30  C   UNL     1      -8.623  10.807  66.694  1.00  0.00    -0.143 C  
BRANCH  30  31
HETATM   31  S   UNL     1      -9.369   9.776  65.458  1.00  0.00    -0.259 S  
HETATM   32  O   UNL     1      -9.885   8.610  66.152  1.00  0.00    -0.262 OA 
HETATM   33  C   UNL     1      -8.062   9.193  64.403  1.00  0.00    -0.145 C  
HETATM   34  O   UNL     1     -10.248  10.591  64.647  1.00  0.00    -0.345 OA 
ENDBRANCH  30  31
ENDBRANCH   1  30
TORSDOF 9
ENDMDL
MODEL      100
REMARK 921   NORMALIZED FREE ENERGY PREDICTED BY IDOCK:   -5.48 KCAL/MOL
REMARK 922        TOTAL FREE ENERGY PREDICTED BY IDOCK:   -9.41 KCAL/MOL
REMARK 923 INTER-LIGAND FREE ENERGY PREDICTED BY IDOCK:   -8.89 KCAL/MOL
REMARK 924 INTRA-LIGAND FREE ENERGY PREDICTED BY IDOCK:   -0.52 KCAL/MOL
REMARK 927      BINDING AFFINITY PREDICTED BY RF-SCORE:    0.00 PKD
ROOT
HETATM    1  C   UNL     1     -10.427  15.574  68.067  1.00  0.00    -0.259 C  
ENDROOT
BRANCH   1   2
HETATM    2  N   UNL     1     -11.052  14.564  68.937  1.00  0.00    -0.245 N  
HETATM    3  C   UNL     1     -13.200  13.766  71.716  1.00  0.00    -0.467 A  
HETATM    4  C   UNL     1     -13.439  12.530  72.291  1.00  0.00    -0.490 A  
HETATM    5  O   UNL     1     -10.368  12.505  68.093  1.00  0.00    -0.218 OA 
HETATM    6  C   UNL     1     -12.914  11.367  71.697  1.00  0.00    -0.523 A  
HETATM    7  C   UNL     1     -11.963  14.967  69.869  1.00  0.00    -0.330 C  
HETATM    8  C   UNL     1     -11.001  13.182  68.880  1.00  0.00    -0.230 C  
HETATM    9  C   UNL     1     -12.179  11.389  70.488  1.00  0.00    -0.386 A  
HETATM   10  C   UNL     1     -11.872  12.657  69.978  1.00  0.00    -0.358 A  
HETATM   11  C   UNL     1     -12.410  13.789  70.588  1.00  0.00    -0.445 A  
HETATM   12  O   UNL     1     -12.385  16.090  70.085  1.00  0.00    -0.256 OA 
BRANCH   9  13
HETATM   13  N   UNL     1     -11.710  10.200  69.894  1.00  0.00    -0.403 NA 
HETATM   14  H   UNL     1     -11.688  10.167  68.875  1.00  0.00     0.000 HD 
BRANCH  13  15
HETATM   15  C   UNL     1     -11.304   9.146  70.526  1.00  0.00    -0.257 C  
HETATM   16  C   UNL     1     -10.043   8.789  71.257  1.00  0.00    -0.336 C  
HETATM   17  O   UNL     1     -12.154   8.105  70.537  1.00  0.00    -0.493 OA 
HETATM   18  H   UNL     1     -11.856   7.331  71.002  1.00  0.00     0.000 HD 
ENDBRANCH  13  15
ENDBRANCH   9  13
ENDBRANCH   1   2
BRANCH   1  19
HETATM   19  C   UNL     1      -8.967  15.918  68.418  1.00  0.00    -0.189 A  
HETATM   20  C   UNL     1      -8.556  17.250  68.541  1.00  0.00    -0.270 A  
HETATM   21  C   UNL     1      -6.504  16.570  69.653  1.00  0.00    -0.198 A  
HETATM   22  C   UNL     1      -8.067  14.903  68.821  1.00  0.00    -0.162 A  
HETATM   23  C   UNL     1      -7.342  17.572  69.158  1.00  0.00    -0.128 A  
HETATM   24  C   UNL     1      -6.844  15.219  69.441  1.00  0.00    -0.172 A  
BRANCH  24  25
HETATM   25  O   UNL     1      -5.940  14.303  69.920  1.00  0.00    -0.113 OA 
BRANCH  25  26
HETATM   26  C   UNL     1      -5.774  13.068  69.230  1.00  0.00    -0.084 C  
HETATM   27  C   UNL     1      -6.166  11.938  70.172  1.00  0.00    -0.087 C  
ENDBRANCH  25  26
ENDBRANCH  24  25
BRANCH  21  28
HETATM   28  O   UNL     1      -5.351  16.810  70.360  1.00  0.00    -0.195 OA 
HETATM   29  C   UNL     1      -5.271  18.031  71.086  1.00  0.00    -0.214 C  
ENDBRANCH  21  28
ENDBRANCH   1  19
BRANCH   1  30
HETATM   30  C   UNL     1     -10.524  15.337  66.559  1.00  0.00    -0.298 C  
BRANCH  30  31
HETATM   31  S   UNL     1     -10.194  16.746  65.533  1.00  0.00    -0.073 S  
HETATM   32  O   UNL     1      -8.758  16.945  65.558  1.00  0.00    -0.326 OA 
HETATM   33  C   UNL     1     -10.911  18.160  66.339  1.00  0.00     0.040 C  
HETATM   34  O   UNL     1     -10.886  16.571  64.273  1.00  0.00    -0.729 OA 
ENDBRANCH  30  31
ENDBRANCH   1  30
TORSDOF 9
ENDMDL
MODEL      101
REMARK 921   NORMALIZED FREE ENERGY PREDICTED BY IDOCK:   -5.46 KCAL/MOL
REMARK 922        TOTAL FREE ENERGY PREDICTED BY IDOCK:   -9.39 KCAL/MOL
REMARK 923 INTER-LIGAND FREE ENERGY PREDICTED BY IDOCK:   -7.74 KCAL/MOL
REMARK 924 INTRA-LIGAND FREE ENERGY PREDICTED BY IDOCK:   -1.65 KCAL/MOL
REMARK 927      BINDING AFFINITY PREDICTED BY RF-SCORE:    0.00 PKD
ROOT
HETATM    1  C   UNL     1     -10.690   8.968  69.350  1.00  0.00    -0.191 C  
ENDROOT
BRANCH   1   2
HETATM    2  N   UNL     1     -10.305  10.280  68.805  1.00  0.00    -0.184 N  
HETATM    3  C   UNL     1      -7.740  12.692  68.047  1.00  0.00    -0.139 A  
HETATM    4  C   UNL     1      -7.887  13.981  67.564  1.00  0.00    -0.197 A  
HETATM    5  O   UNL     1     -12.280  11.232  68.019  1.00  0.00    -0.621 OA 
HETATM    6  C   UNL     1      -9.157  14.442  67.174  1.00  0.00    -0.238 A  
HETATM    7  C   UNL     1      -8.981  10.593  68.708  1.00  0.00    -0.172 C  
HETATM    8  C   UNL     1     -11.076  11.254  68.194  1.00  0.00    -0.259 C  
HETATM    9  C   UNL     1     -10.312  13.625  67.203  1.00  0.00    -0.250 A  
HETATM   10  C   UNL     1     -10.155  12.360  67.782  1.00  0.00    -0.203 A  
HETATM   11  C   UNL     1      -8.883  11.931  68.155  1.00  0.00    -0.178 A  
HETATM   12  O   UNL     1      -8.014   9.905  68.988  1.00  0.00    -0.089 OA 
BRANCH   9  13
HETATM   13  N   UNL     1     -11.561  14.104  66.758  1.00  0.00    -0.372 NA 
HETATM   14  H   UNL     1     -12.103  14.666  67.414  1.00  0.00     0.000 HD 
BRANCH  13  15
HETATM   15  C   UNL     1     -12.081  13.896  65.592  1.00  0.00    -0.421 C  
HETATM   16  C   UNL     1     -12.197  14.715  64.340  1.00  0.00    -0.473 C  
HETATM   17  O   UNL     1     -12.686  12.708  65.422  1.00  0.00    -0.635 OA 
HETATM   18  H   UNL     1     -13.068  12.554  64.566  1.00  0.00     0.000 HD 
ENDBRANCH  13  15
ENDBRANCH   9  13
ENDBRANCH   1   2
BRANCH   1  19
HETATM   19  C   UNL     1     -10.301   7.763  68.473  1.00  0.00    -0.226 A  
HETATM   20  C   UNL     1     -10.489   7.796  67.086  1.00  0.00    -0.413 A  
HETATM   21  C   UNL     1      -9.045   5.864  66.789  1.00  0.00    -0.128 A  
HETATM   22  C   UNL     1      -9.562   6.685  69.019  1.00  0.00    -0.133 A  
HETATM   23  C   UNL     1      -9.863   6.862  66.255  1.00  0.00    -0.007 A  
HETATM   24  C   UNL     1      -8.930   5.741  68.188  1.00  0.00    -0.114 A  
BRANCH  24  25
HETATM   25  O   UNL     1      -8.143   4.704  68.625  1.00  0.00    -0.082 OA 
BRANCH  25  26
HETATM   26  C   UNL     1      -7.021   4.988  69.454  1.00  0.00    -0.055 C  
HETATM   27  C   UNL     1      -5.809   5.207  68.558  1.00  0.00    -0.017 C  
ENDBRANCH  25  26
ENDBRANCH  24  25
BRANCH  21  28
HETATM   28  O   UNL     1      -8.316   4.978  66.033  1.00  0.00    -0.112 OA 
HETATM   29  C   UNL     1      -8.643   4.873  64.653  1.00  0.00    -0.149 C  
ENDBRANCH  21  28
ENDBRANCH   1  19
BRANCH   1  30
HETATM   30  C   UNL     1     -10.277   8.674  70.793  1.00  0.00    -0.204 C  
BRANCH  30  31
HETATM   31  S   UNL     1     -11.605   8.370  71.929  1.00  0.00    -0.357 S  
HETATM   32  O   UNL     1     -10.996   7.886  73.154  1.00  0.00    -0.383 OA 
HETATM   33  C   UNL     1     -12.556   7.018  71.274  1.00  0.00    -0.373 C  
HETATM   34  O   UNL     1     -12.467   9.534  71.953  1.00  0.00    -0.369 OA 
ENDBRANCH  30  31
ENDBRANCH   1  30
TORSDOF 9
ENDMDL
MODEL      102
REMARK 921   NORMALIZED FREE ENERGY PREDICTED BY IDOCK:   -5.45 KCAL/MOL
REMARK 922        TOTAL FREE ENERGY PREDICTED BY IDOCK:   -9.38 KCAL/MOL
REMARK 923 INTER-LIGAND FREE ENERGY PREDICTED BY IDOCK:   -8.67 KCAL/MOL
REMARK 924 INTRA-LIGAND FREE ENERGY PREDICTED BY IDOCK:   -0.70 KCAL/MOL
REMARK 927      BINDING AFFINITY PREDICTED BY RF-SCORE:    0.00 PKD
ROOT
HETATM    1  C   UNL     1      -9.433  11.055  67.548  1.00  0.00    -0.163 C  
ENDROOT
BRANCH   1   2
HETATM    2  N   UNL     1     -10.400  11.010  68.658  1.00  0.00    -0.185 N  
HETATM    3  C   UNL     1     -12.051   9.144  71.258  1.00  0.00    -0.392 A  
HETATM    4  C   UNL     1     -13.079   9.554  72.090  1.00  0.00    -0.522 A  
HETATM    5  O   UNL     1     -11.216  13.181  68.861  1.00  0.00    -0.253 OA 
HETATM    6  C   UNL     1     -13.508  10.894  72.068  1.00  0.00    -0.287 A  
HETATM    7  C   UNL     1     -10.500   9.871  69.401  1.00  0.00    -0.231 C  
HETATM    8  C   UNL     1     -11.162  12.021  69.219  1.00  0.00    -0.229 C  
HETATM    9  C   UNL     1     -12.897  11.881  71.258  1.00  0.00    -0.290 A  
HETATM   10  C   UNL     1     -11.925  11.423  70.360  1.00  0.00    -0.465 A  
HETATM   11  C   UNL     1     -11.520  10.090  70.409  1.00  0.00    -0.389 A  
HETATM   12  O   UNL     1      -9.857   8.840  69.304  1.00  0.00    -0.173 OA 
BRANCH   9  13
HETATM   13  N   UNL     1     -13.320  13.225  71.296  1.00  0.00    -0.152 NA 
HETATM   14  H   UNL     1     -14.153  13.465  70.760  1.00  0.00     0.000 HD 
BRANCH  13  15
HETATM   15  C   UNL     1     -12.745  14.181  71.952  1.00  0.00    -0.320 C  
HETATM   16  C   UNL     1     -13.083  14.938  73.203  1.00  0.00    -0.615 C  
HETATM   17  O   UNL     1     -11.604  14.654  71.421  1.00  0.00    -0.472 OA 
HETATM   18  H   UNL     1     -11.182  15.356  71.903  1.00  0.00     0.000 HD 
ENDBRANCH  13  15
ENDBRANCH   9  13
ENDBRANCH   1   2
BRANCH   1  19
HETATM   19  C   UNL     1      -9.532  12.304  66.652  1.00  0.00    -0.227 A  
HETATM   20  C   UNL     1     -10.299  12.287  65.482  1.00  0.00    -0.296 A  
HETATM   21  C   UNL     1     -10.236  14.713  65.341  1.00  0.00    -0.387 A  
HETATM   22  C   UNL     1      -9.021  13.548  67.096  1.00  0.00    -0.230 A  
HETATM   23  C   UNL     1     -10.653  13.477  64.838  1.00  0.00    -0.409 A  
HETATM   24  C   UNL     1      -9.372  14.750  66.452  1.00  0.00    -0.291 A  
BRANCH  24  25
HETATM   25  O   UNL     1      -8.976  16.004  66.849  1.00  0.00    -0.200 OA 
BRANCH  25  26
HETATM   26  C   UNL     1      -7.678  16.466  66.489  1.00  0.00    -0.260 C  
HETATM   27  C   UNL     1      -7.701  17.988  66.470  1.00  0.00    -0.283 C  
ENDBRANCH  25  26
ENDBRANCH  24  25
BRANCH  21  28
HETATM   28  O   UNL     1     -10.628  15.925  64.826  1.00  0.00    -0.562 OA 
HETATM   29  C   UNL     1     -11.941  16.014  64.289  1.00  0.00     0.104 C  
ENDBRANCH  21  28
ENDBRANCH   1  19
BRANCH   1  30
HETATM   30  C   UNL     1      -7.964  10.826  67.907  1.00  0.00    -0.110 C  
BRANCH  30  31
HETATM   31  S   UNL     1      -7.031   9.853  66.754  1.00  0.00    -0.090 S  
HETATM   32  O   UNL     1      -6.404  10.788  65.839  1.00  0.00    -0.127 OA 
HETATM   33  C   UNL     1      -8.197   8.917  65.793  1.00  0.00    -0.115 C  
HETATM   34  O   UNL     1      -6.224   8.906  67.497  1.00  0.00    -0.051 OA 
ENDBRANCH  30  31
ENDBRANCH   1  30
TORSDOF 9
ENDMDL
MODEL      103
REMARK 921   NORMALIZED FREE ENERGY PREDICTED BY IDOCK:   -5.45 KCAL/MOL
REMARK 922        TOTAL FREE ENERGY PREDICTED BY IDOCK:   -9.37 KCAL/MOL
REMARK 923 INTER-LIGAND FREE ENERGY PREDICTED BY IDOCK:   -9.28 KCAL/MOL
REMARK 924 INTRA-LIGAND FREE ENERGY PREDICTED BY IDOCK:   -0.09 KCAL/MOL
REMARK 927      BINDING AFFINITY PREDICTED BY RF-SCORE:    0.00 PKD
ROOT
HETATM    1  C   UNL     1     -11.623  13.068  69.121  1.00  0.00    -0.316 C  
ENDROOT
BRANCH   1   2
HETATM    2  N   UNL     1     -11.189  12.506  67.831  1.00  0.00    -0.246 N  
HETATM    3  C   UNL     1     -11.600  12.257  64.262  1.00  0.00    -0.442 A  
HETATM    4  C   UNL     1     -10.931  11.431  63.375  1.00  0.00    -0.342 A  
HETATM    5  O   UNL     1      -9.329  11.193  68.318  1.00  0.00    -0.162 OA 
HETATM    6  C   UNL     1      -9.852  10.648  63.824  1.00  0.00    -0.394 A  
HETATM    7  C   UNL     1     -11.781  12.949  66.685  1.00  0.00    -0.390 C  
HETATM    8  C   UNL     1     -10.122  11.676  67.533  1.00  0.00    -0.191 C  
HETATM    9  C   UNL     1      -9.369  10.698  65.153  1.00  0.00    -0.212 A  
HETATM   10  C   UNL     1     -10.119  11.468  66.051  1.00  0.00    -0.270 A  
HETATM   11  C   UNL     1     -11.181  12.235  65.574  1.00  0.00    -0.376 A  
HETATM   12  O   UNL     1     -12.638  13.806  66.553  1.00  0.00    -0.362 OA 
BRANCH   9  13
HETATM   13  N   UNL     1      -8.254   9.936  65.557  1.00  0.00    -0.131 NA 
HETATM   14  H   UNL     1      -8.435   8.991  65.893  1.00  0.00     0.000 HD 
BRANCH  13  15
HETATM   15  C   UNL     1      -7.022  10.330  65.539  1.00  0.00    -0.138 C  
HETATM   16  C   UNL     1      -5.974  10.529  66.596  1.00  0.00    -0.071 C  
HETATM   17  O   UNL     1      -6.532  10.672  64.335  1.00  0.00    -0.354 OA 
HETATM   18  H   UNL     1      -5.627  10.961  64.322  1.00  0.00     0.000 HD 
ENDBRANCH  13  15
ENDBRANCH   9  13
ENDBRANCH   1   2
BRANCH   1  19
HETATM   19  C   UNL     1     -11.989  12.023  70.193  1.00  0.00    -0.401 A  
HETATM   20  C   UNL     1     -12.902  12.330  71.209  1.00  0.00    -0.337 A  
HETATM   21  C   UNL     1     -13.143   9.978  71.775  1.00  0.00    -0.457 A  
HETATM   22  C   UNL     1     -11.572  10.677  70.056  1.00  0.00    -0.406 A  
HETATM   23  C   UNL     1     -13.477  11.318  71.985  1.00  0.00    -0.289 A  
HETATM   24  C   UNL     1     -12.145   9.655  70.835  1.00  0.00    -0.300 A  
BRANCH  24  25
HETATM   25  O   UNL     1     -11.848   8.318  70.728  1.00  0.00    -0.264 OA 
BRANCH  25  26
HETATM   26  C   UNL     1     -10.615   7.929  70.131  1.00  0.00    -0.237 C  
HETATM   27  C   UNL     1      -9.777   7.218  71.185  1.00  0.00    -0.171 C  
ENDBRANCH  25  26
ENDBRANCH  24  25
BRANCH  21  28
HETATM   28  O   UNL     1     -13.740   8.925  72.425  1.00  0.00    -0.438 OA 
HETATM   29  C   UNL     1     -14.355   7.925  71.622  1.00  0.00    -0.479 C  
ENDBRANCH  21  28
ENDBRANCH   1  19
BRANCH   1  30
HETATM   30  C   UNL     1     -10.711  14.118  69.755  1.00  0.00     0.134 C  
BRANCH  30  31
HETATM   31  S   UNL     1     -11.506  15.613  70.287  1.00  0.00    -0.384 S  
HETATM   32  O   UNL     1     -10.636  16.704  69.893  1.00  0.00    -0.275 OA 
HETATM   33  C   UNL     1     -11.517  15.596  72.064  1.00  0.00    -0.404 C  
HETATM   34  O   UNL     1     -12.886  15.583  69.846  1.00  0.00    -0.172 OA 
ENDBRANCH  30  31
ENDBRANCH   1  30
TORSDOF 9
ENDMDL
MODEL      104
REMARK 921   NORMALIZED FREE ENERGY PREDICTED BY IDOCK:   -5.43 KCAL/MOL
REMARK 922        TOTAL FREE ENERGY PREDICTED BY IDOCK:   -9.35 KCAL/MOL
REMARK 923 INTER-LIGAND FREE ENERGY PREDICTED BY IDOCK:   -8.66 KCAL/MOL
REMARK 924 INTRA-LIGAND FREE ENERGY PREDICTED BY IDOCK:   -0.69 KCAL/MOL
REMARK 927      BINDING AFFINITY PREDICTED BY RF-SCORE:    0.00 PKD
ROOT
HETATM    1  C   UNL     1     -11.703  13.053  69.985  1.00  0.00    -0.215 C  
ENDROOT
BRANCH   1   2
HETATM    2  N   UNL     1     -11.233  11.688  69.695  1.00  0.00    -0.217 N  
HETATM    3  C   UNL     1      -8.882   9.499  68.067  1.00  0.00    -0.123 A  
HETATM    4  C   UNL     1      -8.899   8.116  67.999  1.00  0.00    -0.131 A  
HETATM    5  O   UNL     1     -12.648  10.275  70.888  1.00  0.00    -0.322 OA 
HETATM    6  C   UNL     1      -9.852   7.390  68.737  1.00  0.00    -0.164 A  
HETATM    7  C   UNL     1     -10.071  11.523  69.000  1.00  0.00    -0.054 C  
HETATM    8  C   UNL     1     -11.696  10.468  70.157  1.00  0.00    -0.326 C  
HETATM    9  C   UNL     1     -10.783   8.008  69.604  1.00  0.00    -0.207 A  
HETATM   10  C   UNL     1     -10.806   9.408  69.584  1.00  0.00    -0.245 A  
HETATM   11  C   UNL     1      -9.848  10.098  68.845  1.00  0.00    -0.194 A  
HETATM   12  O   UNL     1      -9.304  12.376  68.586  1.00  0.00    -0.127 OA 
BRANCH   9  13
HETATM   13  N   UNL     1     -11.692   7.246  70.367  1.00  0.00    -0.490 NA 
HETATM   14  H   UNL     1     -12.525   6.902  69.889  1.00  0.00     0.000 HD 
BRANCH  13  15
HETATM   15  C   UNL     1     -11.564   6.945  71.618  1.00  0.00    -0.287 C  
HETATM   16  C   UNL     1     -11.440   5.653  72.373  1.00  0.00    -0.309 C  
HETATM   17  O   UNL     1     -11.563   7.980  72.475  1.00  0.00    -0.364 OA 
HETATM   18  H   UNL     1     -11.468   7.759  73.394  1.00  0.00     0.000 HD 
ENDBRANCH  13  15
ENDBRANCH   9  13
ENDBRANCH   1   2
BRANCH   1  19
HETATM   19  C   UNL     1     -11.639  14.028  68.794  1.00  0.00    -0.366 A  
HETATM   20  C   UNL     1     -10.885  15.205  68.873  1.00  0.00    -0.241 A  
HETATM   21  C   UNL     1     -10.996  15.500  66.463  1.00  0.00    -0.243 A  
HETATM   22  C   UNL     1     -12.168  13.659  67.534  1.00  0.00    -0.259 A  
HETATM   23  C   UNL     1     -10.562  15.928  67.720  1.00  0.00    -0.302 A  
HETATM   24  C   UNL     1     -11.848  14.382  66.370  1.00  0.00    -0.388 A  
BRANCH  24  25
HETATM   25  O   UNL     1     -12.263  14.062  65.101  1.00  0.00    -0.393 OA 
BRANCH  25  26
HETATM   26  C   UNL     1     -12.267  12.695  64.698  1.00  0.00    -0.452 C  
HETATM   27  C   UNL     1     -10.872  12.341  64.200  1.00  0.00    -0.412 C  
ENDBRANCH  25  26
ENDBRANCH  24  25
BRANCH  21  28
HETATM   28  O   UNL     1     -10.634  16.097  65.279  1.00  0.00    -0.459 OA 
HETATM   29  C   UNL     1     -10.811  17.504  65.175  1.00  0.00     0.233 C  
ENDBRANCH  21  28
ENDBRANCH   1  19
BRANCH   1  30
HETATM   30  C   UNL     1     -13.076  13.181  70.647  1.00  0.00     0.207 C  
BRANCH  30  31
HETATM   31  S   UNL     1     -13.287  14.574  71.724  1.00  0.00    -0.395 S  
HETATM   32  O   UNL     1     -13.707  15.682  70.887  1.00  0.00    -0.549 OA 
HETATM   33  C   UNL     1     -11.679  15.001  72.351  1.00  0.00    -0.315 C  
HETATM   34  O   UNL     1     -14.096  14.166  72.854  1.00  0.00    -0.546 OA 
ENDBRANCH  30  31
ENDBRANCH   1  30
TORSDOF 9
ENDMDL
MODEL      105
REMARK 921   NORMALIZED FREE ENERGY PREDICTED BY IDOCK:   -5.42 KCAL/MOL
REMARK 922        TOTAL FREE ENERGY PREDICTED BY IDOCK:   -9.32 KCAL/MOL
REMARK 923 INTER-LIGAND FREE ENERGY PREDICTED BY IDOCK:   -7.33 KCAL/MOL
REMARK 924 INTRA-LIGAND FREE ENERGY PREDICTED BY IDOCK:   -1.99 KCAL/MOL
REMARK 927      BINDING AFFINITY PREDICTED BY RF-SCORE:    0.00 PKD
ROOT
HETATM    1  C   UNL     1      -8.989   6.740  70.820  1.00  0.00    -0.151 C  
ENDROOT
BRANCH   1   2
HETATM    2  N   UNL     1      -9.982   7.821  70.925  1.00  0.00    -0.183 N  
HETATM    3  C   UNL     1     -13.063   9.079  72.302  1.00  0.00    -0.508 A  
HETATM    4  C   UNL     1     -13.721  10.259  72.001  1.00  0.00    -0.164 A  
HETATM    5  O   UNL     1      -9.147   9.563  69.623  1.00  0.00    -0.167 OA 
HETATM    6  C   UNL     1     -13.115  11.203  71.151  1.00  0.00    -0.284 A  
HETATM    7  C   UNL     1     -11.010   7.691  71.811  1.00  0.00    -0.239 C  
HETATM    8  C   UNL     1      -9.982   9.090  70.371  1.00  0.00    -0.203 C  
HETATM    9  C   UNL     1     -11.817  11.029  70.615  1.00  0.00    -0.333 A  
HETATM   10  C   UNL     1     -11.212   9.790  70.859  1.00  0.00    -0.429 A  
HETATM   11  C   UNL     1     -11.837   8.878  71.707  1.00  0.00    -0.429 A  
HETATM   12  O   UNL     1     -11.230   6.782  72.594  1.00  0.00    -0.260 OA 
BRANCH   9  13
HETATM   13  N   UNL     1     -11.220  12.018  69.806  1.00  0.00    -0.490 NA 
HETATM   14  H   UNL     1     -10.357  12.439  70.149  1.00  0.00     0.000 HD 
BRANCH  13  15
HETATM   15  C   UNL     1     -11.669  12.438  68.668  1.00  0.00    -0.326 C  
HETATM   16  C   UNL     1     -11.922  13.798  68.084  1.00  0.00    -0.394 C  
HETATM   17  O   UNL     1     -12.026  11.486  67.789  1.00  0.00    -0.623 OA 
HETATM   18  H   UNL     1     -12.356  11.795  66.954  1.00  0.00     0.000 HD 
ENDBRANCH  13  15
ENDBRANCH   9  13
ENDBRANCH   1   2
BRANCH   1  19
HETATM   19  C   UNL     1      -8.933   6.042  69.448  1.00  0.00    -0.126 A  
HETATM   20  C   UNL     1     -10.040   5.340  68.956  1.00  0.00    -0.272 A  
HETATM   21  C   UNL     1      -9.088   5.297  66.720  1.00  0.00    -0.118 A  
HETATM   22  C   UNL     1      -7.843   6.265  68.571  1.00  0.00    -0.105 A  
HETATM   23  C   UNL     1     -10.119   4.979  67.607  1.00  0.00    -0.192 A  
HETATM   24  C   UNL     1      -7.915   5.903  67.214  1.00  0.00    -0.102 A  
BRANCH  24  25
HETATM   25  O   UNL     1      -6.936   6.137  66.280  1.00  0.00    -0.063 OA 
BRANCH  25  26
HETATM   26  C   UNL     1      -6.349   7.432  66.202  1.00  0.00    -0.042 C  
HETATM   27  C   UNL     1      -7.354   8.373  65.553  1.00  0.00    -0.083 C  
ENDBRANCH  25  26
ENDBRANCH  24  25
BRANCH  21  28
HETATM   28  O   UNL     1      -9.138   5.069  65.366  1.00  0.00    -0.157 OA 
HETATM   29  C   UNL     1     -10.045   4.075  64.904  1.00  0.00    -0.205 C  
ENDBRANCH  21  28
ENDBRANCH   1  19
BRANCH   1  30
HETATM   30  C   UNL     1      -7.561   7.072  71.256  1.00  0.00    -0.086 C  
BRANCH  30  31
HETATM   31  S   UNL     1      -7.363   7.542  72.955  1.00  0.00    -0.082 S  
HETATM   32  O   UNL     1      -7.754   8.936  73.045  1.00  0.00    -0.371 OA 
HETATM   33  C   UNL     1      -5.623   7.486  73.315  1.00  0.00    -0.044 C  
HETATM   34  O   UNL     1      -8.008   6.548  73.787  1.00  0.00    -0.100 OA 
ENDBRANCH  30  31
ENDBRANCH   1  30
TORSDOF 9
ENDMDL
MODEL      106
REMARK 921   NORMALIZED FREE ENERGY PREDICTED BY IDOCK:   -5.41 KCAL/MOL
REMARK 922        TOTAL FREE ENERGY PREDICTED BY IDOCK:   -9.32 KCAL/MOL
REMARK 923 INTER-LIGAND FREE ENERGY PREDICTED BY IDOCK:   -8.31 KCAL/MOL
REMARK 924 INTRA-LIGAND FREE ENERGY PREDICTED BY IDOCK:   -1.01 KCAL/MOL
REMARK 927      BINDING AFFINITY PREDICTED BY RF-SCORE:    0.00 PKD
ROOT
HETATM    1  C   UNL     1      -9.326   9.017  65.771  1.00  0.00    -0.236 C  
ENDROOT
BRANCH   1   2
HETATM    2  N   UNL     1      -9.322   8.751  67.219  1.00  0.00    -0.144 N  
HETATM    3  C   UNL     1      -7.886   9.322  70.473  1.00  0.00    -0.169 A  
HETATM    4  C   UNL     1      -8.198   8.703  71.671  1.00  0.00    -0.199 A  
HETATM    5  O   UNL     1     -11.122   7.323  67.596  1.00  0.00    -0.139 OA 
HETATM    6  C   UNL     1      -9.289   7.816  71.739  1.00  0.00    -0.179 A  
HETATM    7  C   UNL     1      -8.468   9.454  68.017  1.00  0.00    -0.120 C  
HETATM    8  C   UNL     1     -10.183   7.987  67.989  1.00  0.00    -0.210 C  
HETATM    9  C   UNL     1     -10.134   7.554  70.634  1.00  0.00    -0.187 A  
HETATM   10  C   UNL     1      -9.743   8.119  69.414  1.00  0.00    -0.170 A  
HETATM   11  C   UNL     1      -8.660   8.995  69.380  1.00  0.00    -0.137 A  
HETATM   12  O   UNL     1      -7.688  10.337  67.705  1.00  0.00    -0.090 OA 
BRANCH   9  13
HETATM   13  N   UNL     1     -11.247   6.698  70.750  1.00  0.00    -0.293 NA 
HETATM   14  H   UNL     1     -11.240   5.848  70.187  1.00  0.00     0.000 HD 
BRANCH  13  15
HETATM   15  C   UNL     1     -12.277   6.893  71.508  1.00  0.00    -0.371 C  
HETATM   16  C   UNL     1     -13.328   7.963  71.586  1.00  0.00    -0.374 C  
HETATM   17  O   UNL     1     -12.480   5.978  72.472  1.00  0.00    -0.547 OA 
HETATM   18  H   UNL     1     -13.236   6.122  73.029  1.00  0.00     0.000 HD 
ENDBRANCH  13  15
ENDBRANCH   9  13
ENDBRANCH   1   2
BRANCH   1  19
HETATM   19  C   UNL     1      -9.999  10.339  65.356  1.00  0.00    -0.371 A  
HETATM   20  C   UNL     1     -10.130  10.684  64.006  1.00  0.00    -0.378 A  
HETATM   21  C   UNL     1     -11.752  12.411  64.547  1.00  0.00    -0.362 A  
HETATM   22  C   UNL     1     -10.677  11.132  66.314  1.00  0.00    -0.298 A  
HETATM   23  C   UNL     1     -11.001  11.702  63.606  1.00  0.00    -0.507 A  
HETATM   24  C   UNL     1     -11.554  12.159  65.919  1.00  0.00    -0.364 A  
BRANCH  24  25
HETATM   25  O   UNL     1     -12.300  12.935  66.773  1.00  0.00    -0.405 OA 
BRANCH  25  26
HETATM   26  C   UNL     1     -11.790  13.219  68.073  1.00  0.00    -0.355 C  
HETATM   27  C   UNL     1     -11.346  14.675  68.103  1.00  0.00    -0.321 C  
ENDBRANCH  25  26
ENDBRANCH  24  25
BRANCH  21  28
HETATM   28  O   UNL     1     -12.701  13.351  64.225  1.00  0.00    -0.644 OA 
HETATM   29  C   UNL     1     -12.278  14.706  64.145  1.00  0.00    -0.315 C  
ENDBRANCH  21  28
ENDBRANCH   1  19
BRANCH   1  30
HETATM   30  C   UNL     1      -7.984   8.905  65.048  1.00  0.00    -0.125 C  
BRANCH  30  31
HETATM   31  S   UNL     1      -7.282   7.277  64.970  1.00  0.00    -0.075 S  
HETATM   32  O   UNL     1      -6.442   7.136  66.144  1.00  0.00    -0.048 OA 
HETATM   33  C   UNL     1      -6.192   7.243  63.566  1.00  0.00    -0.048 C  
HETATM   34  O   UNL     1      -8.346   6.328  64.715  1.00  0.00    -0.128 OA 
ENDBRANCH  30  31
ENDBRANCH   1  30
TORSDOF 9
ENDMDL
MODEL      107
REMARK 921   NORMALIZED FREE ENERGY PREDICTED BY IDOCK:   -5.40 KCAL/MOL
REMARK 922        TOTAL FREE ENERGY PREDICTED BY IDOCK:   -9.30 KCAL/MOL
REMARK 923 INTER-LIGAND FREE ENERGY PREDICTED BY IDOCK:   -8.10 KCAL/MOL
REMARK 924 INTRA-LIGAND FREE ENERGY PREDICTED BY IDOCK:   -1.20 KCAL/MOL
REMARK 927      BINDING AFFINITY PREDICTED BY RF-SCORE:    0.00 PKD
ROOT
HETATM    1  C   UNL     1      -9.902   9.519  69.080  1.00  0.00    -0.176 C  
ENDROOT
BRANCH   1   2
HETATM    2  N   UNL     1      -9.847  10.817  68.389  1.00  0.00    -0.163 N  
HETATM    3  C   UNL     1      -8.019  13.801  67.535  1.00  0.00    -0.190 A  
HETATM    4  C   UNL     1      -8.469  14.920  66.855  1.00  0.00    -0.255 A  
HETATM    5  O   UNL     1     -11.887  11.023  67.285  1.00  0.00    -0.468 OA 
HETATM    6  C   UNL     1      -9.753  14.922  66.281  1.00  0.00    -0.320 A  
HETATM    7  C   UNL     1      -8.671  11.509  68.374  1.00  0.00    -0.160 C  
HETATM    8  C   UNL     1     -10.778  11.432  67.569  1.00  0.00    -0.222 C  
HETATM    9  C   UNL     1     -10.612  13.798  66.319  1.00  0.00    -0.289 A  
HETATM   10  C   UNL     1     -10.173  12.715  67.090  1.00  0.00    -0.230 A  
HETATM   11  C   UNL     1      -8.894  12.742  67.643  1.00  0.00    -0.189 A  
HETATM   12  O   UNL     1      -7.593  11.187  68.843  1.00  0.00    -0.120 OA 
BRANCH   9  13
HETATM   13  N   UNL     1     -11.874  13.819  65.691  1.00  0.00    -0.348 NA 
HETATM   14  H   UNL     1     -12.663  14.149  66.246  1.00  0.00     0.000 HD 
BRANCH  13  15
HETATM   15  C   UNL     1     -12.120  13.456  64.474  1.00  0.00    -0.409 C  
HETATM   16  C   UNL     1     -12.210  12.128  63.779  1.00  0.00    -0.630 C  
HETATM   17  O   UNL     1     -12.319  14.451  63.593  1.00  0.00    -1.051 OA 
HETATM   18  H   UNL     1     -12.500  14.184  62.699  1.00  0.00     0.000 HD 
ENDBRANCH  13  15
ENDBRANCH   9  13
ENDBRANCH   1   2
BRANCH   1  19
HETATM   19  C   UNL     1      -9.034   8.412  68.452  1.00  0.00    -0.136 A  
HETATM   20  C   UNL     1      -7.938   7.882  69.144  1.00  0.00    -0.118 A  
HETATM   21  C   UNL     1      -7.820   5.993  67.619  1.00  0.00    -0.101 A  
HETATM   22  C   UNL     1      -9.442   7.768  67.259  1.00  0.00    -0.187 A  
HETATM   23  C   UNL     1      -7.344   6.684  68.736  1.00  0.00    -0.090 A  
HETATM   24  C   UNL     1      -8.848   6.563  66.842  1.00  0.00    -0.120 A  
BRANCH  24  25
HETATM   25  O   UNL     1      -9.221   5.838  65.737  1.00  0.00    -0.148 OA 
BRANCH  25  26
HETATM   26  C   UNL     1     -10.316   4.933  65.840  1.00  0.00    -0.236 C  
HETATM   27  C   UNL     1     -10.174   3.885  64.745  1.00  0.00    -0.196 C  
ENDBRANCH  25  26
ENDBRANCH  24  25
BRANCH  21  28
HETATM   28  O   UNL     1      -7.358   4.763  67.219  1.00  0.00    -0.075 OA 
HETATM   29  C   UNL     1      -6.048   4.704  66.668  1.00  0.00    -0.031 C  
ENDBRANCH  21  28
ENDBRANCH   1  19
BRANCH   1  30
HETATM   30  C   UNL     1      -9.657   9.533  70.590  1.00  0.00    -0.227 C  
BRANCH  30  31
HETATM   31  S   UNL     1     -11.010   8.985  71.597  1.00  0.00    -0.377 S  
HETATM   32  O   UNL     1     -10.438   8.569  72.864  1.00  0.00    -0.174 OA 
HETATM   33  C   UNL     1     -11.667   7.517  70.838  1.00  0.00    -0.283 C  
HETATM   34  O   UNL     1     -12.050   9.992  71.561  1.00  0.00    -0.381 OA 
ENDBRANCH  30  31
ENDBRANCH   1  30
TORSDOF 9
ENDMDL
MODEL      108
REMARK 921   NORMALIZED FREE ENERGY PREDICTED BY IDOCK:   -5.40 KCAL/MOL
REMARK 922        TOTAL FREE ENERGY PREDICTED BY IDOCK:   -9.30 KCAL/MOL
REMARK 923 INTER-LIGAND FREE ENERGY PREDICTED BY IDOCK:   -7.59 KCAL/MOL
REMARK 924 INTRA-LIGAND FREE ENERGY PREDICTED BY IDOCK:   -1.71 KCAL/MOL
REMARK 927      BINDING AFFINITY PREDICTED BY RF-SCORE:    0.00 PKD
ROOT
HETATM    1  C   UNL     1      -9.802  10.349  68.821  1.00  0.00    -0.185 C  
ENDROOT
BRANCH   1   2
HETATM    2  N   UNL     1      -9.069   9.269  68.139  1.00  0.00    -0.128 N  
HETATM    3  C   UNL     1      -5.971   7.547  67.498  1.00  0.00    -0.043 A  
HETATM    4  C   UNL     1      -5.728   6.518  66.604  1.00  0.00    -0.014 A  
HETATM    5  O   UNL     1     -10.678   8.081  66.946  1.00  0.00    -0.322 OA 
HETATM    6  C   UNL     1      -6.798   5.927  65.908  1.00  0.00    -0.060 A  
HETATM    7  C   UNL     1      -7.753   9.072  68.438  1.00  0.00    -0.098 C  
HETATM    8  C   UNL     1      -9.533   8.256  67.316  1.00  0.00    -0.151 C  
HETATM    9  C   UNL     1      -8.148   6.301  66.115  1.00  0.00    -0.116 A  
HETATM   10  C   UNL     1      -8.358   7.404  66.952  1.00  0.00    -0.122 A  
HETATM   11  C   UNL     1      -7.277   7.966  67.629  1.00  0.00    -0.088 A  
HETATM   12  O   UNL     1      -7.060   9.663  69.248  1.00  0.00    -0.058 OA 
BRANCH   9  13
HETATM   13  N   UNL     1      -9.200   5.653  65.437  1.00  0.00    -0.353 NA 
HETATM   14  H   UNL     1      -9.436   5.999  64.507  1.00  0.00     0.000 HD 
BRANCH  13  15
HETATM   15  C   UNL     1      -9.893   4.659  65.889  1.00  0.00    -0.220 C  
HETATM   16  C   UNL     1      -9.585   3.493  66.784  1.00  0.00    -0.140 C  
HETATM   17  O   UNL     1     -11.170   4.595  65.474  1.00  0.00    -0.909 OA 
HETATM   18  H   UNL     1     -11.679   3.865  65.806  1.00  0.00     0.000 HD 
ENDBRANCH  13  15
ENDBRANCH   9  13
ENDBRANCH   1   2
BRANCH   1  19
HETATM   19  C   UNL     1      -9.942  11.650  68.009  1.00  0.00    -0.194 A  
HETATM   20  C   UNL     1      -9.636  11.678  66.643  1.00  0.00    -0.220 A  
HETATM   21  C   UNL     1     -10.769  13.812  66.378  1.00  0.00    -0.281 A  
HETATM   22  C   UNL     1     -10.572  12.785  68.573  1.00  0.00    -0.270 A  
HETATM   23  C   UNL     1     -10.051  12.743  65.837  1.00  0.00    -0.286 A  
HETATM   24  C   UNL     1     -10.991  13.861  67.768  1.00  0.00    -0.256 A  
BRANCH  24  25
HETATM   25  O   UNL     1     -11.665  14.970  68.218  1.00  0.00    -0.328 OA 
BRANCH  25  26
HETATM   26  C   UNL     1     -11.191  15.642  69.381  1.00  0.00    -0.313 C  
HETATM   27  C   UNL     1     -10.015  16.521  68.979  1.00  0.00    -0.275 C  
ENDBRANCH  25  26
ENDBRANCH  24  25
BRANCH  21  28
HETATM   28  O   UNL     1     -11.298  14.839  65.635  1.00  0.00    -0.342 OA 
HETATM   29  C   UNL     1     -11.974  14.495  64.431  1.00  0.00    -0.449 C  
ENDBRANCH  21  28
ENDBRANCH   1  19
BRANCH   1  30
HETATM   30  C   UNL     1     -11.168   9.989  69.406  1.00  0.00    -0.188 C  
BRANCH  30  31
HETATM   31  S   UNL     1     -11.143   8.976  70.862  1.00  0.00    -0.304 S  
HETATM   32  O   UNL     1      -9.775   8.986  71.346  1.00  0.00    -0.276 OA 
HETATM   33  C   UNL     1     -11.480   7.309  70.346  1.00  0.00    -0.248 C  
HETATM   34  O   UNL     1     -12.227   9.388  71.729  1.00  0.00    -0.353 OA 
ENDBRANCH  30  31
ENDBRANCH   1  30
TORSDOF 9
ENDMDL
MODEL      109
REMARK 921   NORMALIZED FREE ENERGY PREDICTED BY IDOCK:   -5.38 KCAL/MOL
REMARK 922        TOTAL FREE ENERGY PREDICTED BY IDOCK:   -9.27 KCAL/MOL
REMARK 923 INTER-LIGAND FREE ENERGY PREDICTED BY IDOCK:   -7.64 KCAL/MOL
REMARK 924 INTRA-LIGAND FREE ENERGY PREDICTED BY IDOCK:   -1.63 KCAL/MOL
REMARK 927      BINDING AFFINITY PREDICTED BY RF-SCORE:    0.00 PKD
ROOT
HETATM    1  C   UNL     1      -9.338   9.570  67.819  1.00  0.00    -0.127 C  
ENDROOT
BRANCH   1   2
HETATM    2  N   UNL     1      -9.608  11.017  67.838  1.00  0.00    -0.169 N  
HETATM    3  C   UNL     1      -8.581  14.352  68.729  1.00  0.00    -0.125 A  
HETATM    4  C   UNL     1      -9.296  15.532  68.613  1.00  0.00    -0.201 A  
HETATM    5  O   UNL     1     -11.637  11.287  66.727  1.00  0.00    -0.433 OA 
HETATM    6  C   UNL     1     -10.541  15.536  67.958  1.00  0.00    -0.270 A  
HETATM    7  C   UNL     1      -8.642  11.864  68.295  1.00  0.00    -0.162 C  
HETATM    8  C   UNL     1     -10.664  11.735  67.303  1.00  0.00    -0.237 C  
HETATM    9  C   UNL     1     -11.093  14.381  67.354  1.00  0.00    -0.308 A  
HETATM   10  C   UNL     1     -10.397  13.184  67.566  1.00  0.00    -0.225 A  
HETATM   11  C   UNL     1      -9.165  13.215  68.215  1.00  0.00    -0.194 A  
HETATM   12  O   UNL     1      -7.517  11.597  68.682  1.00  0.00    -0.106 OA 
BRANCH   9  13
HETATM   13  N   UNL     1     -12.321  14.431  66.664  1.00  0.00    -0.518 NA 
HETATM   14  H   UNL     1     -13.164  14.556  67.224  1.00  0.00     0.000 HD 
BRANCH  13  15
HETATM   15  C   UNL     1     -12.474  14.332  65.383  1.00  0.00    -0.425 C  
HETATM   16  C   UNL     1     -12.070  15.184  64.215  1.00  0.00    -0.277 C  
HETATM   17  O   UNL     1     -13.164  13.261  64.954  1.00  0.00    -0.703 OA 
HETATM   18  H   UNL     1     -13.277  13.188  64.014  1.00  0.00     0.000 HD 
ENDBRANCH  13  15
ENDBRANCH   9  13
ENDBRANCH   1   2
BRANCH   1  19
HETATM   19  C   UNL     1      -9.928   8.785  69.006  1.00  0.00    -0.197 A  
HETATM   20  C   UNL     1     -10.628   7.591  68.797  1.00  0.00    -0.179 A  
HETATM   21  C   UNL     1     -10.469   7.022  71.155  1.00  0.00    -0.211 A  
HETATM   22  C   UNL     1      -9.601   9.141  70.337  1.00  0.00    -0.268 A  
HETATM   23  C   UNL     1     -10.888   6.717  69.858  1.00  0.00    -0.310 A  
HETATM   24  C   UNL     1      -9.862   8.268  71.409  1.00  0.00    -0.184 A  
BRANCH  24  25
HETATM   25  O   UNL     1      -9.524   8.502  72.719  1.00  0.00    -0.257 OA 
BRANCH  25  26
HETATM   26  C   UNL     1      -8.169   8.334  73.125  1.00  0.00    -0.169 C  
HETATM   27  C   UNL     1      -8.159   7.624  74.472  1.00  0.00    -0.256 C  
ENDBRANCH  25  26
ENDBRANCH  24  25
BRANCH  21  28
HETATM   28  O   UNL     1     -10.596   6.171  72.226  1.00  0.00    -0.203 OA 
HETATM   29  C   UNL     1     -11.899   5.687  72.525  1.00  0.00    -0.134 C  
ENDBRANCH  21  28
ENDBRANCH   1  19
BRANCH   1  30
HETATM   30  C   UNL     1      -9.673   8.825  66.526  1.00  0.00    -0.259 C  
BRANCH  30  31
HETATM   31  S   UNL     1      -8.295   8.117  65.663  1.00  0.00    -0.149 S  
HETATM   32  O   UNL     1      -7.100   8.596  66.333  1.00  0.00    -0.077 OA 
HETATM   33  C   UNL     1      -8.275   8.830  64.034  1.00  0.00    -0.161 C  
HETATM   34  O   UNL     1      -8.526   6.696  65.510  1.00  0.00    -0.151 OA 
ENDBRANCH  30  31
ENDBRANCH   1  30
TORSDOF 9
ENDMDL
MODEL      110
REMARK 921   NORMALIZED FREE ENERGY PREDICTED BY IDOCK:   -5.37 KCAL/MOL
REMARK 922        TOTAL FREE ENERGY PREDICTED BY IDOCK:   -9.26 KCAL/MOL
REMARK 923 INTER-LIGAND FREE ENERGY PREDICTED BY IDOCK:   -7.56 KCAL/MOL
REMARK 924 INTRA-LIGAND FREE ENERGY PREDICTED BY IDOCK:   -1.70 KCAL/MOL
REMARK 927      BINDING AFFINITY PREDICTED BY RF-SCORE:    0.00 PKD
ROOT
HETATM    1  C   UNL     1      -9.372   6.477  68.786  1.00  0.00    -0.130 C  
ENDROOT
BRANCH   1   2
HETATM    2  N   UNL     1      -8.872   7.340  67.703  1.00  0.00    -0.124 N  
HETATM    3  C   UNL     1      -6.104   8.908  66.014  1.00  0.00    -0.052 A  
HETATM    4  C   UNL     1      -6.136   9.817  64.970  1.00  0.00    -0.092 A  
HETATM    5  O   UNL     1     -10.752   7.941  66.467  1.00  0.00    -0.087 OA 
HETATM    6  C   UNL     1      -7.360  10.126  64.348  1.00  0.00    -0.116 A  
HETATM    7  C   UNL     1      -7.526   7.472  67.531  1.00  0.00    -0.104 C  
HETATM    8  C   UNL     1      -9.553   7.957  66.667  1.00  0.00    -0.226 C  
HETATM    9  C   UNL     1      -8.581   9.507  64.707  1.00  0.00    -0.176 A  
HETATM   10  C   UNL     1      -8.537   8.663  65.824  1.00  0.00    -0.184 A  
HETATM   11  C   UNL     1      -7.309   8.374  66.416  1.00  0.00    -0.083 A  
HETATM   12  O   UNL     1      -6.623   6.934  68.150  1.00  0.00    -0.054 OA 
BRANCH   9  13
HETATM   13  N   UNL     1      -9.781   9.805  64.029  1.00  0.00    -0.449 NA 
HETATM   14  H   UNL     1     -10.098   9.134  63.330  1.00  0.00     0.000 HD 
BRANCH  13  15
HETATM   15  C   UNL     1     -10.515  10.853  64.216  1.00  0.00    -0.335 C  
HETATM   16  C   UNL     1     -10.808  11.725  65.402  1.00  0.00    -0.347 C  
HETATM   17  O   UNL     1     -11.211  11.281  63.148  1.00  0.00    -0.829 OA 
HETATM   18  H   UNL     1     -11.751  12.050  63.285  1.00  0.00     0.000 HD 
ENDBRANCH  13  15
ENDBRANCH   9  13
ENDBRANCH   1   2
BRANCH   1  19
HETATM   19  C   UNL     1     -10.529   7.075  69.609  1.00  0.00    -0.238 A  
HETATM   20  C   UNL     1     -11.475   6.245  70.222  1.00  0.00    -0.428 A  
HETATM   21  C   UNL     1     -12.265   8.078  71.609  1.00  0.00    -0.307 A  
HETATM   22  C   UNL     1     -10.544   8.453  69.933  1.00  0.00    -0.228 A  
HETATM   23  C   UNL     1     -12.327   6.739  71.215  1.00  0.00    -0.395 A  
HETATM   24  C   UNL     1     -11.399   8.958  70.929  1.00  0.00    -0.283 A  
BRANCH  24  25
HETATM   25  O   UNL     1     -11.438  10.264  71.352  1.00  0.00    -0.278 OA 
BRANCH  25  26
HETATM   26  C   UNL     1     -12.189  11.212  70.600  1.00  0.00    -0.397 C  
HETATM   27  C   UNL     1     -12.949  12.100  71.576  1.00  0.00    -0.398 C  
ENDBRANCH  25  26
ENDBRANCH  24  25
BRANCH  21  28
HETATM   28  O   UNL     1     -12.994   8.611  72.644  1.00  0.00    -0.352 OA 
HETATM   29  C   UNL     1     -14.391   8.781  72.440  1.00  0.00    -0.332 C  
ENDBRANCH  21  28
ENDBRANCH   1  19
BRANCH   1  30
HETATM   30  C   UNL     1      -9.734   5.040  68.408  1.00  0.00    -0.152 C  
BRANCH  30  31
HETATM   31  S   UNL     1      -8.391   3.881  68.406  1.00  0.00    -0.092 S  
HETATM   32  O   UNL     1      -7.747   3.999  67.112  1.00  0.00    -0.083 OA 
HETATM   33  C   UNL     1      -9.104   2.253  68.465  1.00  0.00    -0.157 C  
HETATM   34  O   UNL     1      -7.624   4.061  69.622  1.00  0.00    -0.052 OA 
ENDBRANCH  30  31
ENDBRANCH   1  30
TORSDOF 9
ENDMDL
MODEL      111
REMARK 921   NORMALIZED FREE ENERGY PREDICTED BY IDOCK:   -5.36 KCAL/MOL
REMARK 922        TOTAL FREE ENERGY PREDICTED BY IDOCK:   -9.23 KCAL/MOL
REMARK 923 INTER-LIGAND FREE ENERGY PREDICTED BY IDOCK:   -7.89 KCAL/MOL
REMARK 924 INTRA-LIGAND FREE ENERGY PREDICTED BY IDOCK:   -1.35 KCAL/MOL
REMARK 927      BINDING AFFINITY PREDICTED BY RF-SCORE:    0.00 PKD
ROOT
HETATM    1  C   UNL     1     -10.526  12.301  67.137  1.00  0.00    -0.219 C  
ENDROOT
BRANCH   1   2
HETATM    2  N   UNL     1     -10.336  11.406  68.290  1.00  0.00    -0.186 N  
HETATM    3  C   UNL     1     -11.726   9.617  71.090  1.00  0.00    -0.450 A  
HETATM    4  C   UNL     1     -11.061   8.892  72.064  1.00  0.00    -0.421 A  
HETATM    5  O   UNL     1      -8.078  10.837  68.271  1.00  0.00    -0.111 OA 
HETATM    6  C   UNL     1      -9.676   8.671  71.949  1.00  0.00    -0.383 A  
HETATM    7  C   UNL     1     -11.431  10.975  68.980  1.00  0.00    -0.299 C  
HETATM    8  C   UNL     1      -9.198  10.756  68.737  1.00  0.00    -0.189 C  
HETATM    9  C   UNL     1      -8.917   9.117  70.840  1.00  0.00    -0.237 A  
HETATM   10  C   UNL     1      -9.594   9.926  69.919  1.00  0.00    -0.265 A  
HETATM   11  C   UNL     1     -10.966  10.124  70.059  1.00  0.00    -0.364 A  
HETATM   12  O   UNL     1     -12.608  11.204  68.760  1.00  0.00    -0.345 OA 
BRANCH   9  13
HETATM   13  N   UNL     1      -7.540   8.835  70.733  1.00  0.00    -0.082 NA 
HETATM   14  H   UNL     1      -7.042   9.246  69.944  1.00  0.00     0.000 HD 
BRANCH  13  15
HETATM   15  C   UNL     1      -6.852   8.102  71.547  1.00  0.00    -0.060 C  
HETATM   16  C   UNL     1      -6.173   8.357  72.862  1.00  0.00    -0.091 C  
HETATM   17  O   UNL     1      -6.649   6.830  71.164  1.00  0.00    -0.051 OA 
HETATM   18  H   UNL     1      -6.144   6.291  71.762  1.00  0.00     0.000 HD 
ENDBRANCH  13  15
ENDBRANCH   9  13
ENDBRANCH   1   2
BRANCH   1  19
HETATM   19  C   UNL     1     -10.219  13.786  67.412  1.00  0.00    -0.252 A  
HETATM   20  C   UNL     1     -11.160  14.778  67.116  1.00  0.00    -0.333 A  
HETATM   21  C   UNL     1      -9.951  16.402  68.461  1.00  0.00    -0.239 A  
HETATM   22  C   UNL     1      -9.070  14.157  68.152  1.00  0.00    -0.193 A  
HETATM   23  C   UNL     1     -11.031  16.068  67.640  1.00  0.00    -0.284 A  
HETATM   24  C   UNL     1      -8.933  15.453  68.681  1.00  0.00    -0.191 A  
BRANCH  24  25
HETATM   25  O   UNL     1      -7.888  15.883  69.462  1.00  0.00    -0.226 OA 
BRANCH  25  26
HETATM   26  C   UNL     1      -6.693  15.109  69.504  1.00  0.00    -0.171 C  
HETATM   27  C   UNL     1      -5.657  15.874  70.315  1.00  0.00    -0.163 C  
ENDBRANCH  25  26
ENDBRANCH  24  25
BRANCH  21  28
HETATM   28  O   UNL     1      -9.811  17.613  69.095  1.00  0.00    -0.248 OA 
HETATM   29  C   UNL     1     -10.065  18.784  68.330  1.00  0.00    -0.393 C  
ENDBRANCH  21  28
ENDBRANCH   1  19
BRANCH   1  30
HETATM   30  C   UNL     1      -9.842  11.895  65.831  1.00  0.00    -0.237 C  
BRANCH  30  31
HETATM   31  S   UNL     1     -10.775  12.181  64.349  1.00  0.00    -0.352 S  
HETATM   32  O   UNL     1     -10.376  13.487  63.858  1.00  0.00    -0.199 OA 
HETATM   33  C   UNL     1     -12.482  12.325  64.825  1.00  0.00    -0.302 C  
HETATM   34  O   UNL     1     -10.660  11.014  63.499  1.00  0.00    -0.350 OA 
ENDBRANCH  30  31
ENDBRANCH   1  30
TORSDOF 9
ENDMDL
MODEL      112
REMARK 921   NORMALIZED FREE ENERGY PREDICTED BY IDOCK:   -5.36 KCAL/MOL
REMARK 922        TOTAL FREE ENERGY PREDICTED BY IDOCK:   -9.23 KCAL/MOL
REMARK 923 INTER-LIGAND FREE ENERGY PREDICTED BY IDOCK:   -7.85 KCAL/MOL
REMARK 924 INTRA-LIGAND FREE ENERGY PREDICTED BY IDOCK:   -1.39 KCAL/MOL
REMARK 927      BINDING AFFINITY PREDICTED BY RF-SCORE:    0.00 PKD
ROOT
HETATM    1  C   UNL     1     -10.506   9.010  69.691  1.00  0.00    -0.222 C  
ENDROOT
BRANCH   1   2
HETATM    2  N   UNL     1     -10.877  10.193  68.898  1.00  0.00    -0.215 N  
HETATM    3  C   UNL     1     -11.252  11.782  65.687  1.00  0.00    -0.324 A  
HETATM    4  C   UNL     1     -11.586  13.097  65.412  1.00  0.00    -0.362 A  
HETATM    5  O   UNL     1     -11.617  11.772  70.442  1.00  0.00    -0.237 OA 
HETATM    6  C   UNL     1     -11.965  13.958  66.459  1.00  0.00    -0.470 A  
HETATM    7  C   UNL     1     -10.889  10.100  67.537  1.00  0.00    -0.290 C  
HETATM    8  C   UNL     1     -11.398  11.411  69.302  1.00  0.00    -0.289 C  
HETATM    9  C   UNL     1     -12.074  13.529  67.803  1.00  0.00    -0.280 A  
HETATM   10  C   UNL     1     -11.643  12.223  68.068  1.00  0.00    -0.408 A  
HETATM   11  C   UNL     1     -11.276  11.395  67.009  1.00  0.00    -0.350 A  
HETATM   12  O   UNL     1     -10.657   9.128  66.839  1.00  0.00    -0.238 OA 
BRANCH   9  13
HETATM   13  N   UNL     1     -12.505  14.405  68.819  1.00  0.00    -0.558 NA 
HETATM   14  H   UNL     1     -13.510  14.482  68.972  1.00  0.00     0.000 HD 
BRANCH  13  15
HETATM   15  C   UNL     1     -11.738  15.122  69.576  1.00  0.00    -0.327 C  
HETATM   16  C   UNL     1     -10.921  16.362  69.358  1.00  0.00    -0.325 C  
HETATM   17  O   UNL     1     -11.586  14.687  70.839  1.00  0.00    -0.378 OA 
HETATM   18  H   UNL     1     -11.023  15.213  71.395  1.00  0.00     0.000 HD 
ENDBRANCH  13  15
ENDBRANCH   9  13
ENDBRANCH   1   2
BRANCH   1  19
HETATM   19  C   UNL     1      -9.092   8.463  69.415  1.00  0.00    -0.154 A  
HETATM   20  C   UNL     1      -8.913   7.180  68.883  1.00  0.00    -0.129 A  
HETATM   21  C   UNL     1      -6.599   7.677  68.327  1.00  0.00    -0.054 A  
HETATM   22  C   UNL     1      -7.963   9.312  69.500  1.00  0.00    -0.098 A  
HETATM   23  C   UNL     1      -7.683   6.795  68.339  1.00  0.00    -0.106 A  
HETATM   24  C   UNL     1      -6.723   8.931  68.957  1.00  0.00    -0.052 A  
BRANCH  24  25
HETATM   25  O   UNL     1      -5.594   9.713  68.937  1.00  0.00    -0.037 OA 
BRANCH  25  26
HETATM   26  C   UNL     1      -5.697  11.066  68.505  1.00  0.00    -0.043 C  
HETATM   27  C   UNL     1      -5.336  11.970  69.676  1.00  0.00    -0.073 C  
ENDBRANCH  25  26
ENDBRANCH  24  25
BRANCH  21  28
HETATM   28  O   UNL     1      -5.396   7.409  67.720  1.00  0.00    -0.023 OA 
HETATM   29  C   UNL     1      -5.386   7.309  66.302  1.00  0.00    -0.024 C  
ENDBRANCH  21  28
ENDBRANCH   1  19
BRANCH   1  30
HETATM   30  C   UNL     1     -10.705   9.107  71.204  1.00  0.00    -0.310 C  
BRANCH  30  31
HETATM   31  S   UNL     1     -11.899   7.993  71.899  1.00  0.00    -0.328 S  
HETATM   32  O   UNL     1     -12.242   7.052  70.849  1.00  0.00    -0.364 OA 
HETATM   33  C   UNL     1     -13.369   8.938  72.225  1.00  0.00    -0.449 C  
HETATM   34  O   UNL     1     -11.399   7.517  73.172  1.00  0.00    -0.331 OA 
ENDBRANCH  30  31
ENDBRANCH   1  30
TORSDOF 9
ENDMDL
MODEL      113
REMARK 921   NORMALIZED FREE ENERGY PREDICTED BY IDOCK:   -5.35 KCAL/MOL
REMARK 922        TOTAL FREE ENERGY PREDICTED BY IDOCK:   -9.23 KCAL/MOL
REMARK 923 INTER-LIGAND FREE ENERGY PREDICTED BY IDOCK:   -7.66 KCAL/MOL
REMARK 924 INTRA-LIGAND FREE ENERGY PREDICTED BY IDOCK:   -1.57 KCAL/MOL
REMARK 927      BINDING AFFINITY PREDICTED BY RF-SCORE:    0.00 PKD
ROOT
HETATM    1  C   UNL     1     -10.503   7.088  70.716  1.00  0.00    -0.212 C  
ENDROOT
BRANCH   1   2
HETATM    2  N   UNL     1     -10.827   8.514  70.547  1.00  0.00    -0.225 N  
HETATM    3  C   UNL     1     -12.860  11.357  71.413  1.00  0.00    -0.502 A  
HETATM    4  C   UNL     1     -12.849  12.625  70.856  1.00  0.00    -0.178 A  
HETATM    5  O   UNL     1      -9.251   9.335  69.041  1.00  0.00    -0.140 OA 
HETATM    6  C   UNL     1     -11.863  12.967  69.913  1.00  0.00    -0.373 A  
HETATM    7  C   UNL     1     -11.775   9.077  71.349  1.00  0.00    -0.322 C  
HETATM    8  C   UNL     1     -10.202   9.486  69.784  1.00  0.00    -0.228 C  
HETATM    9  C   UNL     1     -10.828  12.080  69.529  1.00  0.00     0.094 A  
HETATM   10  C   UNL     1     -10.916  10.778  70.035  1.00  0.00    -0.280 A  
HETATM   11  C   UNL     1     -11.903  10.472  70.970  1.00  0.00    -0.438 A  
HETATM   12  O   UNL     1     -12.408   8.562  72.255  1.00  0.00    -0.355 OA 
BRANCH   9  13
HETATM   13  N   UNL     1      -9.827  12.473  68.617  1.00  0.00    -0.397 NA 
HETATM   14  H   UNL     1      -8.929  12.756  69.007  1.00  0.00     0.000 HD 
BRANCH  13  15
HETATM   15  C   UNL     1      -9.947  12.506  67.329  1.00  0.00    -0.211 C  
HETATM   16  C   UNL     1     -10.953  11.954  66.361  1.00  0.00    -0.337 C  
HETATM   17  O   UNL     1      -8.966  13.138  66.663  1.00  0.00    -0.353 OA 
HETATM   18  H   UNL     1      -9.054  13.162  65.718  1.00  0.00     0.000 HD 
ENDBRANCH  13  15
ENDBRANCH   9  13
ENDBRANCH   1   2
BRANCH   1  19
HETATM   19  C   UNL     1     -10.587   6.247  69.428  1.00  0.00    -0.330 A  
HETATM   20  C   UNL     1     -11.137   6.782  68.258  1.00  0.00    -0.222 A  
HETATM   21  C   UNL     1     -10.192   4.982  66.926  1.00  0.00    -0.229 A  
HETATM   22  C   UNL     1      -9.928   4.996  69.343  1.00  0.00    -0.290 A  
HETATM   23  C   UNL     1     -10.936   6.161  67.021  1.00  0.00    -0.414 A  
HETATM   24  C   UNL     1      -9.724   4.365  68.102  1.00  0.00    -0.119 A  
BRANCH  24  25
HETATM   25  O   UNL     1      -9.043   3.186  67.917  1.00  0.00    -0.140 OA 
BRANCH  25  26
HETATM   26  C   UNL     1      -7.947   2.879  68.773  1.00  0.00    -0.056 C  
HETATM   27  C   UNL     1      -6.674   3.408  68.127  1.00  0.00    -0.045 C  
ENDBRANCH  25  26
ENDBRANCH  24  25
BRANCH  21  28
HETATM   28  O   UNL     1      -9.865   4.371  65.739  1.00  0.00    -0.188 OA 
HETATM   29  C   UNL     1      -8.847   4.975  64.952  1.00  0.00    -0.140 C  
ENDBRANCH  21  28
ENDBRANCH   1  19
BRANCH   1  30
HETATM   30  C   UNL     1      -9.190   6.761  71.429  1.00  0.00    -0.153 C  
BRANCH  30  31
HETATM   31  S   UNL     1      -9.151   7.100  73.170  1.00  0.00    -0.152 S  
HETATM   32  O   UNL     1      -8.749   8.487  73.309  1.00  0.00    -0.337 OA 
HETATM   33  C   UNL     1      -7.837   6.124  73.864  1.00  0.00    -0.096 C  
HETATM   34  O   UNL     1     -10.391   6.636  73.758  1.00  0.00    -0.288 OA 
ENDBRANCH  30  31
ENDBRANCH   1  30
TORSDOF 9
ENDMDL
MODEL      114
REMARK 921   NORMALIZED FREE ENERGY PREDICTED BY IDOCK:   -5.35 KCAL/MOL
REMARK 922        TOTAL FREE ENERGY PREDICTED BY IDOCK:   -9.22 KCAL/MOL
REMARK 923 INTER-LIGAND FREE ENERGY PREDICTED BY IDOCK:   -7.90 KCAL/MOL
REMARK 924 INTRA-LIGAND FREE ENERGY PREDICTED BY IDOCK:   -1.33 KCAL/MOL
REMARK 927      BINDING AFFINITY PREDICTED BY RF-SCORE:    0.00 PKD
ROOT
HETATM    1  C   UNL     1      -9.247   7.729  67.283  1.00  0.00    -0.139 C  
ENDROOT
BRANCH   1   2
HETATM    2  N   UNL     1      -9.400   7.755  68.747  1.00  0.00    -0.146 N  
HETATM    3  C   UNL     1      -8.048   8.536  71.993  1.00  0.00    -0.175 A  
HETATM    4  C   UNL     1      -8.589   8.265  73.238  1.00  0.00    -0.273 A  
HETATM    5  O   UNL     1     -11.548   6.959  69.164  1.00  0.00    -0.034 OA 
HETATM    6  C   UNL     1      -9.887   7.731  73.337  1.00  0.00    -0.346 A  
HETATM    7  C   UNL     1      -8.429   8.344  69.503  1.00  0.00    -0.124 C  
HETATM    8  C   UNL     1     -10.483   7.411  69.538  1.00  0.00    -0.232 C  
HETATM    9  C   UNL     1     -10.708   7.497  72.208  1.00  0.00    -0.250 A  
HETATM   10  C   UNL     1     -10.105   7.691  70.959  1.00  0.00    -0.196 A  
HETATM   11  C   UNL     1      -8.819   8.224  70.895  1.00  0.00    -0.171 A  
HETATM   12  O   UNL     1      -7.415   8.910  69.132  1.00  0.00    -0.070 OA 
BRANCH   9  13
HETATM   13  N   UNL     1     -12.023   7.007  72.346  1.00  0.00    -0.479 NA 
HETATM   14  H   UNL     1     -12.128   6.019  72.574  1.00  0.00     0.000 HD 
BRANCH  13  15
HETATM   15  C   UNL     1     -13.107   7.700  72.211  1.00  0.00     0.035 C  
HETATM   16  C   UNL     1     -14.306   7.597  71.314  1.00  0.00    -0.438 C  
HETATM   17  O   UNL     1     -13.221   8.776  73.009  1.00  0.00    -0.805 OA 
HETATM   18  H   UNL     1     -14.017   9.284  72.910  1.00  0.00     0.000 HD 
ENDBRANCH  13  15
ENDBRANCH   9  13
ENDBRANCH   1   2
BRANCH   1  19
HETATM   19  C   UNL     1      -9.537   9.068  66.577  1.00  0.00    -0.286 A  
HETATM   20  C   UNL     1      -9.223   9.246  65.225  1.00  0.00    -0.275 A  
HETATM   21  C   UNL     1     -10.606  11.242  65.112  1.00  0.00    -0.280 A  
HETATM   22  C   UNL     1     -10.307  10.067  67.220  1.00  0.00    -0.293 A  
HETATM   23  C   UNL     1      -9.757  10.316  64.500  1.00  0.00    -0.395 A  
HETATM   24  C   UNL     1     -10.846  11.147  66.497  1.00  0.00    -0.245 A  
BRANCH  24  25
HETATM   25  O   UNL     1     -11.654  12.126  67.022  1.00  0.00    -0.376 OA 
BRANCH  25  26
HETATM   26  C   UNL     1     -11.648  12.346  68.429  1.00  0.00    -0.324 C  
HETATM   27  C   UNL     1     -11.607  13.848  68.677  1.00  0.00    -0.363 C  
ENDBRANCH  25  26
ENDBRANCH  24  25
BRANCH  21  28
HETATM   28  O   UNL     1     -11.249  12.256  64.444  1.00  0.00    -0.304 OA 
HETATM   29  C   UNL     1     -12.172  11.887  63.427  1.00  0.00    -0.450 C  
ENDBRANCH  21  28
ENDBRANCH   1  19
BRANCH   1  30
HETATM   30  C   UNL     1      -7.934   7.165  66.739  1.00  0.00    -0.108 C  
BRANCH  30  31
HETATM   31  S   UNL     1      -7.880   5.404  66.526  1.00  0.00    -0.101 S  
HETATM   32  O   UNL     1      -9.253   4.969  66.354  1.00  0.00    -0.130 OA 
HETATM   33  C   UNL     1      -7.321   4.707  68.063  1.00  0.00    -0.066 C  
HETATM   34  O   UNL     1      -6.884   5.092  65.522  1.00  0.00    -0.058 OA 
ENDBRANCH  30  31
ENDBRANCH   1  30
TORSDOF 9
ENDMDL
MODEL      115
REMARK 921   NORMALIZED FREE ENERGY PREDICTED BY IDOCK:   -5.33 KCAL/MOL
REMARK 922        TOTAL FREE ENERGY PREDICTED BY IDOCK:   -9.20 KCAL/MOL
REMARK 923 INTER-LIGAND FREE ENERGY PREDICTED BY IDOCK:   -7.24 KCAL/MOL
REMARK 924 INTRA-LIGAND FREE ENERGY PREDICTED BY IDOCK:   -1.96 KCAL/MOL
REMARK 927      BINDING AFFINITY PREDICTED BY RF-SCORE:    0.00 PKD
ROOT
HETATM    1  C   UNL     1      -9.578   9.397  70.276  1.00  0.00    -0.249 C  
ENDROOT
BRANCH   1   2
HETATM    2  N   UNL     1      -8.942   8.615  69.203  1.00  0.00    -0.141 N  
HETATM    3  C   UNL     1      -5.951   7.426  67.586  1.00  0.00    -0.038 A  
HETATM    4  C   UNL     1      -5.838   6.706  66.409  1.00  0.00    -0.021 A  
HETATM    5  O   UNL     1     -10.696   7.653  68.010  1.00  0.00    -0.178 OA 
HETATM    6  C   UNL     1      -6.995   6.229  65.765  1.00  0.00    -0.057 A  
HETATM    7  C   UNL     1      -7.586   8.466  69.207  1.00  0.00    -0.089 C  
HETATM    8  C   UNL     1      -9.510   7.826  68.217  1.00  0.00    -0.147 C  
HETATM    9  C   UNL     1      -8.296   6.407  66.294  1.00  0.00    -0.123 A  
HETATM   10  C   UNL     1      -8.390   7.216  67.433  1.00  0.00    -0.119 A  
HETATM   11  C   UNL     1      -7.226   7.671  68.049  1.00  0.00    -0.097 A  
HETATM   12  O   UNL     1      -6.779   8.877  70.022  1.00  0.00    -0.040 OA 
BRANCH   9  13
HETATM   13  N   UNL     1      -9.429   5.873  65.647  1.00  0.00    -0.369 NA 
HETATM   14  H   UNL     1      -9.760   6.358  64.814  1.00  0.00     0.000 HD 
BRANCH  13  15
HETATM   15  C   UNL     1     -10.087   4.822  66.017  1.00  0.00    -0.257 C  
HETATM   16  C   UNL     1      -9.740   3.605  66.825  1.00  0.00    -0.098 C  
HETATM   17  O   UNL     1     -11.358   4.742  65.587  1.00  0.00    -0.900 OA 
HETATM   18  H   UNL     1     -11.840   3.971  65.858  1.00  0.00     0.000 HD 
ENDBRANCH  13  15
ENDBRANCH   9  13
ENDBRANCH   1   2
BRANCH   1  19
HETATM   19  C   UNL     1     -10.461  10.563  69.793  1.00  0.00    -0.245 A  
HETATM   20  C   UNL     1     -11.583  10.963  70.529  1.00  0.00    -0.397 A  
HETATM   21  C   UNL     1     -11.719  13.049  69.287  1.00  0.00    -0.320 A  
HETATM   22  C   UNL     1     -10.046  11.380  68.714  1.00  0.00    -0.199 A  
HETATM   23  C   UNL     1     -12.199  12.195  70.283  1.00  0.00    -0.344 A  
HETATM   24  C   UNL     1     -10.663  12.619  68.460  1.00  0.00    -0.248 A  
BRANCH  24  25
HETATM   25  O   UNL     1     -10.287  13.503  67.478  1.00  0.00    -0.234 OA 
BRANCH  25  26
HETATM   26  C   UNL     1      -8.939  13.960  67.438  1.00  0.00    -0.210 C  
HETATM   27  C   UNL     1      -8.891  15.361  68.033  1.00  0.00    -0.165 C  
ENDBRANCH  25  26
ENDBRANCH  24  25
BRANCH  21  28
HETATM   28  O   UNL     1     -12.205  14.313  69.057  1.00  0.00    -0.311 OA 
HETATM   29  C   UNL     1     -12.049  15.272  70.095  1.00  0.00    -0.358 C  
ENDBRANCH  21  28
ENDBRANCH   1  19
BRANCH   1  30
HETATM   30  C   UNL     1     -10.347   8.608  71.337  1.00  0.00    -0.261 C  
BRANCH  30  31
HETATM   31  S   UNL     1      -9.358   7.655  72.459  1.00  0.00    -0.180 S  
HETATM   32  O   UNL     1      -9.010   6.431  71.763  1.00  0.00    -0.140 OA 
HETATM   33  C   UNL     1     -10.409   7.181  73.812  1.00  0.00    -0.347 C  
HETATM   34  O   UNL     1      -8.319   8.509  72.998  1.00  0.00    -0.358 OA 
ENDBRANCH  30  31
ENDBRANCH   1  30
TORSDOF 9
ENDMDL
MODEL      116
REMARK 921   NORMALIZED FREE ENERGY PREDICTED BY IDOCK:   -5.32 KCAL/MOL
REMARK 922        TOTAL FREE ENERGY PREDICTED BY IDOCK:   -9.17 KCAL/MOL
REMARK 923 INTER-LIGAND FREE ENERGY PREDICTED BY IDOCK:   -7.95 KCAL/MOL
REMARK 924 INTRA-LIGAND FREE ENERGY PREDICTED BY IDOCK:   -1.23 KCAL/MOL
REMARK 927      BINDING AFFINITY PREDICTED BY RF-SCORE:    0.00 PKD
ROOT
HETATM    1  C   UNL     1      -8.347  10.212  67.086  1.00  0.00    -0.125 C  
ENDROOT
BRANCH   1   2
HETATM    2  N   UNL     1      -9.205  11.232  66.460  1.00  0.00    -0.182 N  
HETATM    3  C   UNL     1     -11.597  12.143  63.927  1.00  0.00    -0.532 A  
HETATM    4  C   UNL     1     -12.111  13.396  63.640  1.00  0.00    -0.513 A  
HETATM    5  O   UNL     1      -8.919  13.156  67.740  1.00  0.00    -0.174 OA 
HETATM    6  C   UNL     1     -11.809  14.486  64.477  1.00  0.00    -0.459 A  
HETATM    7  C   UNL     1     -10.056  10.858  65.462  1.00  0.00    -0.267 C  
HETATM    8  C   UNL     1      -9.436  12.548  66.822  1.00  0.00    -0.231 C  
HETATM    9  C   UNL     1     -11.029  14.358  65.651  1.00  0.00    -0.314 A  
HETATM   10  C   UNL     1     -10.446  13.103  65.868  1.00  0.00    -0.288 A  
HETATM   11  C   UNL     1     -10.768  12.043  65.023  1.00  0.00    -0.341 A  
HETATM   12  O   UNL     1     -10.250   9.745  65.004  1.00  0.00    -0.126 OA 
BRANCH   9  13
HETATM   13  N   UNL     1     -10.786  15.462  66.493  1.00  0.00    -0.310 NA 
HETATM   14  H   UNL     1     -11.388  15.563  67.311  1.00  0.00     0.000 HD 
BRANCH  13  15
HETATM   15  C   UNL     1      -9.868  16.357  66.322  1.00  0.00    -0.314 C  
HETATM   16  C   UNL     1      -8.561  16.654  66.997  1.00  0.00    -0.220 C  
HETATM   17  O   UNL     1     -10.103  17.262  65.355  1.00  0.00    -0.574 OA 
HETATM   18  H   UNL     1      -9.429  17.919  65.230  1.00  0.00     0.000 HD 
ENDBRANCH  13  15
ENDBRANCH   9  13
ENDBRANCH   1   2
BRANCH   1  19
HETATM   19  C   UNL     1      -8.979   9.478  68.284  1.00  0.00    -0.124 A  
HETATM   20  C   UNL     1      -9.393  10.186  69.418  1.00  0.00    -0.235 A  
HETATM   21  C   UNL     1     -10.683   8.280  70.202  1.00  0.00    -0.239 A  
HETATM   22  C   UNL     1      -9.340   8.113  68.182  1.00  0.00    -0.139 A  
HETATM   23  C   UNL     1     -10.241   9.596  70.362  1.00  0.00    -0.348 A  
HETATM   24  C   UNL     1     -10.191   7.513  69.128  1.00  0.00    -0.202 A  
BRANCH  24  25
HETATM   25  O   UNL     1     -10.644   6.217  69.075  1.00  0.00    -0.217 OA 
BRANCH  25  26
HETATM   26  C   UNL     1     -10.621   5.527  67.829  1.00  0.00    -0.154 C  
HETATM   27  C   UNL     1      -9.484   4.514  67.865  1.00  0.00    -0.200 C  
ENDBRANCH  25  26
ENDBRANCH  24  25
BRANCH  21  28
HETATM   28  O   UNL     1     -11.595   7.669  71.028  1.00  0.00    -0.277 OA 
HETATM   29  C   UNL     1     -12.065   8.410  72.146  1.00  0.00    -0.373 C  
ENDBRANCH  21  28
ENDBRANCH   1  19
BRANCH   1  30
HETATM   30  C   UNL     1      -7.722   9.173  66.152  1.00  0.00    -0.095 C  
BRANCH  30  31
HETATM   31  S   UNL     1      -6.376   9.747  65.150  1.00  0.00    -0.101 S  
HETATM   32  O   UNL     1      -6.931  10.028  63.839  1.00  0.00    -0.123 OA 
HETATM   33  C   UNL     1      -5.260   8.380  64.939  1.00  0.00    -0.035 C  
HETATM   34  O   UNL     1      -5.665  10.777  65.878  1.00  0.00    -0.117 OA 
ENDBRANCH  30  31
ENDBRANCH   1  30
TORSDOF 9
ENDMDL
MODEL      117
REMARK 921   NORMALIZED FREE ENERGY PREDICTED BY IDOCK:   -5.31 KCAL/MOL
REMARK 922        TOTAL FREE ENERGY PREDICTED BY IDOCK:   -9.16 KCAL/MOL
REMARK 923 INTER-LIGAND FREE ENERGY PREDICTED BY IDOCK:   -7.53 KCAL/MOL
REMARK 924 INTRA-LIGAND FREE ENERGY PREDICTED BY IDOCK:   -1.63 KCAL/MOL
REMARK 927      BINDING AFFINITY PREDICTED BY RF-SCORE:    0.00 PKD
ROOT
HETATM    1  C   UNL     1      -9.257  10.804  68.521  1.00  0.00    -0.174 C  
ENDROOT
BRANCH   1   2
HETATM    2  N   UNL     1      -9.636  10.006  69.699  1.00  0.00    -0.225 N  
HETATM    3  C   UNL     1      -8.679   7.869  72.435  1.00  0.00    -0.206 A  
HETATM    4  C   UNL     1      -9.496   7.207  73.336  1.00  0.00    -0.234 A  
HETATM    5  O   UNL     1     -11.934  10.300  69.938  1.00  0.00    -0.226 OA 
HETATM    6  C   UNL     1     -10.883   7.444  73.330  1.00  0.00    -0.417 A  
HETATM    7  C   UNL     1      -8.654   9.445  70.461  1.00  0.00    -0.223 C  
HETATM    8  C   UNL     1     -10.870   9.838  70.304  1.00  0.00    -0.301 C  
HETATM    9  C   UNL     1     -11.497   8.382  72.466  1.00  0.00    -0.352 A  
HETATM   10  C   UNL     1     -10.664   8.968  71.504  1.00  0.00    -0.421 A  
HETATM   11  C   UNL     1      -9.294   8.715  71.539  1.00  0.00    -0.319 A  
HETATM   12  O   UNL     1      -7.445   9.531  70.328  1.00  0.00    -0.107 OA 
BRANCH   9  13
HETATM   13  N   UNL     1     -12.883   8.631  72.520  1.00  0.00    -0.557 NA 
HETATM   14  H   UNL     1     -13.210   9.281  73.235  1.00  0.00     0.000 HD 
BRANCH  13  15
HETATM   15  C   UNL     1     -13.777   8.108  71.745  1.00  0.00    -0.374 C  
HETATM   16  C   UNL     1     -14.379   6.739  71.622  1.00  0.00    -0.284 C  
HETATM   17  O   UNL     1     -14.292   8.923  70.809  1.00  0.00    -0.550 OA 
HETATM   18  H   UNL     1     -14.949   8.539  70.239  1.00  0.00     0.000 HD 
ENDBRANCH  13  15
ENDBRANCH   9  13
ENDBRANCH   1   2
BRANCH   1  19
HETATM   19  C   UNL     1      -9.018   9.989  67.236  1.00  0.00    -0.144 A  
HETATM   20  C   UNL     1      -8.203  10.487  66.213  1.00  0.00    -0.147 A  
HETATM   21  C   UNL     1      -8.064   8.292  65.180  1.00  0.00    -0.142 A  
HETATM   22  C   UNL     1      -9.446   8.642  67.149  1.00  0.00    -0.207 A  
HETATM   23  C   UNL     1      -7.726   9.647  65.202  1.00  0.00    -0.117 A  
HETATM   24  C   UNL     1      -8.972   7.791  66.134  1.00  0.00    -0.163 A  
BRANCH  24  25
HETATM   25  O   UNL     1      -9.283   6.459  66.008  1.00  0.00    -0.143 OA 
BRANCH  25  26
HETATM   26  C   UNL     1      -9.128   5.604  67.136  1.00  0.00    -0.111 C  
HETATM   27  C   UNL     1      -7.653   5.578  67.516  1.00  0.00    -0.089 C  
ENDBRANCH  25  26
ENDBRANCH  24  25
BRANCH  21  28
HETATM   28  O   UNL     1      -7.553   7.385  64.282  1.00  0.00    -0.097 OA 
HETATM   29  C   UNL     1      -7.735   7.662  62.899  1.00  0.00    -0.124 C  
ENDBRANCH  21  28
ENDBRANCH   1  19
BRANCH   1  30
HETATM   30  C   UNL     1     -10.151  11.997  68.182  1.00  0.00    -0.200 C  
BRANCH  30  31
HETATM   31  S   UNL     1      -9.315  13.541  67.928  1.00  0.00    -0.222 S  
HETATM   32  O   UNL     1      -7.977  13.377  68.464  1.00  0.00    -0.139 OA 
HETATM   33  C   UNL     1     -10.121  14.749  68.954  1.00  0.00    -0.237 C  
HETATM   34  O   UNL     1      -9.506  13.948  66.551  1.00  0.00    -0.276 OA 
ENDBRANCH  30  31
ENDBRANCH   1  30
TORSDOF 9
ENDMDL
MODEL      118
REMARK 921   NORMALIZED FREE ENERGY PREDICTED BY IDOCK:   -5.30 KCAL/MOL
REMARK 922        TOTAL FREE ENERGY PREDICTED BY IDOCK:   -9.15 KCAL/MOL
REMARK 923 INTER-LIGAND FREE ENERGY PREDICTED BY IDOCK:   -8.20 KCAL/MOL
REMARK 924 INTRA-LIGAND FREE ENERGY PREDICTED BY IDOCK:   -0.95 KCAL/MOL
REMARK 927      BINDING AFFINITY PREDICTED BY RF-SCORE:    0.00 PKD
ROOT
HETATM    1  C   UNL     1      -9.855  13.289  67.821  1.00  0.00    -0.224 C  
ENDROOT
BRANCH   1   2
HETATM    2  N   UNL     1      -9.056  14.493  68.105  1.00  0.00    -0.184 N  
HETATM    3  C   UNL     1      -6.145  16.003  69.594  1.00  0.00    -0.172 A  
HETATM    4  C   UNL     1      -5.830  17.347  69.695  1.00  0.00    -0.242 A  
HETATM    5  O   UNL     1     -10.178  16.246  67.059  1.00  0.00    -0.269 OA 
HETATM    6  C   UNL     1      -6.634  18.306  69.051  1.00  0.00    -0.263 A  
HETATM    7  C   UNL     1      -7.842  14.353  68.711  1.00  0.00    -0.138 C  
HETATM    8  C   UNL     1      -9.249  15.805  67.709  1.00  0.00    -0.197 C  
HETATM    9  C   UNL     1      -7.744  17.959  68.245  1.00  0.00    -0.279 A  
HETATM   10  C   UNL     1      -8.096  16.603  68.234  1.00  0.00    -0.198 A  
HETATM   11  C   UNL     1      -7.278  15.678  68.880  1.00  0.00    -0.146 A  
HETATM   12  O   UNL     1      -7.272  13.328  69.044  1.00  0.00    -0.090 OA 
BRANCH   9  13
HETATM   13  N   UNL     1      -8.498  18.942  67.573  1.00  0.00    -0.272 NA 
HETATM   14  H   UNL     1      -8.057  19.403  66.778  1.00  0.00     0.000 HD 
BRANCH  13  15
HETATM   15  C   UNL     1      -9.701  19.313  67.876  1.00  0.00    -0.338 C  
HETATM   16  C   UNL     1     -10.906  19.703  67.071  1.00  0.00    -0.518 C  
HETATM   17  O   UNL     1      -9.972  19.411  69.189  1.00  0.00    -0.480 OA 
HETATM   18  H   UNL     1     -10.855  19.683  69.411  1.00  0.00     0.000 HD 
ENDBRANCH  13  15
ENDBRANCH   9  13
ENDBRANCH   1   2
BRANCH   1  19
HETATM   19  C   UNL     1      -9.519  12.587  66.491  1.00  0.00    -0.240 A  
HETATM   20  C   UNL     1      -8.631  11.505  66.458  1.00  0.00    -0.172 A  
HETATM   21  C   UNL     1      -9.364  10.903  64.220  1.00  0.00    -0.228 A  
HETATM   22  C   UNL     1     -10.250  12.884  65.316  1.00  0.00    -0.294 A  
HETATM   23  C   UNL     1      -8.560  10.669  65.338  1.00  0.00    -0.185 A  
HETATM   24  C   UNL     1     -10.182  12.049  64.186  1.00  0.00    -0.339 A  
BRANCH  24  25
HETATM   25  O   UNL     1     -10.902  12.225  63.029  1.00  0.00    -0.271 OA 
BRANCH  25  26
HETATM   26  C   UNL     1     -12.159  12.891  63.090  1.00  0.00    -0.270 C  
HETATM   27  C   UNL     1     -13.154  11.971  63.782  1.00  0.00    -0.190 C  
ENDBRANCH  25  26
ENDBRANCH  24  25
BRANCH  21  28
HETATM   28  O   UNL     1      -9.426  10.071  63.128  1.00  0.00    -0.299 OA 
HETATM   29  C   UNL     1      -8.437   9.054  63.024  1.00  0.00    -0.190 C  
ENDBRANCH  21  28
ENDBRANCH   1  19
BRANCH   1  30
HETATM   30  C   UNL     1      -9.925  12.234  68.926  1.00  0.00     0.064 C  
BRANCH  30  31
HETATM   31  S   UNL     1     -11.547  11.627  69.312  1.00  0.00    -0.348 S  
HETATM   32  O   UNL     1     -12.237  12.705  69.994  1.00  0.00    -0.276 OA 
HETATM   33  C   UNL     1     -11.348  10.325  70.506  1.00  0.00    -0.341 C  
HETATM   34  O   UNL     1     -12.115  11.036  68.118  1.00  0.00    -0.610 OA 
ENDBRANCH  30  31
ENDBRANCH   1  30
TORSDOF 9
ENDMDL
MODEL      119
REMARK 921   NORMALIZED FREE ENERGY PREDICTED BY IDOCK:   -5.27 KCAL/MOL
REMARK 922        TOTAL FREE ENERGY PREDICTED BY IDOCK:   -9.11 KCAL/MOL
REMARK 923 INTER-LIGAND FREE ENERGY PREDICTED BY IDOCK:   -7.29 KCAL/MOL
REMARK 924 INTRA-LIGAND FREE ENERGY PREDICTED BY IDOCK:   -1.81 KCAL/MOL
REMARK 927      BINDING AFFINITY PREDICTED BY RF-SCORE:    0.00 PKD
ROOT
HETATM    1  C   UNL     1      -9.294  13.075  68.170  1.00  0.00    -0.217 C  
ENDROOT
BRANCH   1   2
HETATM    2  N   UNL     1      -9.231  12.269  66.939  1.00  0.00    -0.204 N  
HETATM    3  C   UNL     1     -10.330  11.676  63.561  1.00  0.00    -0.488 A  
HETATM    4  C   UNL     1     -10.024  10.611  62.731  1.00  0.00    -0.118 A  
HETATM    5  O   UNL     1      -7.630  10.628  67.350  1.00  0.00    -0.093 OA 
HETATM    6  C   UNL     1      -9.069   9.659  63.136  1.00  0.00    -0.228 A  
HETATM    7  C   UNL     1      -9.916  12.690  65.837  1.00  0.00    -0.264 C  
HETATM    8  C   UNL     1      -8.435  11.181  66.625  1.00  0.00    -0.164 C  
HETATM    9  C   UNL     1      -8.352   9.761  64.352  1.00  0.00    -0.168 A  
HETATM   10  C   UNL     1      -8.746  10.793  65.213  1.00  0.00    -0.183 A  
HETATM   11  C   UNL     1      -9.692  11.721  64.781  1.00  0.00    -0.184 A  
HETATM   12  O   UNL     1     -10.583  13.701  65.696  1.00  0.00    -0.280 OA 
BRANCH   9  13
HETATM   13  N   UNL     1      -7.367   8.816  64.703  1.00  0.00    -0.095 NA 
HETATM   14  H   UNL     1      -6.416   8.995  64.381  1.00  0.00     0.000 HD 
BRANCH  13  15
HETATM   15  C   UNL     1      -7.561   7.743  65.398  1.00  0.00    -0.089 C  
HETATM   16  C   UNL     1      -8.261   6.441  65.135  1.00  0.00    -0.134 C  
HETATM   17  O   UNL     1      -7.070   7.756  66.650  1.00  0.00    -0.075 OA 
HETATM   18  H   UNL     1      -7.213   6.967  67.160  1.00  0.00     0.000 HD 
ENDBRANCH  13  15
ENDBRANCH   9  13
ENDBRANCH   1   2
BRANCH   1  19
HETATM   19  C   UNL     1      -8.641  14.467  68.067  1.00  0.00    -0.166 A  
HETATM   20  C   UNL     1      -7.370  14.621  67.504  1.00  0.00    -0.220 A  
HETATM   21  C   UNL     1      -7.693  17.022  67.301  1.00  0.00    -0.171 A  
HETATM   22  C   UNL     1      -9.391  15.634  68.351  1.00  0.00    -0.195 A  
HETATM   23  C   UNL     1      -6.904  15.883  67.119  1.00  0.00    -0.199 A  
HETATM   24  C   UNL     1      -8.928  16.907  67.967  1.00  0.00    -0.224 A  
BRANCH  24  25
HETATM   25  O   UNL     1      -9.614  18.084  68.144  1.00  0.00    -0.278 OA 
BRANCH  25  26
HETATM   26  C   UNL     1     -10.797  18.315  67.386  1.00  0.00    -0.251 C  
HETATM   27  C   UNL     1     -10.543  19.490  66.451  1.00  0.00    -0.571 C  
ENDBRANCH  25  26
ENDBRANCH  24  25
BRANCH  21  28
HETATM   28  O   UNL     1      -7.349  18.276  66.856  1.00  0.00    -0.198 OA 
HETATM   29  C   UNL     1      -6.528  18.356  65.697  1.00  0.00    -0.279 C  
ENDBRANCH  21  28
ENDBRANCH   1  19
BRANCH   1  30
HETATM   30  C   UNL     1     -10.669  13.227  68.822  1.00  0.00    -0.227 C  
BRANCH  30  31
HETATM   31  S   UNL     1     -11.472  11.717  69.293  1.00  0.00    -0.325 S  
HETATM   32  O   UNL     1     -12.393  11.389  68.221  1.00  0.00    -0.506 OA 
HETATM   33  C   UNL     1     -12.470  12.077  70.719  1.00  0.00    -0.279 C  
HETATM   34  O   UNL     1     -10.460  10.765  69.702  1.00  0.00    -0.219 OA 
ENDBRANCH  30  31
ENDBRANCH   1  30
TORSDOF 9
ENDMDL
MODEL      120
REMARK 921   NORMALIZED FREE ENERGY PREDICTED BY IDOCK:   -5.27 KCAL/MOL
REMARK 922        TOTAL FREE ENERGY PREDICTED BY IDOCK:   -9.10 KCAL/MOL
REMARK 923 INTER-LIGAND FREE ENERGY PREDICTED BY IDOCK:   -8.31 KCAL/MOL
REMARK 924 INTRA-LIGAND FREE ENERGY PREDICTED BY IDOCK:   -0.79 KCAL/MOL
REMARK 927      BINDING AFFINITY PREDICTED BY RF-SCORE:    0.00 PKD
ROOT
HETATM    1  C   UNL     1      -9.530  14.934  68.489  1.00  0.00    -0.210 C  
ENDROOT
BRANCH   1   2
HETATM    2  N   UNL     1      -9.223  13.661  67.817  1.00  0.00    -0.205 N  
HETATM    3  C   UNL     1      -7.165  10.719  67.537  1.00  0.00    -0.090 A  
HETATM    4  C   UNL     1      -7.210   9.726  66.574  1.00  0.00    -0.094 A  
HETATM    5  O   UNL     1     -10.873  13.399  66.194  1.00  0.00    -0.279 OA 
HETATM    6  C   UNL     1      -8.242   9.724  65.617  1.00  0.00    -0.130 A  
HETATM    7  C   UNL     1      -8.241  12.864  68.326  1.00  0.00    -0.153 C  
HETATM    8  C   UNL     1      -9.889  13.009  66.792  1.00  0.00    -0.243 C  
HETATM    9  C   UNL     1      -9.289  10.676  65.617  1.00  0.00    -0.201 A  
HETATM   10  C   UNL     1      -9.170  11.721  66.542  1.00  0.00    -0.206 A  
HETATM   11  C   UNL     1      -8.138  11.692  67.478  1.00  0.00    -0.144 A  
HETATM   12  O   UNL     1      -7.562  13.037  69.324  1.00  0.00     0.166 OA 
BRANCH   9  13
HETATM   13  N   UNL     1     -10.335  10.615  64.673  1.00  0.00    -0.334 NA 
HETATM   14  H   UNL     1     -11.236  10.270  65.001  1.00  0.00     0.000 HD 
BRANCH  13  15
HETATM   15  C   UNL     1     -10.252  10.958  63.428  1.00  0.00    -0.295 C  
HETATM   16  C   UNL     1      -9.145  10.948  62.415  1.00  0.00    -0.336 C  
HETATM   17  O   UNL     1     -11.370  11.467  62.883  1.00  0.00    -0.814 OA 
HETATM   18  H   UNL     1     -11.310  11.718  61.969  1.00  0.00     0.000 HD 
ENDBRANCH  13  15
ENDBRANCH   9  13
ENDBRANCH   1   2
BRANCH   1  19
HETATM   19  C   UNL     1      -8.714  16.143  67.994  1.00  0.00    -0.176 A  
HETATM   20  C   UNL     1      -7.772  15.998  66.969  1.00  0.00    -0.264 A  
HETATM   21  C   UNL     1      -7.669  18.406  66.651  1.00  0.00    -0.235 A  
HETATM   22  C   UNL     1      -9.040  17.453  68.419  1.00  0.00    -0.274 A  
HETATM   23  C   UNL     1      -7.262  17.116  66.301  1.00  0.00    -0.308 A  
HETATM   24  C   UNL     1      -8.530  18.583  67.753  1.00  0.00    -0.270 A  
BRANCH  24  25
HETATM   25  O   UNL     1      -8.840  19.886  68.054  1.00  0.00    -0.314 OA 
BRANCH  25  26
HETATM   26  C   UNL     1      -9.856  20.546  67.304  1.00  0.00    -0.441 C  
HETATM   27  C   UNL     1     -10.950  19.535  66.990  1.00  0.00    -0.443 C  
ENDBRANCH  25  26
ENDBRANCH  24  25
BRANCH  21  28
HETATM   28  O   UNL     1      -7.293  19.542  65.976  1.00  0.00    -0.267 OA 
HETATM   29  C   UNL     1      -6.170  19.447  65.109  1.00  0.00    -0.272 C  
ENDBRANCH  21  28
ENDBRANCH   1  19
BRANCH   1  30
HETATM   30  C   UNL     1     -11.004  15.336  68.559  1.00  0.00    -0.266 C  
BRANCH  30  31
HETATM   31  S   UNL     1     -11.796  15.100  70.129  1.00  0.00    -0.340 S  
HETATM   32  O   UNL     1     -10.798  15.391  71.141  1.00  0.00    -0.310 OA 
HETATM   33  C   UNL     1     -12.166  13.367  70.273  1.00  0.00    -0.335 C  
HETATM   34  O   UNL     1     -13.057  15.813  70.121  1.00  0.00    -0.225 OA 
ENDBRANCH  30  31
ENDBRANCH   1  30
TORSDOF 9
ENDMDL
MODEL      121
REMARK 921   NORMALIZED FREE ENERGY PREDICTED BY IDOCK:   -5.25 KCAL/MOL
REMARK 922        TOTAL FREE ENERGY PREDICTED BY IDOCK:   -9.07 KCAL/MOL
REMARK 923 INTER-LIGAND FREE ENERGY PREDICTED BY IDOCK:   -7.95 KCAL/MOL
REMARK 924 INTRA-LIGAND FREE ENERGY PREDICTED BY IDOCK:   -1.13 KCAL/MOL
REMARK 927      BINDING AFFINITY PREDICTED BY RF-SCORE:    0.00 PKD
ROOT
HETATM    1  C   UNL     1      -8.382  11.768  67.557  1.00  0.00    -0.154 C  
ENDROOT
BRANCH   1   2
HETATM    2  N   UNL     1      -8.945  13.015  67.013  1.00  0.00    -0.222 N  
HETATM    3  C   UNL     1     -11.144  14.670  64.690  1.00  0.00    -0.345 A  
HETATM    4  C   UNL     1     -11.286  16.027  64.457  1.00  0.00    -0.309 A  
HETATM    5  O   UNL     1      -8.010  14.728  68.284  1.00  0.00    -0.119 OA 
HETATM    6  C   UNL     1     -10.614  16.952  65.277  1.00  0.00    -0.137 A  
HETATM    7  C   UNL     1      -9.940  12.940  66.084  1.00  0.00    -0.272 C  
HETATM    8  C   UNL     1      -8.750  14.328  67.405  1.00  0.00    -0.209 C  
HETATM    9  C   UNL     1      -9.822  16.563  66.384  1.00  0.00    -0.293 A  
HETATM   10  C   UNL     1      -9.620  15.186  66.541  1.00  0.00    -0.293 A  
HETATM   11  C   UNL     1     -10.302  14.296  65.714  1.00  0.00    -0.341 A  
HETATM   12  O   UNL     1     -10.486  11.948  65.631  1.00  0.00    -0.244 OA 
BRANCH   9  13
HETATM   13  N   UNL     1      -9.203  17.519  67.214  1.00  0.00    -0.237 NA 
HETATM   14  H   UNL     1      -8.197  17.648  67.104  1.00  0.00     0.000 HD 
BRANCH  13  15
HETATM   15  C   UNL     1      -9.796  18.248  68.104  1.00  0.00    -0.341 C  
HETATM   16  C   UNL     1     -10.195  19.693  68.171  1.00  0.00    -0.580 C  
HETATM   17  O   UNL     1     -10.125  17.626  69.249  1.00  0.00    -0.274 OA 
HETATM   18  H   UNL     1     -10.561  18.161  69.902  1.00  0.00     0.000 HD 
ENDBRANCH  13  15
ENDBRANCH   9  13
ENDBRANCH   1   2
BRANCH   1  19
HETATM   19  C   UNL     1      -9.341  10.959  68.451  1.00  0.00    -0.172 A  
HETATM   20  C   UNL     1      -8.991   9.682  68.904  1.00  0.00    -0.144 A  
HETATM   21  C   UNL     1     -10.768   9.724  70.562  1.00  0.00    -0.317 A  
HETATM   22  C   UNL     1     -10.499  11.565  68.996  1.00  0.00    -0.175 A  
HETATM   23  C   UNL     1      -9.691   9.076  69.952  1.00  0.00    -0.194 A  
HETATM   24  C   UNL     1     -11.209  10.960  70.049  1.00  0.00    -0.263 A  
BRANCH  24  25
HETATM   25  O   UNL     1     -12.302  11.502  70.680  1.00  0.00    -0.361 OA 
BRANCH  25  26
HETATM   26  C   UNL     1     -12.527  12.906  70.590  1.00  0.00    -0.252 C  
HETATM   27  C   UNL     1     -13.271  13.352  71.841  1.00  0.00    -0.522 C  
ENDBRANCH  25  26
ENDBRANCH  24  25
BRANCH  21  28
HETATM   28  O   UNL     1     -11.437   9.240  71.660  1.00  0.00    -0.355 OA 
HETATM   29  C   UNL     1     -12.114   7.998  71.517  1.00  0.00    -0.298 C  
ENDBRANCH  21  28
ENDBRANCH   1  19
BRANCH   1  30
HETATM   30  C   UNL     1      -7.727  10.816  66.556  1.00  0.00    -0.145 C  
BRANCH  30  31
HETATM   31  S   UNL     1      -5.976  11.004  66.343  1.00  0.00    -0.144 S  
HETATM   32  O   UNL     1      -5.651  12.349  66.778  1.00  0.00    -0.319 OA 
HETATM   33  C   UNL     1      -5.651  10.949  64.596  1.00  0.00     0.123 C  
HETATM   34  O   UNL     1      -5.313   9.863  66.942  1.00  0.00    -0.041 OA 
ENDBRANCH  30  31
ENDBRANCH   1  30
TORSDOF 9
ENDMDL
MODEL      122
REMARK 921   NORMALIZED FREE ENERGY PREDICTED BY IDOCK:   -5.22 KCAL/MOL
REMARK 922        TOTAL FREE ENERGY PREDICTED BY IDOCK:   -9.02 KCAL/MOL
REMARK 923 INTER-LIGAND FREE ENERGY PREDICTED BY IDOCK:   -8.16 KCAL/MOL
REMARK 924 INTRA-LIGAND FREE ENERGY PREDICTED BY IDOCK:   -0.86 KCAL/MOL
REMARK 927      BINDING AFFINITY PREDICTED BY RF-SCORE:    0.00 PKD
ROOT
HETATM    1  C   UNL     1      -9.874  11.783  68.378  1.00  0.00    -0.199 C  
ENDROOT
BRANCH   1   2
HETATM    2  N   UNL     1     -10.380  10.880  69.425  1.00  0.00    -0.188 N  
HETATM    3  C   UNL     1     -13.146   9.596  71.341  1.00  0.00    -0.471 A  
HETATM    4  C   UNL     1     -13.117   8.716  72.410  1.00  0.00    -0.396 A  
HETATM    5  O   UNL     1      -8.526   9.679  70.161  1.00  0.00    -0.182 OA 
HETATM    6  C   UNL     1     -11.907   8.101  72.778  1.00  0.00    -0.296 A  
HETATM    7  C   UNL     1     -11.726  10.792  69.628  1.00  0.00    -0.323 C  
HETATM    8  C   UNL     1      -9.715   9.931  70.183  1.00  0.00    -0.202 C  
HETATM    9  C   UNL     1     -10.698   8.298  72.068  1.00  0.00    -0.297 A  
HETATM   10  C   UNL     1     -10.734   9.261  71.052  1.00  0.00    -0.387 A  
HETATM   11  C   UNL     1     -11.949   9.851  70.709  1.00  0.00    -0.410 A  
HETATM   12  O   UNL     1     -12.625  11.352  69.024  1.00  0.00    -0.271 OA 
BRANCH   9  13
HETATM   13  N   UNL     1      -9.514   7.627  72.435  1.00  0.00    -0.155 NA 
HETATM   14  H   UNL     1      -8.959   7.221  71.683  1.00  0.00     0.000 HD 
BRANCH  13  15
HETATM   15  C   UNL     1      -9.070   7.481  73.642  1.00  0.00    -0.255 C  
HETATM   16  C   UNL     1      -7.970   8.126  74.434  1.00  0.00    -0.308 C  
HETATM   17  O   UNL     1      -9.676   6.536  74.381  1.00  0.00    -0.246 OA 
HETATM   18  H   UNL     1      -9.350   6.429  75.266  1.00  0.00     0.000 HD 
ENDBRANCH  13  15
ENDBRANCH   9  13
ENDBRANCH   1   2
BRANCH   1  19
HETATM   19  C   UNL     1     -10.063  11.274  66.936  1.00  0.00    -0.246 A  
HETATM   20  C   UNL     1     -10.582  12.113  65.943  1.00  0.00    -0.293 A  
HETATM   21  C   UNL     1      -9.841  10.594  64.196  1.00  0.00    -0.335 A  
HETATM   22  C   UNL     1      -9.531  10.023  66.539  1.00  0.00    -0.222 A  
HETATM   23  C   UNL     1     -10.466  11.780  64.590  1.00  0.00    -0.347 A  
HETATM   24  C   UNL     1      -9.412   9.681  65.179  1.00  0.00    -0.265 A  
BRANCH  24  25
HETATM   25  O   UNL     1      -8.853   8.521  64.702  1.00  0.00    -0.061 OA 
BRANCH  25  26
HETATM   26  C   UNL     1      -7.884   7.843  65.495  1.00  0.00    -0.112 C  
HETATM   27  C   UNL     1      -8.583   6.711  66.236  1.00  0.00    -0.139 C  
ENDBRANCH  25  26
ENDBRANCH  24  25
BRANCH  21  28
HETATM   28  O   UNL     1      -9.598  10.249  62.889  1.00  0.00    -0.316 OA 
HETATM   29  C   UNL     1      -8.329  10.593  62.347  1.00  0.00    -0.226 C  
ENDBRANCH  21  28
ENDBRANCH   1  19
BRANCH   1  30
HETATM   30  C   UNL     1     -10.334  13.240  68.445  1.00  0.00    -0.251 C  
BRANCH  30  31
HETATM   31  S   UNL     1      -9.044  14.458  68.427  1.00  0.00    -0.194 S  
HETATM   32  O   UNL     1      -9.253  15.295  69.594  1.00  0.00    -0.230 OA 
HETATM   33  C   UNL     1      -9.323  15.495  67.010  1.00  0.00    -0.224 C  
HETATM   34  O   UNL     1      -7.777  13.785  68.228  1.00  0.00    -0.119 OA 
ENDBRANCH  30  31
ENDBRANCH   1  30
TORSDOF 9
ENDMDL
MODEL      123
REMARK 921   NORMALIZED FREE ENERGY PREDICTED BY IDOCK:   -5.16 KCAL/MOL
REMARK 922        TOTAL FREE ENERGY PREDICTED BY IDOCK:   -8.94 KCAL/MOL
REMARK 923 INTER-LIGAND FREE ENERGY PREDICTED BY IDOCK:   -8.02 KCAL/MOL
REMARK 924 INTRA-LIGAND FREE ENERGY PREDICTED BY IDOCK:   -0.91 KCAL/MOL
REMARK 927      BINDING AFFINITY PREDICTED BY RF-SCORE:    0.00 PKD
ROOT
HETATM    1  C   UNL     1     -10.417   8.537  70.923  1.00  0.00    -0.203 C  
ENDROOT
BRANCH   1   2
HETATM    2  N   UNL     1     -10.061   7.967  69.613  1.00  0.00    -0.194 N  
HETATM    3  C   UNL     1     -10.459   5.372  67.147  1.00  0.00    -0.298 A  
HETATM    4  C   UNL     1      -9.758   5.193  65.967  1.00  0.00    -0.182 A  
HETATM    5  O   UNL     1      -8.569   9.481  68.660  1.00  0.00    -0.117 OA 
HETATM    6  C   UNL     1      -8.843   6.172  65.539  1.00  0.00    -0.063 A  
HETATM    7  C   UNL     1     -10.731   6.867  69.166  1.00  0.00    -0.234 C  
HETATM    8  C   UNL     1      -9.229   8.460  68.622  1.00  0.00    -0.143 C  
HETATM    9  C   UNL     1      -8.632   7.383  66.241  1.00  0.00    -0.142 A  
HETATM   10  C   UNL     1      -9.281   7.498  67.476  1.00  0.00    -0.140 A  
HETATM   11  C   UNL     1     -10.184   6.512  67.870  1.00  0.00    -0.198 A  
HETATM   12  O   UNL     1     -11.651   6.269  69.697  1.00  0.00    -0.430 OA 
BRANCH   9  13
HETATM   13  N   UNL     1      -7.743   8.364  65.757  1.00  0.00    -0.091 NA 
HETATM   14  H   UNL     1      -6.799   8.367  66.143  1.00  0.00     0.000 HD 
BRANCH  13  15
HETATM   15  C   UNL     1      -8.018   9.262  64.867  1.00  0.00    -0.121 C  
HETATM   16  C   UNL     1      -9.023   9.357  63.756  1.00  0.00    -0.153 C  
HETATM   17  O   UNL     1      -7.243  10.361  64.881  1.00  0.00    -0.239 OA 
HETATM   18  H   UNL     1      -7.445  11.020  64.228  1.00  0.00     0.000 HD 
ENDBRANCH  13  15
ENDBRANCH   9  13
ENDBRANCH   1   2
BRANCH   1  19
HETATM   19  C   UNL     1     -11.427   9.698  70.872  1.00  0.00    -0.427 A  
HETATM   20  C   UNL     1     -12.484   9.768  71.787  1.00  0.00    -0.485 A  
HETATM   21  C   UNL     1     -12.903  12.091  71.208  1.00  0.00    -0.265 A  
HETATM   22  C   UNL     1     -11.194  10.818  70.038  1.00  0.00    -0.366 A  
HETATM   23  C   UNL     1     -13.208  10.952  71.958  1.00  0.00    -0.456 A  
HETATM   24  C   UNL     1     -11.919  12.013  70.203  1.00  0.00    -0.321 A  
BRANCH  24  25
HETATM   25  O   UNL     1     -11.718  13.166  69.485  1.00  0.00    -0.296 OA 
BRANCH  25  26
HETATM   26  C   UNL     1     -10.912  13.119  68.312  1.00  0.00    -0.253 C  
HETATM   27  C   UNL     1     -11.804  12.754  67.133  1.00  0.00    -0.415 C  
ENDBRANCH  25  26
ENDBRANCH  24  25
BRANCH  21  28
HETATM   28  O   UNL     1     -13.498  13.316  71.391  1.00  0.00    -0.230 OA 
HETATM   29  C   UNL     1     -13.413  13.897  72.686  1.00  0.00    -0.546 C  
ENDBRANCH  21  28
ENDBRANCH   1  19
BRANCH   1  30
HETATM   30  C   UNL     1     -10.861   7.550  72.003  1.00  0.00    -0.233 C  
BRANCH  30  31
HETATM   31  S   UNL     1      -9.574   6.912  73.044  1.00  0.00    -0.163 S  
HETATM   32  O   UNL     1      -8.513   7.902  73.038  1.00  0.00    -0.143 OA 
HETATM   33  C   UNL     1      -8.918   5.468  72.241  1.00  0.00    -0.139 C  
HETATM   34  O   UNL     1     -10.163   6.481  74.295  1.00  0.00    -0.339 OA 
ENDBRANCH  30  31
ENDBRANCH   1  30
TORSDOF 9
ENDMDL
MODEL      124
REMARK 921   NORMALIZED FREE ENERGY PREDICTED BY IDOCK:   -5.16 KCAL/MOL
REMARK 922        TOTAL FREE ENERGY PREDICTED BY IDOCK:   -8.93 KCAL/MOL
REMARK 923 INTER-LIGAND FREE ENERGY PREDICTED BY IDOCK:   -7.29 KCAL/MOL
REMARK 924 INTRA-LIGAND FREE ENERGY PREDICTED BY IDOCK:   -1.65 KCAL/MOL
REMARK 927      BINDING AFFINITY PREDICTED BY RF-SCORE:    0.00 PKD
ROOT
HETATM    1  C   UNL     1     -10.666  14.323  68.719  1.00  0.00    -0.254 C  
ENDROOT
BRANCH   1   2
HETATM    2  N   UNL     1      -9.817  15.517  68.567  1.00  0.00    -0.199 N  
HETATM    3  C   UNL     1      -9.293  18.792  67.164  1.00  0.00    -0.315 A  
HETATM    4  C   UNL     1      -8.163  19.588  67.236  1.00  0.00    -0.321 A  
HETATM    5  O   UNL     1      -7.948  15.125  69.900  1.00  0.00    -0.124 OA 
HETATM    6  C   UNL     1      -7.081  19.197  68.046  1.00  0.00    -0.271 A  
HETATM    7  C   UNL     1     -10.306  16.594  67.889  1.00  0.00    -0.310 C  
HETATM    8  C   UNL     1      -8.601  15.827  69.151  1.00  0.00    -0.256 C  
HETATM    9  C   UNL     1      -7.106  18.032  68.849  1.00  0.00    -0.263 A  
HETATM   10  C   UNL     1      -8.220  17.198  68.687  1.00  0.00    -0.255 A  
HETATM   11  C   UNL     1      -9.276  17.615  67.880  1.00  0.00    -0.267 A  
HETATM   12  O   UNL     1     -11.408  16.742  67.389  1.00  0.00     0.047 OA 
BRANCH   9  13
HETATM   13  N   UNL     1      -6.024  17.696  69.687  1.00  0.00    -0.246 NA 
HETATM   14  H   UNL     1      -5.434  16.917  69.395  1.00  0.00     0.000 HD 
BRANCH  13  15
HETATM   15  C   UNL     1      -5.711  18.288  70.795  1.00  0.00     0.008 C  
HETATM   16  C   UNL     1      -5.828  19.699  71.293  1.00  0.00    -0.203 C  
HETATM   17  O   UNL     1      -5.125  17.517  71.728  1.00  0.00    -0.466 OA 
HETATM   18  H   UNL     1      -4.896  17.952  72.541  1.00  0.00     0.000 HD 
ENDBRANCH  13  15
ENDBRANCH   9  13
ENDBRANCH   1   2
BRANCH   1  19
HETATM   19  C   UNL     1     -10.190  13.085  67.935  1.00  0.00    -0.234 A  
HETATM   20  C   UNL     1      -9.536  12.034  68.587  1.00  0.00    -0.069 A  
HETATM   21  C   UNL     1      -9.870  10.570  66.675  1.00  0.00    -0.199 A  
HETATM   22  C   UNL     1     -10.582  12.893  66.588  1.00  0.00    -0.273 A  
HETATM   23  C   UNL     1      -9.384  10.789  67.967  1.00  0.00    -0.152 A  
HETATM   24  C   UNL     1     -10.432  11.644  65.958  1.00  0.00    -0.251 A  
BRANCH  24  25
HETATM   25  O   UNL     1     -10.840  11.349  64.680  1.00  0.00    -0.317 OA 
BRANCH  25  26
HETATM   26  C   UNL     1     -10.787  12.366  63.685  1.00  0.00    -0.462 C  
HETATM   27  C   UNL     1     -12.211  12.823  63.395  1.00  0.00    -0.594 C  
ENDBRANCH  25  26
ENDBRANCH  24  25
BRANCH  21  28
HETATM   28  O   UNL     1      -9.851   9.351  66.042  1.00  0.00    -0.269 OA 
HETATM   29  C   UNL     1      -8.616   8.645  66.019  1.00  0.00    -0.155 C  
ENDBRANCH  21  28
ENDBRANCH   1  19
BRANCH   1  30
HETATM   30  C   UNL     1     -11.003  13.896  70.148  1.00  0.00     0.359 C  
BRANCH  30  31
HETATM   31  S   UNL     1     -12.061  14.995  71.053  1.00  0.00    -0.357 S  
HETATM   32  O   UNL     1     -11.202  16.017  71.622  1.00  0.00    -0.264 OA 
HETATM   33  C   UNL     1     -12.721  14.076  72.424  1.00  0.00    -0.244 C  
HETATM   34  O   UNL     1     -13.175  15.366  70.205  1.00  0.00    -0.109 OA 
ENDBRANCH  30  31
ENDBRANCH   1  30
TORSDOF 9
ENDMDL
MODEL      125
REMARK 921   NORMALIZED FREE ENERGY PREDICTED BY IDOCK:   -5.15 KCAL/MOL
REMARK 922        TOTAL FREE ENERGY PREDICTED BY IDOCK:   -8.91 KCAL/MOL
REMARK 923 INTER-LIGAND FREE ENERGY PREDICTED BY IDOCK:   -8.07 KCAL/MOL
REMARK 924 INTRA-LIGAND FREE ENERGY PREDICTED BY IDOCK:   -0.85 KCAL/MOL
REMARK 927      BINDING AFFINITY PREDICTED BY RF-SCORE:    0.00 PKD
ROOT
HETATM    1  C   UNL     1     -10.020  11.818  67.929  1.00  0.00    -0.181 C  
ENDROOT
BRANCH   1   2
HETATM    2  N   UNL     1      -9.833  13.278  67.918  1.00  0.00    -0.227 N  
HETATM    3  C   UNL     1     -11.032  16.551  67.010  1.00  0.00    -0.012 A  
HETATM    4  C   UNL     1     -10.389  17.770  67.143  1.00  0.00    -0.354 A  
HETATM    5  O   UNL     1      -7.847  13.662  69.072  1.00  0.00    -0.020 OA 
HETATM    6  C   UNL     1      -9.160  17.843  67.824  1.00  0.00    -0.258 A  
HETATM    7  C   UNL     1     -10.837  14.069  67.442  1.00  0.00    -0.282 C  
HETATM    8  C   UNL     1      -8.832  14.054  68.476  1.00  0.00    -0.160 C  
HETATM    9  C   UNL     1      -8.555  16.721  68.437  1.00  0.00    -0.235 A  
HETATM   10  C   UNL     1      -9.176  15.487  68.209  1.00  0.00    -0.188 A  
HETATM   11  C   UNL     1     -10.394  15.448  67.534  1.00  0.00    -0.264 A  
HETATM   12  O   UNL     1     -11.936  13.739  67.031  1.00  0.00    -0.387 OA 
BRANCH   9  13
HETATM   13  N   UNL     1      -7.346  16.840  69.154  1.00  0.00    -0.237 NA 
HETATM   14  H   UNL     1      -7.197  16.188  69.924  1.00  0.00     0.000 HD 
BRANCH  13  15
HETATM   15  C   UNL     1      -6.410  17.702  68.921  1.00  0.00    -0.213 C  
HETATM   16  C   UNL     1      -5.411  17.884  67.816  1.00  0.00    -0.137 C  
HETATM   17  O   UNL     1      -6.236  18.648  69.860  1.00  0.00    -0.248 OA 
HETATM   18  H   UNL     1      -5.548  19.280  69.690  1.00  0.00     0.000 HD 
ENDBRANCH  13  15
ENDBRANCH   9  13
ENDBRANCH   1   2
BRANCH   1  19
HETATM   19  C   UNL     1     -10.605  11.249  69.236  1.00  0.00    -0.187 A  
HETATM   20  C   UNL     1     -11.889  11.609  69.661  1.00  0.00    -0.419 A  
HETATM   21  C   UNL     1     -11.934   9.773  71.254  1.00  0.00    -0.386 A  
HETATM   22  C   UNL     1      -9.945  10.202  69.922  1.00  0.00    -0.250 A  
HETATM   23  C   UNL     1     -12.547  10.875  70.653  1.00  0.00    -0.435 A  
HETATM   24  C   UNL     1     -10.601   9.460  70.922  1.00  0.00    -0.320 A  
BRANCH  24  25
HETATM   25  O   UNL     1     -10.063   8.390  71.595  1.00  0.00    -0.199 OA 
BRANCH  25  26
HETATM   26  C   UNL     1      -8.678   8.407  71.926  1.00  0.00    -0.195 C  
HETATM   27  C   UNL     1      -8.540   8.130  73.417  1.00  0.00    -0.313 C  
ENDBRANCH  25  26
ENDBRANCH  24  25
BRANCH  21  28
HETATM   28  O   UNL     1     -12.553   8.944  72.157  1.00  0.00    -0.359 OA 
HETATM   29  C   UNL     1     -13.883   8.534  71.863  1.00  0.00    -0.424 C  
ENDBRANCH  21  28
ENDBRANCH   1  19
BRANCH   1  30
HETATM   30  C   UNL     1     -10.782  11.213  66.749  1.00  0.00    -0.276 C  
BRANCH  30  31
HETATM   31  S   UNL     1      -9.783  10.512  65.462  1.00  0.00    -0.262 S  
HETATM   32  O   UNL     1      -8.482  11.145  65.560  1.00  0.00    -0.124 OA 
HETATM   33  C   UNL     1     -10.481  11.036  63.913  1.00  0.00    -0.354 C  
HETATM   34  O   UNL     1      -9.900   9.069  65.522  1.00  0.00    -0.159 OA 
ENDBRANCH  30  31
ENDBRANCH   1  30
TORSDOF 9
ENDMDL
MODEL      126
REMARK 921   NORMALIZED FREE ENERGY PREDICTED BY IDOCK:   -5.13 KCAL/MOL
REMARK 922        TOTAL FREE ENERGY PREDICTED BY IDOCK:   -8.89 KCAL/MOL
REMARK 923 INTER-LIGAND FREE ENERGY PREDICTED BY IDOCK:   -7.14 KCAL/MOL
REMARK 924 INTRA-LIGAND FREE ENERGY PREDICTED BY IDOCK:   -1.76 KCAL/MOL
REMARK 927      BINDING AFFINITY PREDICTED BY RF-SCORE:    0.00 PKD
ROOT
HETATM    1  C   UNL     1      -9.986  10.430  68.564  1.00  0.00    -0.167 C  
ENDROOT
BRANCH   1   2
HETATM    2  N   UNL     1      -9.643   9.668  69.776  1.00  0.00    -0.205 N  
HETATM    3  C   UNL     1      -7.165   8.557  72.143  1.00  0.00    -0.102 A  
HETATM    4  C   UNL     1      -7.318   7.669  73.194  1.00  0.00    -0.111 A  
HETATM    5  O   UNL     1     -11.660   8.814  70.568  1.00  0.00    -0.244 OA 
HETATM    6  C   UNL     1      -8.598   7.191  73.528  1.00  0.00    -0.168 A  
HETATM    7  C   UNL     1      -8.371   9.740  70.264  1.00  0.00    -0.138 C  
HETATM    8  C   UNL     1     -10.457   8.974  70.654  1.00  0.00    -0.230 C  
HETATM    9  C   UNL     1      -9.773   7.616  72.863  1.00  0.00    -0.226 A  
HETATM   10  C   UNL     1      -9.583   8.440  71.746  1.00  0.00    -0.303 A  
HETATM   11  C   UNL     1      -8.303   8.899  71.444  1.00  0.00    -0.195 A  
HETATM   12  O   UNL     1      -7.432  10.397  69.848  1.00  0.00    -0.158 OA 
BRANCH   9  13
HETATM   13  N   UNL     1     -11.046   7.154  73.255  1.00  0.00    -0.552 NA 
HETATM   14  H   UNL     1     -11.545   7.705  73.954  1.00  0.00     0.000 HD 
BRANCH  13  15
HETATM   15  C   UNL     1     -11.637   6.094  72.809  1.00  0.00    -0.132 C  
HETATM   16  C   UNL     1     -11.328   4.626  72.863  1.00  0.00    -0.212 C  
HETATM   17  O   UNL     1     -12.769   6.300  72.113  1.00  0.00    -0.481 OA 
HETATM   18  H   UNL     1     -13.203   5.522  71.785  1.00  0.00     0.000 HD 
ENDBRANCH  13  15
ENDBRANCH   9  13
ENDBRANCH   1   2
BRANCH   1  19
HETATM   19  C   UNL     1      -9.719   9.693  67.238  1.00  0.00    -0.213 A  
HETATM   20  C   UNL     1      -9.208  10.377  66.129  1.00  0.00    -0.199 A  
HETATM   21  C   UNL     1      -8.644   8.284  65.030  1.00  0.00    -0.075 A  
HETATM   22  C   UNL     1      -9.791   8.280  67.174  1.00  0.00    -0.281 A  
HETATM   23  C   UNL     1      -8.670   9.681  65.042  1.00  0.00    -0.202 A  
HETATM   24  C   UNL     1      -9.253   7.573  66.083  1.00  0.00    -0.105 A  
BRANCH  24  25
HETATM   25  O   UNL     1      -9.221   6.205  65.965  1.00  0.00    -0.157 OA 
BRANCH  25  26
HETATM   26  C   UNL     1     -10.190   5.428  66.662  1.00  0.00    -0.243 C  
HETATM   27  C   UNL     1      -9.525   4.138  67.123  1.00  0.00    -0.215 C  
ENDBRANCH  25  26
ENDBRANCH  24  25
BRANCH  21  28
HETATM   28  O   UNL     1      -8.042   7.533  64.049  1.00  0.00    -0.123 OA 
HETATM   29  C   UNL     1      -7.960   8.102  62.748  1.00  0.00    -0.159 C  
ENDBRANCH  21  28
ENDBRANCH   1  19
BRANCH   1  30
HETATM   30  C   UNL     1     -11.387  11.040  68.510  1.00  0.00    -0.287 C  
BRANCH  30  31
HETATM   31  S   UNL     1     -11.455  12.806  68.347  1.00  0.00    -0.335 S  
HETATM   32  O   UNL     1     -12.011  13.077  67.035  1.00  0.00    -0.383 OA 
HETATM   33  C   UNL     1      -9.777  13.393  68.312  1.00  0.00    -0.226 C  
HETATM   34  O   UNL     1     -12.081  13.355  69.532  1.00  0.00    -0.311 OA 
ENDBRANCH  30  31
ENDBRANCH   1  30
TORSDOF 9
ENDMDL
MODEL      127
REMARK 921   NORMALIZED FREE ENERGY PREDICTED BY IDOCK:   -5.13 KCAL/MOL
REMARK 922        TOTAL FREE ENERGY PREDICTED BY IDOCK:   -8.88 KCAL/MOL
REMARK 923 INTER-LIGAND FREE ENERGY PREDICTED BY IDOCK:   -7.50 KCAL/MOL
REMARK 924 INTRA-LIGAND FREE ENERGY PREDICTED BY IDOCK:   -1.38 KCAL/MOL
REMARK 927      BINDING AFFINITY PREDICTED BY RF-SCORE:    0.00 PKD
ROOT
HETATM    1  C   UNL     1      -9.723  13.569  66.470  1.00  0.00    -0.283 C  
ENDROOT
BRANCH   1   2
HETATM    2  N   UNL     1      -9.498  14.933  66.976  1.00  0.00    -0.220 N  
HETATM    3  C   UNL     1     -10.641  17.754  68.903  1.00  0.00    -0.084 A  
HETATM    4  C   UNL     1     -10.058  19.004  69.026  1.00  0.00    -0.335 A  
HETATM    5  O   UNL     1      -7.387  15.544  66.206  1.00  0.00     0.361 OA 
HETATM    6  C   UNL     1      -8.793  19.246  68.461  1.00  0.00    -0.411 A  
HETATM    7  C   UNL     1     -10.393  15.468  67.856  1.00  0.00    -0.250 C  
HETATM    8  C   UNL     1      -8.402  15.768  66.837  1.00  0.00    -0.248 C  
HETATM    9  C   UNL     1      -8.043  18.244  67.799  1.00  0.00    -0.250 A  
HETATM   10  C   UNL     1      -8.692  17.018  67.607  1.00  0.00    -0.216 A  
HETATM   11  C   UNL     1      -9.944  16.808  68.183  1.00  0.00    -0.270 A  
HETATM   12  O   UNL     1     -11.386  14.952  68.339  1.00  0.00    -0.276 OA 
BRANCH   9  13
HETATM   13  N   UNL     1      -6.757  18.509  67.287  1.00  0.00    -0.199 NA 
HETATM   14  H   UNL     1      -5.963  18.267  67.879  1.00  0.00     0.000 HD 
BRANCH  13  15
HETATM   15  C   UNL     1      -6.494  19.031  66.133  1.00  0.00    -0.207 C  
HETATM   16  C   UNL     1      -6.335  20.438  65.636  1.00  0.00    -0.267 C  
HETATM   17  O   UNL     1      -6.350  18.165  65.115  1.00  0.00    -0.298 OA 
HETATM   18  H   UNL     1      -6.157  18.548  64.268  1.00  0.00     0.000 HD 
ENDBRANCH  13  15
ENDBRANCH   9  13
ENDBRANCH   1   2
BRANCH   1  19
HETATM   19  C   UNL     1      -9.091  12.451  67.320  1.00  0.00    -0.187 A  
HETATM   20  C   UNL     1      -7.701  12.354  67.458  1.00  0.00    -0.161 A  
HETATM   21  C   UNL     1      -7.939  10.831  69.338  1.00  0.00    -0.067 A  
HETATM   22  C   UNL     1      -9.900  11.627  68.140  1.00  0.00    -0.191 A  
HETATM   23  C   UNL     1      -7.133  11.560  68.459  1.00  0.00    -0.087 A  
HETATM   24  C   UNL     1      -9.335  10.824  69.148  1.00  0.00    -0.125 A  
BRANCH  24  25
HETATM   25  O   UNL     1     -10.045  10.044  70.029  1.00  0.00    -0.248 OA 
BRANCH  25  26
HETATM   26  C   UNL     1     -11.364  10.438  70.394  1.00  0.00    -0.337 C  
HETATM   27  C   UNL     1     -11.889   9.449  71.426  1.00  0.00    -0.447 C  
ENDBRANCH  25  26
ENDBRANCH  24  25
BRANCH  21  28
HETATM   28  O   UNL     1      -7.460  10.113  70.407  1.00  0.00    -0.247 OA 
HETATM   29  C   UNL     1      -6.060  10.159  70.650  1.00  0.00    -0.106 C  
ENDBRANCH  21  28
ENDBRANCH   1  19
BRANCH   1  30
HETATM   30  C   UNL     1     -11.168  13.183  66.152  1.00  0.00    -0.295 C  
BRANCH  30  31
HETATM   31  S   UNL     1     -11.620  13.231  64.437  1.00  0.00    -0.403 S  
HETATM   32  O   UNL     1     -10.389  13.088  63.683  1.00  0.00    -0.305 OA 
HETATM   33  C   UNL     1     -12.227  14.868  64.101  1.00  0.00    -0.255 C  
HETATM   34  O   UNL     1     -12.718  12.311  64.224  1.00  0.00    -0.584 OA 
ENDBRANCH  30  31
ENDBRANCH   1  30
TORSDOF 9
ENDMDL
MODEL      128
REMARK 921   NORMALIZED FREE ENERGY PREDICTED BY IDOCK:   -5.13 KCAL/MOL
REMARK 922        TOTAL FREE ENERGY PREDICTED BY IDOCK:   -8.88 KCAL/MOL
REMARK 923 INTER-LIGAND FREE ENERGY PREDICTED BY IDOCK:   -7.41 KCAL/MOL
REMARK 924 INTRA-LIGAND FREE ENERGY PREDICTED BY IDOCK:   -1.47 KCAL/MOL
REMARK 927      BINDING AFFINITY PREDICTED BY RF-SCORE:    0.00 PKD
ROOT
HETATM    1  C   UNL     1      -9.065   6.360  67.521  1.00  0.00    -0.114 C  
ENDROOT
BRANCH   1   2
HETATM    2  N   UNL     1      -9.336   6.760  68.911  1.00  0.00    -0.131 N  
HETATM    3  C   UNL     1      -8.114   7.849  72.120  1.00  0.00    -0.154 A  
HETATM    4  C   UNL     1      -8.825   8.029  73.295  1.00  0.00    -0.330 A  
HETATM    5  O   UNL     1     -11.654   6.709  69.134  1.00  0.00    -0.203 OA 
HETATM    6  C   UNL     1     -10.227   7.915  73.290  1.00  0.00    -0.297 A  
HETATM    7  C   UNL     1      -8.306   7.211  69.683  1.00  0.00    -0.133 C  
HETATM    8  C   UNL     1     -10.541   6.919  69.576  1.00  0.00    -0.236 C  
HETATM    9  C   UNL     1     -10.973   7.669  72.113  1.00  0.00    -0.257 A  
HETATM   10  C   UNL     1     -10.227   7.399  70.959  1.00  0.00    -0.194 A  
HETATM   11  C   UNL     1      -8.840   7.523  70.995  1.00  0.00    -0.146 A  
HETATM   12  O   UNL     1      -7.137   7.372  69.373  1.00  0.00    -0.066 OA 
BRANCH   9  13
HETATM   13  N   UNL     1     -12.381   7.609  72.137  1.00  0.00    -0.434 NA 
HETATM   14  H   UNL     1     -12.806   6.683  72.157  1.00  0.00     0.000 HD 
BRANCH  13  15
HETATM   15  C   UNL     1     -13.182   8.625  72.134  1.00  0.00    -0.383 C  
HETATM   16  C   UNL     1     -13.316   9.847  71.272  1.00  0.00    -0.419 C  
HETATM   17  O   UNL     1     -14.099   8.653  73.117  1.00  0.00    -1.018 OA 
HETATM   18  H   UNL     1     -14.687   9.399  73.115  1.00  0.00     0.000 HD 
ENDBRANCH  13  15
ENDBRANCH   9  13
ENDBRANCH   1   2
BRANCH   1  19
HETATM   19  C   UNL     1      -8.884   7.530  66.534  1.00  0.00    -0.167 A  
HETATM   20  C   UNL     1      -8.065   7.395  65.407  1.00  0.00    -0.133 A  
HETATM   21  C   UNL     1      -9.020   9.394  64.408  1.00  0.00    -0.169 A  
HETATM   22  C   UNL     1      -9.696   8.686  66.633  1.00  0.00    -0.315 A  
HETATM   23  C   UNL     1      -8.137   8.312  64.354  1.00  0.00    -0.145 A  
HETATM   24  C   UNL     1      -9.772   9.613  65.578  1.00  0.00    -0.301 A  
BRANCH  24  25
HETATM   25  O   UNL     1     -10.577  10.726  65.560  1.00  0.00    -0.223 OA 
BRANCH  25  26
HETATM   26  C   UNL     1     -10.424  11.708  66.581  1.00  0.00    -0.233 C  
HETATM   27  C   UNL     1     -11.780  11.932  67.236  1.00  0.00    -0.319 C  
ENDBRANCH  25  26
ENDBRANCH  24  25
BRANCH  21  28
HETATM   28  O   UNL     1      -9.222  10.276  63.373  1.00  0.00    -0.244 OA 
HETATM   29  C   UNL     1      -8.080  10.683  62.629  1.00  0.00    -0.153 C  
ENDBRANCH  21  28
ENDBRANCH   1  19
BRANCH   1  30
HETATM   30  C   UNL     1      -7.931   5.358  67.302  1.00  0.00    -0.101 C  
BRANCH  30  31
HETATM   31  S   UNL     1      -8.224   3.716  67.907  1.00  0.00    -0.085 S  
HETATM   32  O   UNL     1      -7.525   3.613  69.174  1.00  0.00    -0.052 OA 
HETATM   33  C   UNL     1      -7.412   2.594  66.793  1.00  0.00    -0.070 C  
HETATM   34  O   UNL     1      -9.645   3.445  67.833  1.00  0.00    -0.190 OA 
ENDBRANCH  30  31
ENDBRANCH   1  30
TORSDOF 9
ENDMDL
MODEL      129
REMARK 921   NORMALIZED FREE ENERGY PREDICTED BY IDOCK:   -5.13 KCAL/MOL
REMARK 922        TOTAL FREE ENERGY PREDICTED BY IDOCK:   -8.88 KCAL/MOL
REMARK 923 INTER-LIGAND FREE ENERGY PREDICTED BY IDOCK:   -8.26 KCAL/MOL
REMARK 924 INTRA-LIGAND FREE ENERGY PREDICTED BY IDOCK:   -0.62 KCAL/MOL
REMARK 927      BINDING AFFINITY PREDICTED BY RF-SCORE:    0.00 PKD
ROOT
HETATM    1  C   UNL     1     -10.435   8.717  68.355  1.00  0.00    -0.176 C  
ENDROOT
BRANCH   1   2
HETATM    2  N   UNL     1     -10.711  10.090  67.900  1.00  0.00    -0.255 N  
HETATM    3  C   UNL     1     -11.794  13.444  68.639  1.00  0.00    -0.397 A  
HETATM    4  C   UNL     1     -12.003  14.494  67.761  1.00  0.00    -0.345 A  
HETATM    5  O   UNL     1     -10.131  10.126  65.645  1.00  0.00    -0.271 OA 
HETATM    6  C   UNL     1     -11.652  14.354  66.406  1.00  0.00    -0.383 A  
HETATM    7  C   UNL     1     -11.050  11.036  68.821  1.00  0.00    -0.239 C  
HETATM    8  C   UNL     1     -10.529  10.671  66.656  1.00  0.00    -0.237 C  
HETATM    9  C   UNL     1     -11.036  13.189  65.889  1.00  0.00    -0.271 A  
HETATM   10  C   UNL     1     -10.921  12.111  66.775  1.00  0.00    -0.325 A  
HETATM   11  C   UNL     1     -11.275  12.282  68.112  1.00  0.00    -0.320 A  
HETATM   12  O   UNL     1     -11.135  10.924  70.032  1.00  0.00    -0.268 OA 
BRANCH   9  13
HETATM   13  N   UNL     1     -10.652  13.102  64.536  1.00  0.00    -0.386 NA 
HETATM   14  H   UNL     1      -9.873  13.688  64.235  1.00  0.00     0.000 HD 
BRANCH  13  15
HETATM   15  C   UNL     1     -11.199  12.345  63.640  1.00  0.00    -0.474 C  
HETATM   16  C   UNL     1     -12.617  11.986  63.303  1.00  0.00    -0.512 C  
HETATM   17  O   UNL     1     -10.353  11.694  62.824  1.00  0.00    -0.635 OA 
HETATM   18  H   UNL     1     -10.755  11.138  62.166  1.00  0.00     0.000 HD 
ENDBRANCH  13  15
ENDBRANCH   9  13
ENDBRANCH   1   2
BRANCH   1  19
HETATM   19  C   UNL     1      -9.304   7.997  67.596  1.00  0.00    -0.162 A  
HETATM   20  C   UNL     1      -7.963   8.235  67.915  1.00  0.00    -0.123 A  
HETATM   21  C   UNL     1      -7.262   6.264  66.678  1.00  0.00    -0.074 A  
HETATM   22  C   UNL     1      -9.599   6.935  66.707  1.00  0.00    -0.215 A  
HETATM   23  C   UNL     1      -6.955   7.375  67.468  1.00  0.00    -0.079 A  
HETATM   24  C   UNL     1      -8.590   6.067  66.251  1.00  0.00    -0.137 A  
BRANCH  24  25
HETATM   25  O   UNL     1      -8.792   4.976  65.440  1.00  0.00    -0.144 OA 
BRANCH  25  26
HETATM   26  C   UNL     1      -9.828   4.055  65.765  1.00  0.00    -0.176 C  
HETATM   27  C   UNL     1      -9.410   3.285  67.010  1.00  0.00    -0.198 C  
ENDBRANCH  25  26
ENDBRANCH  24  25
BRANCH  21  28
HETATM   28  O   UNL     1      -6.344   5.319  66.288  1.00  0.00    -0.037 OA 
HETATM   29  C   UNL     1      -5.632   4.637  67.312  1.00  0.00    -0.013 C  
ENDBRANCH  21  28
ENDBRANCH   1  19
BRANCH   1  30
HETATM   30  C   UNL     1     -10.215   8.522  69.856  1.00  0.00    -0.204 C  
BRANCH  30  31
HETATM   31  S   UNL     1     -11.237   7.298  70.633  1.00  0.00    -0.281 S  
HETATM   32  O   UNL     1     -12.383   8.002  71.176  1.00  0.00    -0.294 OA 
HETATM   33  C   UNL     1     -10.330   6.667  72.026  1.00  0.00    -0.197 C  
HETATM   34  O   UNL     1     -11.426   6.200  69.708  1.00  0.00    -0.433 OA 
ENDBRANCH  30  31
ENDBRANCH   1  30
TORSDOF 9
ENDMDL
MODEL      130
REMARK 921   NORMALIZED FREE ENERGY PREDICTED BY IDOCK:   -5.12 KCAL/MOL
REMARK 922        TOTAL FREE ENERGY PREDICTED BY IDOCK:   -8.88 KCAL/MOL
REMARK 923 INTER-LIGAND FREE ENERGY PREDICTED BY IDOCK:   -7.38 KCAL/MOL
REMARK 924 INTRA-LIGAND FREE ENERGY PREDICTED BY IDOCK:   -1.49 KCAL/MOL
REMARK 927      BINDING AFFINITY PREDICTED BY RF-SCORE:    0.00 PKD
ROOT
HETATM    1  C   UNL     1      -9.908  13.516  68.009  1.00  0.00    -0.238 C  
ENDROOT
BRANCH   1   2
HETATM    2  N   UNL     1      -9.651  12.645  66.851  1.00  0.00    -0.225 N  
HETATM    3  C   UNL     1     -10.411  11.682  63.465  1.00  0.00    -0.498 A  
HETATM    4  C   UNL     1      -9.910  10.614  62.741  1.00  0.00    -0.220 A  
HETATM    5  O   UNL     1      -7.888  11.263  67.490  1.00  0.00    -0.115 OA 
HETATM    6  C   UNL     1      -8.874   9.828  63.278  1.00  0.00    -0.260 A  
HETATM    7  C   UNL     1     -10.300  12.895  65.678  1.00  0.00    -0.282 C  
HETATM    8  C   UNL     1      -8.701  11.653  66.673  1.00  0.00    -0.187 C  
HETATM    9  C   UNL     1      -8.268  10.107  64.527  1.00  0.00    -0.162 A  
HETATM   10  C   UNL     1      -8.854  11.133  65.278  1.00  0.00    -0.085 A  
HETATM   11  C   UNL     1      -9.877  11.895  64.717  1.00  0.00    -0.216 A  
HETATM   12  O   UNL     1     -11.079  13.796  65.417  1.00  0.00    -0.294 OA 
BRANCH   9  13
HETATM   13  N   UNL     1      -7.199   9.327  65.013  1.00  0.00    -0.096 NA 
HETATM   14  H   UNL     1      -6.259   9.597  64.724  1.00  0.00     0.000 HD 
BRANCH  13  15
HETATM   15  C   UNL     1      -7.304   8.300  65.792  1.00  0.00    -0.072 C  
HETATM   16  C   UNL     1      -7.852   6.913  65.622  1.00  0.00    -0.109 C  
HETATM   17  O   UNL     1      -6.863   8.469  67.051  1.00  0.00    -0.065 OA 
HETATM   18  H   UNL     1      -6.940   7.715  67.623  1.00  0.00     0.000 HD 
ENDBRANCH  13  15
ENDBRANCH   9  13
ENDBRANCH   1   2
BRANCH   1  19
HETATM   19  C   UNL     1      -9.746  15.023  67.735  1.00  0.00    -0.215 A  
HETATM   20  C   UNL     1     -10.838  15.892  67.845  1.00  0.00    -0.327 A  
HETATM   21  C   UNL     1      -9.367  17.827  67.855  1.00  0.00    -0.266 A  
HETATM   22  C   UNL     1      -8.459  15.589  67.568  1.00  0.00    -0.188 A  
HETATM   23  C   UNL     1     -10.649  17.276  67.912  1.00  0.00    -0.384 A  
HETATM   24  C   UNL     1      -8.262  16.981  67.632  1.00  0.00    -0.185 A  
BRANCH  24  25
HETATM   25  O   UNL     1      -7.046  17.613  67.544  1.00  0.00    -0.166 OA 
BRANCH  25  26
HETATM   26  C   UNL     1      -6.141  17.528  68.641  1.00  0.00    -0.174 C  
HETATM   27  C   UNL     1      -5.677  18.936  68.986  1.00  0.00    -0.225 C  
ENDBRANCH  25  26
ENDBRANCH  24  25
BRANCH  21  28
HETATM   28  O   UNL     1      -9.094  19.164  68.017  1.00  0.00    -0.293 OA 
HETATM   29  C   UNL     1     -10.157  19.999  68.458  1.00  0.00    -0.365 C  
ENDBRANCH  21  28
ENDBRANCH   1  19
BRANCH   1  30
HETATM   30  C   UNL     1     -11.223  13.295  68.758  1.00  0.00    -0.276 C  
BRANCH  30  31
HETATM   31  S   UNL     1     -11.541  11.631  69.283  1.00  0.00    -0.348 S  
HETATM   32  O   UNL     1     -12.285  10.996  68.211  1.00  0.00    -0.582 OA 
HETATM   33  C   UNL     1     -12.647  11.723  70.673  1.00  0.00    -0.201 C  
HETATM   34  O   UNL     1     -10.301  11.050  69.755  1.00  0.00    -0.067 OA 
ENDBRANCH  30  31
ENDBRANCH   1  30
TORSDOF 9
ENDMDL
MODEL      131
REMARK 921   NORMALIZED FREE ENERGY PREDICTED BY IDOCK:   -5.12 KCAL/MOL
REMARK 922        TOTAL FREE ENERGY PREDICTED BY IDOCK:   -8.88 KCAL/MOL
REMARK 923 INTER-LIGAND FREE ENERGY PREDICTED BY IDOCK:   -7.13 KCAL/MOL
REMARK 924 INTRA-LIGAND FREE ENERGY PREDICTED BY IDOCK:   -1.75 KCAL/MOL
REMARK 927      BINDING AFFINITY PREDICTED BY RF-SCORE:    0.00 PKD
ROOT
HETATM    1  C   UNL     1     -10.405   8.938  69.547  1.00  0.00    -0.213 C  
ENDROOT
BRANCH   1   2
HETATM    2  N   UNL     1     -10.301  10.221  68.834  1.00  0.00    -0.192 N  
HETATM    3  C   UNL     1     -11.901  13.126  67.428  1.00  0.00    -0.412 A  
HETATM    4  C   UNL     1     -11.332  14.145  66.684  1.00  0.00    -0.352 A  
HETATM    5  O   UNL     1      -8.023  10.562  68.492  1.00  0.00    -0.106 OA 
HETATM    6  C   UNL     1      -9.936  14.195  66.515  1.00  0.00    -0.289 A  
HETATM    7  C   UNL     1     -11.422  10.983  68.678  1.00  0.00    -0.308 C  
HETATM    8  C   UNL     1      -9.183  10.915  68.402  1.00  0.00    -0.168 C  
HETATM    9  C   UNL     1      -9.057  13.266  67.121  1.00  0.00    -0.231 A  
HETATM   10  C   UNL     1      -9.661  12.194  67.789  1.00  0.00    -0.197 A  
HETATM   11  C   UNL     1     -11.046  12.175  67.942  1.00  0.00    -0.295 A  
HETATM   12  O   UNL     1     -12.550  10.768  69.085  1.00  0.00    -0.312 OA 
BRANCH   9  13
HETATM   13  N   UNL     1      -7.659  13.375  66.971  1.00  0.00    -0.357 NA 
HETATM   14  H   UNL     1      -7.251  12.978  66.125  1.00  0.00     0.000 HD 
BRANCH  13  15
HETATM   15  C   UNL     1      -6.849  13.933  67.810  1.00  0.00    -0.175 C  
HETATM   16  C   UNL     1      -6.213  15.290  67.903  1.00  0.00    -0.170 C  
HETATM   17  O   UNL     1      -6.434  13.160  68.829  1.00  0.00    -0.083 OA 
HETATM   18  H   UNL     1      -5.839  13.570  69.446  1.00  0.00     0.000 HD 
ENDBRANCH  13  15
ENDBRANCH   9  13
ENDBRANCH   1   2
BRANCH   1  19
HETATM   19  C   UNL     1      -9.513   7.812  68.989  1.00  0.00    -0.150 A  
HETATM   20  C   UNL     1      -8.608   7.138  69.817  1.00  0.00    -0.141 A  
HETATM   21  C   UNL     1      -8.336   5.370  68.172  1.00  0.00    -0.098 A  
HETATM   22  C   UNL     1      -9.733   7.300  67.687  1.00  0.00    -0.173 A  
HETATM   23  C   UNL     1      -8.033   5.928  69.416  1.00  0.00    -0.102 A  
HETATM   24  C   UNL     1      -9.156   6.084  67.277  1.00  0.00    -0.111 A  
BRANCH  24  25
HETATM   25  O   UNL     1      -9.363   5.482  66.060  1.00  0.00    -0.159 OA 
BRANCH  25  26
HETATM   26  C   UNL     1     -10.610   4.842  65.808  1.00  0.00    -0.218 C  
HETATM   27  C   UNL     1     -10.441   3.923  64.605  1.00  0.00    -0.196 C  
ENDBRANCH  25  26
ENDBRANCH  24  25
BRANCH  21  28
HETATM   28  O   UNL     1      -7.894   4.139  67.752  1.00  0.00    -0.085 OA 
HETATM   29  C   UNL     1      -7.556   3.188  68.754  1.00  0.00    -0.048 C  
ENDBRANCH  21  28
ENDBRANCH   1  19
BRANCH   1  30
HETATM   30  C   UNL     1     -10.242   8.980  71.067  1.00  0.00    -0.277 C  
BRANCH  30  31
HETATM   31  S   UNL     1     -11.614   8.364  72.008  1.00  0.00    -0.379 S  
HETATM   32  O   UNL     1     -11.053   7.734  73.188  1.00  0.00    -0.409 OA 
HETATM   33  C   UNL     1     -12.363   7.065  71.054  1.00  0.00    -0.356 C  
HETATM   34  O   UNL     1     -12.594   9.423  72.142  1.00  0.00    -0.368 OA 
ENDBRANCH  30  31
ENDBRANCH   1  30
TORSDOF 9
ENDMDL
MODEL      132
REMARK 921   NORMALIZED FREE ENERGY PREDICTED BY IDOCK:   -5.11 KCAL/MOL
REMARK 922        TOTAL FREE ENERGY PREDICTED BY IDOCK:   -8.85 KCAL/MOL
REMARK 923 INTER-LIGAND FREE ENERGY PREDICTED BY IDOCK:   -7.71 KCAL/MOL
REMARK 924 INTRA-LIGAND FREE ENERGY PREDICTED BY IDOCK:   -1.14 KCAL/MOL
REMARK 927      BINDING AFFINITY PREDICTED BY RF-SCORE:    0.00 PKD
ROOT
HETATM    1  C   UNL     1     -10.996   9.975  69.962  1.00  0.00    -0.300 C  
ENDROOT
BRANCH   1   2
HETATM    2  N   UNL     1      -9.959   9.009  69.562  1.00  0.00    -0.186 N  
HETATM    3  C   UNL     1      -6.819   7.377  70.228  1.00  0.00    -0.052 A  
HETATM    4  C   UNL     1      -6.116   6.501  69.419  1.00  0.00    -0.022 A  
HETATM    5  O   UNL     1     -10.734   8.045  67.589  1.00  0.00    -0.216 OA 
HETATM    6  C   UNL     1      -6.691   6.039  68.220  1.00  0.00    -0.061 A  
HETATM    7  C   UNL     1      -8.929   8.752  70.419  1.00  0.00    -0.169 C  
HETATM    8  C   UNL     1      -9.913   8.146  68.481  1.00  0.00    -0.190 C  
HETATM    9  C   UNL     1      -8.000   6.391  67.812  1.00  0.00    -0.114 A  
HETATM   10  C   UNL     1      -8.652   7.349  68.599  1.00  0.00    -0.129 A  
HETATM   11  C   UNL     1      -8.057   7.784  69.782  1.00  0.00    -0.117 A  
HETATM   12  O   UNL     1      -8.740   9.199  71.537  1.00  0.00    -0.334 OA 
BRANCH   9  13
HETATM   13  N   UNL     1      -8.564   5.871  66.630  1.00  0.00    -0.117 NA 
HETATM   14  H   UNL     1      -8.244   6.272  65.748  1.00  0.00     0.000 HD 
BRANCH  13  15
HETATM   15  C   UNL     1      -9.450   4.931  66.563  1.00  0.00    -0.152 C  
HETATM   16  C   UNL     1     -10.455   4.516  65.528  1.00  0.00    -0.241 C  
HETATM   17  O   UNL     1      -9.552   4.141  67.646  1.00  0.00    -0.173 OA 
HETATM   18  H   UNL     1     -10.202   3.451  67.597  1.00  0.00     0.000 HD 
ENDBRANCH  13  15
ENDBRANCH   9  13
ENDBRANCH   1   2
BRANCH   1  19
HETATM   19  C   UNL     1     -11.120  11.209  69.048  1.00  0.00    -0.299 A  
HETATM   20  C   UNL     1     -11.004  11.085  67.659  1.00  0.00    -0.332 A  
HETATM   21  C   UNL     1     -11.951  13.299  67.329  1.00  0.00    -0.343 A  
HETATM   22  C   UNL     1     -11.553  12.451  69.572  1.00  0.00    -0.353 A  
HETATM   23  C   UNL     1     -11.422  12.115  66.810  1.00  0.00    -0.418 A  
HETATM   24  C   UNL     1     -11.973  13.492  68.724  1.00  0.00    -0.339 A  
BRANCH  24  25
HETATM   25  O   UNL     1     -12.467  14.703  69.143  1.00  0.00    -0.148 OA 
BRANCH  25  26
HETATM   26  C   UNL     1     -11.852  15.356  70.250  1.00  0.00    -0.338 C  
HETATM   27  C   UNL     1     -12.867  15.433  71.382  1.00  0.00    -0.508 C  
ENDBRANCH  25  26
ENDBRANCH  24  25
BRANCH  21  28
HETATM   28  O   UNL     1     -12.476  14.310  66.560  1.00  0.00    -0.428 OA 
HETATM   29  C   UNL     1     -12.397  14.166  65.148  1.00  0.00    -0.451 C  
ENDBRANCH  21  28
ENDBRANCH   1  19
BRANCH   1  30
HETATM   30  C   UNL     1     -12.395   9.415  70.218  1.00  0.00     0.299 C  
BRANCH  30  31
HETATM   31  S   UNL     1     -12.491   8.074  71.375  1.00  0.00    -0.273 S  
HETATM   32  O   UNL     1     -12.133   6.873  70.644  1.00  0.00    -0.371 OA 
HETATM   33  C   UNL     1     -14.200   7.894  71.829  1.00  0.00    -0.451 C  
HETATM   34  O   UNL     1     -11.763   8.444  72.572  1.00  0.00    -0.388 OA 
ENDBRANCH  30  31
ENDBRANCH   1  30
TORSDOF 9
ENDMDL
MODEL      133
REMARK 921   NORMALIZED FREE ENERGY PREDICTED BY IDOCK:   -5.10 KCAL/MOL
REMARK 922        TOTAL FREE ENERGY PREDICTED BY IDOCK:   -8.84 KCAL/MOL
REMARK 923 INTER-LIGAND FREE ENERGY PREDICTED BY IDOCK:   -6.81 KCAL/MOL
REMARK 924 INTRA-LIGAND FREE ENERGY PREDICTED BY IDOCK:   -2.04 KCAL/MOL
REMARK 927      BINDING AFFINITY PREDICTED BY RF-SCORE:    0.00 PKD
ROOT
HETATM    1  C   UNL     1     -10.251   7.791  67.495  1.00  0.00    -0.235 C  
ENDROOT
BRANCH   1   2
HETATM    2  N   UNL     1      -9.967   7.403  68.887  1.00  0.00    -0.165 N  
HETATM    3  C   UNL     1     -11.002   5.762  71.922  1.00  0.00    -0.318 A  
HETATM    4  C   UNL     1     -10.358   5.735  73.147  1.00  0.00    -0.227 A  
HETATM    5  O   UNL     1      -7.811   8.170  69.320  1.00  0.00    -0.105 OA 
HETATM    6  C   UNL     1      -9.071   6.288  73.275  1.00  0.00    -0.131 A  
HETATM    7  C   UNL     1     -10.851   6.596  69.541  1.00  0.00    -0.289 C  
HETATM    8  C   UNL     1      -8.827   7.588  69.650  1.00  0.00    -0.141 C  
HETATM    9  C   UNL     1      -8.361   6.839  72.182  1.00  0.00    -0.107 A  
HETATM   10  C   UNL     1      -9.068   6.938  70.977  1.00  0.00    -0.155 A  
HETATM   11  C   UNL     1     -10.340   6.378  70.882  1.00  0.00    -0.246 A  
HETATM   12  O   UNL     1     -11.879   6.095  69.121  1.00  0.00     0.096 OA 
BRANCH   9  13
HETATM   13  N   UNL     1      -7.052   7.340  72.335  1.00  0.00    -0.067 NA 
HETATM   14  H   UNL     1      -6.287   6.748  72.011  1.00  0.00     0.000 HD 
BRANCH  13  15
HETATM   15  C   UNL     1      -6.734   8.483  72.851  1.00  0.00    -0.048 C  
HETATM   16  C   UNL     1      -6.374   8.939  74.236  1.00  0.00    -0.064 C  
HETATM   17  O   UNL     1      -6.739   9.530  72.009  1.00  0.00    -0.282 OA 
HETATM   18  H   UNL     1      -6.506  10.369  72.388  1.00  0.00     0.000 HD 
ENDBRANCH  13  15
ENDBRANCH   9  13
ENDBRANCH   1   2
BRANCH   1  19
HETATM   19  C   UNL     1     -10.658   9.265  67.304  1.00  0.00    -0.303 A  
HETATM   20  C   UNL     1     -11.156  10.015  68.376  1.00  0.00    -0.236 A  
HETATM   21  C   UNL     1     -10.819  12.088  67.151  1.00  0.00    -0.253 A  
HETATM   22  C   UNL     1     -10.348   9.946  66.102  1.00  0.00    -0.223 A  
HETATM   23  C   UNL     1     -11.228  11.410  68.302  1.00  0.00    -0.326 A  
HETATM   24  C   UNL     1     -10.420  11.348  66.020  1.00  0.00    -0.255 A  
BRANCH  24  25
HETATM   25  O   UNL     1     -10.079  12.095  64.919  1.00  0.00    -0.266 OA 
BRANCH  25  26
HETATM   26  C   UNL     1     -10.649  11.766  63.656  1.00  0.00    -0.439 C  
HETATM   27  C   UNL     1     -12.134  12.096  63.702  1.00  0.00    -0.648 C  
ENDBRANCH  25  26
ENDBRANCH  24  25
BRANCH  21  28
HETATM   28  O   UNL     1     -10.763  13.456  67.042  1.00  0.00    -0.266 OA 
HETATM   29  C   UNL     1     -11.925  14.189  67.409  1.00  0.00    -0.404 C  
ENDBRANCH  21  28
ENDBRANCH   1  19
BRANCH   1  30
HETATM   30  C   UNL     1      -9.189   7.439  66.453  1.00  0.00    -0.159 C  
BRANCH  30  31
HETATM   31  S   UNL     1      -9.166   5.748  65.916  1.00  0.00    -0.063 S  
HETATM   32  O   UNL     1     -10.512   5.239  66.101  1.00  0.00    -0.238 OA 
HETATM   33  C   UNL     1      -8.130   4.853  67.050  1.00  0.00    -0.107 C  
HETATM   34  O   UNL     1      -8.534   5.686  64.614  1.00  0.00    -0.138 OA 
ENDBRANCH  30  31
ENDBRANCH   1  30
TORSDOF 9
ENDMDL
MODEL      134
REMARK 921   NORMALIZED FREE ENERGY PREDICTED BY IDOCK:   -5.10 KCAL/MOL
REMARK 922        TOTAL FREE ENERGY PREDICTED BY IDOCK:   -8.84 KCAL/MOL
REMARK 923 INTER-LIGAND FREE ENERGY PREDICTED BY IDOCK:   -7.17 KCAL/MOL
REMARK 924 INTRA-LIGAND FREE ENERGY PREDICTED BY IDOCK:   -1.67 KCAL/MOL
REMARK 927      BINDING AFFINITY PREDICTED BY RF-SCORE:    0.00 PKD
ROOT
HETATM    1  C   UNL     1     -10.122  12.019  68.381  1.00  0.00    -0.210 C  
ENDROOT
BRANCH   1   2
HETATM    2  N   UNL     1     -10.876  11.087  69.236  1.00  0.00    -0.230 N  
HETATM    3  C   UNL     1     -13.167  10.541  71.961  1.00  0.00    -0.483 A  
HETATM    4  C   UNL     1     -13.556   9.340  72.530  1.00  0.00    -0.478 A  
HETATM    5  O   UNL     1     -10.403   8.961  68.410  1.00  0.00    -0.195 OA 
HETATM    6  C   UNL     1     -13.148   8.125  71.950  1.00  0.00    -0.349 A  
HETATM    7  C   UNL     1     -11.759  11.591  70.144  1.00  0.00    -0.309 C  
HETATM    8  C   UNL     1     -10.976   9.707  69.180  1.00  0.00    -0.151 C  
HETATM    9  C   UNL     1     -12.385   8.061  70.759  1.00  0.00     0.044 A  
HETATM   10  C   UNL     1     -11.928   9.285  70.257  1.00  0.00     0.065 A  
HETATM   11  C   UNL     1     -12.352  10.472  70.852  1.00  0.00    -0.490 A  
HETATM   12  O   UNL     1     -12.060  12.755  70.348  1.00  0.00    -0.363 OA 
BRANCH   9  13
HETATM   13  N   UNL     1     -12.036   6.825  70.178  1.00  0.00    -0.639 NA 
HETATM   14  H   UNL     1     -12.701   6.415  69.524  1.00  0.00     0.000 HD 
BRANCH  13  15
HETATM   15  C   UNL     1     -10.946   6.165  70.402  1.00  0.00    -0.337 C  
HETATM   16  C   UNL     1      -9.699   5.910  69.606  1.00  0.00    -0.199 C  
HETATM   17  O   UNL     1     -10.877   5.526  71.582  1.00  0.00    -0.245 OA 
HETATM   18  H   UNL     1     -10.077   5.041  71.746  1.00  0.00     0.000 HD 
ENDBRANCH  13  15
ENDBRANCH   9  13
ENDBRANCH   1   2
BRANCH   1  19
HETATM   19  C   UNL     1      -8.728  11.521  67.952  1.00  0.00    -0.144 A  
HETATM   20  C   UNL     1      -7.770  11.165  68.908  1.00  0.00    -0.137 A  
HETATM   21  C   UNL     1      -6.430  10.037  67.222  1.00  0.00    -0.068 A  
HETATM   22  C   UNL     1      -8.459  11.222  66.595  1.00  0.00    -0.168 A  
HETATM   23  C   UNL     1      -6.639  10.425  68.548  1.00  0.00    -0.052 A  
HETATM   24  C   UNL     1      -7.322  10.480  66.225  1.00  0.00    -0.133 A  
BRANCH  24  25
HETATM   25  O   UNL     1      -7.013  10.090  64.945  1.00  0.00    -0.126 OA 
BRANCH  25  26
HETATM   26  C   UNL     1      -8.020   9.472  64.149  1.00  0.00    -0.137 C  
HETATM   27  C   UNL     1      -8.074   7.994  64.510  1.00  0.00    -0.132 C  
ENDBRANCH  25  26
ENDBRANCH  24  25
BRANCH  21  28
HETATM   28  O   UNL     1      -5.401   9.226  66.810  1.00  0.00    -0.038 OA 
HETATM   29  C   UNL     1      -5.414   7.875  67.256  1.00  0.00    -0.036 C  
ENDBRANCH  21  28
ENDBRANCH   1  19
BRANCH   1  30
HETATM   30  C   UNL     1     -10.847  12.561  67.149  1.00  0.00    -0.250 C  
BRANCH  30  31
HETATM   31  S   UNL     1     -10.949  14.328  67.029  1.00  0.00    -0.311 S  
HETATM   32  O   UNL     1     -12.244  14.702  67.567  1.00  0.00    -0.277 OA 
HETATM   33  C   UNL     1     -10.990  14.735  65.299  1.00  0.00    -0.374 C  
HETATM   34  O   UNL     1      -9.737  14.899  67.579  1.00  0.00    -0.211 OA 
ENDBRANCH  30  31
ENDBRANCH   1  30
TORSDOF 9
ENDMDL
MODEL      135
REMARK 921   NORMALIZED FREE ENERGY PREDICTED BY IDOCK:   -5.08 KCAL/MOL
REMARK 922        TOTAL FREE ENERGY PREDICTED BY IDOCK:   -8.81 KCAL/MOL
REMARK 923 INTER-LIGAND FREE ENERGY PREDICTED BY IDOCK:   -8.67 KCAL/MOL
REMARK 924 INTRA-LIGAND FREE ENERGY PREDICTED BY IDOCK:   -0.14 KCAL/MOL
REMARK 927      BINDING AFFINITY PREDICTED BY RF-SCORE:    0.00 PKD
ROOT
HETATM    1  C   UNL     1      -8.975   8.298  68.404  1.00  0.00    -0.136 C  
ENDROOT
BRANCH   1   2
HETATM    2  N   UNL     1     -10.001   8.961  69.225  1.00  0.00    -0.187 N  
HETATM    3  C   UNL     1     -12.668   8.735  71.635  1.00  0.00    -0.394 A  
HETATM    4  C   UNL     1     -13.503   9.741  72.091  1.00  0.00    -0.491 A  
HETATM    5  O   UNL     1      -9.760  11.239  68.804  1.00  0.00    -0.205 OA 
HETATM    6  C   UNL     1     -13.267  11.074  71.709  1.00  0.00    -0.505 A  
HETATM    7  C   UNL     1     -10.712   8.219  70.121  1.00  0.00    -0.239 C  
HETATM    8  C   UNL     1     -10.290  10.307  69.376  1.00  0.00    -0.235 C  
HETATM    9  C   UNL     1     -12.167  11.459  70.906  1.00  0.00    -0.344 A  
HETATM   10  C   UNL     1     -11.394  10.415  70.383  1.00  0.00    -0.417 A  
HETATM   11  C   UNL     1     -11.651   9.105  70.782  1.00  0.00    -0.329 A  
HETATM   12  O   UNL     1     -10.602   7.033  70.384  1.00  0.00    -0.213 OA 
BRANCH   9  13
HETATM   13  N   UNL     1     -11.932  12.811  70.583  1.00  0.00    -0.521 NA 
HETATM   14  H   UNL     1     -11.059  13.029  70.103  1.00  0.00     0.000 HD 
BRANCH  13  15
HETATM   15  C   UNL     1     -12.726  13.800  70.841  1.00  0.00    -0.323 C  
HETATM   16  C   UNL     1     -13.679  14.108  71.959  1.00  0.00    -0.554 C  
HETATM   17  O   UNL     1     -12.760  14.781  69.923  1.00  0.00    -0.553 OA 
HETATM   18  H   UNL     1     -13.343  15.506  70.112  1.00  0.00     0.000 HD 
ENDBRANCH  13  15
ENDBRANCH   9  13
ENDBRANCH   1   2
BRANCH   1  19
HETATM   19  C   UNL     1      -8.739   8.935  67.021  1.00  0.00    -0.130 A  
HETATM   20  C   UNL     1      -7.604   8.612  66.268  1.00  0.00    -0.094 A  
HETATM   21  C   UNL     1      -8.588   9.582  64.268  1.00  0.00    -0.198 A  
HETATM   22  C   UNL     1      -9.758   9.695  66.397  1.00  0.00    -0.285 A  
HETATM   23  C   UNL     1      -7.533   8.926  64.907  1.00  0.00    -0.098 A  
HETATM   24  C   UNL     1      -9.692  10.015  65.028  1.00  0.00    -0.317 A  
BRANCH  24  25
HETATM   25  O   UNL     1     -10.660  10.692  64.327  1.00  0.00    -0.298 OA 
BRANCH  25  26
HETATM   26  C   UNL     1     -10.854  12.080  64.579  1.00  0.00    -0.314 C  
HETATM   27  C   UNL     1     -11.844  12.618  63.555  1.00  0.00    -0.619 C  
ENDBRANCH  25  26
ENDBRANCH  24  25
BRANCH  21  28
HETATM   28  O   UNL     1      -8.636   9.830  62.918  1.00  0.00    -0.160 OA 
HETATM   29  C   UNL     1      -7.520  10.493  62.336  1.00  0.00    -0.142 C  
ENDBRANCH  21  28
ENDBRANCH   1  19
BRANCH   1  30
HETATM   30  C   UNL     1      -7.618   8.053  69.065  1.00  0.00    -0.098 C  
BRANCH  30  31
HETATM   31  S   UNL     1      -7.141   6.353  69.243  1.00  0.00    -0.083 S  
HETATM   32  O   UNL     1      -5.866   6.212  68.565  1.00  0.00    -0.011 OA 
HETATM   33  C   UNL     1      -8.310   5.382  68.320  1.00  0.00    -0.098 C  
HETATM   34  O   UNL     1      -7.273   5.980  70.636  1.00  0.00    -0.075 OA 
ENDBRANCH  30  31
ENDBRANCH   1  30
TORSDOF 9
ENDMDL
MODEL      136
REMARK 921   NORMALIZED FREE ENERGY PREDICTED BY IDOCK:   -5.06 KCAL/MOL
REMARK 922        TOTAL FREE ENERGY PREDICTED BY IDOCK:   -8.78 KCAL/MOL
REMARK 923 INTER-LIGAND FREE ENERGY PREDICTED BY IDOCK:   -7.17 KCAL/MOL
REMARK 924 INTRA-LIGAND FREE ENERGY PREDICTED BY IDOCK:   -1.62 KCAL/MOL
REMARK 927      BINDING AFFINITY PREDICTED BY RF-SCORE:    0.00 PKD
ROOT
HETATM    1  C   UNL     1     -10.906   8.851  69.282  1.00  0.00    -0.096 C  
ENDROOT
BRANCH   1   2
HETATM    2  N   UNL     1     -10.558  10.118  68.619  1.00  0.00    -0.200 N  
HETATM    3  C   UNL     1     -11.571  13.329  67.338  1.00  0.00    -0.396 A  
HETATM    4  C   UNL     1     -10.817  14.249  66.630  1.00  0.00    -0.301 A  
HETATM    5  O   UNL     1      -8.257  10.029  68.272  1.00  0.00    -0.103 OA 
HETATM    6  C   UNL     1      -9.438  14.037  66.452  1.00  0.00    -0.278 A  
HETATM    7  C   UNL     1     -11.511  11.086  68.500  1.00  0.00    -0.309 C  
HETATM    8  C   UNL     1      -9.328  10.601  68.205  1.00  0.00    -0.151 C  
HETATM    9  C   UNL     1      -8.753  12.933  67.014  1.00  0.00    -0.195 A  
HETATM   10  C   UNL     1      -9.551  11.972  67.646  1.00  0.00    -0.188 A  
HETATM   11  C   UNL     1     -10.914  12.213  67.808  1.00  0.00    -0.278 A  
HETATM   12  O   UNL     1     -12.660  11.076  68.908  1.00  0.00    -0.366 OA 
BRANCH   9  13
HETATM   13  N   UNL     1      -7.360  12.778  66.858  1.00  0.00    -0.363 NA 
HETATM   14  H   UNL     1      -7.040  12.267  66.035  1.00  0.00     0.000 HD 
BRANCH  13  15
HETATM   15  C   UNL     1      -6.453  13.224  67.665  1.00  0.00    -0.162 C  
HETATM   16  C   UNL     1      -5.782  12.673  68.889  1.00  0.00    -0.068 C  
HETATM   17  O   UNL     1      -5.997  14.463  67.409  1.00  0.00    -0.345 OA 
HETATM   18  H   UNL     1      -5.331  14.791  68.001  1.00  0.00     0.000 HD 
ENDBRANCH  13  15
ENDBRANCH   9  13
ENDBRANCH   1   2
BRANCH   1  19
HETATM   19  C   UNL     1     -10.406   7.584  68.562  1.00  0.00    -0.224 A  
HETATM   20  C   UNL     1     -10.764   7.327  67.234  1.00  0.00    -0.391 A  
HETATM   21  C   UNL     1      -9.028   5.637  67.036  1.00  0.00    -0.114 A  
HETATM   22  C   UNL     1      -9.416   6.764  69.156  1.00  0.00    -0.141 A  
HETATM   23  C   UNL     1     -10.079   6.370  66.479  1.00  0.00    -0.155 A  
HETATM   24  C   UNL     1      -8.723   5.798  68.402  1.00  0.00    -0.111 A  
BRANCH  24  25
HETATM   25  O   UNL     1      -7.708   5.004  68.876  1.00  0.00    -0.075 OA 
BRANCH  25  26
HETATM   26  C   UNL     1      -8.011   3.988  69.827  1.00  0.00    -0.055 C  
HETATM   27  C   UNL     1      -8.881   2.940  69.145  1.00  0.00    -0.152 C  
ENDBRANCH  25  26
ENDBRANCH  24  25
BRANCH  21  28
HETATM   28  O   UNL     1      -8.243   4.757  66.331  1.00  0.00    -0.107 OA 
HETATM   29  C   UNL     1      -8.809   4.163  65.169  1.00  0.00    -0.130 C  
ENDBRANCH  21  28
ENDBRANCH   1  19
BRANCH   1  30
HETATM   30  C   UNL     1     -10.562   8.736  70.768  1.00  0.00    -0.220 C  
BRANCH  30  31
HETATM   31  S   UNL     1     -11.859   8.130  71.816  1.00  0.00    -0.321 S  
HETATM   32  O   UNL     1     -12.595   7.153  71.036  1.00  0.00    -0.357 OA 
HETATM   33  C   UNL     1     -12.974   9.484  72.105  1.00  0.00    -0.412 C  
HETATM   34  O   UNL     1     -11.285   7.762  73.094  1.00  0.00    -0.402 OA 
ENDBRANCH  30  31
ENDBRANCH   1  30
TORSDOF 9
ENDMDL
MODEL      137
REMARK 921   NORMALIZED FREE ENERGY PREDICTED BY IDOCK:   -5.06 KCAL/MOL
REMARK 922        TOTAL FREE ENERGY PREDICTED BY IDOCK:   -8.78 KCAL/MOL
REMARK 923 INTER-LIGAND FREE ENERGY PREDICTED BY IDOCK:   -7.52 KCAL/MOL
REMARK 924 INTRA-LIGAND FREE ENERGY PREDICTED BY IDOCK:   -1.26 KCAL/MOL
REMARK 927      BINDING AFFINITY PREDICTED BY RF-SCORE:    0.00 PKD
ROOT
HETATM    1  C   UNL     1     -10.570   8.539  68.990  1.00  0.00    -0.154 C  
ENDROOT
BRANCH   1   2
HETATM    2  N   UNL     1     -10.289   8.003  70.332  1.00  0.00    -0.202 N  
HETATM    3  C   UNL     1      -8.516   8.241  73.458  1.00  0.00    -0.264 A  
HETATM    4  C   UNL     1      -8.508   7.345  74.513  1.00  0.00    -0.234 A  
HETATM    5  O   UNL     1     -11.683   6.152  70.568  1.00  0.00    -0.293 OA 
HETATM    6  C   UNL     1      -9.373   6.235  74.495  1.00  0.00    -0.216 A  
HETATM    7  C   UNL     1      -9.483   8.713  71.172  1.00  0.00    -0.215 C  
HETATM    8  C   UNL     1     -10.848   6.925  70.998  1.00  0.00    -0.241 C  
HETATM    9  C   UNL     1     -10.307   6.006  73.457  1.00  0.00    -0.244 A  
HETATM   10  C   UNL     1     -10.231   6.873  72.360  1.00  0.00    -0.208 A  
HETATM   11  C   UNL     1      -9.366   7.965  72.409  1.00  0.00    -0.246 A  
HETATM   12  O   UNL     1      -8.955   9.796  70.985  1.00  0.00    -0.094 OA 
BRANCH   9  13
HETATM   13  N   UNL     1     -11.192   4.910  73.496  1.00  0.00    -0.379 NA 
HETATM   14  H   UNL     1     -12.114   5.072  73.902  1.00  0.00     0.000 HD 
BRANCH  13  15
HETATM   15  C   UNL     1     -10.941   3.717  73.063  1.00  0.00    -0.075 C  
HETATM   16  C   UNL     1      -9.987   3.155  72.049  1.00  0.00    -0.223 C  
HETATM   17  O   UNL     1     -11.690   2.731  73.586  1.00  0.00    -0.159 OA 
HETATM   18  H   UNL     1     -11.505   1.856  73.268  1.00  0.00     0.000 HD 
ENDBRANCH  13  15
ENDBRANCH   9  13
ENDBRANCH   1   2
BRANCH   1  19
HETATM   19  C   UNL     1     -11.231   9.930  68.972  1.00  0.00    -0.131 A  
HETATM   20  C   UNL     1     -12.014  10.364  70.048  1.00  0.00    -0.324 A  
HETATM   21  C   UNL     1     -11.927  12.660  69.255  1.00  0.00    -0.246 A  
HETATM   22  C   UNL     1     -10.896  10.872  67.969  1.00  0.00    -0.293 A  
HETATM   23  C   UNL     1     -12.352  11.714  70.191  1.00  0.00    -0.297 A  
HETATM   24  C   UNL     1     -11.234  12.231  68.106  1.00  0.00    -0.269 A  
BRANCH  24  25
HETATM   25  O   UNL     1     -10.897  13.223  67.217  1.00  0.00    -0.260 OA 
BRANCH  25  26
HETATM   26  C   UNL     1     -11.040  12.979  65.821  1.00  0.00    -0.278 C  
HETATM   27  C   UNL     1     -12.514  13.119  65.462  1.00  0.00    -0.516 C  
ENDBRANCH  25  26
ENDBRANCH  24  25
BRANCH  21  28
HETATM   28  O   UNL     1     -12.130  14.013  69.380  1.00  0.00    -0.324 OA 
HETATM   29  C   UNL     1     -11.617  14.646  70.546  1.00  0.00    -0.263 C  
ENDBRANCH  21  28
ENDBRANCH   1  19
BRANCH   1  30
HETATM   30  C   UNL     1      -9.410   8.537  67.993  1.00  0.00    -0.136 C  
BRANCH  30  31
HETATM   31  S   UNL     1      -9.154   7.019  67.109  1.00  0.00    -0.132 S  
HETATM   32  O   UNL     1      -8.649   7.387  65.800  1.00  0.00    -0.147 OA 
HETATM   33  C   UNL     1     -10.754   6.291  66.844  1.00  0.00    -0.339 C  
HETATM   34  O   UNL     1      -8.402   6.115  67.955  1.00  0.00    -0.116 OA 
ENDBRANCH  30  31
ENDBRANCH   1  30
TORSDOF 9
ENDMDL
MODEL      138
REMARK 921   NORMALIZED FREE ENERGY PREDICTED BY IDOCK:   -5.04 KCAL/MOL
REMARK 922        TOTAL FREE ENERGY PREDICTED BY IDOCK:   -8.74 KCAL/MOL
REMARK 923 INTER-LIGAND FREE ENERGY PREDICTED BY IDOCK:   -7.60 KCAL/MOL
REMARK 924 INTRA-LIGAND FREE ENERGY PREDICTED BY IDOCK:   -1.14 KCAL/MOL
REMARK 927      BINDING AFFINITY PREDICTED BY RF-SCORE:    0.00 PKD
ROOT
HETATM    1  C   UNL     1      -9.859   9.166  69.438  1.00  0.00    -0.172 C  
ENDROOT
BRANCH   1   2
HETATM    2  N   UNL     1      -9.768  10.441  68.707  1.00  0.00    -0.174 N  
HETATM    3  C   UNL     1      -7.873  13.366  67.798  1.00  0.00    -0.158 A  
HETATM    4  C   UNL     1      -8.290  14.470  67.074  1.00  0.00    -0.195 A  
HETATM    5  O   UNL     1     -11.782  10.645  67.556  1.00  0.00    -0.445 OA 
HETATM    6  C   UNL     1      -9.562  14.475  66.474  1.00  0.00    -0.311 A  
HETATM    7  C   UNL     1      -8.581  11.113  68.695  1.00  0.00    -0.151 C  
HETATM    8  C   UNL     1     -10.672  11.045  67.850  1.00  0.00    -0.219 C  
HETATM    9  C   UNL     1     -10.441  13.367  66.530  1.00  0.00    -0.283 A  
HETATM   10  C   UNL     1     -10.035  12.302  67.343  1.00  0.00    -0.205 A  
HETATM   11  C   UNL     1      -8.767  12.325  67.921  1.00  0.00    -0.177 A  
HETATM   12  O   UNL     1      -7.518  10.788  69.197  1.00  0.00    -0.103 OA 
BRANCH   9  13
HETATM   13  N   UNL     1     -11.689  13.388  65.875  1.00  0.00    -0.340 NA 
HETATM   14  H   UNL     1     -12.441  13.909  66.325  1.00  0.00     0.000 HD 
BRANCH  13  15
HETATM   15  C   UNL     1     -11.966  12.804  64.754  1.00  0.00    -0.402 C  
HETATM   16  C   UNL     1     -11.165  12.455  63.533  1.00  0.00    -0.540 C  
HETATM   17  O   UNL     1     -13.247  12.433  64.585  1.00  0.00    -0.822 OA 
HETATM   18  H   UNL     1     -13.450  12.004  63.762  1.00  0.00     0.000 HD 
ENDBRANCH  13  15
ENDBRANCH   9  13
ENDBRANCH   1   2
BRANCH   1  19
HETATM   19  C   UNL     1      -9.688   7.906  68.568  1.00  0.00    -0.167 A  
HETATM   20  C   UNL     1     -10.789   7.104  68.247  1.00  0.00    -0.156 A  
HETATM   21  C   UNL     1      -9.529   5.981  66.498  1.00  0.00    -0.156 A  
HETATM   22  C   UNL     1      -8.461   7.648  67.910  1.00  0.00    -0.123 A  
HETATM   23  C   UNL     1     -10.712   6.158  67.219  1.00  0.00    -0.414 A  
HETATM   24  C   UNL     1      -8.376   6.697  66.877  1.00  0.00    -0.114 A  
BRANCH  24  25
HETATM   25  O   UNL     1      -7.247   6.426  66.143  1.00  0.00    -0.069 OA 
BRANCH  25  26
HETATM   26  C   UNL     1      -6.468   7.510  65.646  1.00  0.00    -0.045 C  
HETATM   27  C   UNL     1      -5.146   6.953  65.135  1.00  0.00    -0.023 C  
ENDBRANCH  25  26
ENDBRANCH  24  25
BRANCH  21  28
HETATM   28  O   UNL     1      -9.406   5.149  65.411  1.00  0.00    -0.150 OA 
HETATM   29  C   UNL     1      -9.454   3.748  65.652  1.00  0.00    -0.170 C  
ENDBRANCH  21  28
ENDBRANCH   1  19
BRANCH   1  30
HETATM   30  C   UNL     1      -8.981   9.023  70.682  1.00  0.00    -0.220 C  
BRANCH  30  31
HETATM   31  S   UNL     1      -9.778   8.348  72.116  1.00  0.00    -0.320 S  
HETATM   32  O   UNL     1      -8.954   8.712  73.253  1.00  0.00    -0.288 OA 
HETATM   33  C   UNL     1      -9.691   6.578  71.980  1.00  0.00    -0.149 C  
HETATM   34  O   UNL     1     -11.178   8.717  72.082  1.00  0.00    -0.342 OA 
ENDBRANCH  30  31
ENDBRANCH   1  30
TORSDOF 9
ENDMDL
MODEL      139
REMARK 921   NORMALIZED FREE ENERGY PREDICTED BY IDOCK:   -5.02 KCAL/MOL
REMARK 922        TOTAL FREE ENERGY PREDICTED BY IDOCK:   -8.72 KCAL/MOL
REMARK 923 INTER-LIGAND FREE ENERGY PREDICTED BY IDOCK:   -6.73 KCAL/MOL
REMARK 924 INTRA-LIGAND FREE ENERGY PREDICTED BY IDOCK:   -1.99 KCAL/MOL
REMARK 927      BINDING AFFINITY PREDICTED BY RF-SCORE:    0.00 PKD
ROOT
HETATM    1  C   UNL     1      -9.972   7.945  69.484  1.00  0.00    -0.189 C  
ENDROOT
BRANCH   1   2
HETATM    2  N   UNL     1      -9.312   7.154  68.433  1.00  0.00    -0.136 N  
HETATM    3  C   UNL     1      -6.396   5.417  67.229  1.00  0.00    -0.039 A  
HETATM    4  C   UNL     1      -6.193   4.833  65.990  1.00  0.00    -0.035 A  
HETATM    5  O   UNL     1     -10.930   6.829  66.789  1.00  0.00    -0.337 OA 
HETATM    6  C   UNL     1      -7.255   4.754  65.070  1.00  0.00    -0.064 A  
HETATM    7  C   UNL     1      -8.064   6.656  68.666  1.00  0.00    -0.119 C  
HETATM    8  C   UNL     1      -9.813   6.660  67.240  1.00  0.00    -0.146 C  
HETATM    9  C   UNL     1      -8.563   5.204  65.368  1.00  0.00    -0.146 A  
HETATM   10  C   UNL     1      -8.719   5.873  66.589  1.00  0.00    -0.121 A  
HETATM   11  C   UNL     1      -7.649   5.932  67.479  1.00  0.00    -0.093 A  
HETATM   12  O   UNL     1      -7.386   6.743  69.675  1.00  0.00    -0.082 OA 
BRANCH   9  13
HETATM   13  N   UNL     1      -9.616   5.064  64.441  1.00  0.00    -0.335 NA 
HETATM   14  H   UNL     1      -9.736   5.812  63.759  1.00  0.00     0.000 HD 
BRANCH  13  15
HETATM   15  C   UNL     1     -10.442   4.071  64.378  1.00  0.00    -0.197 C  
HETATM   16  C   UNL     1     -10.389   2.707  63.754  1.00  0.00    -0.145 C  
HETATM   17  O   UNL     1     -11.638   4.263  64.963  1.00  0.00    -0.978 OA 
HETATM   18  H   UNL     1     -12.245   3.534  64.917  1.00  0.00     0.000 HD 
ENDBRANCH  13  15
ENDBRANCH   9  13
ENDBRANCH   1   2
BRANCH   1  19
HETATM   19  C   UNL     1     -10.339   9.385  69.078  1.00  0.00    -0.224 A  
HETATM   20  C   UNL     1     -11.519   9.981  69.538  1.00  0.00    -0.176 A  
HETATM   21  C   UNL     1     -10.731  12.182  68.875  1.00  0.00    -0.175 A  
HETATM   22  C   UNL     1      -9.400  10.203  68.403  1.00  0.00    -0.137 A  
HETATM   23  C   UNL     1     -11.709  11.363  69.444  1.00  0.00    -0.406 A  
HETATM   24  C   UNL     1      -9.586  11.594  68.303  1.00  0.00    -0.198 A  
BRANCH  24  25
HETATM   25  O   UNL     1      -8.700  12.470  67.725  1.00  0.00    -0.159 OA 
BRANCH  25  26
HETATM   26  C   UNL     1      -7.522  11.958  67.110  1.00  0.00    -0.146 C  
HETATM   27  C   UNL     1      -6.348  12.835  67.523  1.00  0.00    -0.162 C  
ENDBRANCH  25  26
ENDBRANCH  24  25
BRANCH  21  28
HETATM   28  O   UNL     1     -10.800  13.554  68.840  1.00  0.00    -0.244 OA 
HETATM   29  C   UNL     1     -12.049  14.154  69.158  1.00  0.00    -0.325 C  
ENDBRANCH  21  28
ENDBRANCH   1  19
BRANCH   1  30
HETATM   30  C   UNL     1     -11.184   7.308  70.167  1.00  0.00    -0.239 C  
BRANCH  30  31
HETATM   31  S   UNL     1     -10.820   6.093  71.408  1.00  0.00    -0.274 S  
HETATM   32  O   UNL     1     -12.004   5.989  72.240  1.00  0.00    -0.318 OA 
HETATM   33  C   UNL     1      -9.540   6.768  72.441  1.00  0.00    -0.153 C  
HETATM   34  O   UNL     1     -10.277   4.918  70.759  1.00  0.00    -0.232 OA 
ENDBRANCH  30  31
ENDBRANCH   1  30
TORSDOF 9
ENDMDL
MODEL      140
REMARK 921   NORMALIZED FREE ENERGY PREDICTED BY IDOCK:   -5.01 KCAL/MOL
REMARK 922        TOTAL FREE ENERGY PREDICTED BY IDOCK:   -8.70 KCAL/MOL
REMARK 923 INTER-LIGAND FREE ENERGY PREDICTED BY IDOCK:   -7.23 KCAL/MOL
REMARK 924 INTRA-LIGAND FREE ENERGY PREDICTED BY IDOCK:   -1.47 KCAL/MOL
REMARK 927      BINDING AFFINITY PREDICTED BY RF-SCORE:    0.00 PKD
ROOT
HETATM    1  C   UNL     1     -10.205  12.159  65.849  1.00  0.00    -0.244 C  
ENDROOT
BRANCH   1   2
HETATM    2  N   UNL     1     -10.266  13.370  66.684  1.00  0.00    -0.269 N  
HETATM    3  C   UNL     1     -11.046  14.928  69.836  1.00  0.00    -0.288 A  
HETATM    4  C   UNL     1     -11.025  16.274  70.159  1.00  0.00    -0.335 A  
HETATM    5  O   UNL     1      -9.414  15.084  65.358  1.00  0.00    -0.187 OA 
HETATM    6  C   UNL     1     -10.529  17.209  69.232  1.00  0.00    -0.267 A  
HETATM    7  C   UNL     1     -10.607  13.250  67.999  1.00  0.00    -0.240 C  
HETATM    8  C   UNL     1      -9.869  14.667  66.405  1.00  0.00    -0.285 C  
HETATM    9  C   UNL     1      -9.990  16.835  67.978  1.00  0.00    -0.272 A  
HETATM   10  C   UNL     1     -10.107  15.481  67.639  1.00  0.00    -0.243 A  
HETATM   11  C   UNL     1     -10.601  14.579  68.580  1.00  0.00    -0.252 A  
HETATM   12  O   UNL     1     -10.851  12.237  68.632  1.00  0.00    -0.221 OA 
BRANCH   9  13
HETATM   13  N   UNL     1      -9.455  17.794  67.094  1.00  0.00    -0.260 NA 
HETATM   14  H   UNL     1     -10.118  18.325  66.530  1.00  0.00     0.000 HD 
BRANCH  13  15
HETATM   15  C   UNL     1      -8.199  18.060  66.935  1.00  0.00    -0.242 C  
HETATM   16  C   UNL     1      -7.169  18.768  67.766  1.00  0.00    -0.247 C  
HETATM   17  O   UNL     1      -7.656  17.658  65.773  1.00  0.00    -0.530 OA 
HETATM   18  H   UNL     1      -6.734  17.854  65.656  1.00  0.00     0.000 HD 
ENDBRANCH  13  15
ENDBRANCH   9  13
ENDBRANCH   1   2
BRANCH   1  19
HETATM   19  C   UNL     1      -9.257  11.061  66.368  1.00  0.00    -0.192 A  
HETATM   20  C   UNL     1      -7.997  11.388  66.882  1.00  0.00    -0.158 A  
HETATM   21  C   UNL     1      -7.773   9.183  67.881  1.00  0.00    -0.093 A  
HETATM   22  C   UNL     1      -9.716   9.731  66.526  1.00  0.00    -0.267 A  
HETATM   23  C   UNL     1      -7.267  10.462  67.635  1.00  0.00    -0.086 A  
HETATM   24  C   UNL     1      -8.986   8.794  67.281  1.00  0.00    -0.132 A  
BRANCH  24  25
HETATM   25  O   UNL     1      -9.383   7.505  67.539  1.00  0.00    -0.136 OA 
BRANCH  25  26
HETATM   26  C   UNL     1     -10.723   7.121  67.243  1.00  0.00    -0.329 C  
HETATM   27  C   UNL     1     -10.776   5.602  67.154  1.00  0.00    -0.316 C  
ENDBRANCH  25  26
ENDBRANCH  24  25
BRANCH  21  28
HETATM   28  O   UNL     1      -7.164   8.258  68.694  1.00  0.00    -0.083 OA 
HETATM   29  C   UNL     1      -7.056   8.573  70.076  1.00  0.00    -0.046 C  
ENDBRANCH  21  28
ENDBRANCH   1  19
BRANCH   1  30
HETATM   30  C   UNL     1     -11.540  11.514  65.475  1.00  0.00     0.097 C  
BRANCH  30  31
HETATM   31  S   UNL     1     -12.725  12.584  64.702  1.00  0.00    -0.184 S  
HETATM   32  O   UNL     1     -13.692  11.722  64.047  1.00  0.00    -0.236 OA 
HETATM   33  C   UNL     1     -11.876  13.459  63.409  1.00  0.00    -0.268 C  
HETATM   34  O   UNL     1     -13.163  13.565  65.674  1.00  0.00    -0.424 OA 
ENDBRANCH  30  31
ENDBRANCH   1  30
TORSDOF 9
ENDMDL
MODEL      141
REMARK 921   NORMALIZED FREE ENERGY PREDICTED BY IDOCK:   -5.00 KCAL/MOL
REMARK 922        TOTAL FREE ENERGY PREDICTED BY IDOCK:   -8.68 KCAL/MOL
REMARK 923 INTER-LIGAND FREE ENERGY PREDICTED BY IDOCK:   -8.46 KCAL/MOL
REMARK 924 INTRA-LIGAND FREE ENERGY PREDICTED BY IDOCK:   -0.22 KCAL/MOL
REMARK 927      BINDING AFFINITY PREDICTED BY RF-SCORE:    0.00 PKD
ROOT
HETATM    1  C   UNL     1      -9.382  14.251  68.159  1.00  0.00    -0.206 C  
ENDROOT
BRANCH   1   2
HETATM    2  N   UNL     1     -10.404  13.790  69.114  1.00  0.00    -0.054 N  
HETATM    3  C   UNL     1     -12.616  14.493  71.868  1.00  0.00    -0.413 A  
HETATM    4  C   UNL     1     -13.417  13.612  72.574  1.00  0.00    -0.675 A  
HETATM    5  O   UNL     1     -10.825  11.570  68.553  1.00  0.00    -0.191 OA 
HETATM    6  C   UNL     1     -13.536  12.277  72.148  1.00  0.00    -0.431 A  
HETATM    7  C   UNL     1     -10.986  14.698  69.949  1.00  0.00    -0.160 C  
HETATM    8  C   UNL     1     -11.034  12.562  69.224  1.00  0.00    -0.080 C  
HETATM    9  C   UNL     1     -12.906  11.786  70.979  1.00  0.00    -0.215 A  
HETATM   10  C   UNL     1     -12.030  12.669  70.336  1.00  0.00    -0.331 A  
HETATM   11  C   UNL     1     -11.937  13.987  70.782  1.00  0.00    -0.364 A  
HETATM   12  O   UNL     1     -10.804  15.902  70.009  1.00  0.00    -0.298 OA 
BRANCH   9  13
HETATM   13  N   UNL     1     -13.086  10.454  70.553  1.00  0.00    -0.493 NA 
HETATM   14  H   UNL     1     -13.390  10.312  69.590  1.00  0.00     0.000 HD 
BRANCH  13  15
HETATM   15  C   UNL     1     -12.900   9.397  71.275  1.00  0.00    -0.309 C  
HETATM   16  C   UNL     1     -11.794   8.929  72.175  1.00  0.00    -0.417 C  
HETATM   17  O   UNL     1     -13.872   8.470  71.221  1.00  0.00    -0.552 OA 
HETATM   18  H   UNL     1     -13.736   7.693  71.750  1.00  0.00     0.000 HD 
ENDBRANCH  13  15
ENDBRANCH   9  13
ENDBRANCH   1   2
BRANCH   1  19
HETATM   19  C   UNL     1      -9.558  15.702  67.671  1.00  0.00    -0.220 A  
HETATM   20  C   UNL     1     -10.705  16.086  66.967  1.00  0.00    -0.277 A  
HETATM   21  C   UNL     1     -10.197  18.437  67.317  1.00  0.00    -0.374 A  
HETATM   22  C   UNL     1      -8.668  16.716  68.099  1.00  0.00    -0.201 A  
HETATM   23  C   UNL     1     -11.024  17.437  66.799  1.00  0.00     0.175 A  
HETATM   24  C   UNL     1      -8.981  18.078  67.931  1.00  0.00    -0.265 A  
BRANCH  24  25
HETATM   25  O   UNL     1      -8.210  19.127  68.369  1.00  0.00    -0.321 OA 
BRANCH  25  26
HETATM   26  C   UNL     1      -7.063  18.856  69.168  1.00  0.00    -0.269 C  
HETATM   27  C   UNL     1      -6.275  20.149  69.327  1.00  0.00    -0.361 C  
ENDBRANCH  25  26
ENDBRANCH  24  25
BRANCH  21  28
HETATM   28  O   UNL     1     -10.495  19.778  67.281  1.00  0.00    -0.426 OA 
HETATM   29  C   UNL     1     -10.377  20.441  66.029  1.00  0.00    -0.098 C  
ENDBRANCH  21  28
ENDBRANCH   1  19
BRANCH   1  30
HETATM   30  C   UNL     1      -7.922  14.045  68.563  1.00  0.00    -0.141 C  
BRANCH  30  31
HETATM   31  S   UNL     1      -7.210  12.482  68.118  1.00  0.00    -0.120 S  
HETATM   32  O   UNL     1      -7.180  11.685  69.330  1.00  0.00    -0.099 OA 
HETATM   33  C   UNL     1      -5.516  12.785  67.674  1.00  0.00    -0.121 C  
HETATM   34  O   UNL     1      -7.885  11.988  66.936  1.00  0.00    -0.154 OA 
ENDBRANCH  30  31
ENDBRANCH   1  30
TORSDOF 9
ENDMDL
MODEL      142
REMARK 921   NORMALIZED FREE ENERGY PREDICTED BY IDOCK:   -4.96 KCAL/MOL
REMARK 922        TOTAL FREE ENERGY PREDICTED BY IDOCK:   -8.63 KCAL/MOL
REMARK 923 INTER-LIGAND FREE ENERGY PREDICTED BY IDOCK:   -7.33 KCAL/MOL
REMARK 924 INTRA-LIGAND FREE ENERGY PREDICTED BY IDOCK:   -1.30 KCAL/MOL
REMARK 927      BINDING AFFINITY PREDICTED BY RF-SCORE:    0.00 PKD
ROOT
HETATM    1  C   UNL     1      -9.246   7.898  67.975  1.00  0.00    -0.131 C  
ENDROOT
BRANCH   1   2
HETATM    2  N   UNL     1      -9.614   8.951  67.014  1.00  0.00    -0.164 N  
HETATM    3  C   UNL     1      -9.149  10.522  63.807  1.00  0.00    -0.258 A  
HETATM    4  C   UNL     1      -9.729  11.684  63.326  1.00  0.00    -0.390 A  
HETATM    5  O   UNL     1     -11.347  10.136  68.021  1.00  0.00    -0.250 OA 
HETATM    6  C   UNL     1     -10.734  12.326  64.072  1.00  0.00    -0.438 A  
HETATM    7  C   UNL     1      -9.056   8.934  65.769  1.00  0.00    -0.221 C  
HETATM    8  C   UNL     1     -10.595   9.925  67.089  1.00  0.00    -0.228 C  
HETATM    9  C   UNL     1     -11.231  11.810  65.293  1.00  0.00    -0.254 A  
HETATM   10  C   UNL     1     -10.565  10.689  65.802  1.00  0.00    -0.168 A  
HETATM   11  C   UNL     1      -9.576  10.073  65.037  1.00  0.00    -0.362 A  
HETATM   12  O   UNL     1      -8.283   8.121  65.293  1.00  0.00    -0.134 OA 
BRANCH   9  13
HETATM   13  N   UNL     1     -12.273  12.454  65.990  1.00  0.00    -0.624 NA 
HETATM   14  H   UNL     1     -12.999  11.861  66.391  1.00  0.00     0.000 HD 
BRANCH  13  15
HETATM   15  C   UNL     1     -12.392  13.730  66.166  1.00  0.00    -0.452 C  
HETATM   16  C   UNL     1     -11.648  14.743  66.987  1.00  0.00    -0.352 C  
HETATM   17  O   UNL     1     -13.406  14.323  65.512  1.00  0.00    -0.656 OA 
HETATM   18  H   UNL     1     -13.492  15.260  65.642  1.00  0.00     0.000 HD 
ENDBRANCH  13  15
ENDBRANCH   9  13
ENDBRANCH   1   2
BRANCH   1  19
HETATM   19  C   UNL     1      -9.431   6.457  67.460  1.00  0.00    -0.121 A  
HETATM   20  C   UNL     1     -10.664   6.032  66.951  1.00  0.00    -0.407 A  
HETATM   21  C   UNL     1      -9.635   4.068  65.955  1.00  0.00    -0.193 A  
HETATM   22  C   UNL     1      -8.314   5.602  67.302  1.00  0.00    -0.100 A  
HETATM   23  C   UNL     1     -10.762   4.855  66.201  1.00  0.00    -0.243 A  
HETATM   24  C   UNL     1      -8.407   4.416  66.550  1.00  0.00    -0.105 A  
BRANCH  24  25
HETATM   25  O   UNL     1      -7.364   3.560  66.292  1.00  0.00    -0.073 OA 
BRANCH  25  26
HETATM   26  C   UNL     1      -6.201   4.064  65.642  1.00  0.00    -0.031 C  
HETATM   27  C   UNL     1      -6.424   3.987  64.138  1.00  0.00    -0.041 C  
ENDBRANCH  25  26
ENDBRANCH  24  25
BRANCH  21  28
HETATM   28  O   UNL     1      -9.632   2.958  65.145  1.00  0.00    -0.121 OA 
HETATM   29  C   UNL     1     -10.317   3.054  63.902  1.00  0.00    -0.174 C  
ENDBRANCH  21  28
ENDBRANCH   1  19
BRANCH   1  30
HETATM   30  C   UNL     1      -7.866   8.010  68.624  1.00  0.00    -0.118 C  
BRANCH  30  31
HETATM   31  S   UNL     1      -7.825   8.779  70.222  1.00  0.00    -0.107 S  
HETATM   32  O   UNL     1      -9.163   9.282  70.471  1.00  0.00    -0.222 OA 
HETATM   33  C   UNL     1      -6.770  10.204  70.092  1.00  0.00    -0.138 C  
HETATM   34  O   UNL     1      -7.204   7.865  71.158  1.00  0.00    -0.055 OA 
ENDBRANCH  30  31
ENDBRANCH   1  30
TORSDOF 9
ENDMDL
MODEL      143
REMARK 921   NORMALIZED FREE ENERGY PREDICTED BY IDOCK:   -4.96 KCAL/MOL
REMARK 922        TOTAL FREE ENERGY PREDICTED BY IDOCK:   -8.62 KCAL/MOL
REMARK 923 INTER-LIGAND FREE ENERGY PREDICTED BY IDOCK:   -8.94 KCAL/MOL
REMARK 924 INTRA-LIGAND FREE ENERGY PREDICTED BY IDOCK:    0.32 KCAL/MOL
REMARK 927      BINDING AFFINITY PREDICTED BY RF-SCORE:    0.00 PKD
ROOT
HETATM    1  C   UNL     1      -9.525  12.924  65.590  1.00  0.00     0.078 C  
ENDROOT
BRANCH   1   2
HETATM    2  N   UNL     1      -9.762  14.025  66.538  1.00  0.00    -0.286 N  
HETATM    3  C   UNL     1      -9.998  17.559  67.191  1.00  0.00    -0.314 A  
HETATM    4  C   UNL     1     -10.172  18.200  68.406  1.00  0.00    -0.401 A  
HETATM    5  O   UNL     1     -10.272  13.001  68.567  1.00  0.00    -0.241 OA 
HETATM    6  C   UNL     1     -10.421  17.445  69.567  1.00  0.00     0.028 A  
HETATM    7  C   UNL     1      -9.812  15.304  66.067  1.00  0.00    -0.328 C  
HETATM    8  C   UNL     1     -10.120  13.990  67.875  1.00  0.00    -0.237 C  
HETATM    9  C   UNL     1     -10.557  16.036  69.551  1.00  0.00    -0.290 A  
HETATM   10  C   UNL     1     -10.286  15.406  68.330  1.00  0.00    -0.229 A  
HETATM   11  C   UNL     1     -10.045  16.182  67.198  1.00  0.00    -0.269 A  
HETATM   12  O   UNL     1      -9.715  15.695  64.917  1.00  0.00    -0.181 OA 
BRANCH   9  13
HETATM   13  N   UNL     1     -10.856  15.316  70.725  1.00  0.00    -0.506 NA 
HETATM   14  H   UNL     1     -10.111  15.221  71.414  1.00  0.00     0.000 HD 
BRANCH  13  15
HETATM   15  C   UNL     1     -11.992  14.764  71.007  1.00  0.00    -0.331 C  
HETATM   16  C   UNL     1     -13.332  15.293  71.431  1.00  0.00    -0.573 C  
HETATM   17  O   UNL     1     -12.025  13.422  70.947  1.00  0.00    -0.484 OA 
HETATM   18  H   UNL     1     -12.859  13.017  71.153  1.00  0.00     0.000 HD 
ENDBRANCH  13  15
ENDBRANCH   9  13
ENDBRANCH   1   2
BRANCH   1  19
HETATM   19  C   UNL     1      -9.061  11.603  66.233  1.00  0.00    -0.219 A  
HETATM   20  C   UNL     1      -7.796  11.500  66.824  1.00  0.00    -0.146 A  
HETATM   21  C   UNL     1      -8.428   9.438  67.945  1.00  0.00    -0.116 A  
HETATM   22  C   UNL     1      -9.973  10.536  66.422  1.00  0.00    -0.271 A  
HETATM   23  C   UNL     1      -7.487  10.434  67.675  1.00  0.00    -0.089 A  
HETATM   24  C   UNL     1      -9.667   9.460  67.275  1.00  0.00    -0.165 A  
BRANCH  24  25
HETATM   25  O   UNL     1     -10.512   8.417  67.566  1.00  0.00    -0.249 OA 
BRANCH  25  26
HETATM   26  C   UNL     1     -10.451   7.235  66.773  1.00  0.00    -0.241 C  
HETATM   27  C   UNL     1     -10.696   6.038  67.681  1.00  0.00    -0.377 C  
ENDBRANCH  25  26
ENDBRANCH  24  25
BRANCH  21  28
HETATM   28  O   UNL     1      -8.235   8.419  68.847  1.00  0.00    -0.112 OA 
HETATM   29  C   UNL     1      -8.156   8.771  70.222  1.00  0.00    -0.116 C  
ENDBRANCH  21  28
ENDBRANCH   1  19
BRANCH   1  30
HETATM   30  C   UNL     1     -10.649  12.616  64.599  1.00  0.00    -0.333 C  
BRANCH  30  31
HETATM   31  S   UNL     1     -12.298  12.719  65.246  1.00  0.00    -0.449 S  
HETATM   32  O   UNL     1     -13.151  12.013  64.309  1.00  0.00    -0.671 OA 
HETATM   33  C   UNL     1     -12.782  14.428  65.175  1.00  0.00    -0.251 C  
HETATM   34  O   UNL     1     -12.271  12.335  66.642  1.00  0.00    -0.574 OA 
ENDBRANCH  30  31
ENDBRANCH   1  30
TORSDOF 9
ENDMDL
MODEL      144
REMARK 921   NORMALIZED FREE ENERGY PREDICTED BY IDOCK:   -4.95 KCAL/MOL
REMARK 922        TOTAL FREE ENERGY PREDICTED BY IDOCK:   -8.61 KCAL/MOL
REMARK 923 INTER-LIGAND FREE ENERGY PREDICTED BY IDOCK:   -6.87 KCAL/MOL
REMARK 924 INTRA-LIGAND FREE ENERGY PREDICTED BY IDOCK:   -1.74 KCAL/MOL
REMARK 927      BINDING AFFINITY PREDICTED BY RF-SCORE:    0.00 PKD
ROOT
HETATM    1  C   UNL     1      -8.870   6.128  71.521  1.00  0.00    -0.135 C  
ENDROOT
BRANCH   1   2
HETATM    2  N   UNL     1     -10.054   7.001  71.465  1.00  0.00    -0.188 N  
HETATM    3  C   UNL     1     -13.587   7.472  71.982  1.00  0.00    -0.214 A  
HETATM    4  C   UNL     1     -14.365   8.571  71.661  1.00  0.00    -0.497 A  
HETATM    5  O   UNL     1      -9.268   9.072  70.746  1.00  0.00    -0.203 OA 
HETATM    6  C   UNL     1     -13.754   9.746  71.184  1.00  0.00    -0.144 A  
HETATM    7  C   UNL     1     -11.239   6.541  71.961  1.00  0.00    -0.273 C  
HETATM    8  C   UNL     1     -10.162   8.339  71.124  1.00  0.00    -0.198 C  
HETATM    9  C   UNL     1     -12.351   9.884  71.058  1.00  0.00    -0.357 A  
HETATM   10  C   UNL     1     -11.596   8.730  71.300  1.00  0.00    -0.353 A  
HETATM   11  C   UNL     1     -12.230   7.584  71.774  1.00  0.00    -0.345 A  
HETATM   12  O   UNL     1     -11.474   5.473  72.500  1.00  0.00    -0.283 OA 
BRANCH   9  13
HETATM   13  N   UNL     1     -11.770  11.093  70.623  1.00  0.00    -0.413 NA 
HETATM   14  H   UNL     1     -11.578  11.798  71.334  1.00  0.00     0.000 HD 
BRANCH  13  15
HETATM   15  C   UNL     1     -11.459  11.387  69.402  1.00  0.00    -0.310 C  
HETATM   16  C   UNL     1     -10.452  12.306  68.774  1.00  0.00    -0.187 C  
HETATM   17  O   UNL     1     -12.188  10.782  68.448  1.00  0.00    -0.832 OA 
HETATM   18  H   UNL     1     -11.960  10.998  67.551  1.00  0.00     0.000 HD 
ENDBRANCH  13  15
ENDBRANCH   9  13
ENDBRANCH   1   2
BRANCH   1  19
HETATM   19  C   UNL     1      -8.438   5.534  70.167  1.00  0.00    -0.117 A  
HETATM   20  C   UNL     1      -7.109   5.157  69.942  1.00  0.00    -0.058 A  
HETATM   21  C   UNL     1      -7.746   3.890  67.968  1.00  0.00    -0.066 A  
HETATM   22  C   UNL     1      -9.407   5.168  69.201  1.00  0.00    -0.171 A  
HETATM   23  C   UNL     1      -6.769   4.339  68.860  1.00  0.00    -0.046 A  
HETATM   24  C   UNL     1      -9.071   4.347  68.109  1.00  0.00    -0.127 A  
BRANCH  24  25
HETATM   25  O   UNL     1      -9.955   3.892  67.160  1.00  0.00    -0.134 OA 
BRANCH  25  26
HETATM   26  C   UNL     1     -10.471   4.808  66.200  1.00  0.00    -0.290 C  
HETATM   27  C   UNL     1     -10.272   4.211  64.814  1.00  0.00    -0.210 C  
ENDBRANCH  25  26
ENDBRANCH  24  25
BRANCH  21  28
HETATM   28  O   UNL     1      -7.507   3.004  66.945  1.00  0.00    -0.069 OA 
HETATM   29  C   UNL     1      -6.529   3.369  65.979  1.00  0.00    -0.033 C  
ENDBRANCH  21  28
ENDBRANCH   1  19
BRANCH   1  30
HETATM   30  C   UNL     1      -7.634   6.691  72.223  1.00  0.00    -0.095 C  
BRANCH  30  31
HETATM   31  S   UNL     1      -7.705   6.736  73.995  1.00  0.00    -0.103 S  
HETATM   32  O   UNL     1      -6.350   6.520  74.467  1.00  0.00    -0.075 OA 
HETATM   33  C   UNL     1      -8.649   5.323  74.517  1.00  0.00    -0.108 C  
HETATM   34  O   UNL     1      -8.439   7.918  74.398  1.00  0.00    -0.233 OA 
ENDBRANCH  30  31
ENDBRANCH   1  30
TORSDOF 9
ENDMDL
MODEL      145
REMARK 921   NORMALIZED FREE ENERGY PREDICTED BY IDOCK:   -4.95 KCAL/MOL
REMARK 922        TOTAL FREE ENERGY PREDICTED BY IDOCK:   -8.61 KCAL/MOL
REMARK 923 INTER-LIGAND FREE ENERGY PREDICTED BY IDOCK:   -6.86 KCAL/MOL
REMARK 924 INTRA-LIGAND FREE ENERGY PREDICTED BY IDOCK:   -1.75 KCAL/MOL
REMARK 927      BINDING AFFINITY PREDICTED BY RF-SCORE:    0.00 PKD
ROOT
HETATM    1  C   UNL     1      -9.608   9.773  68.489  1.00  0.00    -0.149 C  
ENDROOT
BRANCH   1   2
HETATM    2  N   UNL     1      -9.825  11.111  67.914  1.00  0.00    -0.170 N  
HETATM    3  C   UNL     1     -12.069  13.569  66.539  1.00  0.00    -0.460 A  
HETATM    4  C   UNL     1     -11.761  14.798  65.981  1.00  0.00    -0.248 A  
HETATM    5  O   UNL     1      -7.741  12.150  67.952  1.00  0.00    -0.114 OA 
HETATM    6  C   UNL     1     -10.440  15.279  66.030  1.00  0.00    -0.328 A  
HETATM    7  C   UNL     1     -11.100  11.521  67.656  1.00  0.00    -0.266 C  
HETATM    8  C   UNL     1      -8.934  12.153  67.718  1.00  0.00    -0.179 C  
HETATM    9  C   UNL     1      -9.394  14.581  66.679  1.00  0.00    -0.281 A  
HETATM   10  C   UNL     1      -9.710  13.302  67.153  1.00  0.00    -0.236 A  
HETATM   11  C   UNL     1     -11.029  12.856  67.092  1.00  0.00    -0.290 A  
HETATM   12  O   UNL     1     -12.146  10.933  67.868  1.00  0.00    -0.527 OA 
BRANCH   9  13
HETATM   13  N   UNL     1      -8.091  15.116  66.752  1.00  0.00    -0.336 NA 
HETATM   14  H   UNL     1      -7.315  14.469  66.613  1.00  0.00     0.000 HD 
BRANCH  13  15
HETATM   15  C   UNL     1      -7.793  16.354  66.981  1.00  0.00    -0.212 C  
HETATM   16  C   UNL     1      -7.316  17.488  66.122  1.00  0.00    -0.347 C  
HETATM   17  O   UNL     1      -7.889  16.755  68.261  1.00  0.00    -0.179 OA 
HETATM   18  H   UNL     1      -7.669  17.664  68.429  1.00  0.00     0.000 HD 
ENDBRANCH  13  15
ENDBRANCH   9  13
ENDBRANCH   1   2
BRANCH   1  19
HETATM   19  C   UNL     1      -8.710   8.845  67.650  1.00  0.00    -0.124 A  
HETATM   20  C   UNL     1      -7.954   7.837  68.260  1.00  0.00    -0.122 A  
HETATM   21  C   UNL     1      -7.563   6.759  66.117  1.00  0.00    -0.086 A  
HETATM   22  C   UNL     1      -8.785   8.857  66.236  1.00  0.00    -0.162 A  
HETATM   23  C   UNL     1      -7.394   6.802  67.503  1.00  0.00    -0.096 A  
HETATM   24  C   UNL     1      -8.223   7.821  65.468  1.00  0.00    -0.137 A  
BRANCH  24  25
HETATM   25  O   UNL     1      -8.301   7.717  64.101  1.00  0.00    -0.042 OA 
BRANCH  25  26
HETATM   26  C   UNL     1      -7.887   8.818  63.299  1.00  0.00    -0.151 C  
HETATM   27  C   UNL     1      -6.367   8.899  63.348  1.00  0.00    -0.089 C  
ENDBRANCH  25  26
ENDBRANCH  24  25
BRANCH  21  28
HETATM   28  O   UNL     1      -7.132   5.725  65.321  1.00  0.00    -0.062 OA 
HETATM   29  C   UNL     1      -6.133   4.863  65.852  1.00  0.00    -0.027 C  
ENDBRANCH  21  28
ENDBRANCH   1  19
BRANCH   1  30
HETATM   30  C   UNL     1      -9.142   9.718  69.945  1.00  0.00    -0.229 C  
BRANCH  30  31
HETATM   31  S   UNL     1     -10.353   9.175  71.123  1.00  0.00    -0.332 S  
HETATM   32  O   UNL     1      -9.621   8.773  72.309  1.00  0.00    -0.301 OA 
HETATM   33  C   UNL     1     -11.097   7.700  70.468  1.00  0.00    -0.255 C  
HETATM   34  O   UNL     1     -11.393  10.180  71.212  1.00  0.00    -0.325 OA 
ENDBRANCH  30  31
ENDBRANCH   1  30
TORSDOF 9
ENDMDL
MODEL      146
REMARK 921   NORMALIZED FREE ENERGY PREDICTED BY IDOCK:   -4.93 KCAL/MOL
REMARK 922        TOTAL FREE ENERGY PREDICTED BY IDOCK:   -8.58 KCAL/MOL
REMARK 923 INTER-LIGAND FREE ENERGY PREDICTED BY IDOCK:   -6.85 KCAL/MOL
REMARK 924 INTRA-LIGAND FREE ENERGY PREDICTED BY IDOCK:   -1.73 KCAL/MOL
REMARK 927      BINDING AFFINITY PREDICTED BY RF-SCORE:    0.00 PKD
ROOT
HETATM    1  C   UNL     1     -10.178   8.941  69.562  1.00  0.00    -0.204 C  
ENDROOT
BRANCH   1   2
HETATM    2  N   UNL     1      -9.351   7.857  69.007  1.00  0.00    -0.151 N  
HETATM    3  C   UNL     1      -6.096   6.443  68.393  1.00  0.00    -0.024 A  
HETATM    4  C   UNL     1      -5.774   5.311  67.664  1.00  0.00    -0.013 A  
HETATM    5  O   UNL     1     -10.857   6.289  68.172  1.00  0.00    -0.267 OA 
HETATM    6  C   UNL     1      -6.796   4.479  67.172  1.00  0.00    -0.055 A  
HETATM    7  C   UNL     1      -8.004   7.878  69.219  1.00  0.00    -0.117 C  
HETATM    8  C   UNL     1      -9.725   6.666  68.407  1.00  0.00    -0.126 C  
HETATM    9  C   UNL     1      -8.168   4.715  67.430  1.00  0.00    -0.101 A  
HETATM   10  C   UNL     1      -8.471   5.913  68.088  1.00  0.00    -0.114 A  
HETATM   11  C   UNL     1      -7.436   6.714  68.566  1.00  0.00    -0.092 A  
HETATM   12  O   UNL     1      -7.347   8.683  69.856  1.00  0.00    -0.050 OA 
BRANCH   9  13
HETATM   13  N   UNL     1      -9.164   3.834  66.963  1.00  0.00    -0.167 NA 
HETATM   14  H   UNL     1      -9.837   4.207  66.294  1.00  0.00     0.000 HD 
BRANCH  13  15
HETATM   15  C   UNL     1      -9.301   2.595  67.308  1.00  0.00    -0.100 C  
HETATM   16  C   UNL     1      -9.235   1.863  68.617  1.00  0.00    -0.220 C  
HETATM   17  O   UNL     1      -9.526   1.727  66.306  1.00  0.00    -0.339 OA 
HETATM   18  H   UNL     1      -9.626   0.817  66.559  1.00  0.00     0.000 HD 
ENDBRANCH  13  15
ENDBRANCH   9  13
ENDBRANCH   1   2
BRANCH   1  19
HETATM   19  C   UNL     1     -10.602  10.018  68.545  1.00  0.00    -0.245 A  
HETATM   20  C   UNL     1     -11.540  10.998  68.889  1.00  0.00    -0.383 A  
HETATM   21  C   UNL     1     -10.930  12.338  66.955  1.00  0.00    -0.268 A  
HETATM   22  C   UNL     1      -9.907  10.162  67.319  1.00  0.00    -0.226 A  
HETATM   23  C   UNL     1     -11.697  12.147  68.108  1.00  0.00    -0.402 A  
HETATM   24  C   UNL     1     -10.061  11.315  66.527  1.00  0.00    -0.217 A  
BRANCH  24  25
HETATM   25  O   UNL     1      -9.383  11.569  65.360  1.00  0.00    -0.217 OA 
BRANCH  25  26
HETATM   26  C   UNL     1      -9.637  10.752  64.221  1.00  0.00    -0.283 C  
HETATM   27  C   UNL     1     -10.466  11.559  63.231  1.00  0.00    -0.421 C  
ENDBRANCH  25  26
ENDBRANCH  24  25
BRANCH  21  28
HETATM   28  O   UNL     1     -10.953  13.483  66.195  1.00  0.00    -0.284 OA 
HETATM   29  C   UNL     1     -12.205  13.880  65.651  1.00  0.00    -0.452 C  
ENDBRANCH  21  28
ENDBRANCH   1  19
BRANCH   1  30
HETATM   30  C   UNL     1     -11.407   8.524  70.371  1.00  0.00    -0.182 C  
BRANCH  30  31
HETATM   31  S   UNL     1     -11.076   7.719  71.917  1.00  0.00    -0.271 S  
HETATM   32  O   UNL     1     -12.132   8.125  72.826  1.00  0.00    -0.337 OA 
HETATM   33  C   UNL     1      -9.569   8.413  72.557  1.00  0.00    -0.288 C  
HETATM   34  O   UNL     1     -10.831   6.314  71.663  1.00  0.00    -0.234 OA 
ENDBRANCH  30  31
ENDBRANCH   1  30
TORSDOF 9
ENDMDL
MODEL      147
REMARK 921   NORMALIZED FREE ENERGY PREDICTED BY IDOCK:   -4.93 KCAL/MOL
REMARK 922        TOTAL FREE ENERGY PREDICTED BY IDOCK:   -8.57 KCAL/MOL
REMARK 923 INTER-LIGAND FREE ENERGY PREDICTED BY IDOCK:   -6.86 KCAL/MOL
REMARK 924 INTRA-LIGAND FREE ENERGY PREDICTED BY IDOCK:   -1.71 KCAL/MOL
REMARK 927      BINDING AFFINITY PREDICTED BY RF-SCORE:    0.00 PKD
ROOT
HETATM    1  C   UNL     1      -8.820   6.639  70.083  1.00  0.00    -0.141 C  
ENDROOT
BRANCH   1   2
HETATM    2  N   UNL     1      -9.829   7.667  70.387  1.00  0.00    -0.183 N  
HETATM    3  C   UNL     1     -12.824   8.654  72.128  1.00  0.00    -0.442 A  
HETATM    4  C   UNL     1     -13.534   9.838  72.015  1.00  0.00    -0.498 A  
HETATM    5  O   UNL     1      -9.143   9.573  69.237  1.00  0.00    -0.145 OA 
HETATM    6  C   UNL     1     -13.020  10.892  71.238  1.00  0.00    -0.492 A  
HETATM    7  C   UNL     1     -10.782   7.401  71.327  1.00  0.00    -0.221 C  
HETATM    8  C   UNL     1      -9.904   8.990  69.986  1.00  0.00    -0.184 C  
HETATM    9  C   UNL     1     -11.763  10.825  70.590  1.00  0.00    -0.342 A  
HETATM   10  C   UNL     1     -11.110   9.588  70.642  1.00  0.00    -0.364 A  
HETATM   11  C   UNL     1     -11.643   8.564  71.423  1.00  0.00    -0.344 A  
HETATM   12  O   UNL     1     -10.916   6.402  72.013  1.00  0.00    -0.230 OA 
BRANCH   9  13
HETATM   13  N   UNL     1     -11.257  11.919  69.859  1.00  0.00    -0.488 NA 
HETATM   14  H   UNL     1     -10.521  12.471  70.300  1.00  0.00     0.000 HD 
BRANCH  13  15
HETATM   15  C   UNL     1     -11.641  12.285  68.679  1.00  0.00    -0.323 C  
HETATM   16  C   UNL     1     -11.912  13.614  68.036  1.00  0.00    -0.385 C  
HETATM   17  O   UNL     1     -11.892  11.292  67.808  1.00  0.00    -0.610 OA 
HETATM   18  H   UNL     1     -12.175  11.561  66.942  1.00  0.00     0.000 HD 
ENDBRANCH  13  15
ENDBRANCH   9  13
ENDBRANCH   1   2
BRANCH   1  19
HETATM   19  C   UNL     1      -8.300   6.650  68.633  1.00  0.00    -0.123 A  
HETATM   20  C   UNL     1      -6.964   6.960  68.354  1.00  0.00    -0.080 A  
HETATM   21  C   UNL     1      -7.174   6.078  66.099  1.00  0.00    -0.076 A  
HETATM   22  C   UNL     1      -9.102   6.152  67.578  1.00  0.00    -0.109 A  
HETATM   23  C   UNL     1      -6.406   6.670  67.105  1.00  0.00    -0.041 A  
HETATM   24  C   UNL     1      -8.548   5.860  66.318  1.00  0.00    -0.132 A  
BRANCH  24  25
HETATM   25  O   UNL     1      -9.234   5.317  65.259  1.00  0.00    -0.137 OA 
BRANCH  25  26
HETATM   26  C   UNL     1     -10.104   4.214  65.491  1.00  0.00    -0.187 C  
HETATM   27  C   UNL     1      -9.262   2.947  65.555  1.00  0.00    -0.123 C  
ENDBRANCH  25  26
ENDBRANCH  24  25
BRANCH  21  28
HETATM   28  O   UNL     1      -6.672   5.670  64.886  1.00  0.00    -0.045 OA 
HETATM   29  C   UNL     1      -5.632   4.700  64.901  1.00  0.00    -0.014 C  
ENDBRANCH  21  28
ENDBRANCH   1  19
BRANCH   1  30
HETATM   30  C   UNL     1      -7.623   6.549  71.030  1.00  0.00    -0.089 C  
BRANCH  30  31
HETATM   31  S   UNL     1      -7.448   5.019  71.911  1.00  0.00    -0.092 S  
HETATM   32  O   UNL     1      -8.543   4.170  71.481  1.00  0.00    -0.101 OA 
HETATM   33  C   UNL     1      -7.730   5.369  73.631  1.00  0.00    -0.102 C  
HETATM   34  O   UNL     1      -6.078   4.566  71.780  1.00  0.00    -0.016 OA 
ENDBRANCH  30  31
ENDBRANCH   1  30
TORSDOF 9
ENDMDL
MODEL      148
REMARK 921   NORMALIZED FREE ENERGY PREDICTED BY IDOCK:   -4.92 KCAL/MOL
REMARK 922        TOTAL FREE ENERGY PREDICTED BY IDOCK:   -8.57 KCAL/MOL
REMARK 923 INTER-LIGAND FREE ENERGY PREDICTED BY IDOCK:   -8.59 KCAL/MOL
REMARK 924 INTRA-LIGAND FREE ENERGY PREDICTED BY IDOCK:    0.02 KCAL/MOL
REMARK 927      BINDING AFFINITY PREDICTED BY RF-SCORE:    0.00 PKD
ROOT
HETATM    1  C   UNL     1      -9.699  12.480  65.893  1.00  0.00    -0.219 C  
ENDROOT
BRANCH   1   2
HETATM    2  N   UNL     1     -10.077  13.575  66.802  1.00  0.00    -0.262 N  
HETATM    3  C   UNL     1      -9.670  16.986  67.886  1.00  0.00    -0.263 A  
HETATM    4  C   UNL     1     -10.247  17.617  68.974  1.00  0.00    -0.314 A  
HETATM    5  O   UNL     1     -11.772  12.713  68.146  1.00  0.00    -0.315 OA 
HETATM    6  C   UNL     1     -11.227  16.950  69.733  1.00  0.00     0.273 A  
HETATM    7  C   UNL     1      -9.549  14.816  66.597  1.00  0.00    -0.272 C  
HETATM    8  C   UNL     1     -11.045  13.621  67.791  1.00  0.00    -0.272 C  
HETATM    9  C   UNL     1     -11.701  15.657  69.406  1.00  0.00    -0.383 A  
HETATM   10  C   UNL     1     -11.037  15.005  68.360  1.00  0.00    -0.284 A  
HETATM   11  C   UNL     1     -10.073  15.694  67.626  1.00  0.00    -0.248 A  
HETATM   12  O   UNL     1      -8.797  15.186  65.712  1.00  0.00     0.025 OA 
BRANCH   9  13
HETATM   13  N   UNL     1     -12.719  15.038  70.159  1.00  0.00    -0.584 NA 
HETATM   14  H   UNL     1     -13.662  15.061  69.772  1.00  0.00     0.000 HD 
BRANCH  13  15
HETATM   15  C   UNL     1     -12.564  14.443  71.298  1.00  0.00    -0.351 C  
HETATM   16  C   UNL     1     -12.636  14.892  72.728  1.00  0.00    -0.477 C  
HETATM   17  O   UNL     1     -12.239  13.140  71.240  1.00  0.00    -0.341 OA 
HETATM   18  H   UNL     1     -12.125  12.703  72.076  1.00  0.00     0.000 HD 
ENDBRANCH  13  15
ENDBRANCH   9  13
ENDBRANCH   1   2
BRANCH   1  19
HETATM   19  C   UNL     1      -9.802  11.069  66.501  1.00  0.00    -0.241 A  
HETATM   20  C   UNL     1     -10.176   9.975  65.712  1.00  0.00    -0.270 A  
HETATM   21  C   UNL     1      -9.399   8.417  67.408  1.00  0.00    -0.148 A  
HETATM   22  C   UNL     1      -9.326  10.813  67.810  1.00  0.00    -0.158 A  
HETATM   23  C   UNL     1      -9.970   8.665  66.157  1.00  0.00    -0.204 A  
HETATM   24  C   UNL     1      -9.118   9.498  68.265  1.00  0.00    -0.127 A  
BRANCH  24  25
HETATM   25  O   UNL     1      -8.602   9.158  69.492  1.00  0.00    -0.126 OA 
BRANCH  25  26
HETATM   26  C   UNL     1      -9.298   9.555  70.669  1.00  0.00    -0.199 C  
HETATM   27  C   UNL     1     -10.353   8.500  70.978  1.00  0.00    -0.261 C  
ENDBRANCH  25  26
ENDBRANCH  24  25
BRANCH  21  28
HETATM   28  O   UNL     1      -9.072   7.165  67.870  1.00  0.00    -0.129 OA 
HETATM   29  C   UNL     1     -10.142   6.270  68.148  1.00  0.00    -0.152 C  
ENDBRANCH  21  28
ENDBRANCH   1  19
BRANCH   1  30
HETATM   30  C   UNL     1     -10.366  12.468  64.517  1.00  0.00    -0.336 C  
BRANCH  30  31
HETATM   31  S   UNL     1     -12.086  12.903  64.488  1.00  0.00    -0.438 S  
HETATM   32  O   UNL     1     -12.602  12.451  63.210  1.00  0.00    -0.661 OA 
HETATM   33  C   UNL     1     -12.177  14.679  64.466  1.00  0.00    -0.456 C  
HETATM   34  O   UNL     1     -12.696  12.454  65.722  1.00  0.00    -0.392 OA 
ENDBRANCH  30  31
ENDBRANCH   1  30
TORSDOF 9
ENDMDL
MODEL      149
REMARK 921   NORMALIZED FREE ENERGY PREDICTED BY IDOCK:   -4.91 KCAL/MOL
REMARK 922        TOTAL FREE ENERGY PREDICTED BY IDOCK:   -8.55 KCAL/MOL
REMARK 923 INTER-LIGAND FREE ENERGY PREDICTED BY IDOCK:   -8.89 KCAL/MOL
REMARK 924 INTRA-LIGAND FREE ENERGY PREDICTED BY IDOCK:    0.34 KCAL/MOL
REMARK 927      BINDING AFFINITY PREDICTED BY RF-SCORE:    0.00 PKD
ROOT
HETATM    1  C   UNL     1      -9.859  12.753  65.972  1.00  0.00    -0.255 C  
ENDROOT
BRANCH   1   2
HETATM    2  N   UNL     1     -10.578  12.758  67.257  1.00  0.00    -0.232 N  
HETATM    3  C   UNL     1     -11.656  14.532  70.201  1.00  0.00    -0.334 A  
HETATM    4  C   UNL     1     -12.312  14.033  71.313  1.00  0.00    -0.436 A  
HETATM    5  O   UNL     1     -11.490  10.626  67.470  1.00  0.00    -0.460 OA 
HETATM    6  C   UNL     1     -12.763  12.701  71.322  1.00  0.00    -0.354 A  
HETATM    7  C   UNL     1     -10.716  13.935  67.933  1.00  0.00    -0.240 C  
HETATM    8  C   UNL     1     -11.318  11.761  67.870  1.00  0.00    -0.292 C  
HETATM    9  C   UNL     1     -12.624  11.836  70.210  1.00  0.00    -0.055 A  
HETATM   10  C   UNL     1     -11.876  12.334  69.135  1.00  0.00    -0.355 A  
HETATM   11  C   UNL     1     -11.446  13.659  69.155  1.00  0.00    -0.346 A  
HETATM   12  O   UNL     1     -10.343  15.049  67.605  1.00  0.00    -0.240 OA 
BRANCH   9  13
HETATM   13  N   UNL     1     -13.132  10.522  70.235  1.00  0.00    -0.427 NA 
HETATM   14  H   UNL     1     -13.588  10.184  69.388  1.00  0.00     0.000 HD 
BRANCH  13  15
HETATM   15  C   UNL     1     -13.070   9.706  71.237  1.00  0.00    -0.357 C  
HETATM   16  C   UNL     1     -14.099   9.002  72.074  1.00  0.00    -0.434 C  
HETATM   17  O   UNL     1     -11.836   9.412  71.682  1.00  0.00    -0.351 OA 
HETATM   18  H   UNL     1     -11.791   8.813  72.417  1.00  0.00     0.000 HD 
ENDBRANCH  13  15
ENDBRANCH   9  13
ENDBRANCH   1   2
BRANCH   1  19
HETATM   19  C   UNL     1      -9.481  11.355  65.446  1.00  0.00    -0.240 A  
HETATM   20  C   UNL     1      -9.783  10.979  64.132  1.00  0.00    -0.332 A  
HETATM   21  C   UNL     1      -8.270   9.082  64.271  1.00  0.00    -0.164 A  
HETATM   22  C   UNL     1      -8.646  10.503  66.208  1.00  0.00    -0.151 A  
HETATM   23  C   UNL     1      -9.179   9.860  63.550  1.00  0.00    -0.279 A  
HETATM   24  C   UNL     1      -8.036   9.375  65.629  1.00  0.00    -0.112 A  
BRANCH  24  25
HETATM   25  O   UNL     1      -7.165   8.529  66.271  1.00  0.00    -0.076 OA 
BRANCH  25  26
HETATM   26  C   UNL     1      -7.630   7.768  67.381  1.00  0.00    -0.105 C  
HETATM   27  C   UNL     1      -8.253   6.484  66.851  1.00  0.00    -0.113 C  
ENDBRANCH  25  26
ENDBRANCH  24  25
BRANCH  21  28
HETATM   28  O   UNL     1      -7.561   8.033  63.737  1.00  0.00    -0.113 OA 
HETATM   29  C   UNL     1      -6.587   8.339  62.747  1.00  0.00    -0.087 C  
ENDBRANCH  21  28
ENDBRANCH   1  19
BRANCH   1  30
HETATM   30  C   UNL     1     -10.489  13.551  64.829  1.00  0.00    -0.413 C  
BRANCH  30  31
HETATM   31  S   UNL     1     -12.216  13.262  64.546  1.00  0.00    -0.394 S  
HETATM   32  O   UNL     1     -12.499  13.742  63.207  1.00  0.00    -0.819 OA 
HETATM   33  C   UNL     1     -13.113  14.321  65.658  1.00  0.00    -0.015 C  
HETATM   34  O   UNL     1     -12.521  11.894  64.912  1.00  0.00    -0.312 OA 
ENDBRANCH  30  31
ENDBRANCH   1  30
TORSDOF 9
ENDMDL
MODEL      150
REMARK 921   NORMALIZED FREE ENERGY PREDICTED BY IDOCK:   -4.89 KCAL/MOL
REMARK 922        TOTAL FREE ENERGY PREDICTED BY IDOCK:   -8.52 KCAL/MOL
REMARK 923 INTER-LIGAND FREE ENERGY PREDICTED BY IDOCK:   -7.81 KCAL/MOL
REMARK 924 INTRA-LIGAND FREE ENERGY PREDICTED BY IDOCK:   -0.71 KCAL/MOL
REMARK 927      BINDING AFFINITY PREDICTED BY RF-SCORE:    0.00 PKD
ROOT
HETATM    1  C   UNL     1     -10.106   7.848  69.200  1.00  0.00    -0.197 C  
ENDROOT
BRANCH   1   2
HETATM    2  N   UNL     1     -10.561   9.229  68.968  1.00  0.00    -0.219 N  
HETATM    3  C   UNL     1     -11.329  11.898  66.675  1.00  0.00    -0.400 A  
HETATM    4  C   UNL     1     -11.677  13.207  66.964  1.00  0.00    -0.431 A  
HETATM    5  O   UNL     1     -11.069  10.080  71.076  1.00  0.00    -0.343 OA 
HETATM    6  C   UNL     1     -11.903  13.594  68.297  1.00  0.00    -0.404 A  
HETATM    7  C   UNL     1     -10.752   9.656  67.687  1.00  0.00    -0.262 C  
HETATM    8  C   UNL     1     -11.006  10.185  69.866  1.00  0.00    -0.293 C  
HETATM    9  C   UNL     1     -11.841  12.685  69.381  1.00  0.00    -0.296 A  
HETATM   10  C   UNL     1     -11.398  11.393  69.074  1.00  0.00    -0.345 A  
HETATM   11  C   UNL     1     -11.186  11.040  67.743  1.00  0.00    -0.374 A  
HETATM   12  O   UNL     1     -10.628   9.029  66.649  1.00  0.00    -0.211 OA 
BRANCH   9  13
HETATM   13  N   UNL     1     -12.122  13.097  70.699  1.00  0.00    -0.504 NA 
HETATM   14  H   UNL     1     -12.296  12.365  71.387  1.00  0.00     0.000 HD 
BRANCH  13  15
HETATM   15  C   UNL     1     -12.178  14.321  71.115  1.00  0.00    -0.356 C  
HETATM   16  C   UNL     1     -13.300  15.283  71.378  1.00  0.00    -0.573 C  
HETATM   17  O   UNL     1     -10.996  14.917  71.351  1.00  0.00    -0.567 OA 
HETATM   18  H   UNL     1     -11.038  15.815  71.656  1.00  0.00     0.000 HD 
ENDBRANCH  13  15
ENDBRANCH   9  13
ENDBRANCH   1   2
BRANCH   1  19
HETATM   19  C   UNL     1      -8.900   7.412  68.347  1.00  0.00    -0.121 A  
HETATM   20  C   UNL     1      -8.996   6.318  67.479  1.00  0.00    -0.108 A  
HETATM   21  C   UNL     1      -6.951   6.974  66.340  1.00  0.00    -0.069 A  
HETATM   22  C   UNL     1      -7.743   8.224  68.269  1.00  0.00    -0.106 A  
HETATM   23  C   UNL     1      -8.037   6.106  66.483  1.00  0.00    -0.110 A  
HETATM   24  C   UNL     1      -6.773   8.016  67.271  1.00  0.00    -0.065 A  
BRANCH  24  25
HETATM   25  O   UNL     1      -5.655   8.790  67.081  1.00  0.00    -0.037 OA 
BRANCH  25  26
HETATM   26  C   UNL     1      -5.812  10.183  66.831  1.00  0.00    -0.051 C  
HETATM   27  C   UNL     1      -6.064  10.376  65.342  1.00  0.00    -0.132 C  
ENDBRANCH  25  26
ENDBRANCH  24  25
BRANCH  21  28
HETATM   28  O   UNL     1      -6.028   6.891  65.325  1.00  0.00    -0.034 OA 
HETATM   29  C   UNL     1      -5.866   5.630  64.689  1.00  0.00    -0.021 C  
ENDBRANCH  21  28
ENDBRANCH   1  19
BRANCH   1  30
HETATM   30  C   UNL     1      -9.849   7.444  70.652  1.00  0.00    -0.179 C  
BRANCH  30  31
HETATM   31  S   UNL     1     -11.101   6.439  71.407  1.00  0.00    -0.288 S  
HETATM   32  O   UNL     1     -12.374   6.933  70.917  1.00  0.00    -0.386 OA 
HETATM   33  C   UNL     1     -11.067   6.783  73.151  1.00  0.00    -0.187 C  
HETATM   34  O   UNL     1     -10.742   5.047  71.234  1.00  0.00    -0.137 OA 
ENDBRANCH  30  31
ENDBRANCH   1  30
TORSDOF 9
ENDMDL
MODEL      151
REMARK 921   NORMALIZED FREE ENERGY PREDICTED BY IDOCK:   -4.88 KCAL/MOL
REMARK 922        TOTAL FREE ENERGY PREDICTED BY IDOCK:   -8.51 KCAL/MOL
REMARK 923 INTER-LIGAND FREE ENERGY PREDICTED BY IDOCK:   -7.02 KCAL/MOL
REMARK 924 INTRA-LIGAND FREE ENERGY PREDICTED BY IDOCK:   -1.49 KCAL/MOL
REMARK 927      BINDING AFFINITY PREDICTED BY RF-SCORE:    0.00 PKD
ROOT
HETATM    1  C   UNL     1      -8.443  10.538  67.863  1.00  0.00    -0.119 C  
ENDROOT
BRANCH   1   2
HETATM    2  N   UNL     1      -9.139   9.394  68.473  1.00  0.00    -0.131 N  
HETATM    3  C   UNL     1     -11.384   8.107  70.979  1.00  0.00    -0.293 A  
HETATM    4  C   UNL     1     -11.701   6.787  71.253  1.00  0.00    -0.384 A  
HETATM    5  O   UNL     1      -8.549   7.545  67.185  1.00  0.00    -0.119 OA 
HETATM    6  C   UNL     1     -11.227   5.763  70.413  1.00  0.00    -0.211 A  
HETATM    7  C   UNL     1     -10.046   9.624  69.466  1.00  0.00    -0.209 C  
HETATM    8  C   UNL     1      -9.161   8.060  68.101  1.00  0.00    -0.134 C  
HETATM    9  C   UNL     1     -10.467   6.018  69.247  1.00  0.00    -0.264 A  
HETATM   10  C   UNL     1     -10.082   7.349  69.043  1.00  0.00    -0.193 A  
HETATM   11  C   UNL     1     -10.571   8.341  69.891  1.00  0.00    -0.232 A  
HETATM   12  O   UNL     1     -10.412  10.691  69.929  1.00  0.00    -0.207 OA 
BRANCH   9  13
HETATM   13  N   UNL     1     -10.050   4.971  68.401  1.00  0.00    -0.138 NA 
HETATM   14  H   UNL     1     -10.597   4.812  67.555  1.00  0.00     0.000 HD 
BRANCH  13  15
HETATM   15  C   UNL     1      -9.035   4.194  68.601  1.00  0.00    -0.114 C  
HETATM   16  C   UNL     1      -7.623   4.419  69.059  1.00  0.00    -0.055 C  
HETATM   17  O   UNL     1      -9.228   2.892  68.328  1.00  0.00    -0.157 OA 
HETATM   18  H   UNL     1      -8.483   2.322  68.475  1.00  0.00     0.000 HD 
ENDBRANCH  13  15
ENDBRANCH   9  13
ENDBRANCH   1   2
BRANCH   1  19
HETATM   19  C   UNL     1      -9.241  11.274  66.770  1.00  0.00    -0.186 A  
HETATM   20  C   UNL     1      -9.486  10.668  65.532  1.00  0.00    -0.261 A  
HETATM   21  C   UNL     1     -11.197  12.313  65.005  1.00  0.00    -0.321 A  
HETATM   22  C   UNL     1      -9.913  12.485  67.063  1.00  0.00    -0.217 A  
HETATM   23  C   UNL     1     -10.458  11.178  64.664  1.00  0.00    -0.400 A  
HETATM   24  C   UNL     1     -10.890  13.004  66.194  1.00  0.00    -0.279 A  
BRANCH  24  25
HETATM   25  O   UNL     1     -11.635  14.135  66.426  1.00  0.00    -0.341 OA 
BRANCH  25  26
HETATM   26  C   UNL     1     -10.964  15.362  66.694  1.00  0.00    -0.275 C  
HETATM   27  C   UNL     1     -10.577  15.995  65.365  1.00  0.00    -0.428 C  
ENDBRANCH  25  26
ENDBRANCH  24  25
BRANCH  21  28
HETATM   28  O   UNL     1     -12.235  12.811  64.255  1.00  0.00    -0.385 OA 
HETATM   29  C   UNL     1     -12.831  11.938  63.304  1.00  0.00    -0.161 C  
ENDBRANCH  21  28
ENDBRANCH   1  19
BRANCH   1  30
HETATM   30  C   UNL     1      -7.855  11.576  68.820  1.00  0.00    -0.117 C  
BRANCH  30  31
HETATM   31  S   UNL     1      -6.413  11.067  69.720  1.00  0.00    -0.145 S  
HETATM   32  O   UNL     1      -6.888  10.310  70.863  1.00  0.00    -0.339 OA 
HETATM   33  C   UNL     1      -5.656  12.538  70.371  1.00  0.00    -0.161 C  
HETATM   34  O   UNL     1      -5.475  10.474  68.789  1.00  0.00    -0.042 OA 
ENDBRANCH  30  31
ENDBRANCH   1  30
TORSDOF 9
ENDMDL
MODEL      152
REMARK 921   NORMALIZED FREE ENERGY PREDICTED BY IDOCK:   -4.81 KCAL/MOL
REMARK 922        TOTAL FREE ENERGY PREDICTED BY IDOCK:   -8.40 KCAL/MOL
REMARK 923 INTER-LIGAND FREE ENERGY PREDICTED BY IDOCK:   -7.37 KCAL/MOL
REMARK 924 INTRA-LIGAND FREE ENERGY PREDICTED BY IDOCK:   -1.03 KCAL/MOL
REMARK 927      BINDING AFFINITY PREDICTED BY RF-SCORE:    0.00 PKD
ROOT
HETATM    1  C   UNL     1      -9.427  12.630  66.912  1.00  0.00    -0.229 C  
ENDROOT
BRANCH   1   2
HETATM    2  N   UNL     1      -8.833  13.881  67.412  1.00  0.00    -0.196 N  
HETATM    3  C   UNL     1      -5.925  15.734  68.452  1.00  0.00    -0.107 A  
HETATM    4  C   UNL     1      -5.864  17.006  68.995  1.00  0.00    -0.162 A  
HETATM    5  O   UNL     1     -10.597  15.394  67.559  1.00  0.00    -0.270 OA 
HETATM    6  C   UNL     1      -7.028  17.792  69.069  1.00  0.00    -0.236 A  
HETATM    7  C   UNL     1      -7.476  13.972  67.518  1.00  0.00    -0.170 C  
HETATM    8  C   UNL     1      -9.419  15.109  67.664  1.00  0.00    -0.201 C  
HETATM    9  C   UNL     1      -8.277  17.363  68.560  1.00  0.00    -0.268 A  
HETATM   10  C   UNL     1      -8.333  16.041  68.102  1.00  0.00    -0.160 A  
HETATM   11  C   UNL     1      -7.161  15.289  68.038  1.00  0.00    -0.138 A  
HETATM   12  O   UNL     1      -6.632  13.145  67.218  1.00  0.00    -0.196 OA 
BRANCH   9  13
HETATM   13  N   UNL     1      -9.413  18.197  68.606  1.00  0.00    -0.323 NA 
HETATM   14  H   UNL     1     -10.182  17.901  69.207  1.00  0.00     0.000 HD 
BRANCH  13  15
HETATM   15  C   UNL     1      -9.566  19.304  67.955  1.00  0.00    -0.340 C  
HETATM   16  C   UNL     1      -9.040  19.829  66.651  1.00  0.00    -0.452 C  
HETATM   17  O   UNL     1     -10.337  20.233  68.547  1.00  0.00    -0.351 OA 
HETATM   18  H   UNL     1     -10.450  21.046  68.069  1.00  0.00     0.000 HD 
ENDBRANCH  13  15
ENDBRANCH   9  13
ENDBRANCH   1   2
BRANCH   1  19
HETATM   19  C   UNL     1      -9.083  11.374  67.735  1.00  0.00    -0.158 A  
HETATM   20  C   UNL     1      -9.423  11.291  69.090  1.00  0.00     0.064 A  
HETATM   21  C   UNL     1      -9.036   8.891  69.095  1.00  0.00    -0.141 A  
HETATM   22  C   UNL     1      -8.603  10.205  67.096  1.00  0.00    -0.125 A  
HETATM   23  C   UNL     1      -9.407  10.063  69.759  1.00  0.00    -0.233 A  
HETATM   24  C   UNL     1      -8.583   8.967  67.763  1.00  0.00    -0.125 A  
BRANCH  24  25
HETATM   25  O   UNL     1      -8.195   7.773  67.205  1.00  0.00    -0.115 OA 
BRANCH  25  26
HETATM   26  C   UNL     1      -8.561   7.489  65.858  1.00  0.00    -0.151 C  
HETATM   27  C   UNL     1      -8.252   6.024  65.579  1.00  0.00    -0.142 C  
ENDBRANCH  25  26
ENDBRANCH  24  25
BRANCH  21  28
HETATM   28  O   UNL     1      -9.095   7.637  69.654  1.00  0.00    -0.147 OA 
HETATM   29  C   UNL     1     -10.172   7.367  70.542  1.00  0.00    -0.193 C  
ENDBRANCH  21  28
ENDBRANCH   1  19
BRANCH   1  30
HETATM   30  C   UNL     1     -10.933  12.642  66.648  1.00  0.00    -0.258 C  
BRANCH  30  31
HETATM   31  S   UNL     1     -11.419  12.902  64.961  1.00  0.00    -0.330 S  
HETATM   32  O   UNL     1     -12.866  12.803  64.931  1.00  0.00    -0.722 OA 
HETATM   33  C   UNL     1     -10.803  11.524  64.021  1.00  0.00    -0.387 C  
HETATM   34  O   UNL     1     -10.758  14.092  64.468  1.00  0.00    -0.403 OA 
ENDBRANCH  30  31
ENDBRANCH   1  30
TORSDOF 9
ENDMDL
MODEL      153
REMARK 921   NORMALIZED FREE ENERGY PREDICTED BY IDOCK:   -4.79 KCAL/MOL
REMARK 922        TOTAL FREE ENERGY PREDICTED BY IDOCK:   -8.37 KCAL/MOL
REMARK 923 INTER-LIGAND FREE ENERGY PREDICTED BY IDOCK:   -7.54 KCAL/MOL
REMARK 924 INTRA-LIGAND FREE ENERGY PREDICTED BY IDOCK:   -0.83 KCAL/MOL
REMARK 927      BINDING AFFINITY PREDICTED BY RF-SCORE:    0.00 PKD
ROOT
HETATM    1  C   UNL     1     -10.791  11.050  67.518  1.00  0.00    -0.263 C  
ENDROOT
BRANCH   1   2
HETATM    2  N   UNL     1      -9.827  10.245  66.750  1.00  0.00    -0.189 N  
HETATM    3  C   UNL     1      -6.709  10.014  64.962  1.00  0.00    -0.128 A  
HETATM    4  C   UNL     1      -6.207   8.942  64.243  1.00  0.00    -0.071 A  
HETATM    5  O   UNL     1     -10.709   8.091  66.706  1.00  0.00    -0.289 OA 
HETATM    6  C   UNL     1      -6.880   7.706  64.266  1.00  0.00    -0.056 A  
HETATM    7  C   UNL     1      -8.635  10.804  66.394  1.00  0.00    -0.158 C  
HETATM    8  C   UNL     1      -9.841   8.897  66.435  1.00  0.00    -0.283 C  
HETATM    9  C   UNL     1      -8.041   7.479  65.043  1.00  0.00    -0.127 A  
HETATM   10  C   UNL     1      -8.579   8.601  65.685  1.00  0.00    -0.191 A  
HETATM   11  C   UNL     1      -7.888   9.810  65.646  1.00  0.00    -0.114 A  
HETATM   12  O   UNL     1      -8.208  11.916  66.654  1.00  0.00    -0.163 OA 
BRANCH   9  13
HETATM   13  N   UNL     1      -8.661   6.214  65.081  1.00  0.00    -0.339 NA 
HETATM   14  H   UNL     1      -9.436   6.057  64.438  1.00  0.00     0.000 HD 
BRANCH  13  15
HETATM   15  C   UNL     1      -8.335   5.234  65.860  1.00  0.00    -0.120 C  
HETATM   16  C   UNL     1      -7.972   3.795  65.631  1.00  0.00    -0.093 C  
HETATM   17  O   UNL     1      -8.330   5.506  67.177  1.00  0.00    -0.105 OA 
HETATM   18  H   UNL     1      -8.090   4.786  67.749  1.00  0.00     0.000 HD 
ENDBRANCH  13  15
ENDBRANCH   9  13
ENDBRANCH   1   2
BRANCH   1  19
HETATM   19  C   UNL     1     -10.935  10.650  68.999  1.00  0.00    -0.295 A  
HETATM   20  C   UNL     1     -12.172  10.742  69.648  1.00  0.00    -0.325 A  
HETATM   21  C   UNL     1     -11.373   9.358  71.480  1.00  0.00    -0.394 A  
HETATM   22  C   UNL     1      -9.876   9.993  69.672  1.00  0.00    -0.261 A  
HETATM   23  C   UNL     1     -12.390  10.097  70.870  1.00  0.00    -0.461 A  
HETATM   24  C   UNL     1     -10.088   9.344  70.902  1.00  0.00    -0.296 A  
BRANCH  24  25
HETATM   25  O   UNL     1      -9.140   8.631  71.594  1.00  0.00    -0.204 OA 
BRANCH  25  26
HETATM   26  C   UNL     1      -7.796   8.629  71.122  1.00  0.00    -0.117 C  
HETATM   27  C   UNL     1      -6.878   8.314  72.296  1.00  0.00    -0.096 C  
ENDBRANCH  25  26
ENDBRANCH  24  25
BRANCH  21  28
HETATM   28  O   UNL     1     -11.541   8.615  72.624  1.00  0.00    -0.315 OA 
HETATM   29  C   UNL     1     -12.021   7.285  72.475  1.00  0.00    -0.097 C  
ENDBRANCH  21  28
ENDBRANCH   1  19
BRANCH   1  30
HETATM   30  C   UNL     1     -10.637  12.570  67.436  1.00  0.00    -0.223 C  
BRANCH  30  31
HETATM   31  S   UNL     1     -11.603  13.377  66.185  1.00  0.00    -0.363 S  
HETATM   32  O   UNL     1     -12.360  12.336  65.515  1.00  0.00    -0.602 OA 
HETATM   33  C   UNL     1     -10.465  14.023  64.982  1.00  0.00    -0.420 C  
HETATM   34  O   UNL     1     -12.285  14.505  66.785  1.00  0.00    -0.376 OA 
ENDBRANCH  30  31
ENDBRANCH   1  30
TORSDOF 9
ENDMDL
MODEL      154
REMARK 921   NORMALIZED FREE ENERGY PREDICTED BY IDOCK:   -4.79 KCAL/MOL
REMARK 922        TOTAL FREE ENERGY PREDICTED BY IDOCK:   -8.37 KCAL/MOL
REMARK 923 INTER-LIGAND FREE ENERGY PREDICTED BY IDOCK:   -7.40 KCAL/MOL
REMARK 924 INTRA-LIGAND FREE ENERGY PREDICTED BY IDOCK:   -0.97 KCAL/MOL
REMARK 927      BINDING AFFINITY PREDICTED BY RF-SCORE:    0.00 PKD
ROOT
HETATM    1  C   UNL     1      -9.183  10.335  67.724  1.00  0.00    -0.141 C  
ENDROOT
BRANCH   1   2
HETATM    2  N   UNL     1      -9.605  11.604  67.107  1.00  0.00    -0.174 N  
HETATM    3  C   UNL     1     -11.958  13.442  65.094  1.00  0.00    -0.406 A  
HETATM    4  C   UNL     1     -11.877  14.754  64.657  1.00  0.00    -0.442 A  
HETATM    5  O   UNL     1      -8.035  13.181  67.792  1.00  0.00    -0.134 OA 
HETATM    6  C   UNL     1     -10.836  15.582  65.117  1.00  0.00    -0.452 A  
HETATM    7  C   UNL     1     -10.806  11.659  66.463  1.00  0.00    -0.284 C  
HETATM    8  C   UNL     1      -9.048  12.868  67.197  1.00  0.00    -0.220 C  
HETATM    9  C   UNL     1      -9.874  15.152  66.062  1.00  0.00    -0.320 A  
HETATM   10  C   UNL     1      -9.923  13.798  66.416  1.00  0.00    -0.301 A  
HETATM   11  C   UNL     1     -10.968  13.005  65.946  1.00  0.00    -0.292 A  
HETATM   12  O   UNL     1     -11.643  10.782  66.338  1.00  0.00     0.041 OA 
BRANCH   9  13
HETATM   13  N   UNL     1      -8.874  16.024  66.537  1.00  0.00    -0.274 NA 
HETATM   14  H   UNL     1      -8.087  16.211  65.916  1.00  0.00     0.000 HD 
BRANCH  13  15
HETATM   15  C   UNL     1      -8.864  16.607  67.692  1.00  0.00    -0.201 C  
HETATM   16  C   UNL     1      -9.575  16.362  68.991  1.00  0.00    -0.264 C  
HETATM   17  O   UNL     1      -8.081  17.695  67.795  1.00  0.00    -0.216 OA 
HETATM   18  H   UNL     1      -8.074  18.123  68.642  1.00  0.00     0.000 HD 
ENDBRANCH  13  15
ENDBRANCH   9  13
ENDBRANCH   1   2
BRANCH   1  19
HETATM   19  C   UNL     1      -9.717  10.098  69.150  1.00  0.00    -0.225 A  
HETATM   20  C   UNL     1     -11.094  10.044  69.399  1.00  0.00    -0.265 A  
HETATM   21  C   UNL     1     -10.713   9.060  71.588  1.00  0.00    -0.371 A  
HETATM   22  C   UNL     1      -8.836   9.730  70.195  1.00  0.00    -0.226 A  
HETATM   23  C   UNL     1     -11.585   9.524  70.601  1.00  0.00    -0.350 A  
HETATM   24  C   UNL     1      -9.324   9.208  71.407  1.00  0.00    -0.176 A  
BRANCH  24  25
HETATM   25  O   UNL     1      -8.544   8.767  72.449  1.00  0.00    -0.395 OA 
BRANCH  25  26
HETATM   26  C   UNL     1      -7.401   7.966  72.166  1.00  0.00    -0.083 C  
HETATM   27  C   UNL     1      -7.770   6.507  72.399  1.00  0.00    -0.096 C  
ENDBRANCH  25  26
ENDBRANCH  24  25
BRANCH  21  28
HETATM   28  O   UNL     1     -11.120   8.443  72.747  1.00  0.00    -0.327 OA 
HETATM   29  C   UNL     1     -11.485   7.071  72.664  1.00  0.00    -0.211 C  
ENDBRANCH  21  28
ENDBRANCH   1  19
BRANCH   1  30
HETATM   30  C   UNL     1      -9.406   9.064  66.903  1.00  0.00    -0.158 C  
BRANCH  30  31
HETATM   31  S   UNL     1      -7.942   8.289  66.268  1.00  0.00    -0.103 S  
HETATM   32  O   UNL     1      -8.237   7.913  64.898  1.00  0.00    -0.147 OA 
HETATM   33  C   UNL     1      -7.719   6.773  67.168  1.00  0.00    -0.104 C  
HETATM   34  O   UNL     1      -6.806   9.138  66.563  1.00  0.00    -0.077 OA 
ENDBRANCH  30  31
ENDBRANCH   1  30
TORSDOF 9
ENDMDL
MODEL      155
REMARK 921   NORMALIZED FREE ENERGY PREDICTED BY IDOCK:   -4.79 KCAL/MOL
REMARK 922        TOTAL FREE ENERGY PREDICTED BY IDOCK:   -8.36 KCAL/MOL
REMARK 923 INTER-LIGAND FREE ENERGY PREDICTED BY IDOCK:   -7.18 KCAL/MOL
REMARK 924 INTRA-LIGAND FREE ENERGY PREDICTED BY IDOCK:   -1.18 KCAL/MOL
REMARK 927      BINDING AFFINITY PREDICTED BY RF-SCORE:    0.00 PKD
ROOT
HETATM    1  C   UNL     1     -12.309  13.011  70.122  1.00  0.00    -0.200 C  
ENDROOT
BRANCH   1   2
HETATM    2  N   UNL     1     -11.556  13.736  69.085  1.00  0.00    -0.294 N  
HETATM    3  C   UNL     1     -11.097  14.599  65.619  1.00  0.00    -0.338 A  
HETATM    4  C   UNL     1     -10.070  15.327  65.042  1.00  0.00    -0.250 A  
HETATM    5  O   UNL     1      -9.911  14.925  70.226  1.00  0.00     0.107 OA 
HETATM    6  C   UNL     1      -9.110  15.952  65.859  1.00  0.00    -0.304 A  
HETATM    7  C   UNL     1     -12.018  13.723  67.802  1.00  0.00    -0.356 C  
HETATM    8  C   UNL     1     -10.488  14.609  69.204  1.00  0.00    -0.233 C  
HETATM    9  C   UNL     1      -9.166  15.917  67.273  1.00  0.00    -0.206 A  
HETATM   10  C   UNL     1     -10.158  15.099  67.828  1.00  0.00    -0.230 A  
HETATM   11  C   UNL     1     -11.096  14.497  66.993  1.00  0.00    -0.324 A  
HETATM   12  O   UNL     1     -13.029  13.202  67.362  1.00  0.00     0.843 OA 
BRANCH   9  13
HETATM   13  N   UNL     1      -8.214  16.596  68.061  1.00  0.00    -0.181 NA 
HETATM   14  H   UNL     1      -7.449  16.041  68.445  1.00  0.00     0.000 HD 
BRANCH  13  15
HETATM   15  C   UNL     1      -8.225  17.859  68.341  1.00  0.00    -0.300 C  
HETATM   16  C   UNL     1      -7.159  18.866  68.658  1.00  0.00    -0.327 C  
HETATM   17  O   UNL     1      -9.437  18.438  68.399  1.00  0.00    -0.307 OA 
HETATM   18  H   UNL     1      -9.445  19.365  68.605  1.00  0.00     0.000 HD 
ENDBRANCH  13  15
ENDBRANCH   9  13
ENDBRANCH   1   2
BRANCH   1  19
HETATM   19  C   UNL     1     -11.822  11.575  70.392  1.00  0.00    -0.413 A  
HETATM   20  C   UNL     1     -12.455  10.772  71.348  1.00  0.00    -0.478 A  
HETATM   21  C   UNL     1     -11.372   8.780  70.471  1.00  0.00    -0.227 A  
HETATM   22  C   UNL     1     -10.863  10.970  69.544  1.00  0.00    -0.267 A  
HETATM   23  C   UNL     1     -12.238   9.390  71.381  1.00  0.00    -0.438 A  
HETATM   24  C   UNL     1     -10.638   9.581  69.574  1.00  0.00    -0.221 A  
BRANCH  24  25
HETATM   25  O   UNL     1      -9.777   8.901  68.747  1.00  0.00    -0.159 OA 
BRANCH  25  26
HETATM   26  C   UNL     1      -9.976   8.964  67.338  1.00  0.00    -0.209 C  
HETATM   27  C   UNL     1     -10.407   7.586  66.856  1.00  0.00    -0.379 C  
ENDBRANCH  25  26
ENDBRANCH  24  25
BRANCH  21  28
HETATM   28  O   UNL     1     -11.187   7.422  70.375  1.00  0.00    -0.266 OA 
HETATM   29  C   UNL     1     -10.974   6.704  71.584  1.00  0.00    -0.241 C  
ENDBRANCH  21  28
ENDBRANCH   1  19
BRANCH   1  30
HETATM   30  C   UNL     1     -12.494  13.724  71.462  1.00  0.00    -0.274 C  
BRANCH  30  31
HETATM   31  S   UNL     1     -13.296  15.305  71.392  1.00  0.00    -0.520 S  
HETATM   32  O   UNL     1     -12.240  16.299  71.343  1.00  0.00    -0.359 OA 
HETATM   33  C   UNL     1     -14.132  15.537  72.943  1.00  0.00    -0.187 C  
HETATM   34  O   UNL     1     -14.308  15.263  70.357  1.00  0.00     0.355 OA 
ENDBRANCH  30  31
ENDBRANCH   1  30
TORSDOF 9
ENDMDL
MODEL      156
REMARK 921   NORMALIZED FREE ENERGY PREDICTED BY IDOCK:   -4.78 KCAL/MOL
REMARK 922        TOTAL FREE ENERGY PREDICTED BY IDOCK:   -8.35 KCAL/MOL
REMARK 923 INTER-LIGAND FREE ENERGY PREDICTED BY IDOCK:   -6.64 KCAL/MOL
REMARK 924 INTRA-LIGAND FREE ENERGY PREDICTED BY IDOCK:   -1.70 KCAL/MOL
REMARK 927      BINDING AFFINITY PREDICTED BY RF-SCORE:    0.00 PKD
ROOT
HETATM    1  C   UNL     1      -8.864   9.651  68.242  1.00  0.00    -0.120 C  
ENDROOT
BRANCH   1   2
HETATM    2  N   UNL     1      -9.238   9.074  69.544  1.00  0.00    -0.148 N  
HETATM    3  C   UNL     1      -8.426   8.412  72.990  1.00  0.00    -0.209 A  
HETATM    4  C   UNL     1      -9.137   7.665  73.913  1.00  0.00    -0.316 A  
HETATM    5  O   UNL     1     -11.389   8.231  69.258  1.00  0.00     0.188 OA 
HETATM    6  C   UNL     1     -10.412   7.171  73.581  1.00  0.00    -0.412 A  
HETATM    7  C   UNL     1      -8.417   9.274  70.616  1.00  0.00    -0.217 C  
HETATM    8  C   UNL     1     -10.413   8.462  69.945  1.00  0.00    -0.222 C  
HETATM    9  C   UNL     1     -11.043   7.444  72.344  1.00  0.00    -0.287 A  
HETATM   10  C   UNL     1     -10.266   8.121  71.396  1.00  0.00    -0.248 A  
HETATM   11  C   UNL     1      -9.008   8.600  71.756  1.00  0.00    -0.307 A  
HETATM   12  O   UNL     1      -7.383   9.917  70.672  1.00  0.00    -0.278 OA 
BRANCH   9  13
HETATM   13  N   UNL     1     -12.342   6.974  72.064  1.00  0.00    -0.456 NA 
HETATM   14  H   UNL     1     -12.477   5.963  72.053  1.00  0.00     0.000 HD 
BRANCH  13  15
HETATM   15  C   UNL     1     -13.377   7.710  71.819  1.00  0.00    -0.315 C  
HETATM   16  C   UNL     1     -14.022   8.870  72.521  1.00  0.00    -0.466 C  
HETATM   17  O   UNL     1     -14.080   7.390  70.719  1.00  0.00    -0.555 OA 
HETATM   18  H   UNL     1     -14.840   7.930  70.540  1.00  0.00     0.000 HD 
ENDBRANCH  13  15
ENDBRANCH   9  13
ENDBRANCH   1   2
BRANCH   1  19
HETATM   19  C   UNL     1      -8.388   8.628  67.193  1.00  0.00    -0.107 A  
HETATM   20  C   UNL     1      -8.370   7.259  67.484  1.00  0.00    -0.116 A  
HETATM   21  C   UNL     1      -8.127   6.707  65.130  1.00  0.00    -0.133 A  
HETATM   22  C   UNL     1      -8.154   9.028  65.855  1.00  0.00    -0.108 A  
HETATM   23  C   UNL     1      -8.249   6.311  66.464  1.00  0.00    -0.112 A  
HETATM   24  C   UNL     1      -8.030   8.078  64.824  1.00  0.00    -0.143 A  
BRANCH  24  25
HETATM   25  O   UNL     1      -7.865   8.374  63.492  1.00  0.00    -0.137 OA 
BRANCH  25  26
HETATM   26  C   UNL     1      -6.634   8.942  63.057  1.00  0.00    -0.090 C  
HETATM   27  C   UNL     1      -6.897  10.377  62.622  1.00  0.00    -0.132 C  
ENDBRANCH  25  26
ENDBRANCH  24  25
BRANCH  21  28
HETATM   28  O   UNL     1      -8.107   5.837  64.066  1.00  0.00    -0.121 OA 
HETATM   29  C   UNL     1      -8.475   4.487  64.320  1.00  0.00    -0.120 C  
ENDBRANCH  21  28
ENDBRANCH   1  19
BRANCH   1  30
HETATM   30  C   UNL     1      -9.882  10.585  67.586  1.00  0.00    -0.166 C  
BRANCH  30  31
HETATM   31  S   UNL     1      -9.940  12.237  68.229  1.00  0.00    -0.209 S  
HETATM   32  O   UNL     1     -11.056  12.279  69.155  1.00  0.00    -0.238 OA 
HETATM   33  C   UNL     1     -10.370  13.310  66.877  1.00  0.00    -0.255 C  
HETATM   34  O   UNL     1      -8.611  12.608  68.669  1.00  0.00    -0.088 OA 
ENDBRANCH  30  31
ENDBRANCH   1  30
TORSDOF 9
ENDMDL
MODEL      157
REMARK 921   NORMALIZED FREE ENERGY PREDICTED BY IDOCK:   -4.76 KCAL/MOL
REMARK 922        TOTAL FREE ENERGY PREDICTED BY IDOCK:   -8.33 KCAL/MOL
REMARK 923 INTER-LIGAND FREE ENERGY PREDICTED BY IDOCK:   -7.87 KCAL/MOL
REMARK 924 INTRA-LIGAND FREE ENERGY PREDICTED BY IDOCK:   -0.45 KCAL/MOL
REMARK 927      BINDING AFFINITY PREDICTED BY RF-SCORE:    0.00 PKD
ROOT
HETATM    1  C   UNL     1      -9.557  13.804  66.360  1.00  0.00    -0.272 C  
ENDROOT
BRANCH   1   2
HETATM    2  N   UNL     1      -9.387  15.177  66.863  1.00  0.00    -0.221 N  
HETATM    3  C   UNL     1     -10.784  18.097  68.444  1.00  0.00    -0.099 A  
HETATM    4  C   UNL     1     -10.191  19.331  68.648  1.00  0.00    -0.438 A  
HETATM    5  O   UNL     1      -7.143  15.694  66.518  1.00  0.00    -0.034 OA 
HETATM    6  C   UNL     1      -8.830  19.514  68.342  1.00  0.00    -0.389 A  
HETATM    7  C   UNL     1     -10.419  15.770  67.531  1.00  0.00    -0.288 C  
HETATM    8  C   UNL     1      -8.255  15.971  66.925  1.00  0.00    -0.242 C  
HETATM    9  C   UNL     1      -8.002  18.466  67.873  1.00  0.00    -0.258 A  
HETATM   10  C   UNL     1      -8.646  17.256  67.587  1.00  0.00    -0.218 A  
HETATM   11  C   UNL     1      -9.994  17.105  67.904  1.00  0.00    -0.292 A  
HETATM   12  O   UNL     1     -11.507  15.302  67.818  1.00  0.00    -0.335 OA 
BRANCH   9  13
HETATM   13  N   UNL     1      -6.630  18.673  67.623  1.00  0.00    -0.201 NA 
HETATM   14  H   UNL     1      -6.067  17.848  67.414  1.00  0.00     0.000 HD 
BRANCH  13  15
HETATM   15  C   UNL     1      -6.022  19.814  67.635  1.00  0.00    -0.190 C  
HETATM   16  C   UNL     1      -5.866  20.924  66.637  1.00  0.00    -0.278 C  
HETATM   17  O   UNL     1      -5.341  20.106  68.757  1.00  0.00    -0.203 OA 
HETATM   18  H   UNL     1      -4.895  20.944  68.766  1.00  0.00     0.000 HD 
ENDBRANCH  13  15
ENDBRANCH   9  13
ENDBRANCH   1   2
BRANCH   1  19
HETATM   19  C   UNL     1      -8.630  12.758  67.006  1.00  0.00    -0.177 A  
HETATM   20  C   UNL     1      -8.015  13.009  68.238  1.00  0.00    -0.151 A  
HETATM   21  C   UNL     1      -7.450  10.659  68.496  1.00  0.00    -0.093 A  
HETATM   22  C   UNL     1      -8.542  11.449  66.472  1.00  0.00    -0.175 A  
HETATM   23  C   UNL     1      -7.439  11.971  68.977  1.00  0.00     0.017 A  
HETATM   24  C   UNL     1      -7.963  10.400  67.210  1.00  0.00    -0.110 A  
BRANCH  24  25
HETATM   25  O   UNL     1      -7.891   9.091  66.800  1.00  0.00    -0.102 OA 
BRANCH  25  26
HETATM   26  C   UNL     1      -9.019   8.503  66.160  1.00  0.00    -0.179 C  
HETATM   27  C   UNL     1     -10.137   8.375  67.187  1.00  0.00    -0.335 C  
ENDBRANCH  25  26
ENDBRANCH  24  25
BRANCH  21  28
HETATM   28  O   UNL     1      -6.998   9.574  69.208  1.00  0.00    -0.048 OA 
HETATM   29  C   UNL     1      -7.665   9.267  70.426  1.00  0.00    -0.143 C  
ENDBRANCH  21  28
ENDBRANCH   1  19
BRANCH   1  30
HETATM   30  C   UNL     1     -10.983  13.250  66.344  1.00  0.00    -0.289 C  
BRANCH  30  31
HETATM   31  S   UNL     1     -11.828  13.338  64.787  1.00  0.00    -0.395 S  
HETATM   32  O   UNL     1     -13.064  12.596  64.947  1.00  0.00    -0.850 OA 
HETATM   33  C   UNL     1     -10.850  12.436  63.608  1.00  0.00    -0.462 C  
HETATM   34  O   UNL     1     -11.858  14.721  64.356  1.00  0.00    -0.422 OA 
ENDBRANCH  30  31
ENDBRANCH   1  30
TORSDOF 9
ENDMDL
MODEL      158
REMARK 921   NORMALIZED FREE ENERGY PREDICTED BY IDOCK:   -4.74 KCAL/MOL
REMARK 922        TOTAL FREE ENERGY PREDICTED BY IDOCK:   -8.30 KCAL/MOL
REMARK 923 INTER-LIGAND FREE ENERGY PREDICTED BY IDOCK:   -6.81 KCAL/MOL
REMARK 924 INTRA-LIGAND FREE ENERGY PREDICTED BY IDOCK:   -1.48 KCAL/MOL
REMARK 927      BINDING AFFINITY PREDICTED BY RF-SCORE:    0.00 PKD
ROOT
HETATM    1  C   UNL     1     -11.361   8.434  70.159  1.00  0.00    -0.065 C  
ENDROOT
BRANCH   1   2
HETATM    2  N   UNL     1     -10.376   9.382  69.612  1.00  0.00    -0.205 N  
HETATM    3  C   UNL     1      -7.128  10.928  69.794  1.00  0.00    -0.092 A  
HETATM    4  C   UNL     1      -6.621  11.958  69.019  1.00  0.00    -0.091 A  
HETATM    5  O   UNL     1     -11.361  10.271  67.698  1.00  0.00    -0.335 OA 
HETATM    6  C   UNL     1      -7.356  12.433  67.917  1.00  0.00    -0.112 A  
HETATM    7  C   UNL     1      -9.129   9.431  70.163  1.00  0.00    -0.231 C  
HETATM    8  C   UNL     1     -10.431  10.171  68.475  1.00  0.00    -0.195 C  
HETATM    9  C   UNL     1      -8.591  11.870  67.519  1.00  0.00    -0.160 A  
HETATM   10  C   UNL     1      -9.125  10.895  68.371  1.00  0.00    -0.164 A  
HETATM   11  C   UNL     1      -8.372  10.443  69.452  1.00  0.00    -0.152 A  
HETATM   12  O   UNL     1      -8.670   8.754  71.067  1.00  0.00    -0.165 OA 
BRANCH   9  13
HETATM   13  N   UNL     1      -9.277  12.339  66.380  1.00  0.00    -0.287 NA 
HETATM   14  H   UNL     1      -9.165  11.805  65.518  1.00  0.00     0.000 HD 
BRANCH  13  15
HETATM   15  C   UNL     1     -10.037  13.385  66.331  1.00  0.00    -0.292 C  
HETATM   16  C   UNL     1      -9.893  14.750  65.724  1.00  0.00    -0.373 C  
HETATM   17  O   UNL     1     -11.214  13.288  66.972  1.00  0.00    -0.276 OA 
HETATM   18  H   UNL     1     -11.771  14.056  66.936  1.00  0.00     0.000 HD 
ENDBRANCH  13  15
ENDBRANCH   9  13
ENDBRANCH   1   2
BRANCH   1  19
HETATM   19  C   UNL     1     -10.966   6.950  70.042  1.00  0.00    -0.320 A  
HETATM   20  C   UNL     1     -10.705   6.374  68.793  1.00  0.00    -0.339 A  
HETATM   21  C   UNL     1      -9.652   4.450  69.840  1.00  0.00    -0.205 A  
HETATM   22  C   UNL     1     -10.661   6.194  71.200  1.00  0.00    -0.312 A  
HETATM   23  C   UNL     1     -10.049   5.143  68.694  1.00  0.00    -0.220 A  
HETATM   24  C   UNL     1     -10.003   4.954  71.108  1.00  0.00    -0.208 A  
BRANCH  24  25
HETATM   25  O   UNL     1      -9.613   4.184  72.176  1.00  0.00    -0.133 OA 
BRANCH  25  26
HETATM   26  C   UNL     1     -10.610   3.575  72.991  1.00  0.00    -0.160 C  
HETATM   27  C   UNL     1     -10.551   4.210  74.373  1.00  0.00    -0.262 C  
ENDBRANCH  25  26
ENDBRANCH  24  25
BRANCH  21  28
HETATM   28  O   UNL     1      -8.916   3.290  69.823  1.00  0.00    -0.084 OA 
HETATM   29  C   UNL     1      -8.852   2.575  68.595  1.00  0.00    -0.107 C  
ENDBRANCH  21  28
ENDBRANCH   1  19
BRANCH   1  30
HETATM   30  C   UNL     1     -11.852   8.698  71.583  1.00  0.00    -0.323 C  
BRANCH  30  31
HETATM   31  S   UNL     1     -13.604   8.905  71.769  1.00  0.00    -0.426 S  
HETATM   32  O   UNL     1     -13.838   9.182  73.174  1.00  0.00    -0.268 OA 
HETATM   33  C   UNL     1     -14.356   7.329  71.437  1.00  0.00    -0.322 C  
HETATM   34  O   UNL     1     -14.070   9.829  70.755  1.00  0.00     0.071 OA 
ENDBRANCH  30  31
ENDBRANCH   1  30
TORSDOF 9
ENDMDL
MODEL      159
REMARK 921   NORMALIZED FREE ENERGY PREDICTED BY IDOCK:   -4.74 KCAL/MOL
REMARK 922        TOTAL FREE ENERGY PREDICTED BY IDOCK:   -8.28 KCAL/MOL
REMARK 923 INTER-LIGAND FREE ENERGY PREDICTED BY IDOCK:   -7.67 KCAL/MOL
REMARK 924 INTRA-LIGAND FREE ENERGY PREDICTED BY IDOCK:   -0.62 KCAL/MOL
REMARK 927      BINDING AFFINITY PREDICTED BY RF-SCORE:    0.00 PKD
ROOT
HETATM    1  C   UNL     1      -9.330  11.141  67.687  1.00  0.00    -0.165 C  
ENDROOT
BRANCH   1   2
HETATM    2  N   UNL     1     -10.038  10.587  68.853  1.00  0.00    -0.192 N  
HETATM    3  C   UNL     1     -13.089  10.173  70.721  1.00  0.00    -0.351 A  
HETATM    4  C   UNL     1     -13.267   9.574  71.956  1.00  0.00    -0.539 A  
HETATM    5  O   UNL     1      -8.443   9.355  70.021  1.00  0.00    -0.150 OA 
HETATM    6  C   UNL     1     -12.193   8.906  72.572  1.00  0.00    -0.299 A  
HETATM    7  C   UNL     1     -11.391  10.730  68.935  1.00  0.00    -0.284 C  
HETATM    8  C   UNL     1      -9.578   9.763  69.866  1.00  0.00    -0.235 C  
HETATM    9  C   UNL     1     -10.924   8.767  71.961  1.00  0.00    -0.368 A  
HETATM   10  C   UNL     1     -10.743   9.460  70.757  1.00  0.00    -0.373 A  
HETATM   11  C   UNL     1     -11.828  10.109  70.171  1.00  0.00    -0.299 A  
HETATM   12  O   UNL     1     -12.151  11.247  68.134  1.00  0.00    -0.635 OA 
BRANCH   9  13
HETATM   13  N   UNL     1      -9.884   8.049  72.585  1.00  0.00    -0.251 NA 
HETATM   14  H   UNL     1      -8.978   8.512  72.657  1.00  0.00     0.000 HD 
BRANCH  13  15
HETATM   15  C   UNL     1      -9.976   6.855  73.076  1.00  0.00    -0.187 C  
HETATM   16  C   UNL     1      -9.861   6.283  74.459  1.00  0.00    -0.338 C  
HETATM   17  O   UNL     1     -10.198   5.871  72.188  1.00  0.00    -0.188 OA 
HETATM   18  H   UNL     1     -10.266   4.994  72.547  1.00  0.00     0.000 HD 
ENDBRANCH  13  15
ENDBRANCH   9  13
ENDBRANCH   1   2
BRANCH   1  19
HETATM   19  C   UNL     1      -9.070  10.136  66.549  1.00  0.00    -0.166 A  
HETATM   20  C   UNL     1      -8.494  10.554  65.343  1.00  0.00    -0.173 A  
HETATM   21  C   UNL     1      -8.015   8.256  64.713  1.00  0.00    -0.146 A  
HETATM   22  C   UNL     1      -9.215   8.746  66.770  1.00  0.00    -0.211 A  
HETATM   23  C   UNL     1      -7.967   9.625  64.440  1.00  0.00    -0.138 A  
HETATM   24  C   UNL     1      -8.689   7.805  65.865  1.00  0.00    -0.149 A  
BRANCH  24  25
HETATM   25  O   UNL     1      -8.727   6.442  66.030  1.00  0.00    -0.145 OA 
BRANCH  25  26
HETATM   26  C   UNL     1      -9.498   5.895  67.095  1.00  0.00    -0.117 C  
HETATM   27  C   UNL     1     -10.969   5.974  66.710  1.00  0.00    -0.305 C  
ENDBRANCH  25  26
ENDBRANCH  24  25
BRANCH  21  28
HETATM   28  O   UNL     1      -7.430   7.293  63.927  1.00  0.00    -0.085 OA 
HETATM   29  C   UNL     1      -7.866   7.195  62.578  1.00  0.00    -0.129 C  
ENDBRANCH  21  28
ENDBRANCH   1  19
BRANCH   1  30
HETATM   30  C   UNL     1      -9.901  12.425  67.083  1.00  0.00    -0.205 C  
BRANCH  30  31
HETATM   31  S   UNL     1      -9.131  13.934  67.608  1.00  0.00    -0.209 S  
HETATM   32  O   UNL     1      -9.733  14.282  68.882  1.00  0.00    -0.201 OA 
HETATM   33  C   UNL     1      -9.622  15.200  66.460  1.00  0.00    -0.271 C  
HETATM   34  O   UNL     1      -7.695  13.783  67.496  1.00  0.00    -0.161 OA 
ENDBRANCH  30  31
ENDBRANCH   1  30
TORSDOF 9
ENDMDL
MODEL      160
REMARK 921   NORMALIZED FREE ENERGY PREDICTED BY IDOCK:   -4.73 KCAL/MOL
REMARK 922        TOTAL FREE ENERGY PREDICTED BY IDOCK:   -8.28 KCAL/MOL
REMARK 923 INTER-LIGAND FREE ENERGY PREDICTED BY IDOCK:   -6.72 KCAL/MOL
REMARK 924 INTRA-LIGAND FREE ENERGY PREDICTED BY IDOCK:   -1.55 KCAL/MOL
REMARK 927      BINDING AFFINITY PREDICTED BY RF-SCORE:    0.00 PKD
ROOT
HETATM    1  C   UNL     1     -10.321   9.840  68.502  1.00  0.00    -0.202 C  
ENDROOT
BRANCH   1   2
HETATM    2  N   UNL     1      -9.724   8.510  68.296  1.00  0.00    -0.151 N  
HETATM    3  C   UNL     1      -6.967   6.241  68.766  1.00  0.00    -0.076 A  
HETATM    4  C   UNL     1      -6.804   4.967  68.249  1.00  0.00    -0.056 A  
HETATM    5  O   UNL     1     -11.345   7.268  67.175  1.00  0.00    -0.075 OA 
HETATM    6  C   UNL     1      -7.858   4.357  67.543  1.00  0.00    -0.085 A  
HETATM    7  C   UNL     1      -8.531   8.222  68.889  1.00  0.00    -0.128 C  
HETATM    8  C   UNL     1     -10.254   7.377  67.702  1.00  0.00    -0.201 C  
HETATM    9  C   UNL     1      -9.122   4.970  67.371  1.00  0.00    -0.115 A  
HETATM   10  C   UNL     1      -9.230   6.291  67.821  1.00  0.00    -0.115 A  
HETATM   11  C   UNL     1      -8.170   6.866  68.519  1.00  0.00    -0.121 A  
HETATM   12  O   UNL     1      -7.861   8.921  69.630  1.00  0.00    -0.084 OA 
BRANCH   9  13
HETATM   13  N   UNL     1     -10.171   4.309  66.700  1.00  0.00    -0.324 NA 
HETATM   14  H   UNL     1     -10.860   3.827  67.277  1.00  0.00     0.000 HD 
BRANCH  13  15
HETATM   15  C   UNL     1     -10.338   4.260  65.418  1.00  0.00    -0.197 C  
HETATM   16  C   UNL     1      -9.404   4.144  64.248  1.00  0.00    -0.159 C  
HETATM   17  O   UNL     1     -11.607   4.356  64.986  1.00  0.00    -1.067 OA 
HETATM   18  H   UNL     1     -11.729   4.320  64.045  1.00  0.00     0.000 HD 
ENDBRANCH  13  15
ENDBRANCH   9  13
ENDBRANCH   1   2
BRANCH   1  19
HETATM   19  C   UNL     1     -10.145  10.819  67.326  1.00  0.00    -0.233 A  
HETATM   20  C   UNL     1     -10.924  10.696  66.169  1.00  0.00     0.015 A  
HETATM   21  C   UNL     1     -10.296  12.928  65.443  1.00  0.00    -0.296 A  
HETATM   22  C   UNL     1      -9.345  11.979  67.469  1.00  0.00    -0.179 A  
HETATM   23  C   UNL     1     -11.004  11.741  65.243  1.00  0.00    -0.350 A  
HETATM   24  C   UNL     1      -9.419  13.033  66.540  1.00  0.00    -0.245 A  
BRANCH  24  25
HETATM   25  O   UNL     1      -8.729  14.217  66.632  1.00  0.00    -0.184 OA 
BRANCH  25  26
HETATM   26  C   UNL     1      -7.970  14.486  67.806  1.00  0.00    -0.159 C  
HETATM   27  C   UNL     1      -8.810  15.360  68.728  1.00  0.00    -0.196 C  
ENDBRANCH  25  26
ENDBRANCH  24  25
BRANCH  21  28
HETATM   28  O   UNL     1     -10.403  14.034  64.634  1.00  0.00    -0.440 OA 
HETATM   29  C   UNL     1     -11.713  14.499  64.332  1.00  0.00    -0.367 C  
ENDBRANCH  21  28
ENDBRANCH   1  19
BRANCH   1  30
HETATM   30  C   UNL     1     -11.782   9.876  68.952  1.00  0.00     0.309 C  
BRANCH  30  31
HETATM   31  S   UNL     1     -12.065  10.434  70.613  1.00  0.00    -0.376 S  
HETATM   32  O   UNL     1     -13.411  10.021  70.961  1.00  0.00    -0.367 OA 
HETATM   33  C   UNL     1     -12.080  12.211  70.573  1.00  0.00    -0.293 C  
HETATM   34  O   UNL     1     -10.942  10.029  71.433  1.00  0.00    -0.203 OA 
ENDBRANCH  30  31
ENDBRANCH   1  30
TORSDOF 9
ENDMDL
MODEL      161
REMARK 921   NORMALIZED FREE ENERGY PREDICTED BY IDOCK:   -4.73 KCAL/MOL
REMARK 922        TOTAL FREE ENERGY PREDICTED BY IDOCK:   -8.28 KCAL/MOL
REMARK 923 INTER-LIGAND FREE ENERGY PREDICTED BY IDOCK:   -7.32 KCAL/MOL
REMARK 924 INTRA-LIGAND FREE ENERGY PREDICTED BY IDOCK:   -0.95 KCAL/MOL
REMARK 927      BINDING AFFINITY PREDICTED BY RF-SCORE:    0.00 PKD
ROOT
HETATM    1  C   UNL     1     -10.206   9.642  67.859  1.00  0.00    -0.198 C  
ENDROOT
BRANCH   1   2
HETATM    2  N   UNL     1     -10.323  11.053  68.262  1.00  0.00    -0.171 N  
HETATM    3  C   UNL     1      -8.837  14.318  68.589  1.00  0.00    -0.150 A  
HETATM    4  C   UNL     1      -9.370  15.450  69.181  1.00  0.00    -0.246 A  
HETATM    5  O   UNL     1     -12.520  11.314  68.988  1.00  0.00    -0.417 OA 
HETATM    6  C   UNL     1     -10.705  15.446  69.624  1.00  0.00    -0.281 A  
HETATM    7  C   UNL     1      -9.289  11.903  67.998  1.00  0.00    -0.193 C  
HETATM    8  C   UNL     1     -11.412  11.756  68.748  1.00  0.00    -0.291 C  
HETATM    9  C   UNL     1     -11.569  14.338  69.449  1.00  0.00    -0.306 A  
HETATM   10  C   UNL     1     -10.980  13.177  68.934  1.00  0.00    -0.270 A  
HETATM   11  C   UNL     1      -9.656  13.214  68.501  1.00  0.00    -0.118 A  
HETATM   12  O   UNL     1      -8.240  11.670  67.423  1.00  0.00    -0.139 OA 
BRANCH   9  13
HETATM   13  N   UNL     1     -12.916  14.387  69.861  1.00  0.00    -0.423 NA 
HETATM   14  H   UNL     1     -13.625  14.415  69.128  1.00  0.00     0.000 HD 
BRANCH  13  15
HETATM   15  C   UNL     1     -13.333  14.399  71.085  1.00  0.00    -0.331 C  
HETATM   16  C   UNL     1     -14.293  15.261  71.852  1.00  0.00    -0.691 C  
HETATM   17  O   UNL     1     -12.800  13.470  71.897  1.00  0.00    -0.319 OA 
HETATM   18  H   UNL     1     -13.106  13.478  72.796  1.00  0.00     0.000 HD 
ENDBRANCH  13  15
ENDBRANCH   9  13
ENDBRANCH   1   2
BRANCH   1  19
HETATM   19  C   UNL     1      -9.846   9.418  66.378  1.00  0.00    -0.337 A  
HETATM   20  C   UNL     1     -10.348  10.265  65.383  1.00  0.00    -0.233 A  
HETATM   21  C   UNL     1      -8.729   9.425  63.776  1.00  0.00    -0.201 A  
HETATM   22  C   UNL     1      -8.845   8.484  66.015  1.00  0.00    -0.208 A  
HETATM   23  C   UNL     1      -9.791  10.273  64.101  1.00  0.00    -0.319 A  
HETATM   24  C   UNL     1      -8.282   8.486  64.726  1.00  0.00    -0.162 A  
BRANCH  24  25
HETATM   25  O   UNL     1      -7.266   7.662  64.305  1.00  0.00    -0.070 OA 
BRANCH  25  26
HETATM   26  C   UNL     1      -7.342   6.269  64.592  1.00  0.00    -0.073 C  
HETATM   27  C   UNL     1      -6.342   5.953  65.696  1.00  0.00    -0.042 C  
ENDBRANCH  25  26
ENDBRANCH  24  25
BRANCH  21  28
HETATM   28  O   UNL     1      -8.064   9.448  62.574  1.00  0.00    -0.125 OA 
HETATM   29  C   UNL     1      -7.090  10.466  62.385  1.00  0.00    -0.144 C  
ENDBRANCH  21  28
ENDBRANCH   1  19
BRANCH   1  30
HETATM   30  C   UNL     1      -9.306   8.754  68.720  1.00  0.00    -0.141 C  
BRANCH  30  31
HETATM   31  S   UNL     1     -10.080   7.320  69.421  1.00  0.00    -0.187 S  
HETATM   32  O   UNL     1     -11.229   7.796  70.167  1.00  0.00    -0.243 OA 
HETATM   33  C   UNL     1      -8.950   6.647  70.617  1.00  0.00    -0.151 C  
HETATM   34  O   UNL     1     -10.246   6.329  68.378  1.00  0.00    -0.145 OA 
ENDBRANCH  30  31
ENDBRANCH   1  30
TORSDOF 9
ENDMDL
MODEL      162
REMARK 921   NORMALIZED FREE ENERGY PREDICTED BY IDOCK:   -4.72 KCAL/MOL
REMARK 922        TOTAL FREE ENERGY PREDICTED BY IDOCK:   -8.26 KCAL/MOL
REMARK 923 INTER-LIGAND FREE ENERGY PREDICTED BY IDOCK:   -6.74 KCAL/MOL
REMARK 924 INTRA-LIGAND FREE ENERGY PREDICTED BY IDOCK:   -1.52 KCAL/MOL
REMARK 927      BINDING AFFINITY PREDICTED BY RF-SCORE:    0.00 PKD
ROOT
HETATM    1  C   UNL     1      -9.216  11.014  68.246  1.00  0.00    -0.165 C  
ENDROOT
BRANCH   1   2
HETATM    2  N   UNL     1      -8.845  12.427  68.422  1.00  0.00    -0.165 N  
HETATM    3  C   UNL     1      -6.380  14.900  69.305  1.00  0.00    -0.115 A  
HETATM    4  C   UNL     1      -6.540  16.270  69.424  1.00  0.00    -0.202 A  
HETATM    5  O   UNL     1     -10.723  13.648  67.784  1.00  0.00    -0.241 OA 
HETATM    6  C   UNL     1      -7.757  16.869  69.048  1.00  0.00    -0.199 A  
HETATM    7  C   UNL     1      -7.552  12.739  68.722  1.00  0.00    -0.025 C  
HETATM    8  C   UNL     1      -9.573  13.579  68.172  1.00  0.00    -0.215 C  
HETATM    9  C   UNL     1      -8.834  16.135  68.496  1.00  0.00    -0.200 A  
HETATM   10  C   UNL     1      -8.682  14.744  68.473  1.00  0.00    -0.174 A  
HETATM   11  C   UNL     1      -7.463  14.182  68.849  1.00  0.00    -0.112 A  
HETATM   12  O   UNL     1      -6.597  11.991  68.845  1.00  0.00    -0.075 OA 
BRANCH   9  13
HETATM   13  N   UNL     1     -10.021  16.775  68.084  1.00  0.00    -0.260 NA 
HETATM   14  H   UNL     1     -10.733  16.934  68.797  1.00  0.00     0.000 HD 
BRANCH  13  15
HETATM   15  C   UNL     1     -10.288  17.177  66.884  1.00  0.00    -0.308 C  
HETATM   16  C   UNL     1     -10.427  18.527  66.243  1.00  0.00    -0.441 C  
HETATM   17  O   UNL     1     -10.527  16.211  65.980  1.00  0.00    -0.321 OA 
HETATM   18  H   UNL     1     -10.723  16.506  65.099  1.00  0.00     0.000 HD 
ENDBRANCH  13  15
ENDBRANCH   9  13
ENDBRANCH   1   2
BRANCH   1  19
HETATM   19  C   UNL     1      -8.785  10.392  66.904  1.00  0.00    -0.130 A  
HETATM   20  C   UNL     1      -7.969   9.255  66.870  1.00  0.00    -0.105 A  
HETATM   21  C   UNL     1      -8.496   8.881  64.527  1.00  0.00    -0.161 A  
HETATM   22  C   UNL     1      -9.366  10.831  65.689  1.00  0.00    -0.241 A  
HETATM   23  C   UNL     1      -7.833   8.505  65.698  1.00  0.00    -0.102 A  
HETATM   24  C   UNL     1      -9.232  10.082  64.506  1.00  0.00    -0.262 A  
BRANCH  24  25
HETATM   25  O   UNL     1      -9.811  10.396  63.301  1.00  0.00    -0.302 OA 
BRANCH  25  26
HETATM   26  C   UNL     1     -10.283  11.722  63.085  1.00  0.00    -0.337 C  
HETATM   27  C   UNL     1     -11.775  11.753  63.389  1.00  0.00    -0.423 C  
ENDBRANCH  25  26
ENDBRANCH  24  25
BRANCH  21  28
HETATM   28  O   UNL     1      -8.493   8.141  63.369  1.00  0.00    -0.058 OA 
HETATM   29  C   UNL     1      -7.331   7.372  63.087  1.00  0.00    -0.090 C  
ENDBRANCH  21  28
ENDBRANCH   1  19
BRANCH   1  30
HETATM   30  C   UNL     1      -8.828  10.056  69.374  1.00  0.00    -0.190 C  
BRANCH  30  31
HETATM   31  S   UNL     1     -10.177   9.347  70.282  1.00  0.00    -0.267 S  
HETATM   32  O   UNL     1     -10.639   8.209  69.510  1.00  0.00    -0.227 OA 
HETATM   33  C   UNL     1     -11.501  10.533  70.267  1.00  0.00    -0.333 C  
HETATM   34  O   UNL     1      -9.766   9.175  71.660  1.00  0.00    -0.292 OA 
ENDBRANCH  30  31
ENDBRANCH   1  30
TORSDOF 9
ENDMDL
MODEL      163
REMARK 921   NORMALIZED FREE ENERGY PREDICTED BY IDOCK:   -4.71 KCAL/MOL
REMARK 922        TOTAL FREE ENERGY PREDICTED BY IDOCK:   -8.24 KCAL/MOL
REMARK 923 INTER-LIGAND FREE ENERGY PREDICTED BY IDOCK:   -6.85 KCAL/MOL
REMARK 924 INTRA-LIGAND FREE ENERGY PREDICTED BY IDOCK:   -1.40 KCAL/MOL
REMARK 927      BINDING AFFINITY PREDICTED BY RF-SCORE:    0.00 PKD
ROOT
HETATM    1  C   UNL     1     -10.387  14.750  67.740  1.00  0.00    -0.244 C  
ENDROOT
BRANCH   1   2
HETATM    2  N   UNL     1      -9.110  14.075  68.023  1.00  0.00    -0.182 N  
HETATM    3  C   UNL     1      -6.728  11.489  67.239  1.00  0.00    -0.112 A  
HETATM    4  C   UNL     1      -5.576  11.145  67.925  1.00  0.00    -0.043 A  
HETATM    5  O   UNL     1      -8.148  15.270  69.775  1.00  0.00    -0.206 OA 
HETATM    6  C   UNL     1      -5.141  11.934  69.005  1.00  0.00    -0.051 A  
HETATM    7  C   UNL     1      -8.683  13.090  67.182  1.00  0.00    -0.204 C  
HETATM    8  C   UNL     1      -8.127  14.377  68.950  1.00  0.00    -0.095 C  
HETATM    9  C   UNL     1      -5.805  13.118  69.407  1.00  0.00    -0.095 A  
HETATM   10  C   UNL     1      -7.015  13.393  68.759  1.00  0.00    -0.103 A  
HETATM   11  C   UNL     1      -7.418  12.594  67.690  1.00  0.00    -0.143 A  
HETATM   12  O   UNL     1      -9.208  12.680  66.162  1.00  0.00    -0.168 OA 
BRANCH   9  13
HETATM   13  N   UNL     1      -5.313  13.912  70.462  1.00  0.00    -0.109 NA 
HETATM   14  H   UNL     1      -4.880  14.800  70.212  1.00  0.00     0.000 HD 
BRANCH  13  15
HETATM   15  C   UNL     1      -5.362  13.614  71.720  1.00  0.00    -0.196 C  
HETATM   16  C   UNL     1      -5.238  14.410  72.987  1.00  0.00    -0.282 C  
HETATM   17  O   UNL     1      -5.534  12.312  72.010  1.00  0.00    -0.359 OA 
HETATM   18  H   UNL     1      -5.570  12.094  72.934  1.00  0.00     0.000 HD 
ENDBRANCH  13  15
ENDBRANCH   9  13
ENDBRANCH   1   2
BRANCH   1  19
HETATM   19  C   UNL     1     -11.523  14.429  68.730  1.00  0.00    -0.319 A  
HETATM   20  C   UNL     1     -12.054  13.136  68.816  1.00  0.00    -0.226 A  
HETATM   21  C   UNL     1     -13.136  13.663  70.928  1.00  0.00    -0.114 A  
HETATM   22  C   UNL     1     -11.911  15.374  69.711  1.00  0.00    -0.367 A  
HETATM   23  C   UNL     1     -12.844  12.756  69.906  1.00  0.00     0.574 A  
HETATM   24  C   UNL     1     -12.708  14.999  70.808  1.00  0.00    -0.381 A  
BRANCH  24  25
HETATM   25  O   UNL     1     -13.079  15.831  71.836  1.00  0.00    -0.449 OA 
BRANCH  25  26
HETATM   26  C   UNL     1     -12.110  16.198  72.813  1.00  0.00    -0.553 C  
HETATM   27  C   UNL     1     -12.554  15.640  74.159  1.00  0.00    -0.763 C  
ENDBRANCH  25  26
ENDBRANCH  24  25
BRANCH  21  28
HETATM   28  O   UNL     1     -13.817  13.336  72.076  1.00  0.00    -0.450 OA 
HETATM   29  C   UNL     1     -13.707  11.997  72.543  1.00  0.00     0.406 C  
ENDBRANCH  21  28
ENDBRANCH   1  19
BRANCH   1  30
HETATM   30  C   UNL     1     -10.334  16.264  67.534  1.00  0.00    -0.288 C  
BRANCH  30  31
HETATM   31  S   UNL     1     -10.053  16.807  65.868  1.00  0.00    -0.264 S  
HETATM   32  O   UNL     1      -8.617  16.940  65.716  1.00  0.00    -0.505 OA 
HETATM   33  C   UNL     1     -10.727  18.447  65.731  1.00  0.00    -0.131 C  
HETATM   34  O   UNL     1     -10.807  15.954  64.972  1.00  0.00    -0.428 OA 
ENDBRANCH  30  31
ENDBRANCH   1  30
TORSDOF 9
ENDMDL
MODEL      164
REMARK 921   NORMALIZED FREE ENERGY PREDICTED BY IDOCK:   -4.69 KCAL/MOL
REMARK 922        TOTAL FREE ENERGY PREDICTED BY IDOCK:   -8.21 KCAL/MOL
REMARK 923 INTER-LIGAND FREE ENERGY PREDICTED BY IDOCK:   -6.66 KCAL/MOL
REMARK 924 INTRA-LIGAND FREE ENERGY PREDICTED BY IDOCK:   -1.56 KCAL/MOL
REMARK 927      BINDING AFFINITY PREDICTED BY RF-SCORE:    0.00 PKD
ROOT
HETATM    1  C   UNL     1      -9.421   9.728  69.085  1.00  0.00    -0.188 C  
ENDROOT
BRANCH   1   2
HETATM    2  N   UNL     1      -9.233   9.135  70.419  1.00  0.00    -0.213 N  
HETATM    3  C   UNL     1      -7.146   8.590  73.304  1.00  0.00    -0.056 A  
HETATM    4  C   UNL     1      -7.397   7.793  74.408  1.00  0.00    -0.177 A  
HETATM    5  O   UNL     1     -11.254   8.098  70.932  1.00  0.00    -0.258 OA 
HETATM    6  C   UNL     1      -8.655   7.182  74.561  1.00  0.00    -0.230 A  
HETATM    7  C   UNL     1      -8.095   9.421  71.115  1.00  0.00     0.137 C  
HETATM    8  C   UNL     1     -10.117   8.424  71.213  1.00  0.00    -0.202 C  
HETATM    9  C   UNL     1      -9.720   7.383  73.651  1.00  0.00    -0.299 A  
HETATM   10  C   UNL     1      -9.414   8.116  72.498  1.00  0.00    -0.339 A  
HETATM   11  C   UNL     1      -8.159   8.711  72.378  1.00  0.00    -0.063 A  
HETATM   12  O   UNL     1      -7.174  10.155  70.799  1.00  0.00    -0.320 OA 
BRANCH   9  13
HETATM   13  N   UNL     1     -10.984   6.794  73.861  1.00  0.00    -0.408 NA 
HETATM   14  H   UNL     1     -11.634   7.294  74.469  1.00  0.00     0.000 HD 
BRANCH  13  15
HETATM   15  C   UNL     1     -11.393   5.678  73.352  1.00  0.00     0.003 C  
HETATM   16  C   UNL     1     -10.933   4.253  73.458  1.00  0.00    -0.373 C  
HETATM   17  O   UNL     1     -12.443   5.762  72.517  1.00  0.00    -0.461 OA 
HETATM   18  H   UNL     1     -12.743   4.942  72.143  1.00  0.00     0.000 HD 
ENDBRANCH  13  15
ENDBRANCH   9  13
ENDBRANCH   1   2
BRANCH   1  19
HETATM   19  C   UNL     1      -8.810   8.918  67.925  1.00  0.00    -0.133 A  
HETATM   20  C   UNL     1      -8.442   7.580  68.102  1.00  0.00    -0.124 A  
HETATM   21  C   UNL     1      -8.285   7.249  65.699  1.00  0.00    -0.138 A  
HETATM   22  C   UNL     1      -8.799   9.444  66.610  1.00  0.00    -0.151 A  
HETATM   23  C   UNL     1      -8.189   6.754  67.002  1.00  0.00    -0.113 A  
HETATM   24  C   UNL     1      -8.545   8.619  65.499  1.00  0.00    -0.175 A  
BRANCH  24  25
HETATM   25  O   UNL     1      -8.575   9.026  64.187  1.00  0.00    -0.191 OA 
BRANCH  25  26
HETATM   26  C   UNL     1      -8.440  10.413  63.891  1.00  0.00    -0.161 C  
HETATM   27  C   UNL     1      -9.801  10.943  63.460  1.00  0.00    -0.407 C  
ENDBRANCH  25  26
ENDBRANCH  24  25
BRANCH  21  28
HETATM   28  O   UNL     1      -8.154   6.476  64.570  1.00  0.00    -0.121 OA 
HETATM   29  C   UNL     1      -8.886   5.258  64.522  1.00  0.00    -0.013 C  
ENDBRANCH  21  28
ENDBRANCH   1  19
BRANCH   1  30
HETATM   30  C   UNL     1     -10.847  10.126  68.704  1.00  0.00    -0.235 C  
BRANCH  30  31
HETATM   31  S   UNL     1     -11.139  11.866  68.518  1.00  0.00    -0.265 S  
HETATM   32  O   UNL     1      -9.856  12.519  68.694  1.00  0.00    -0.180 OA 
HETATM   33  C   UNL     1     -12.154  12.376  69.886  1.00  0.00    -0.247 C  
HETATM   34  O   UNL     1     -11.907  12.078  67.308  1.00  0.00    -0.556 OA 
ENDBRANCH  30  31
ENDBRANCH   1  30
TORSDOF 9
ENDMDL
MODEL      165
REMARK 921   NORMALIZED FREE ENERGY PREDICTED BY IDOCK:   -4.65 KCAL/MOL
REMARK 922        TOTAL FREE ENERGY PREDICTED BY IDOCK:   -8.15 KCAL/MOL
REMARK 923 INTER-LIGAND FREE ENERGY PREDICTED BY IDOCK:   -6.61 KCAL/MOL
REMARK 924 INTRA-LIGAND FREE ENERGY PREDICTED BY IDOCK:   -1.55 KCAL/MOL
REMARK 927      BINDING AFFINITY PREDICTED BY RF-SCORE:    0.00 PKD
ROOT
HETATM    1  C   UNL     1      -9.098   9.091  67.843  1.00  0.00    -0.135 C  
ENDROOT
BRANCH   1   2
HETATM    2  N   UNL     1      -9.385   8.706  69.235  1.00  0.00    -0.153 N  
HETATM    3  C   UNL     1      -8.331   8.488  72.672  1.00  0.00    -0.151 A  
HETATM    4  C   UNL     1      -8.986   7.893  73.736  1.00  0.00    -0.324 A  
HETATM    5  O   UNL     1     -11.569   7.897  69.221  1.00  0.00     0.443 OA 
HETATM    6  C   UNL     1     -10.292   7.398  73.567  1.00  0.00    -0.405 A  
HETATM    7  C   UNL     1      -8.483   9.023  70.207  1.00  0.00    -0.168 C  
HETATM    8  C   UNL     1     -10.539   8.188  69.798  1.00  0.00    -0.231 C  
HETATM    9  C   UNL     1     -11.008   7.521  72.352  1.00  0.00    -0.286 A  
HETATM   10  C   UNL     1     -10.291   8.041  71.267  1.00  0.00    -0.230 A  
HETATM   11  C   UNL     1      -9.000   8.527  71.468  1.00  0.00    -0.276 A  
HETATM   12  O   UNL     1      -7.434   9.636  70.102  1.00  0.00    -0.115 OA 
BRANCH   9  13
HETATM   13  N   UNL     1     -12.333   7.057  72.232  1.00  0.00    -0.508 NA 
HETATM   14  H   UNL     1     -12.490   6.059  72.369  1.00  0.00     0.000 HD 
BRANCH  13  15
HETATM   15  C   UNL     1     -13.369   7.785  71.963  1.00  0.00    -0.184 C  
HETATM   16  C   UNL     1     -13.998   8.984  72.611  1.00  0.00    -0.381 C  
HETATM   17  O   UNL     1     -14.090   7.409  70.893  1.00  0.00    -0.615 OA 
HETATM   18  H   UNL     1     -14.850   7.943  70.696  1.00  0.00     0.000 HD 
ENDBRANCH  13  15
ENDBRANCH   9  13
ENDBRANCH   1   2
BRANCH   1  19
HETATM   19  C   UNL     1      -8.270   8.067  67.045  1.00  0.00    -0.116 A  
HETATM   20  C   UNL     1      -6.914   7.866  67.328  1.00  0.00    -0.074 A  
HETATM   21  C   UNL     1      -6.897   5.798  66.052  1.00  0.00    -0.058 A  
HETATM   22  C   UNL     1      -8.904   7.167  66.153  1.00  0.00    -0.171 A  
HETATM   23  C   UNL     1      -6.238   6.741  66.844  1.00  0.00    -0.040 A  
HETATM   24  C   UNL     1      -8.230   6.035  65.661  1.00  0.00    -0.139 A  
BRANCH  24  25
HETATM   25  O   UNL     1      -8.783   5.078  64.845  1.00  0.00    -0.147 OA 
BRANCH  25  26
HETATM   26  C   UNL     1      -9.757   4.189  65.383  1.00  0.00    -0.201 C  
HETATM   27  C   UNL     1     -10.743   3.836  64.277  1.00  0.00    -0.216 C  
ENDBRANCH  25  26
ENDBRANCH  24  25
BRANCH  21  28
HETATM   28  O   UNL     1      -6.332   4.620  65.626  1.00  0.00    -0.036 OA 
HETATM   29  C   UNL     1      -5.884   3.711  66.624  1.00  0.00    -0.023 C  
ENDBRANCH  21  28
ENDBRANCH   1  19
BRANCH   1  30
HETATM   30  C   UNL     1     -10.292   9.524  66.990  1.00  0.00    -0.250 C  
BRANCH  30  31
HETATM   31  S   UNL     1     -10.948  11.134  67.341  1.00  0.00    -0.305 S  
HETATM   32  O   UNL     1     -11.137  11.790  66.061  1.00  0.00    -0.311 OA 
HETATM   33  C   UNL     1      -9.677  12.044  68.188  1.00  0.00    -0.199 C  
HETATM   34  O   UNL     1     -12.060  10.989  68.258  1.00  0.00    -0.604 OA 
ENDBRANCH  30  31
ENDBRANCH   1  30
TORSDOF 9
ENDMDL
MODEL      166
REMARK 921   NORMALIZED FREE ENERGY PREDICTED BY IDOCK:   -4.64 KCAL/MOL
REMARK 922        TOTAL FREE ENERGY PREDICTED BY IDOCK:   -8.14 KCAL/MOL
REMARK 923 INTER-LIGAND FREE ENERGY PREDICTED BY IDOCK:   -6.79 KCAL/MOL
REMARK 924 INTRA-LIGAND FREE ENERGY PREDICTED BY IDOCK:   -1.35 KCAL/MOL
REMARK 927      BINDING AFFINITY PREDICTED BY RF-SCORE:    0.00 PKD
ROOT
HETATM    1  C   UNL     1     -10.643   8.630  69.187  1.00  0.00    -0.178 C  
ENDROOT
BRANCH   1   2
HETATM    2  N   UNL     1      -9.883   7.815  68.225  1.00  0.00    -0.162 N  
HETATM    3  C   UNL     1      -6.881   7.275  66.310  1.00  0.00    -0.058 A  
HETATM    4  C   UNL     1      -6.632   6.302  65.356  1.00  0.00    -0.043 A  
HETATM    5  O   UNL     1     -11.240   5.984  67.749  1.00  0.00    -0.236 OA 
HETATM    6  C   UNL     1      -7.573   5.279  65.137  1.00  0.00    -0.082 A  
HETATM    7  C   UNL     1      -8.589   8.150  67.953  1.00  0.00    -0.132 C  
HETATM    8  C   UNL     1     -10.204   6.609  67.626  1.00  0.00    -0.177 C  
HETATM    9  C   UNL     1      -8.765   5.159  65.890  1.00  0.00    -0.135 A  
HETATM   10  C   UNL     1      -9.037   6.205  66.782  1.00  0.00    -0.137 A  
HETATM   11  C   UNL     1      -8.083   7.201  66.979  1.00  0.00    -0.117 A  
HETATM   12  O   UNL     1      -7.919   9.049  68.431  1.00  0.00    -0.102 OA 
BRANCH   9  13
HETATM   13  N   UNL     1      -9.662   4.093  65.678  1.00  0.00    -0.189 NA 
HETATM   14  H   UNL     1      -9.556   3.271  66.272  1.00  0.00     0.000 HD 
BRANCH  13  15
HETATM   15  C   UNL     1     -10.609   4.064  64.796  1.00  0.00    -0.153 C  
HETATM   16  C   UNL     1     -10.698   3.583  63.377  1.00  0.00    -0.239 C  
HETATM   17  O   UNL     1     -11.783   4.595  65.176  1.00  0.00    -1.054 OA 
HETATM   18  H   UNL     1     -12.478   4.574  64.529  1.00  0.00     0.000 HD 
ENDBRANCH  13  15
ENDBRANCH   9  13
ENDBRANCH   1   2
BRANCH   1  19
HETATM   19  C   UNL     1     -10.721   8.048  70.611  1.00  0.00    -0.235 A  
HETATM   20  C   UNL     1     -11.889   7.425  71.066  1.00  0.00    -0.336 A  
HETATM   21  C   UNL     1     -10.696   6.442  72.942  1.00  0.00    -0.249 A  
HETATM   22  C   UNL     1      -9.558   7.949  71.412  1.00  0.00    -0.187 A  
HETATM   23  C   UNL     1     -11.874   6.625  72.214  1.00  0.00    -0.289 A  
HETATM   24  C   UNL     1      -9.536   7.148  72.568  1.00  0.00    -0.146 A  
BRANCH  24  25
HETATM   25  O   UNL     1      -8.438   6.943  73.368  1.00  0.00    -0.118 OA 
BRANCH  25  26
HETATM   26  C   UNL     1      -7.209   6.548  72.768  1.00  0.00    -0.081 C  
HETATM   27  C   UNL     1      -6.115   7.487  73.256  1.00  0.00    -0.059 C  
ENDBRANCH  25  26
ENDBRANCH  24  25
BRANCH  21  28
HETATM   28  O   UNL     1     -10.579   5.593  74.017  1.00  0.00    -0.272 OA 
HETATM   29  C   UNL     1     -11.009   4.250  73.838  1.00  0.00    -0.229 C  
ENDBRANCH  21  28
ENDBRANCH   1  19
BRANCH   1  30
HETATM   30  C   UNL     1     -10.266  10.109  69.284  1.00  0.00    -0.223 C  
BRANCH  30  31
HETATM   31  S   UNL     1     -11.249  11.222  68.314  1.00  0.00    -0.295 S  
HETATM   32  O   UNL     1     -11.246  10.700  66.960  1.00  0.00    -0.266 OA 
HETATM   33  C   UNL     1     -10.381  12.773  68.255  1.00  0.00    -0.243 C  
HETATM   34  O   UNL     1     -12.501  11.454  69.004  1.00  0.00    -0.364 OA 
ENDBRANCH  30  31
ENDBRANCH   1  30
TORSDOF 9
ENDMDL
MODEL      167
REMARK 921   NORMALIZED FREE ENERGY PREDICTED BY IDOCK:   -4.64 KCAL/MOL
REMARK 922        TOTAL FREE ENERGY PREDICTED BY IDOCK:   -8.14 KCAL/MOL
REMARK 923 INTER-LIGAND FREE ENERGY PREDICTED BY IDOCK:   -7.66 KCAL/MOL
REMARK 924 INTRA-LIGAND FREE ENERGY PREDICTED BY IDOCK:   -0.47 KCAL/MOL
REMARK 927      BINDING AFFINITY PREDICTED BY RF-SCORE:    0.00 PKD
ROOT
HETATM    1  C   UNL     1     -10.667   7.992  69.361  1.00  0.00    -0.159 C  
ENDROOT
BRANCH   1   2
HETATM    2  N   UNL     1     -10.951   9.348  68.862  1.00  0.00    -0.114 N  
HETATM    3  C   UNL     1     -11.729  12.799  69.535  1.00  0.00    -0.383 A  
HETATM    4  C   UNL     1     -12.035  13.804  68.633  1.00  0.00    -0.401 A  
HETATM    5  O   UNL     1     -10.766   9.211  66.545  1.00  0.00    -0.107 OA 
HETATM    6  C   UNL     1     -11.928  13.561  67.251  1.00  0.00    -0.408 A  
HETATM    7  C   UNL     1     -11.081  10.367  69.759  1.00  0.00    -0.295 C  
HETATM    8  C   UNL     1     -10.958   9.840  67.568  1.00  0.00    -0.138 C  
HETATM    9  C   UNL     1     -11.467  12.332  66.722  1.00  0.00    -0.361 A  
HETATM   10  C   UNL     1     -11.254  11.305  67.649  1.00  0.00    -0.357 A  
HETATM   11  C   UNL     1     -11.364  11.578  69.011  1.00  0.00    -0.339 A  
HETATM   12  O   UNL     1     -10.962  10.335  70.971  1.00  0.00    -0.219 OA 
BRANCH   9  13
HETATM   13  N   UNL     1     -11.326  12.139  65.332  1.00  0.00    -0.335 NA 
HETATM   14  H   UNL     1     -10.535  11.577  65.020  1.00  0.00     0.000 HD 
BRANCH  13  15
HETATM   15  C   UNL     1     -12.110  12.612  64.419  1.00  0.00    -0.415 C  
HETATM   16  C   UNL     1     -12.027  13.772  63.470  1.00  0.00    -0.197 C  
HETATM   17  O   UNL     1     -13.284  11.975  64.264  1.00  0.00    -0.710 OA 
HETATM   18  H   UNL     1     -13.860  12.322  63.594  1.00  0.00     0.000 HD 
ENDBRANCH  13  15
ENDBRANCH   9  13
ENDBRANCH   1   2
BRANCH   1  19
HETATM   19  C   UNL     1      -9.791   7.130  68.432  1.00  0.00    -0.157 A  
HETATM   20  C   UNL     1     -10.364   6.141  67.623  1.00  0.00    -0.250 A  
HETATM   21  C   UNL     1      -8.336   5.979  66.292  1.00  0.00    -0.122 A  
HETATM   22  C   UNL     1      -8.428   7.453  68.224  1.00  0.00    -0.125 A  
HETATM   23  C   UNL     1      -9.647   5.579  66.562  1.00  0.00    -0.169 A  
HETATM   24  C   UNL     1      -7.701   6.889  67.160  1.00  0.00    -0.108 A  
BRANCH  24  25
HETATM   25  O   UNL     1      -6.398   7.191  66.846  1.00  0.00    -0.046 OA 
BRANCH  25  26
HETATM   26  C   UNL     1      -5.889   8.481  67.169  1.00  0.00    -0.043 C  
HETATM   27  C   UNL     1      -6.178   9.414  66.001  1.00  0.00    -0.067 C  
ENDBRANCH  25  26
ENDBRANCH  24  25
BRANCH  21  28
HETATM   28  O   UNL     1      -7.606   5.550  65.210  1.00  0.00    -0.075 OA 
HETATM   29  C   UNL     1      -8.224   5.629  63.932  1.00  0.00    -0.094 C  
ENDBRANCH  21  28
ENDBRANCH   1  19
BRANCH   1  30
HETATM   30  C   UNL     1     -10.120   7.883  70.785  1.00  0.00    -0.192 C  
BRANCH  30  31
HETATM   31  S   UNL     1     -11.122   6.969  71.929  1.00  0.00    -0.250 S  
HETATM   32  O   UNL     1     -10.846   5.566  71.687  1.00  0.00    -0.245 OA 
HETATM   33  C   UNL     1     -12.818   7.234  71.468  1.00  0.00    -0.388 C  
HETATM   34  O   UNL     1     -10.941   7.532  73.252  1.00  0.00    -0.393 OA 
ENDBRANCH  30  31
ENDBRANCH   1  30
TORSDOF 9
ENDMDL
MODEL      168
REMARK 921   NORMALIZED FREE ENERGY PREDICTED BY IDOCK:   -4.58 KCAL/MOL
REMARK 922        TOTAL FREE ENERGY PREDICTED BY IDOCK:   -8.05 KCAL/MOL
REMARK 923 INTER-LIGAND FREE ENERGY PREDICTED BY IDOCK:   -6.82 KCAL/MOL
REMARK 924 INTRA-LIGAND FREE ENERGY PREDICTED BY IDOCK:   -1.23 KCAL/MOL
REMARK 927      BINDING AFFINITY PREDICTED BY RF-SCORE:    0.00 PKD
ROOT
HETATM    1  C   UNL     1     -11.515  13.034  69.139  1.00  0.00    -0.299 C  
ENDROOT
BRANCH   1   2
HETATM    2  N   UNL     1     -10.891  14.206  68.503  1.00  0.00    -0.244 N  
HETATM    3  C   UNL     1     -10.658  16.458  65.702  1.00  0.00    -0.337 A  
HETATM    4  C   UNL     1      -9.748  17.480  65.493  1.00  0.00     0.440 A  
HETATM    5  O   UNL     1      -9.364  15.021  70.061  1.00  0.00     0.038 OA 
HETATM    6  C   UNL     1      -8.843  17.831  66.511  1.00  0.00    -0.283 A  
HETATM    7  C   UNL     1     -11.392  14.660  67.319  1.00  0.00    -0.353 C  
HETATM    8  C   UNL     1      -9.933  15.080  68.988  1.00  0.00    -0.246 C  
HETATM    9  C   UNL     1      -8.846  17.216  67.786  1.00  0.00    -0.225 A  
HETATM   10  C   UNL     1      -9.712  16.126  67.940  1.00  0.00    -0.225 A  
HETATM   11  C   UNL     1     -10.598  15.805  66.914  1.00  0.00    -0.317 A  
HETATM   12  O   UNL     1     -12.346  14.243  66.686  1.00  0.00    -0.446 OA 
BRANCH   9  13
HETATM   13  N   UNL     1      -7.957  17.626  68.800  1.00  0.00    -0.274 NA 
HETATM   14  H   UNL     1      -8.326  18.252  69.515  1.00  0.00     0.000 HD 
BRANCH  13  15
HETATM   15  C   UNL     1      -6.715  17.280  68.904  1.00  0.00    -0.218 C  
HETATM   16  C   UNL     1      -5.957  16.016  68.619  1.00  0.00    -0.104 C  
HETATM   17  O   UNL     1      -5.883  18.214  69.398  1.00  0.00    -0.214 OA 
HETATM   18  H   UNL     1      -4.972  17.959  69.475  1.00  0.00     0.000 HD 
ENDBRANCH  13  15
ENDBRANCH   9  13
ENDBRANCH   1   2
BRANCH   1  19
HETATM   19  C   UNL     1     -10.810  11.693  68.859  1.00  0.00    -0.264 A  
HETATM   20  C   UNL     1      -9.547  11.660  68.257  1.00  0.00    -0.198 A  
HETATM   21  C   UNL     1      -9.240   9.337  68.901  1.00  0.00    -0.143 A  
HETATM   22  C   UNL     1     -11.328  10.485  69.385  1.00  0.00    -0.331 A  
HETATM   23  C   UNL     1      -8.769  10.498  68.284  1.00  0.00    -0.135 A  
HETATM   24  C   UNL     1     -10.552   9.312  69.414  1.00  0.00    -0.223 A  
BRANCH  24  25
HETATM   25  O   UNL     1     -10.947   8.115  69.960  1.00  0.00    -0.248 OA 
BRANCH  25  26
HETATM   26  C   UNL     1     -11.978   8.110  70.944  1.00  0.00    -0.183 C  
HETATM   27  C   UNL     1     -11.330   8.248  72.315  1.00  0.00    -0.446 C  
ENDBRANCH  25  26
ENDBRANCH  24  25
BRANCH  21  28
HETATM   28  O   UNL     1      -8.496   8.192  69.059  1.00  0.00    -0.127 OA 
HETATM   29  C   UNL     1      -7.896   7.973  70.329  1.00  0.00    -0.088 C  
ENDBRANCH  21  28
ENDBRANCH   1  19
BRANCH   1  30
HETATM   30  C   UNL     1     -11.795  13.133  70.639  1.00  0.00    -0.012 C  
BRANCH  30  31
HETATM   31  S   UNL     1     -12.807  14.500  71.146  1.00  0.00    -0.358 S  
HETATM   32  O   UNL     1     -11.994  15.304  72.039  1.00  0.00    -0.345 OA 
HETATM   33  C   UNL     1     -14.128  13.835  72.133  1.00  0.00    -0.511 C  
HETATM   34  O   UNL     1     -13.404  15.094  69.968  1.00  0.00     0.098 OA 
ENDBRANCH  30  31
ENDBRANCH   1  30
TORSDOF 9
ENDMDL
MODEL      169
REMARK 921   NORMALIZED FREE ENERGY PREDICTED BY IDOCK:   -4.58 KCAL/MOL
REMARK 922        TOTAL FREE ENERGY PREDICTED BY IDOCK:   -8.05 KCAL/MOL
REMARK 923 INTER-LIGAND FREE ENERGY PREDICTED BY IDOCK:   -7.16 KCAL/MOL
REMARK 924 INTRA-LIGAND FREE ENERGY PREDICTED BY IDOCK:   -0.89 KCAL/MOL
REMARK 927      BINDING AFFINITY PREDICTED BY RF-SCORE:    0.00 PKD
ROOT
HETATM    1  C   UNL     1     -10.137  14.227  67.820  1.00  0.00    -0.231 C  
ENDROOT
BRANCH   1   2
HETATM    2  N   UNL     1     -11.034  13.882  68.934  1.00  0.00    -0.258 N  
HETATM    3  C   UNL     1     -13.631  14.846  71.236  1.00  0.00    -0.504 A  
HETATM    4  C   UNL     1     -14.153  14.123  72.296  1.00  0.00    -0.630 A  
HETATM    5  O   UNL     1     -10.610  11.641  69.406  1.00  0.00    -0.112 OA 
HETATM    6  C   UNL     1     -13.763  12.785  72.492  1.00  0.00    -0.333 A  
HETATM    7  C   UNL     1     -11.976  14.787  69.329  1.00  0.00    -0.294 C  
HETATM    8  C   UNL     1     -11.215  12.679  69.596  1.00  0.00    -0.007 C  
HETATM    9  C   UNL     1     -12.884  12.107  71.614  1.00  0.00    -0.285 A  
HETATM   10  C   UNL     1     -12.299  12.884  70.607  1.00  0.00    -0.385 A  
HETATM   11  C   UNL     1     -12.709  14.206  70.437  1.00  0.00    -0.341 A  
HETATM   12  O   UNL     1     -12.223  15.883  68.856  1.00  0.00    -0.226 OA 
BRANCH   9  13
HETATM   13  N   UNL     1     -12.553  10.751  71.813  1.00  0.00    -0.343 NA 
HETATM   14  H   UNL     1     -11.814  10.547  72.486  1.00  0.00     0.000 HD 
BRANCH  13  15
HETATM   15  C   UNL     1     -13.102   9.742  71.217  1.00  0.00    -0.381 C  
HETATM   16  C   UNL     1     -14.326   8.915  71.481  1.00  0.00    -0.267 C  
HETATM   17  O   UNL     1     -12.458   9.279  70.132  1.00  0.00    -0.278 OA 
HETATM   18  H   UNL     1     -12.861   8.538  69.695  1.00  0.00     0.000 HD 
ENDBRANCH  13  15
ENDBRANCH   9  13
ENDBRANCH   1   2
BRANCH   1  19
HETATM   19  C   UNL     1      -8.935  13.280  67.639  1.00  0.00    -0.199 A  
HETATM   20  C   UNL     1      -7.934  13.200  68.614  1.00  0.00    -0.033 A  
HETATM   21  C   UNL     1      -7.079  11.142  67.644  1.00  0.00    -0.089 A  
HETATM   22  C   UNL     1      -8.920  12.329  66.590  1.00  0.00    -0.189 A  
HETATM   23  C   UNL     1      -7.022  12.139  68.620  1.00  0.00    -0.097 A  
HETATM   24  C   UNL     1      -8.005  11.260  66.589  1.00  0.00    -0.159 A  
BRANCH  24  25
HETATM   25  O   UNL     1      -7.959  10.259  65.650  1.00  0.00    -0.138 OA 
BRANCH  25  26
HETATM   26  C   UNL     1      -8.181  10.584  64.281  1.00  0.00    -0.062 C  
HETATM   27  C   UNL     1      -9.451   9.880  63.823  1.00  0.00    -0.181 C  
ENDBRANCH  25  26
ENDBRANCH  24  25
BRANCH  21  28
HETATM   28  O   UNL     1      -6.287  10.018  67.643  1.00  0.00    -0.058 OA 
HETATM   29  C   UNL     1      -6.744   8.896  68.387  1.00  0.00    -0.060 C  
ENDBRANCH  21  28
ENDBRANCH   1  19
BRANCH   1  30
HETATM   30  C   UNL     1     -10.790  14.451  66.455  1.00  0.00    -0.310 C  
BRANCH  30  31
HETATM   31  S   UNL     1     -10.466  16.020  65.693  1.00  0.00    -0.392 S  
HETATM   32  O   UNL     1     -10.909  17.033  66.633  1.00  0.00    -0.143 OA 
HETATM   33  C   UNL     1     -11.536  16.147  64.279  1.00  0.00    -0.094 C  
HETATM   34  O   UNL     1      -9.102  16.023  65.205  1.00  0.00    -0.081 OA 
ENDBRANCH  30  31
ENDBRANCH   1  30
TORSDOF 9
ENDMDL
MODEL      170
REMARK 921   NORMALIZED FREE ENERGY PREDICTED BY IDOCK:   -4.56 KCAL/MOL
REMARK 922        TOTAL FREE ENERGY PREDICTED BY IDOCK:   -8.01 KCAL/MOL
REMARK 923 INTER-LIGAND FREE ENERGY PREDICTED BY IDOCK:   -6.30 KCAL/MOL
REMARK 924 INTRA-LIGAND FREE ENERGY PREDICTED BY IDOCK:   -1.71 KCAL/MOL
REMARK 927      BINDING AFFINITY PREDICTED BY RF-SCORE:    0.00 PKD
ROOT
HETATM    1  C   UNL     1      -9.918  10.733  68.229  1.00  0.00    -0.168 C  
ENDROOT
BRANCH   1   2
HETATM    2  N   UNL     1      -9.848  12.201  68.310  1.00  0.00    -0.210 N  
HETATM    3  C   UNL     1     -11.516  15.369  68.703  1.00  0.00    -0.357 A  
HETATM    4  C   UNL     1     -10.979  16.642  68.607  1.00  0.00    -0.328 A  
HETATM    5  O   UNL     1      -7.584  12.726  68.159  1.00  0.00    -0.112 OA 
HETATM    6  C   UNL     1      -9.589  16.807  68.464  1.00  0.00    -0.245 A  
HETATM    7  C   UNL     1     -10.980  12.902  68.605  1.00  0.00    -0.261 C  
HETATM    8  C   UNL     1      -8.750  13.045  68.293  1.00  0.00    -0.173 C  
HETATM    9  C   UNL     1      -8.683  15.719  68.463  1.00  0.00    -0.184 A  
HETATM   10  C   UNL     1      -9.257  14.442  68.468  1.00  0.00    -0.198 A  
HETATM   11  C   UNL     1     -10.637  14.312  68.613  1.00  0.00    -0.254 A  
HETATM   12  O   UNL     1     -12.094  12.477  68.857  1.00  0.00    -0.264 OA 
BRANCH   9  13
HETATM   13  N   UNL     1      -7.292  15.924  68.368  1.00  0.00    -0.122 NA 
HETATM   14  H   UNL     1      -6.868  15.808  67.448  1.00  0.00     0.000 HD 
BRANCH  13  15
HETATM   15  C   UNL     1      -6.506  16.247  69.343  1.00  0.00    -0.197 C  
HETATM   16  C   UNL     1      -6.130  17.546  69.994  1.00  0.00    -0.114 C  
HETATM   17  O   UNL     1      -5.833  15.234  69.916  1.00  0.00    -0.118 OA 
HETATM   18  H   UNL     1      -5.255  15.471  70.632  1.00  0.00     0.000 HD 
ENDBRANCH  13  15
ENDBRANCH   9  13
ENDBRANCH   1   2
BRANCH   1  19
HETATM   19  C   UNL     1      -9.547  10.141  66.856  1.00  0.00    -0.219 A  
HETATM   20  C   UNL     1     -10.074  10.681  65.677  1.00  0.00    -0.335 A  
HETATM   21  C   UNL     1      -8.424   9.504  64.336  1.00  0.00    -0.181 A  
HETATM   22  C   UNL     1      -8.514   9.179  66.744  1.00  0.00    -0.125 A  
HETATM   23  C   UNL     1      -9.514  10.372  64.433  1.00  0.00    -0.343 A  
HETATM   24  C   UNL     1      -7.948   8.861  65.496  1.00  0.00    -0.107 A  
BRANCH  24  25
HETATM   25  O   UNL     1      -6.904   7.990  65.299  1.00  0.00    -0.057 OA 
BRANCH  25  26
HETATM   26  C   UNL     1      -6.931   6.722  65.947  1.00  0.00    -0.064 C  
HETATM   27  C   UNL     1      -8.178   5.978  65.489  1.00  0.00    -0.142 C  
ENDBRANCH  25  26
ENDBRANCH  24  25
BRANCH  21  28
HETATM   28  O   UNL     1      -7.757   9.233  63.165  1.00  0.00    -0.112 OA 
HETATM   29  C   UNL     1      -8.280   8.202  62.338  1.00  0.00    -0.161 C  
ENDBRANCH  21  28
ENDBRANCH   1  19
BRANCH   1  30
HETATM   30  C   UNL     1      -9.180   9.949  69.314  1.00  0.00    -0.200 C  
BRANCH  30  31
HETATM   31  S   UNL     1     -10.205   9.052  70.451  1.00  0.00    -0.227 S  
HETATM   32  O   UNL     1      -9.579   9.175  71.754  1.00  0.00    -0.283 OA 
HETATM   33  C   UNL     1     -10.103   7.334  70.006  1.00  0.00    -0.190 C  
HETATM   34  O   UNL     1     -11.579   9.467  70.260  1.00  0.00    -0.245 OA 
ENDBRANCH  30  31
ENDBRANCH   1  30
TORSDOF 9
ENDMDL
MODEL      171
REMARK 921   NORMALIZED FREE ENERGY PREDICTED BY IDOCK:   -4.54 KCAL/MOL
REMARK 922        TOTAL FREE ENERGY PREDICTED BY IDOCK:   -7.99 KCAL/MOL
REMARK 923 INTER-LIGAND FREE ENERGY PREDICTED BY IDOCK:   -6.46 KCAL/MOL
REMARK 924 INTRA-LIGAND FREE ENERGY PREDICTED BY IDOCK:   -1.53 KCAL/MOL
REMARK 927      BINDING AFFINITY PREDICTED BY RF-SCORE:    0.00 PKD
ROOT
HETATM    1  C   UNL     1      -8.930   8.409  67.875  1.00  0.00    -0.137 C  
ENDROOT
BRANCH   1   2
HETATM    2  N   UNL     1      -9.020   9.876  67.953  1.00  0.00    -0.128 N  
HETATM    3  C   UNL     1      -7.410  13.094  67.802  1.00  0.00    -0.143 A  
HETATM    4  C   UNL     1      -7.953  14.341  68.062  1.00  0.00    -0.142 A  
HETATM    5  O   UNL     1     -11.276  10.345  68.287  1.00  0.00    -0.282 OA 
HETATM    6  C   UNL     1      -9.334  14.468  68.300  1.00  0.00    -0.203 A  
HETATM    7  C   UNL     1      -7.914  10.622  67.669  1.00  0.00    -0.106 C  
HETATM    8  C   UNL     1     -10.124  10.695  68.121  1.00  0.00    -0.158 C  
HETATM    9  C   UNL     1     -10.227  13.371  68.238  1.00  0.00    -0.250 A  
HETATM   10  C   UNL     1      -9.641  12.111  68.066  1.00  0.00    -0.204 A  
HETATM   11  C   UNL     1      -8.271  12.019  67.830  1.00  0.00    -0.151 A  
HETATM   12  O   UNL     1      -6.812  10.243  67.311  1.00  0.00    -0.079 OA 
BRANCH   9  13
HETATM   13  N   UNL     1     -11.613  13.542  68.433  1.00  0.00    -0.319 NA 
HETATM   14  H   UNL     1     -12.229  13.237  67.680  1.00  0.00     0.000 HD 
BRANCH  13  15
HETATM   15  C   UNL     1     -12.172  14.052  69.483  1.00  0.00    -0.308 C  
HETATM   16  C   UNL     1     -12.511  13.522  70.845  1.00  0.00    -0.448 C  
HETATM   17  O   UNL     1     -12.582  15.327  69.370  1.00  0.00    -0.590 OA 
HETATM   18  H   UNL     1     -12.993  15.701  70.140  1.00  0.00     0.000 HD 
ENDBRANCH  13  15
ENDBRANCH   9  13
ENDBRANCH   1   2
BRANCH   1  19
HETATM   19  C   UNL     1      -9.512   7.658  69.087  1.00  0.00    -0.154 A  
HETATM   20  C   UNL     1     -10.666   6.876  68.959  1.00  0.00    -0.259 A  
HETATM   21  C   UNL     1     -10.239   5.797  71.094  1.00  0.00    -0.218 A  
HETATM   22  C   UNL     1      -8.784   7.576  70.299  1.00  0.00    -0.145 A  
HETATM   23  C   UNL     1     -11.021   5.952  69.947  1.00  0.00    -0.444 A  
HETATM   24  C   UNL     1      -9.136   6.650  71.299  1.00  0.00    -0.151 A  
BRANCH  24  25
HETATM   25  O   UNL     1      -8.453   6.458  72.475  1.00  0.00    -0.123 OA 
BRANCH  25  26
HETATM   26  C   UNL     1      -7.057   6.180  72.426  1.00  0.00    -0.084 C  
HETATM   27  C   UNL     1      -6.497   6.299  73.837  1.00  0.00    -0.070 C  
ENDBRANCH  25  26
ENDBRANCH  24  25
BRANCH  21  28
HETATM   28  O   UNL     1     -10.464   4.843  72.057  1.00  0.00    -0.205 OA 
HETATM   29  C   UNL     1     -11.492   5.100  73.005  1.00  0.00    -0.274 C  
ENDBRANCH  21  28
ENDBRANCH   1  19
BRANCH   1  30
HETATM   30  C   UNL     1      -9.457   7.755  66.597  1.00  0.00    -0.205 C  
BRANCH  30  31
HETATM   31  S   UNL     1      -8.431   6.489  65.897  1.00  0.00    -0.149 S  
HETATM   32  O   UNL     1      -8.209   6.859  64.512  1.00  0.00    -0.099 OA 
HETATM   33  C   UNL     1      -9.391   4.993  65.868  1.00  0.00    -0.159 C  
HETATM   34  O   UNL     1      -7.307   6.264  66.782  1.00  0.00    -0.076 OA 
ENDBRANCH  30  31
ENDBRANCH   1  30
TORSDOF 9
ENDMDL
MODEL      172
REMARK 921   NORMALIZED FREE ENERGY PREDICTED BY IDOCK:   -4.51 KCAL/MOL
REMARK 922        TOTAL FREE ENERGY PREDICTED BY IDOCK:   -7.93 KCAL/MOL
REMARK 923 INTER-LIGAND FREE ENERGY PREDICTED BY IDOCK:   -6.91 KCAL/MOL
REMARK 924 INTRA-LIGAND FREE ENERGY PREDICTED BY IDOCK:   -1.02 KCAL/MOL
REMARK 927      BINDING AFFINITY PREDICTED BY RF-SCORE:    0.00 PKD
ROOT
HETATM    1  C   UNL     1      -8.440   7.646  69.504  1.00  0.00    -0.132 C  
ENDROOT
BRANCH   1   2
HETATM    2  N   UNL     1      -9.633   8.299  70.070  1.00  0.00    -0.167 N  
HETATM    3  C   UNL     1     -12.615   8.105  72.079  1.00  0.00    -0.366 A  
HETATM    4  C   UNL     1     -13.590   9.070  72.268  1.00  0.00    -0.540 A  
HETATM    5  O   UNL     1      -9.514  10.520  69.379  1.00  0.00    -0.203 OA 
HETATM    6  C   UNL     1     -13.406  10.363  71.744  1.00  0.00    -0.456 A  
HETATM    7  C   UNL     1     -10.412   7.606  70.948  1.00  0.00    -0.206 C  
HETATM    8  C   UNL     1     -10.050   9.617  69.992  1.00  0.00    -0.252 C  
HETATM    9  C   UNL     1     -12.229  10.754  71.062  1.00  0.00    -0.380 A  
HETATM   10  C   UNL     1     -11.302   9.737  70.804  1.00  0.00    -0.416 A  
HETATM   11  C   UNL     1     -11.511   8.468  71.339  1.00  0.00    -0.344 A  
HETATM   12  O   UNL     1     -10.249   6.479  71.384  1.00  0.00    -0.195 OA 
BRANCH   9  13
HETATM   13  N   UNL     1     -12.057  12.073  70.594  1.00  0.00    -0.466 NA 
HETATM   14  H   UNL     1     -11.425  12.207  69.805  1.00  0.00     0.000 HD 
BRANCH  13  15
HETATM   15  C   UNL     1     -12.630  13.128  71.076  1.00  0.00    -0.312 C  
HETATM   16  C   UNL     1     -13.541  13.381  72.242  1.00  0.00    -0.703 C  
HETATM   17  O   UNL     1     -12.414  14.273  70.404  1.00  0.00    -0.331 OA 
HETATM   18  H   UNL     1     -12.834  15.047  70.758  1.00  0.00     0.000 HD 
ENDBRANCH  13  15
ENDBRANCH   9  13
ENDBRANCH   1   2
BRANCH   1  19
HETATM   19  C   UNL     1      -8.328   7.720  67.969  1.00  0.00    -0.124 A  
HETATM   20  C   UNL     1      -7.534   8.697  67.356  1.00  0.00    -0.089 A  
HETATM   21  C   UNL     1      -7.606   7.503  65.240  1.00  0.00    -0.097 A  
HETATM   22  C   UNL     1      -8.855   6.686  67.159  1.00  0.00    -0.115 A  
HETATM   23  C   UNL     1      -7.172   8.585  66.010  1.00  0.00    -0.077 A  
HETATM   24  C   UNL     1      -8.496   6.568  65.804  1.00  0.00    -0.148 A  
BRANCH  24  25
HETATM   25  O   UNL     1      -8.907   5.565  64.961  1.00  0.00    -0.136 OA 
BRANCH  25  26
HETATM   26  C   UNL     1      -9.014   4.238  65.466  1.00  0.00    -0.132 C  
HETATM   27  C   UNL     1      -9.957   3.457  64.561  1.00  0.00    -0.145 C  
ENDBRANCH  25  26
ENDBRANCH  24  25
BRANCH  21  28
HETATM   28  O   UNL     1      -7.209   7.271  63.945  1.00  0.00    -0.066 OA 
HETATM   29  C   UNL     1      -7.790   8.078  62.929  1.00  0.00    -0.144 C  
ENDBRANCH  21  28
ENDBRANCH   1  19
BRANCH   1  30
HETATM   30  C   UNL     1      -7.091   8.033  70.111  1.00  0.00    -0.049 C  
BRANCH  30  31
HETATM   31  S   UNL     1      -6.023   6.684  70.541  1.00  0.00    -0.024 S  
HETATM   32  O   UNL     1      -5.126   6.496  69.416  1.00  0.00    -0.012 OA 
HETATM   33  C   UNL     1      -7.032   5.223  70.627  1.00  0.00    -0.052 C  
HETATM   34  O   UNL     1      -5.491   6.921  71.867  1.00  0.00    -0.035 OA 
ENDBRANCH  30  31
ENDBRANCH   1  30
TORSDOF 9
ENDMDL
MODEL      173
REMARK 921   NORMALIZED FREE ENERGY PREDICTED BY IDOCK:   -4.46 KCAL/MOL
REMARK 922        TOTAL FREE ENERGY PREDICTED BY IDOCK:   -7.86 KCAL/MOL
REMARK 923 INTER-LIGAND FREE ENERGY PREDICTED BY IDOCK:   -6.44 KCAL/MOL
REMARK 924 INTRA-LIGAND FREE ENERGY PREDICTED BY IDOCK:   -1.42 KCAL/MOL
REMARK 927      BINDING AFFINITY PREDICTED BY RF-SCORE:    0.00 PKD
ROOT
HETATM    1  C   UNL     1      -9.828   8.960  70.057  1.00  0.00    -0.174 C  
ENDROOT
BRANCH   1   2
HETATM    2  N   UNL     1      -9.902  10.190  69.252  1.00  0.00    -0.209 N  
HETATM    3  C   UNL     1     -11.860  12.879  67.870  1.00  0.00    -0.388 A  
HETATM    4  C   UNL     1     -11.459  13.872  66.992  1.00  0.00    -0.367 A  
HETATM    5  O   UNL     1      -7.712  10.641  68.600  1.00  0.00    -0.096 OA 
HETATM    6  C   UNL     1     -10.101  13.992  66.644  1.00  0.00    -0.276 A  
HETATM    7  C   UNL     1     -11.083  10.869  69.189  1.00  0.00    -0.245 C  
HETATM    8  C   UNL     1      -8.896  10.915  68.636  1.00  0.00    -0.158 C  
HETATM    9  C   UNL     1      -9.091  13.166  67.193  1.00  0.00    -0.230 A  
HETATM   10  C   UNL     1      -9.533  12.114  68.004  1.00  0.00    -0.201 A  
HETATM   11  C   UNL     1     -10.884  12.023  68.333  1.00  0.00    -0.266 A  
HETATM   12  O   UNL     1     -12.136  10.618  69.751  1.00  0.00    -0.300 OA 
BRANCH   9  13
HETATM   13  N   UNL     1      -7.734  13.347  66.859  1.00  0.00    -0.335 NA 
HETATM   14  H   UNL     1      -7.428  12.994  65.953  1.00  0.00     0.000 HD 
BRANCH  13  15
HETATM   15  C   UNL     1      -6.842  13.921  67.600  1.00  0.00    -0.179 C  
HETATM   16  C   UNL     1      -6.565  15.345  67.985  1.00  0.00    -0.160 C  
HETATM   17  O   UNL     1      -5.921  13.109  68.147  1.00  0.00    -0.081 OA 
HETATM   18  H   UNL     1      -5.266  13.530  68.691  1.00  0.00     0.000 HD 
ENDBRANCH  13  15
ENDBRANCH   9  13
ENDBRANCH   1   2
BRANCH   1  19
HETATM   19  C   UNL     1      -9.709   7.658  69.242  1.00  0.00    -0.164 A  
HETATM   20  C   UNL     1     -10.842   6.887  68.955  1.00  0.00    -0.247 A  
HETATM   21  C   UNL     1      -9.630   5.641  67.257  1.00  0.00    -0.119 A  
HETATM   22  C   UNL     1      -8.495   7.322  68.597  1.00  0.00    -0.129 A  
HETATM   23  C   UNL     1     -10.804   5.896  67.969  1.00  0.00    -0.321 A  
HETATM   24  C   UNL     1      -8.449   6.325  67.605  1.00  0.00    -0.116 A  
BRANCH  24  25
HETATM   25  O   UNL     1      -7.332   5.977  66.884  1.00  0.00    -0.073 OA 
BRANCH  25  26
HETATM   26  C   UNL     1      -7.148   6.530  65.585  1.00  0.00    -0.061 C  
HETATM   27  C   UNL     1      -5.734   6.206  65.124  1.00  0.00    -0.021 C  
ENDBRANCH  25  26
ENDBRANCH  24  25
BRANCH  21  28
HETATM   28  O   UNL     1      -9.542   4.758  66.207  1.00  0.00    -0.147 OA 
HETATM   29  C   UNL     1     -10.693   4.599  65.388  1.00  0.00    -0.104 C  
ENDBRANCH  21  28
ENDBRANCH   1  19
BRANCH   1  30
HETATM   30  C   UNL     1      -8.786   8.932  71.176  1.00  0.00    -0.222 C  
BRANCH  30  31
HETATM   31  S   UNL     1      -9.258   8.065  72.650  1.00  0.00    -0.268 S  
HETATM   32  O   UNL     1      -8.247   8.366  73.646  1.00  0.00    -0.325 OA 
HETATM   33  C   UNL     1      -9.118   6.327  72.303  1.00  0.00    -0.140 C  
HETATM   34  O   UNL     1     -10.654   8.341  72.920  1.00  0.00    -0.320 OA 
ENDBRANCH  30  31
ENDBRANCH   1  30
TORSDOF 9
ENDMDL
MODEL      174
REMARK 921   NORMALIZED FREE ENERGY PREDICTED BY IDOCK:   -4.43 KCAL/MOL
REMARK 922        TOTAL FREE ENERGY PREDICTED BY IDOCK:   -7.82 KCAL/MOL
REMARK 923 INTER-LIGAND FREE ENERGY PREDICTED BY IDOCK:   -6.11 KCAL/MOL
REMARK 924 INTRA-LIGAND FREE ENERGY PREDICTED BY IDOCK:   -1.71 KCAL/MOL
REMARK 927      BINDING AFFINITY PREDICTED BY RF-SCORE:    0.00 PKD
ROOT
HETATM    1  C   UNL     1     -10.666  14.323  68.719  1.00  0.00    -0.254 C  
ENDROOT
BRANCH   1   2
HETATM    2  N   UNL     1      -9.817  15.517  68.567  1.00  0.00    -0.199 N  
HETATM    3  C   UNL     1      -9.293  18.792  67.164  1.00  0.00    -0.315 A  
HETATM    4  C   UNL     1      -8.163  19.588  67.236  1.00  0.00    -0.321 A  
HETATM    5  O   UNL     1      -7.948  15.125  69.900  1.00  0.00    -0.124 OA 
HETATM    6  C   UNL     1      -7.081  19.197  68.046  1.00  0.00    -0.271 A  
HETATM    7  C   UNL     1     -10.306  16.594  67.889  1.00  0.00    -0.310 C  
HETATM    8  C   UNL     1      -8.601  15.827  69.151  1.00  0.00    -0.256 C  
HETATM    9  C   UNL     1      -7.106  18.032  68.849  1.00  0.00    -0.263 A  
HETATM   10  C   UNL     1      -8.220  17.198  68.687  1.00  0.00    -0.255 A  
HETATM   11  C   UNL     1      -9.276  17.615  67.880  1.00  0.00    -0.267 A  
HETATM   12  O   UNL     1     -11.408  16.742  67.389  1.00  0.00     0.047 OA 
BRANCH   9  13
HETATM   13  N   UNL     1      -6.024  17.696  69.687  1.00  0.00    -0.246 NA 
HETATM   14  H   UNL     1      -5.434  16.917  69.395  1.00  0.00     0.000 HD 
BRANCH  13  15
HETATM   15  C   UNL     1      -5.711  18.288  70.795  1.00  0.00     0.008 C  
HETATM   16  C   UNL     1      -5.828  19.699  71.293  1.00  0.00    -0.203 C  
HETATM   17  O   UNL     1      -5.125  17.517  71.728  1.00  0.00    -0.466 OA 
HETATM   18  H   UNL     1      -4.896  17.952  72.541  1.00  0.00     0.000 HD 
ENDBRANCH  13  15
ENDBRANCH   9  13
ENDBRANCH   1   2
BRANCH   1  19
HETATM   19  C   UNL     1     -10.190  13.085  67.935  1.00  0.00    -0.234 A  
HETATM   20  C   UNL     1      -9.828  13.188  66.587  1.00  0.00    -0.261 A  
HETATM   21  C   UNL     1      -8.742  11.014  66.659  1.00  0.00    -0.160 A  
HETATM   22  C   UNL     1      -9.916  11.870  68.608  1.00  0.00    -0.163 A  
HETATM   23  C   UNL     1      -9.106  12.167  65.959  1.00  0.00    -0.057 A  
HETATM   24  C   UNL     1      -9.191  10.839  67.982  1.00  0.00    -0.150 A  
BRANCH  24  25
HETATM   25  O   UNL     1      -8.826   9.656  68.577  1.00  0.00    -0.122 OA 
BRANCH  25  26
HETATM   26  C   UNL     1      -9.688   9.076  69.550  1.00  0.00    -0.170 C  
HETATM   27  C   UNL     1     -10.351   7.852  68.932  1.00  0.00    -0.225 C  
ENDBRANCH  25  26
ENDBRANCH  24  25
BRANCH  21  28
HETATM   28  O   UNL     1      -7.948  10.018  66.143  1.00  0.00    -0.107 OA 
HETATM   29  C   UNL     1      -8.302   9.494  64.869  1.00  0.00    -0.146 C  
ENDBRANCH  21  28
ENDBRANCH   1  19
BRANCH   1  30
HETATM   30  C   UNL     1     -11.003  13.896  70.148  1.00  0.00     0.359 C  
BRANCH  30  31
HETATM   31  S   UNL     1     -12.061  14.995  71.053  1.00  0.00    -0.357 S  
HETATM   32  O   UNL     1     -11.202  16.017  71.622  1.00  0.00    -0.264 OA 
HETATM   33  C   UNL     1     -12.721  14.076  72.424  1.00  0.00    -0.244 C  
HETATM   34  O   UNL     1     -13.175  15.366  70.205  1.00  0.00    -0.109 OA 
ENDBRANCH  30  31
ENDBRANCH   1  30
TORSDOF 9
ENDMDL
MODEL      175
REMARK 921   NORMALIZED FREE ENERGY PREDICTED BY IDOCK:   -4.43 KCAL/MOL
REMARK 922        TOTAL FREE ENERGY PREDICTED BY IDOCK:   -7.82 KCAL/MOL
REMARK 923 INTER-LIGAND FREE ENERGY PREDICTED BY IDOCK:   -6.18 KCAL/MOL
REMARK 924 INTRA-LIGAND FREE ENERGY PREDICTED BY IDOCK:   -1.64 KCAL/MOL
REMARK 927      BINDING AFFINITY PREDICTED BY RF-SCORE:    0.00 PKD
ROOT
HETATM    1  C   UNL     1      -9.336   8.750  67.843  1.00  0.00    -0.142 C  
ENDROOT
BRANCH   1   2
HETATM    2  N   UNL     1      -9.627   8.311  69.217  1.00  0.00    -0.163 N  
HETATM    3  C   UNL     1     -11.522   6.243  71.477  1.00  0.00    -0.351 A  
HETATM    4  C   UNL     1     -11.505   6.242  72.861  1.00  0.00    -0.126 A  
HETATM    5  O   UNL     1      -8.118   9.457  70.571  1.00  0.00    -0.161 OA 
HETATM    6  C   UNL     1     -10.567   7.031  73.551  1.00  0.00    -0.405 A  
HETATM    7  C   UNL     1     -10.509   7.289  69.412  1.00  0.00    -0.216 C  
HETATM    8  C   UNL     1      -9.019   8.656  70.412  1.00  0.00    -0.158 C  
HETATM    9  C   UNL     1      -9.582   7.805  72.891  1.00  0.00    -0.242 A  
HETATM   10  C   UNL     1      -9.679   7.861  71.495  1.00  0.00    -0.201 A  
HETATM   11  C   UNL     1     -10.618   7.066  70.841  1.00  0.00    -0.238 A  
HETATM   12  O   UNL     1     -11.104   6.628  68.578  1.00  0.00    -0.256 OA 
BRANCH   9  13
HETATM   13  N   UNL     1      -8.625   8.545  73.615  1.00  0.00    -0.318 NA 
HETATM   14  H   UNL     1      -8.944   9.404  74.061  1.00  0.00     0.000 HD 
BRANCH  13  15
HETATM   15  C   UNL     1      -7.379   8.231  73.762  1.00  0.00    -0.136 C  
HETATM   16  C   UNL     1      -6.657   7.149  74.512  1.00  0.00    -0.086 C  
HETATM   17  O   UNL     1      -6.493   9.037  73.151  1.00  0.00    -0.313 OA 
HETATM   18  H   UNL     1      -5.578   8.806  73.260  1.00  0.00     0.000 HD 
ENDBRANCH  13  15
ENDBRANCH   9  13
ENDBRANCH   1   2
BRANCH   1  19
HETATM   19  C   UNL     1      -8.496   7.763  67.010  1.00  0.00    -0.124 A  
HETATM   20  C   UNL     1      -7.191   7.434  67.393  1.00  0.00    -0.093 A  
HETATM   21  C   UNL     1      -7.174   5.524  65.889  1.00  0.00    -0.072 A  
HETATM   22  C   UNL     1      -9.092   7.017  65.964  1.00  0.00    -0.105 A  
HETATM   23  C   UNL     1      -6.541   6.324  66.844  1.00  0.00    -0.059 A  
HETATM   24  C   UNL     1      -8.443   5.900  65.406  1.00  0.00    -0.153 A  
BRANCH  24  25
HETATM   25  O   UNL     1      -8.969   5.083  64.436  1.00  0.00    -0.128 OA 
BRANCH  25  26
HETATM   26  C   UNL     1      -9.937   4.105  64.805  1.00  0.00    -0.187 C  
HETATM   27  C   UNL     1      -9.644   2.827  64.031  1.00  0.00    -0.138 C  
ENDBRANCH  25  26
ENDBRANCH  24  25
BRANCH  21  28
HETATM   28  O   UNL     1      -6.643   4.363  65.382  1.00  0.00    -0.042 OA 
HETATM   29  C   UNL     1      -6.318   3.334  66.308  1.00  0.00    -0.028 C  
ENDBRANCH  21  28
ENDBRANCH   1  19
BRANCH   1  30
HETATM   30  C   UNL     1     -10.528   9.208  67.001  1.00  0.00    -0.240 C  
BRANCH  30  31
HETATM   31  S   UNL     1     -10.924  10.935  67.096  1.00  0.00    -0.238 S  
HETATM   32  O   UNL     1     -10.835  11.452  65.743  1.00  0.00    -0.275 OA 
HETATM   33  C   UNL     1      -9.623  11.720  68.019  1.00  0.00    -0.187 C  
HETATM   34  O   UNL     1     -12.147  11.087  67.857  1.00  0.00    -0.600 OA 
ENDBRANCH  30  31
ENDBRANCH   1  30
TORSDOF 9
ENDMDL
MODEL      176
REMARK 921   NORMALIZED FREE ENERGY PREDICTED BY IDOCK:   -4.43 KCAL/MOL
REMARK 922        TOTAL FREE ENERGY PREDICTED BY IDOCK:   -7.81 KCAL/MOL
REMARK 923 INTER-LIGAND FREE ENERGY PREDICTED BY IDOCK:   -6.80 KCAL/MOL
REMARK 924 INTRA-LIGAND FREE ENERGY PREDICTED BY IDOCK:   -1.01 KCAL/MOL
REMARK 927      BINDING AFFINITY PREDICTED BY RF-SCORE:    0.00 PKD
ROOT
HETATM    1  C   UNL     1      -8.807  10.163  69.515  1.00  0.00    -0.182 C  
ENDROOT
BRANCH   1   2
HETATM    2  N   UNL     1      -9.243  11.178  68.542  1.00  0.00    -0.178 N  
HETATM    3  C   UNL     1      -8.791  14.410  67.020  1.00  0.00    -0.256 A  
HETATM    4  C   UNL     1      -9.605  15.050  66.100  1.00  0.00    -0.345 A  
HETATM    5  O   UNL     1     -11.054  10.232  67.424  1.00  0.00    -0.291 OA 
HETATM    6  C   UNL     1     -10.703  14.368  65.543  1.00  0.00    -0.344 A  
HETATM    7  C   UNL     1      -8.481  12.295  68.366  1.00  0.00    -0.138 C  
HETATM    8  C   UNL     1     -10.261  11.136  67.604  1.00  0.00    -0.181 C  
HETATM    9  C   UNL     1     -10.997  13.016  65.841  1.00  0.00    -0.271 A  
HETATM   10  C   UNL     1     -10.217  12.423  66.841  1.00  0.00    -0.238 A  
HETATM   11  C   UNL     1      -9.135  13.123  67.371  1.00  0.00    -0.208 A  
HETATM   12  O   UNL     1      -7.422  12.585  68.896  1.00  0.00    -0.084 OA 
BRANCH   9  13
HETATM   13  N   UNL     1     -12.077  12.349  65.227  1.00  0.00    -0.489 NA 
HETATM   14  H   UNL     1     -12.932  12.250  65.773  1.00  0.00     0.000 HD 
BRANCH  13  15
HETATM   15  C   UNL     1     -12.079  11.852  64.032  1.00  0.00    -0.342 C  
HETATM   16  C   UNL     1     -13.055  11.881  62.892  1.00  0.00     0.624 C  
HETATM   17  O   UNL     1     -11.004  11.117  63.699  1.00  0.00    -0.554 OA 
HETATM   18  H   UNL     1     -11.005  10.752  62.823  1.00  0.00     0.000 HD 
ENDBRANCH  13  15
ENDBRANCH   9  13
ENDBRANCH   1   2
BRANCH   1  19
HETATM   19  C   UNL     1      -9.917   9.636  70.444  1.00  0.00    -0.330 A  
HETATM   20  C   UNL     1     -11.039  10.421  70.735  1.00  0.00    -0.197 A  
HETATM   21  C   UNL     1     -12.229   8.491  71.611  1.00  0.00    -0.322 A  
HETATM   22  C   UNL     1      -9.928   8.281  70.856  1.00  0.00    -0.223 A  
HETATM   23  C   UNL     1     -12.184   9.853  71.305  1.00  0.00    -0.480 A  
HETATM   24  C   UNL     1     -11.075   7.704  71.431  1.00  0.00    -0.238 A  
BRANCH  24  25
HETATM   25  O   UNL     1     -11.196   6.387  71.802  1.00  0.00    -0.252 OA 
BRANCH  25  26
HETATM   26  C   UNL     1     -10.158   5.474  71.461  1.00  0.00    -0.205 C  
HETATM   27  C   UNL     1     -10.262   5.167  69.973  1.00  0.00    -0.354 C  
ENDBRANCH  25  26
ENDBRANCH  24  25
BRANCH  21  28
HETATM   28  O   UNL     1     -13.349   7.843  72.074  1.00  0.00    -0.292 OA 
HETATM   29  C   UNL     1     -14.348   7.500  71.121  1.00  0.00    -0.144 C  
ENDBRANCH  21  28
ENDBRANCH   1  19
BRANCH   1  30
HETATM   30  C   UNL     1      -8.028   8.969  68.961  1.00  0.00    -0.102 C  
BRANCH  30  31
HETATM   31  S   UNL     1      -6.531   8.557  69.820  1.00  0.00    -0.035 S  
HETATM   32  O   UNL     1      -6.481   9.414  70.990  1.00  0.00    -0.082 OA 
HETATM   33  C   UNL     1      -5.177   9.050  68.779  1.00  0.00    -0.034 C  
HETATM   34  O   UNL     1      -6.464   7.118  69.965  1.00  0.00    -0.034 OA 
ENDBRANCH  30  31
ENDBRANCH   1  30
TORSDOF 9
ENDMDL
MODEL      177
REMARK 921   NORMALIZED FREE ENERGY PREDICTED BY IDOCK:   -4.37 KCAL/MOL
REMARK 922        TOTAL FREE ENERGY PREDICTED BY IDOCK:   -7.73 KCAL/MOL
REMARK 923 INTER-LIGAND FREE ENERGY PREDICTED BY IDOCK:   -7.02 KCAL/MOL
REMARK 924 INTRA-LIGAND FREE ENERGY PREDICTED BY IDOCK:   -0.71 KCAL/MOL
REMARK 927      BINDING AFFINITY PREDICTED BY RF-SCORE:    0.00 PKD
ROOT
HETATM    1  C   UNL     1      -8.728   7.701  67.302  1.00  0.00    -0.124 C  
ENDROOT
BRANCH   1   2
HETATM    2  N   UNL     1      -8.511   8.529  66.104  1.00  0.00    -0.124 N  
HETATM    3  C   UNL     1      -6.305   9.738  63.526  1.00  0.00    -0.116 A  
HETATM    4  C   UNL     1      -6.558  10.691  62.554  1.00  0.00    -0.107 A  
HETATM    5  O   UNL     1     -10.585   9.468  65.612  1.00  0.00     0.172 OA 
HETATM    6  C   UNL     1      -7.856  11.212  62.406  1.00  0.00    -0.073 A  
HETATM    7  C   UNL     1      -7.309   8.464  65.463  1.00  0.00    -0.083 C  
HETATM    8  C   UNL     1      -9.406   9.292  65.372  1.00  0.00    -0.226 C  
HETATM    9  C   UNL     1      -8.954  10.769  63.181  1.00  0.00    -0.237 A  
HETATM   10  C   UNL     1      -8.654   9.875  64.217  1.00  0.00    -0.199 A  
HETATM   11  C   UNL     1      -7.359   9.375  64.336  1.00  0.00    -0.109 A  
HETATM   12  O   UNL     1      -6.345   7.765  65.725  1.00  0.00    -0.041 OA 
BRANCH   9  13
HETATM   13  N   UNL     1     -10.252  11.278  62.972  1.00  0.00    -0.599 NA 
HETATM   14  H   UNL     1     -10.792  10.874  62.207  1.00  0.00     0.000 HD 
BRANCH  13  15
HETATM   15  C   UNL     1     -10.820  12.212  63.664  1.00  0.00    -0.464 C  
HETATM   16  C   UNL     1     -12.189  12.389  64.253  1.00  0.00    -0.538 C  
HETATM   17  O   UNL     1     -10.067  13.297  63.916  1.00  0.00    -0.754 OA 
HETATM   18  H   UNL     1     -10.484  13.983  64.424  1.00  0.00     0.000 HD 
ENDBRANCH  13  15
ENDBRANCH   9  13
ENDBRANCH   1   2
BRANCH   1  19
HETATM   19  C   UNL     1      -9.256   8.465  68.531  1.00  0.00    -0.135 A  
HETATM   20  C   UNL     1      -9.583   9.823  68.444  1.00  0.00    -0.157 A  
HETATM   21  C   UNL     1     -10.791   9.723  70.550  1.00  0.00    -0.323 A  
HETATM   22  C   UNL     1      -9.613   7.768  69.711  1.00  0.00    -0.167 A  
HETATM   23  C   UNL     1     -10.347  10.442  69.438  1.00  0.00    -0.259 A  
HETATM   24  C   UNL     1     -10.381   8.385  70.716  1.00  0.00    -0.195 A  
BRANCH  24  25
HETATM   25  O   UNL     1     -10.826   7.770  71.861  1.00  0.00    -0.222 OA 
BRANCH  25  26
HETATM   26  C   UNL     1      -9.999   7.786  73.020  1.00  0.00    -0.293 C  
HETATM   27  C   UNL     1     -10.161   6.455  73.741  1.00  0.00    -0.306 C  
ENDBRANCH  25  26
ENDBRANCH  24  25
BRANCH  21  28
HETATM   28  O   UNL     1     -11.629  10.232  71.513  1.00  0.00    -0.273 OA 
HETATM   29  C   UNL     1     -13.007   9.895  71.425  1.00  0.00    -0.407 C  
ENDBRANCH  21  28
ENDBRANCH   1  19
BRANCH   1  30
HETATM   30  C   UNL     1      -9.563   6.433  67.119  1.00  0.00    -0.134 C  
BRANCH  30  31
HETATM   31  S   UNL     1      -8.670   4.986  66.614  1.00  0.00    -0.108 S  
HETATM   32  O   UNL     1      -7.336   5.112  67.169  1.00  0.00    -0.080 OA 
HETATM   33  C   UNL     1      -8.488   5.073  64.847  1.00  0.00    -0.147 C  
HETATM   34  O   UNL     1      -9.477   3.820  66.908  1.00  0.00    -0.186 OA 
ENDBRANCH  30  31
ENDBRANCH   1  30
TORSDOF 9
ENDMDL
MODEL      178
REMARK 921   NORMALIZED FREE ENERGY PREDICTED BY IDOCK:   -4.37 KCAL/MOL
REMARK 922        TOTAL FREE ENERGY PREDICTED BY IDOCK:   -7.72 KCAL/MOL
REMARK 923 INTER-LIGAND FREE ENERGY PREDICTED BY IDOCK:   -6.40 KCAL/MOL
REMARK 924 INTRA-LIGAND FREE ENERGY PREDICTED BY IDOCK:   -1.32 KCAL/MOL
REMARK 927      BINDING AFFINITY PREDICTED BY RF-SCORE:    0.00 PKD
ROOT
HETATM    1  C   UNL     1     -10.487  12.385  67.216  1.00  0.00    -0.222 C  
ENDROOT
BRANCH   1   2
HETATM    2  N   UNL     1      -9.478  13.456  67.165  1.00  0.00    -0.235 N  
HETATM    3  C   UNL     1      -6.136  14.604  67.860  1.00  0.00    -0.162 A  
HETATM    4  C   UNL     1      -5.612  15.875  67.698  1.00  0.00    -0.155 A  
HETATM    5  O   UNL     1     -10.516  15.239  66.085  1.00  0.00    -0.285 OA 
HETATM    6  C   UNL     1      -6.378  16.874  67.071  1.00  0.00    -0.229 A  
HETATM    7  C   UNL     1      -8.201  13.181  67.558  1.00  0.00    -0.183 C  
HETATM    8  C   UNL     1      -9.550  14.725  66.616  1.00  0.00    -0.272 C  
HETATM    9  C   UNL     1      -7.667  16.632  66.539  1.00  0.00    -0.302 A  
HETATM   10  C   UNL     1      -8.210  15.367  66.798  1.00  0.00    -0.252 A  
HETATM   11  C   UNL     1      -7.425  14.398  67.419  1.00  0.00    -0.183 A  
HETATM   12  O   UNL     1      -7.733  12.120  67.934  1.00  0.00    -0.114 OA 
BRANCH   9  13
HETATM   13  N   UNL     1      -8.388  17.644  65.873  1.00  0.00    -0.546 NA 
HETATM   14  H   UNL     1      -8.398  17.611  64.854  1.00  0.00     0.000 HD 
BRANCH  13  15
HETATM   15  C   UNL     1      -9.036  18.609  66.439  1.00  0.00    -0.284 C  
HETATM   16  C   UNL     1      -9.101  20.093  66.218  1.00  0.00    -0.348 C  
HETATM   17  O   UNL     1      -9.818  18.264  67.476  1.00  0.00    -0.298 OA 
HETATM   18  H   UNL     1     -10.294  18.973  67.891  1.00  0.00     0.000 HD 
ENDBRANCH  13  15
ENDBRANCH   9  13
ENDBRANCH   1   2
BRANCH   1  19
HETATM   19  C   UNL     1     -10.148  11.136  66.380  1.00  0.00    -0.269 A  
HETATM   20  C   UNL     1      -9.682  11.259  65.066  1.00  0.00    -0.293 A  
HETATM   21  C   UNL     1      -8.941   8.944  65.055  1.00  0.00    -0.108 A  
HETATM   22  C   UNL     1     -10.106   9.856  66.984  1.00  0.00    -0.275 A  
HETATM   23  C   UNL     1      -9.080  10.178  64.414  1.00  0.00    -0.284 A  
HETATM   24  C   UNL     1      -9.503   8.764  66.334  1.00  0.00    -0.228 A  
BRANCH  24  25
HETATM   25  O   UNL     1      -9.360   7.506  66.868  1.00  0.00    -0.142 OA 
BRANCH  25  26
HETATM   26  C   UNL     1     -10.163   7.133  67.983  1.00  0.00    -0.185 C  
HETATM   27  C   UNL     1      -9.571   5.871  68.596  1.00  0.00    -0.145 C  
ENDBRANCH  25  26
ENDBRANCH  24  25
BRANCH  21  28
HETATM   28  O   UNL     1      -8.271   7.870  64.521  1.00  0.00    -0.136 OA 
HETATM   29  C   UNL     1      -6.858   7.839  64.675  1.00  0.00    -0.054 C  
ENDBRANCH  21  28
ENDBRANCH   1  19
BRANCH   1  30
HETATM   30  C   UNL     1     -10.942  11.934  68.604  1.00  0.00    -0.228 C  
BRANCH  30  31
HETATM   31  S   UNL     1     -11.814  13.146  69.563  1.00  0.00    -0.300 S  
HETATM   32  O   UNL     1     -12.588  13.934  68.622  1.00  0.00     0.046 OA 
HETATM   33  C   UNL     1     -10.597  14.242  70.254  1.00  0.00     0.587 C  
HETATM   34  O   UNL     1     -12.469  12.476  70.667  1.00  0.00    -0.319 OA 
ENDBRANCH  30  31
ENDBRANCH   1  30
TORSDOF 9
ENDMDL
MODEL      179
REMARK 921   NORMALIZED FREE ENERGY PREDICTED BY IDOCK:   -4.36 KCAL/MOL
REMARK 922        TOTAL FREE ENERGY PREDICTED BY IDOCK:   -7.70 KCAL/MOL
REMARK 923 INTER-LIGAND FREE ENERGY PREDICTED BY IDOCK:   -6.93 KCAL/MOL
REMARK 924 INTRA-LIGAND FREE ENERGY PREDICTED BY IDOCK:   -0.78 KCAL/MOL
REMARK 927      BINDING AFFINITY PREDICTED BY RF-SCORE:    0.00 PKD
ROOT
HETATM    1  C   UNL     1     -10.532   7.887  69.625  1.00  0.00    -0.226 C  
ENDROOT
BRANCH   1   2
HETATM    2  N   UNL     1     -10.440   9.045  68.721  1.00  0.00    -0.218 N  
HETATM    3  C   UNL     1     -10.192  10.354  65.375  1.00  0.00    -0.329 A  
HETATM    4  C   UNL     1     -10.019  11.668  64.976  1.00  0.00    -0.297 A  
HETATM    5  O   UNL     1     -10.556  10.920  70.096  1.00  0.00    -0.051 OA 
HETATM    6  C   UNL     1     -10.060  12.701  65.930  1.00  0.00    -0.276 A  
HETATM    7  C   UNL     1     -10.479   8.836  67.373  1.00  0.00    -0.279 C  
HETATM    8  C   UNL     1     -10.479  10.400  68.999  1.00  0.00    -0.219 C  
HETATM    9  C   UNL     1     -10.325  12.469  67.301  1.00  0.00    -0.220 A  
HETATM   10  C   UNL     1     -10.404  11.127  67.693  1.00  0.00    -0.223 A  
HETATM   11  C   UNL     1     -10.362  10.127  66.723  1.00  0.00    -0.285 A  
HETATM   12  O   UNL     1     -10.617   7.785  66.770  1.00  0.00    -0.331 OA 
BRANCH   9  13
HETATM   13  N   UNL     1     -10.407  13.533  68.222  1.00  0.00    -0.246 NA 
HETATM   14  H   UNL     1      -9.933  13.411  69.117  1.00  0.00     0.000 HD 
BRANCH  13  15
HETATM   15  C   UNL     1     -11.031  14.650  68.034  1.00  0.00    -0.267 C  
HETATM   16  C   UNL     1     -10.591  16.053  67.730  1.00  0.00    -0.309 C  
HETATM   17  O   UNL     1     -12.370  14.604  68.153  1.00  0.00    -0.598 OA 
HETATM   18  H   UNL     1     -12.828  15.424  68.015  1.00  0.00     0.000 HD 
ENDBRANCH  13  15
ENDBRANCH   9  13
ENDBRANCH   1   2
BRANCH   1  19
HETATM   19  C   UNL     1      -9.600   6.712  69.272  1.00  0.00    -0.145 A  
HETATM   20  C   UNL     1     -10.124   5.481  68.861  1.00  0.00    -0.266 A  
HETATM   21  C   UNL     1      -7.952   4.771  68.033  1.00  0.00    -0.085 A  
HETATM   22  C   UNL     1      -8.203   6.912  69.158  1.00  0.00    -0.121 A  
HETATM   23  C   UNL     1      -9.311   4.526  68.242  1.00  0.00    -0.190 A  
HETATM   24  C   UNL     1      -7.379   5.955  68.538  1.00  0.00    -0.085 A  
BRANCH  24  25
HETATM   25  O   UNL     1      -6.028   6.091  68.328  1.00  0.00    -0.018 OA 
BRANCH  25  26
HETATM   26  C   UNL     1      -5.541   7.277  67.708  1.00  0.00    -0.025 C  
HETATM   27  C   UNL     1      -5.891   7.219  66.227  1.00  0.00    -0.036 C  
ENDBRANCH  25  26
ENDBRANCH  24  25
BRANCH  21  28
HETATM   28  O   UNL     1      -7.114   3.928  67.344  1.00  0.00    -0.061 OA 
HETATM   29  C   UNL     1      -7.564   3.445  66.084  1.00  0.00    -0.077 C  
ENDBRANCH  21  28
ENDBRANCH   1  19
BRANCH   1  30
HETATM   30  C   UNL     1     -10.409   8.173  71.123  1.00  0.00    -0.198 C  
BRANCH  30  31
HETATM   31  S   UNL     1     -11.807   7.712  72.114  1.00  0.00    -0.306 S  
HETATM   32  O   UNL     1     -12.383   6.536  71.490  1.00  0.00    -0.333 OA 
HETATM   33  C   UNL     1     -13.013   9.008  71.952  1.00  0.00    -0.389 C  
HETATM   34  O   UNL     1     -11.396   7.675  73.502  1.00  0.00    -0.216 OA 
ENDBRANCH  30  31
ENDBRANCH   1  30
TORSDOF 9
ENDMDL
MODEL      180
REMARK 921   NORMALIZED FREE ENERGY PREDICTED BY IDOCK:   -4.35 KCAL/MOL
REMARK 922        TOTAL FREE ENERGY PREDICTED BY IDOCK:   -7.69 KCAL/MOL
REMARK 923 INTER-LIGAND FREE ENERGY PREDICTED BY IDOCK:   -6.23 KCAL/MOL
REMARK 924 INTRA-LIGAND FREE ENERGY PREDICTED BY IDOCK:   -1.46 KCAL/MOL
REMARK 927      BINDING AFFINITY PREDICTED BY RF-SCORE:    0.00 PKD
ROOT
HETATM    1  C   UNL     1     -10.750   8.795  70.126  1.00  0.00    -0.224 C  
ENDROOT
BRANCH   1   2
HETATM    2  N   UNL     1     -10.204   8.196  68.897  1.00  0.00    -0.207 N  
HETATM    3  C   UNL     1      -9.909   5.360  66.696  1.00  0.00    -0.193 A  
HETATM    4  C   UNL     1      -9.114   5.224  65.570  1.00  0.00    -0.145 A  
HETATM    5  O   UNL     1      -8.997   9.895  67.858  1.00  0.00    -0.128 OA 
HETATM    6  C   UNL     1      -8.394   6.330  65.083  1.00  0.00    -0.119 A  
HETATM    7  C   UNL     1     -10.606   6.943  68.537  1.00  0.00    -0.212 C  
HETATM    8  C   UNL     1      -9.430   8.759  67.896  1.00  0.00    -0.142 C  
HETATM    9  C   UNL     1      -8.478   7.617  65.665  1.00  0.00    -0.142 A  
HETATM   10  C   UNL     1      -9.213   7.707  66.854  1.00  0.00    -0.179 A  
HETATM   11  C   UNL     1      -9.918   6.594  67.309  1.00  0.00    -0.199 A  
HETATM   12  O   UNL     1     -11.415   6.216  69.088  1.00  0.00    -0.379 OA 
BRANCH   9  13
HETATM   13  N   UNL     1      -7.781   8.715  65.121  1.00  0.00    -0.096 NA 
HETATM   14  H   UNL     1      -6.886   8.955  65.548  1.00  0.00     0.000 HD 
BRANCH  13  15
HETATM   15  C   UNL     1      -8.175   9.446  64.129  1.00  0.00    -0.158 C  
HETATM   16  C   UNL     1      -7.729   9.598  62.704  1.00  0.00    -0.117 C  
HETATM   17  O   UNL     1      -9.187  10.292  64.387  1.00  0.00    -0.207 OA 
HETATM   18  H   UNL     1      -9.476  10.828  63.658  1.00  0.00     0.000 HD 
ENDBRANCH  13  15
ENDBRANCH   9  13
ENDBRANCH   1   2
BRANCH   1  19
HETATM   19  C   UNL     1     -10.201   8.201  71.436  1.00  0.00    -0.248 A  
HETATM   20  C   UNL     1     -11.067   7.687  72.408  1.00  0.00    -0.362 A  
HETATM   21  C   UNL     1      -9.229   6.562  73.531  1.00  0.00    -0.134 A  
HETATM   22  C   UNL     1      -8.812   7.975  71.597  1.00  0.00    -0.179 A  
HETATM   23  C   UNL     1     -10.588   6.872  73.438  1.00  0.00    -0.372 A  
HETATM   24  C   UNL     1      -8.322   7.158  72.632  1.00  0.00    -0.107 A  
BRANCH  24  25
HETATM   25  O   UNL     1      -7.002   6.833  72.827  1.00  0.00    -0.074 OA 
BRANCH  25  26
HETATM   26  C   UNL     1      -6.043   7.880  72.948  1.00  0.00    -0.061 C  
HETATM   27  C   UNL     1      -6.215   8.528  74.315  1.00  0.00    -0.146 C  
ENDBRANCH  25  26
ENDBRANCH  24  25
BRANCH  21  28
HETATM   28  O   UNL     1      -8.699   5.689  74.450  1.00  0.00    -0.114 OA 
HETATM   29  C   UNL     1      -9.098   4.327  74.363  1.00  0.00    -0.099 C  
ENDBRANCH  21  28
ENDBRANCH   1  19
BRANCH   1  30
HETATM   30  C   UNL     1     -10.704  10.320  70.225  1.00  0.00    -0.250 C  
BRANCH  30  31
HETATM   31  S   UNL     1     -12.222  11.164  69.859  1.00  0.00    -0.292 S  
HETATM   32  O   UNL     1     -12.427  11.038  68.429  1.00  0.00    -0.352 OA 
HETATM   33  C   UNL     1     -11.951  12.892  70.177  1.00  0.00    -0.301 C  
HETATM   34  O   UNL     1     -13.238  10.708  70.786  1.00  0.00    -0.293 OA 
ENDBRANCH  30  31
ENDBRANCH   1  30
TORSDOF 9
ENDMDL
MODEL      181
REMARK 921   NORMALIZED FREE ENERGY PREDICTED BY IDOCK:   -4.33 KCAL/MOL
REMARK 922        TOTAL FREE ENERGY PREDICTED BY IDOCK:   -7.66 KCAL/MOL
REMARK 923 INTER-LIGAND FREE ENERGY PREDICTED BY IDOCK:   -7.49 KCAL/MOL
REMARK 924 INTRA-LIGAND FREE ENERGY PREDICTED BY IDOCK:   -0.17 KCAL/MOL
REMARK 927      BINDING AFFINITY PREDICTED BY RF-SCORE:    0.00 PKD
ROOT
HETATM    1  C   UNL     1      -8.031  10.008  67.225  1.00  0.00    -0.106 C  
ENDROOT
BRANCH   1   2
HETATM    2  N   UNL     1      -9.098  10.828  66.627  1.00  0.00    -0.157 N  
HETATM    3  C   UNL     1     -11.166  11.639  63.792  1.00  0.00    -0.498 A  
HETATM    4  C   UNL     1     -12.074  12.675  63.659  1.00  0.00    -0.632 A  
HETATM    5  O   UNL     1      -9.828  12.239  68.330  1.00  0.00    -0.213 OA 
HETATM    6  C   UNL     1     -12.381  13.486  64.767  1.00  0.00    -0.435 A  
HETATM    7  C   UNL     1      -9.540  10.525  65.373  1.00  0.00    -0.237 C  
HETATM    8  C   UNL     1      -9.891  11.812  67.193  1.00  0.00    -0.193 C  
HETATM    9  C   UNL     1     -11.836  13.263  66.054  1.00  0.00    -0.395 A  
HETATM   10  C   UNL     1     -10.852  12.270  66.141  1.00  0.00    -0.314 A  
HETATM   11  C   UNL     1     -10.573  11.483  65.026  1.00  0.00    -0.354 A  
HETATM   12  O   UNL     1      -9.192   9.612  64.644  1.00  0.00    -0.244 OA 
BRANCH   9  13
HETATM   13  N   UNL     1     -12.203  14.065  67.154  1.00  0.00    -0.532 NA 
HETATM   14  H   UNL     1     -13.085  13.844  67.616  1.00  0.00     0.000 HD 
BRANCH  13  15
HETATM   15  C   UNL     1     -11.521  15.055  67.630  1.00  0.00    -0.333 C  
HETATM   16  C   UNL     1     -11.308  15.609  69.009  1.00  0.00    -0.332 C  
HETATM   17  O   UNL     1     -10.860  15.802  66.728  1.00  0.00    -0.316 OA 
HETATM   18  H   UNL     1     -10.359  16.529  67.078  1.00  0.00     0.000 HD 
ENDBRANCH  13  15
ENDBRANCH   9  13
ENDBRANCH   1   2
BRANCH   1  19
HETATM   19  C   UNL     1      -7.107  10.759  68.203  1.00  0.00    -0.078 A  
HETATM   20  C   UNL     1      -6.798  12.109  68.002  1.00  0.00    -0.081 A  
HETATM   21  C   UNL     1      -5.952  12.309  70.272  1.00  0.00    -0.138 A  
HETATM   22  C   UNL     1      -6.719  10.162  69.427  1.00  0.00    -0.065 A  
HETATM   23  C   UNL     1      -6.234  12.876  69.027  1.00  0.00    -0.095 A  
HETATM   24  C   UNL     1      -6.150  10.927  70.462  1.00  0.00    -0.102 A  
BRANCH  24  25
HETATM   25  O   UNL     1      -5.802  10.448  71.701  1.00  0.00    -0.310 OA 
BRANCH  25  26
HETATM   26  C   UNL     1      -5.409   9.085  71.830  1.00  0.00    -0.052 C  
HETATM   27  C   UNL     1      -6.490   8.347  72.608  1.00  0.00    -0.099 C  
ENDBRANCH  25  26
ENDBRANCH  24  25
BRANCH  21  28
HETATM   28  O   UNL     1      -5.496  13.019  71.356  1.00  0.00    -0.285 OA 
HETATM   29  C   UNL     1      -5.541  14.438  71.274  1.00  0.00    -0.179 C  
ENDBRANCH  21  28
ENDBRANCH   1  19
BRANCH   1  30
HETATM   30  C   UNL     1      -8.459   8.690  67.873  1.00  0.00    -0.129 C  
BRANCH  30  31
HETATM   31  S   UNL     1      -9.982   8.734  68.780  1.00  0.00    -0.190 S  
HETATM   32  O   UNL     1      -9.773   9.643  69.891  1.00  0.00    -0.202 OA 
HETATM   33  C   UNL     1     -10.216   7.121  69.490  1.00  0.00    -0.195 C  
HETATM   34  O   UNL     1     -11.068   8.958  67.848  1.00  0.00     0.000 OA 
ENDBRANCH  30  31
ENDBRANCH   1  30
TORSDOF 9
ENDMDL
MODEL      182
REMARK 921   NORMALIZED FREE ENERGY PREDICTED BY IDOCK:   -4.31 KCAL/MOL
REMARK 922        TOTAL FREE ENERGY PREDICTED BY IDOCK:   -7.64 KCAL/MOL
REMARK 923 INTER-LIGAND FREE ENERGY PREDICTED BY IDOCK:   -6.15 KCAL/MOL
REMARK 924 INTRA-LIGAND FREE ENERGY PREDICTED BY IDOCK:   -1.49 KCAL/MOL
REMARK 927      BINDING AFFINITY PREDICTED BY RF-SCORE:    0.00 PKD
ROOT
HETATM    1  C   UNL     1      -8.898   6.322  68.752  1.00  0.00    -0.123 C  
ENDROOT
BRANCH   1   2
HETATM    2  N   UNL     1      -8.294   7.301  67.834  1.00  0.00    -0.119 N  
HETATM    3  C   UNL     1      -5.624   9.592  67.060  1.00  0.00    -0.047 A  
HETATM    4  C   UNL     1      -5.524  10.467  65.992  1.00  0.00    -0.091 A  
HETATM    5  O   UNL     1      -9.705   7.372  65.982  1.00  0.00     0.011 OA 
HETATM    6  C   UNL     1      -6.486  10.433  64.966  1.00  0.00    -0.086 A  
HETATM    7  C   UNL     1      -7.059   7.803  68.121  1.00  0.00    -0.085 C  
HETATM    8  C   UNL     1      -8.702   7.717  66.578  1.00  0.00    -0.149 C  
HETATM    9  C   UNL     1      -7.546   9.496  64.939  1.00  0.00    -0.111 A  
HETATM   10  C   UNL     1      -7.678   8.686  66.073  1.00  0.00    -0.100 A  
HETATM   11  C   UNL     1      -6.708   8.741  67.072  1.00  0.00    -0.066 A  
HETATM   12  O   UNL     1      -6.324   7.528  69.055  1.00  0.00    -0.037 OA 
BRANCH   9  13
HETATM   13  N   UNL     1      -8.464   9.458  63.869  1.00  0.00    -0.186 NA 
HETATM   14  H   UNL     1      -8.280   8.787  63.124  1.00  0.00     0.000 HD 
BRANCH  13  15
HETATM   15  C   UNL     1      -9.518  10.198  63.749  1.00  0.00    -0.275 C  
HETATM   16  C   UNL     1     -10.398  10.927  64.723  1.00  0.00    -0.391 C  
HETATM   17  O   UNL     1      -9.984  10.359  62.498  1.00  0.00    -0.714 OA 
HETATM   18  H   UNL     1     -10.758  10.902  62.410  1.00  0.00     0.000 HD 
ENDBRANCH  13  15
ENDBRANCH   9  13
ENDBRANCH   1   2
BRANCH   1  19
HETATM   19  C   UNL     1      -9.813   6.927  69.834  1.00  0.00    -0.172 A  
HETATM   20  C   UNL     1     -10.300   8.233  69.711  1.00  0.00    -0.216 A  
HETATM   21  C   UNL     1     -11.957   7.836  71.444  1.00  0.00    -0.306 A  
HETATM   22  C   UNL     1     -10.343   6.113  70.864  1.00  0.00    -0.267 A  
HETATM   23  C   UNL     1     -11.364   8.679  70.501  1.00  0.00    -0.241 A  
HETATM   24  C   UNL     1     -11.412   6.556  71.664  1.00  0.00    -0.297 A  
BRANCH  24  25
HETATM   25  O   UNL     1     -12.029   5.813  72.642  1.00  0.00    -0.250 OA 
BRANCH  25  26
HETATM   26  C   UNL     1     -11.314   4.744  73.253  1.00  0.00    -0.322 C  
HETATM   27  C   UNL     1     -10.405   5.328  74.325  1.00  0.00    -0.308 C  
ENDBRANCH  25  26
ENDBRANCH  24  25
BRANCH  21  28
HETATM   28  O   UNL     1     -13.068   8.166  72.182  1.00  0.00    -0.304 OA 
HETATM   29  C   UNL     1     -13.730   9.383  71.860  1.00  0.00    -0.368 C  
ENDBRANCH  21  28
ENDBRANCH   1  19
BRANCH   1  30
HETATM   30  C   UNL     1      -9.617   5.133  68.114  1.00  0.00    -0.134 C  
BRANCH  30  31
HETATM   31  S   UNL     1      -8.596   3.740  67.708  1.00  0.00    -0.103 S  
HETATM   32  O   UNL     1      -9.322   2.975  66.712  1.00  0.00    -0.161 OA 
HETATM   33  C   UNL     1      -8.505   2.717  69.158  1.00  0.00    -0.063 C  
HETATM   34  O   UNL     1      -7.256   4.216  67.429  1.00  0.00    -0.066 OA 
ENDBRANCH  30  31
ENDBRANCH   1  30
TORSDOF 9
ENDMDL
MODEL      183
REMARK 921   NORMALIZED FREE ENERGY PREDICTED BY IDOCK:   -4.24 KCAL/MOL
REMARK 922        TOTAL FREE ENERGY PREDICTED BY IDOCK:   -7.53 KCAL/MOL
REMARK 923 INTER-LIGAND FREE ENERGY PREDICTED BY IDOCK:   -6.83 KCAL/MOL
REMARK 924 INTRA-LIGAND FREE ENERGY PREDICTED BY IDOCK:   -0.70 KCAL/MOL
REMARK 927      BINDING AFFINITY PREDICTED BY RF-SCORE:    0.00 PKD
ROOT
HETATM    1  C   UNL     1      -7.949  10.230  69.273  1.00  0.00    -0.149 C  
ENDROOT
BRANCH   1   2
HETATM    2  N   UNL     1      -8.548  11.364  68.549  1.00  0.00    -0.155 N  
HETATM    3  C   UNL     1      -8.468  14.845  67.628  1.00  0.00    -0.176 A  
HETATM    4  C   UNL     1      -9.412  15.568  66.918  1.00  0.00    -0.244 A  
HETATM    5  O   UNL     1     -10.393  10.486  67.432  1.00  0.00    -0.199 OA 
HETATM    6  C   UNL     1     -10.511  14.908  66.339  1.00  0.00    -0.301 A  
HETATM    7  C   UNL     1      -7.884  12.555  68.522  1.00  0.00    -0.108 C  
HETATM    8  C   UNL     1      -9.649  11.406  67.710  1.00  0.00    -0.172 C  
HETATM    9  C   UNL     1     -10.683  13.505  66.402  1.00  0.00    -0.287 A  
HETATM   10  C   UNL     1      -9.768  12.809  67.202  1.00  0.00    -0.216 A  
HETATM   11  C   UNL     1      -8.688  13.491  67.759  1.00  0.00    -0.189 A  
HETATM   12  O   UNL     1      -6.799  12.833  69.004  1.00  0.00    -0.097 OA 
BRANCH   9  13
HETATM   13  N   UNL     1     -11.771  12.871  65.768  1.00  0.00    -0.368 NA 
HETATM   14  H   UNL     1     -12.658  12.858  66.271  1.00  0.00     0.000 HD 
BRANCH  13  15
HETATM   15  C   UNL     1     -11.744  12.304  64.605  1.00  0.00    -0.356 C  
HETATM   16  C   UNL     1     -12.372  12.617  63.278  1.00  0.00    -0.453 C  
HETATM   17  O   UNL     1     -11.033  11.166  64.522  1.00  0.00    -0.300 OA 
HETATM   18  H   UNL     1     -11.014  10.750  63.668  1.00  0.00     0.000 HD 
ENDBRANCH  13  15
ENDBRANCH   9  13
ENDBRANCH   1   2
BRANCH   1  19
HETATM   19  C   UNL     1      -8.962   9.228  69.859  1.00  0.00    -0.194 A  
HETATM   20  C   UNL     1      -9.965   9.654  70.737  1.00  0.00    -0.260 A  
HETATM   21  C   UNL     1     -11.180   7.569  70.449  1.00  0.00    -0.253 A  
HETATM   22  C   UNL     1      -9.028   7.902  69.367  1.00  0.00    -0.145 A  
HETATM   23  C   UNL     1     -11.064   8.837  71.023  1.00  0.00    -0.328 A  
HETATM   24  C   UNL     1     -10.129   7.074  69.651  1.00  0.00    -0.186 A  
BRANCH  24  25
HETATM   25  O   UNL     1     -10.308   5.801  69.167  1.00  0.00    -0.199 OA 
BRANCH  25  26
HETATM   26  C   UNL     1      -9.868   5.494  67.848  1.00  0.00    -0.138 C  
HETATM   27  C   UNL     1      -9.646   3.991  67.756  1.00  0.00    -0.204 C  
ENDBRANCH  25  26
ENDBRANCH  24  25
BRANCH  21  28
HETATM   28  O   UNL     1     -12.275   6.753  70.599  1.00  0.00    -0.386 OA 
HETATM   29  C   UNL     1     -13.237   7.124  71.578  1.00  0.00    -0.360 C  
ENDBRANCH  21  28
ENDBRANCH   1  19
BRANCH   1  30
HETATM   30  C   UNL     1      -6.856   9.448  68.543  1.00  0.00    -0.062 C  
BRANCH  30  31
HETATM   31  S   UNL     1      -6.950   9.460  66.771  1.00  0.00    -0.082 S  
HETATM   32  O   UNL     1      -8.175   8.766  66.420  1.00  0.00    -0.107 OA 
HETATM   33  C   UNL     1      -5.613   8.455  66.169  1.00  0.00    -0.039 C  
HETATM   34  O   UNL     1      -6.718  10.812  66.306  1.00  0.00    -0.120 OA 
ENDBRANCH  30  31
ENDBRANCH   1  30
TORSDOF 9
ENDMDL
MODEL      184
REMARK 921   NORMALIZED FREE ENERGY PREDICTED BY IDOCK:   -4.23 KCAL/MOL
REMARK 922        TOTAL FREE ENERGY PREDICTED BY IDOCK:   -7.51 KCAL/MOL
REMARK 923 INTER-LIGAND FREE ENERGY PREDICTED BY IDOCK:   -5.85 KCAL/MOL
REMARK 924 INTRA-LIGAND FREE ENERGY PREDICTED BY IDOCK:   -1.66 KCAL/MOL
REMARK 927      BINDING AFFINITY PREDICTED BY RF-SCORE:    0.00 PKD
ROOT
HETATM    1  C   UNL     1      -7.767   8.353  67.884  1.00  0.00    -0.103 C  
ENDROOT
BRANCH   1   2
HETATM    2  N   UNL     1      -8.715   8.288  69.008  1.00  0.00    -0.142 N  
HETATM    3  C   UNL     1      -9.531   7.111  72.313  1.00  0.00    -0.157 A  
HETATM    4  C   UNL     1     -10.724   7.244  73.003  1.00  0.00    -0.384 A  
HETATM    5  O   UNL     1     -10.529   9.602  68.370  1.00  0.00    -0.205 OA 
HETATM    6  C   UNL     1     -11.760   8.031  72.468  1.00  0.00    -0.446 A  
HETATM    7  C   UNL     1      -8.327   7.681  70.167  1.00  0.00    -0.130 C  
HETATM    8  C   UNL     1      -9.947   8.898  69.173  1.00  0.00    -0.190 C  
HETATM    9  C   UNL     1     -11.627   8.754  71.258  1.00  0.00    -0.292 A  
HETATM   10  C   UNL     1     -10.449   8.530  70.535  1.00  0.00    -0.230 A  
HETATM   11  C   UNL     1      -9.441   7.747  71.094  1.00  0.00    -0.169 A  
HETATM   12  O   UNL     1      -7.247   7.186  70.441  1.00  0.00    -0.068 OA 
BRANCH   9  13
HETATM   13  N   UNL     1     -12.668   9.573  70.775  1.00  0.00    -0.519 NA 
HETATM   14  H   UNL     1     -13.453   9.107  70.321  1.00  0.00     0.000 HD 
BRANCH  13  15
HETATM   15  C   UNL     1     -12.715  10.863  70.857  1.00  0.00    -0.370 C  
HETATM   16  C   UNL     1     -13.235  11.825  71.886  1.00  0.00    -0.468 C  
HETATM   17  O   UNL     1     -12.229  11.538  69.801  1.00  0.00    -0.288 OA 
HETATM   18  H   UNL     1     -12.264  12.485  69.862  1.00  0.00     0.000 HD 
ENDBRANCH  13  15
ENDBRANCH   9  13
ENDBRANCH   1   2
BRANCH   1  19
HETATM   19  C   UNL     1      -7.672   7.069  67.040  1.00  0.00    -0.107 A  
HETATM   20  C   UNL     1      -6.428   6.550  66.662  1.00  0.00    -0.043 A  
HETATM   21  C   UNL     1      -7.438   4.427  66.049  1.00  0.00    -0.085 A  
HETATM   22  C   UNL     1      -8.822   6.278  66.802  1.00  0.00    -0.126 A  
HETATM   23  C   UNL     1      -6.312   5.243  66.180  1.00  0.00    -0.039 A  
HETATM   24  C   UNL     1      -8.713   4.963  66.315  1.00  0.00    -0.115 A  
BRANCH  24  25
HETATM   25  O   UNL     1      -9.766   4.104  66.115  1.00  0.00    -0.185 OA 
BRANCH  25  26
HETATM   26  C   UNL     1     -10.776   4.455  65.174  1.00  0.00    -0.113 C  
HETATM   27  C   UNL     1     -10.537   3.659  63.898  1.00  0.00    -0.285 C  
ENDBRANCH  25  26
ENDBRANCH  24  25
BRANCH  21  28
HETATM   28  O   UNL     1      -7.392   3.103  65.681  1.00  0.00    -0.069 OA 
HETATM   29  C   UNL     1      -6.128   2.574  65.301  1.00  0.00    -0.019 C  
ENDBRANCH  21  28
ENDBRANCH   1  19
BRANCH   1  30
HETATM   30  C   UNL     1      -7.901   9.549  66.940  1.00  0.00    -0.101 C  
BRANCH  30  31
HETATM   31  S   UNL     1      -6.473  10.594  66.809  1.00  0.00    -0.095 S  
HETATM   32  O   UNL     1      -6.941  11.955  66.994  1.00  0.00    -0.141 OA 
HETATM   33  C   UNL     1      -5.897  10.485  65.131  1.00  0.00    -0.125 C  
HETATM   34  O   UNL     1      -5.430  10.059  67.660  1.00  0.00    -0.038 OA 
ENDBRANCH  30  31
ENDBRANCH   1  30
TORSDOF 9
ENDMDL
MODEL      185
REMARK 921   NORMALIZED FREE ENERGY PREDICTED BY IDOCK:   -4.23 KCAL/MOL
REMARK 922        TOTAL FREE ENERGY PREDICTED BY IDOCK:   -7.51 KCAL/MOL
REMARK 923 INTER-LIGAND FREE ENERGY PREDICTED BY IDOCK:   -5.71 KCAL/MOL
REMARK 924 INTRA-LIGAND FREE ENERGY PREDICTED BY IDOCK:   -1.80 KCAL/MOL
REMARK 927      BINDING AFFINITY PREDICTED BY RF-SCORE:    0.00 PKD
ROOT
HETATM    1  C   UNL     1      -9.444   8.253  68.513  1.00  0.00    -0.146 C  
ENDROOT
BRANCH   1   2
HETATM    2  N   UNL     1      -9.094   8.014  69.923  1.00  0.00    -0.145 N  
HETATM    3  C   UNL     1      -6.676   8.170  72.587  1.00  0.00    -0.095 A  
HETATM    4  C   UNL     1      -6.787   7.684  73.879  1.00  0.00    -0.100 A  
HETATM    5  O   UNL     1     -11.032   7.187  70.914  1.00  0.00    -0.239 OA 
HETATM    6  C   UNL     1      -8.014   7.161  74.328  1.00  0.00    -0.155 A  
HETATM    7  C   UNL     1      -7.884   8.441  70.385  1.00  0.00    -0.090 C  
HETATM    8  C   UNL     1      -9.872   7.547  70.968  1.00  0.00    -0.179 C  
HETATM    9  C   UNL     1      -9.181   7.149  73.528  1.00  0.00    -0.181 A  
HETATM   10  C   UNL     1      -9.019   7.559  72.199  1.00  0.00    -0.159 A  
HETATM   11  C   UNL     1      -7.792   8.075  71.786  1.00  0.00    -0.127 A  
HETATM   12  O   UNL     1      -7.013   9.050  69.788  1.00  0.00    -0.051 OA 
BRANCH   9  13
HETATM   13  N   UNL     1     -10.406   6.662  74.027  1.00  0.00    -0.359 NA 
HETATM   14  H   UNL     1     -10.981   7.312  74.562  1.00  0.00     0.000 HD 
BRANCH  13  15
HETATM   15  C   UNL     1     -10.867   5.464  73.865  1.00  0.00    -0.180 C  
HETATM   16  C   UNL     1     -10.422   4.104  74.321  1.00  0.00    -0.295 C  
HETATM   17  O   UNL     1     -11.972   5.356  73.108  1.00  0.00    -0.546 OA 
HETATM   18  H   UNL     1     -12.310   4.476  72.989  1.00  0.00     0.000 HD 
ENDBRANCH  13  15
ENDBRANCH   9  13
ENDBRANCH   1   2
BRANCH   1  19
HETATM   19  C   UNL     1      -9.439   6.997  67.622  1.00  0.00    -0.134 A  
HETATM   20  C   UNL     1     -10.638   6.454  67.144  1.00  0.00    -0.389 A  
HETATM   21  C   UNL     1      -9.440   5.107  65.513  1.00  0.00    -0.080 A  
HETATM   22  C   UNL     1      -8.224   6.488  67.103  1.00  0.00    -0.113 A  
HETATM   23  C   UNL     1     -10.638   5.526  66.097  1.00  0.00    -0.136 A  
HETATM   24  C   UNL     1      -8.217   5.553  66.051  1.00  0.00    -0.114 A  
BRANCH  24  25
HETATM   25  O   UNL     1      -7.090   5.053  65.445  1.00  0.00    -0.064 OA 
BRANCH  25  26
HETATM   26  C   UNL     1      -6.235   4.185  66.182  1.00  0.00    -0.032 C  
HETATM   27  C   UNL     1      -5.166   5.031  66.860  1.00  0.00    -0.008 C  
ENDBRANCH  25  26
ENDBRANCH  24  25
BRANCH  21  28
HETATM   28  O   UNL     1      -9.365   4.280  64.418  1.00  0.00    -0.154 OA 
HETATM   29  C   UNL     1      -9.821   2.942  64.576  1.00  0.00    -0.071 C  
ENDBRANCH  21  28
ENDBRANCH   1  19
BRANCH   1  30
HETATM   30  C   UNL     1     -10.731   9.036  68.247  1.00  0.00    -0.103 C  
BRANCH  30  31
HETATM   31  S   UNL     1     -10.546  10.529  67.308  1.00  0.00    -0.272 S  
HETATM   32  O   UNL     1     -10.020  10.139  66.013  1.00  0.00    -0.229 OA 
HETATM   33  C   UNL     1      -9.275  11.490  68.096  1.00  0.00    -0.181 C  
HETATM   34  O   UNL     1     -11.778  11.286  67.397  1.00  0.00    -0.580 OA 
ENDBRANCH  30  31
ENDBRANCH   1  30
TORSDOF 9
ENDMDL
MODEL      186
REMARK 921   NORMALIZED FREE ENERGY PREDICTED BY IDOCK:   -4.17 KCAL/MOL
REMARK 922        TOTAL FREE ENERGY PREDICTED BY IDOCK:   -7.42 KCAL/MOL
REMARK 923 INTER-LIGAND FREE ENERGY PREDICTED BY IDOCK:   -6.78 KCAL/MOL
REMARK 924 INTRA-LIGAND FREE ENERGY PREDICTED BY IDOCK:   -0.64 KCAL/MOL
REMARK 927      BINDING AFFINITY PREDICTED BY RF-SCORE:    0.00 PKD
ROOT
HETATM    1  C   UNL     1      -8.607  13.216  67.501  1.00  0.00    -0.196 C  
ENDROOT
BRANCH   1   2
HETATM    2  N   UNL     1      -8.114  14.563  67.833  1.00  0.00    -0.136 N  
HETATM    3  C   UNL     1      -5.350  16.818  68.331  1.00  0.00    -0.118 A  
HETATM    4  C   UNL     1      -5.378  18.127  68.780  1.00  0.00    -0.171 A  
HETATM    5  O   UNL     1     -10.019  15.867  68.136  1.00  0.00    -0.219 OA 
HETATM    6  C   UNL     1      -6.612  18.776  68.971  1.00  0.00    -0.306 A  
HETATM    7  C   UNL     1      -6.777  14.819  67.739  1.00  0.00    -0.174 C  
HETATM    8  C   UNL     1      -8.812  15.731  68.090  1.00  0.00    -0.178 C  
HETATM    9  C   UNL     1      -7.854  18.166  68.673  1.00  0.00    -0.295 A  
HETATM   10  C   UNL     1      -7.802  16.814  68.310  1.00  0.00    -0.194 A  
HETATM   11  C   UNL     1      -6.565  16.201  68.126  1.00  0.00    -0.131 A  
HETATM   12  O   UNL     1      -5.884  14.075  67.373  1.00  0.00    -0.352 OA 
BRANCH   9  13
HETATM   13  N   UNL     1      -9.069  18.863  68.829  1.00  0.00    -0.338 NA 
HETATM   14  H   UNL     1      -9.415  18.986  69.781  1.00  0.00     0.000 HD 
BRANCH  13  15
HETATM   15  C   UNL     1      -9.785  19.359  67.873  1.00  0.00    -0.352 C  
HETATM   16  C   UNL     1      -9.752  20.650  67.107  1.00  0.00    -0.530 C  
HETATM   17  O   UNL     1     -10.815  18.603  67.456  1.00  0.00    -0.435 OA 
HETATM   18  H   UNL     1     -11.341  18.968  66.754  1.00  0.00     0.000 HD 
ENDBRANCH  13  15
ENDBRANCH   9  13
ENDBRANCH   1   2
BRANCH   1  19
HETATM   19  C   UNL     1      -7.630  12.070  67.824  1.00  0.00    -0.130 A  
HETATM   20  C   UNL     1      -7.328  11.738  69.150  1.00  0.00    -0.005 A  
HETATM   21  C   UNL     1      -6.360   9.619  68.458  1.00  0.00    -0.047 A  
HETATM   22  C   UNL     1      -7.178  11.200  66.802  1.00  0.00    -0.146 A  
HETATM   23  C   UNL     1      -6.708  10.524  69.463  1.00  0.00    -0.089 A  
HETATM   24  C   UNL     1      -6.552   9.979  67.109  1.00  0.00    -0.070 A  
BRANCH  24  25
HETATM   25  O   UNL     1      -6.139   9.047  66.188  1.00  0.00    -0.057 OA 
BRANCH  25  26
HETATM   26  C   UNL     1      -6.954   8.794  65.047  1.00  0.00    -0.076 C  
HETATM   27  C   UNL     1      -8.101   7.888  65.472  1.00  0.00    -0.130 C  
ENDBRANCH  25  26
ENDBRANCH  24  25
BRANCH  21  28
HETATM   28  O   UNL     1      -5.844   8.367  68.693  1.00  0.00    -0.042 OA 
HETATM   29  C   UNL     1      -5.441   8.066  70.023  1.00  0.00    -0.023 C  
ENDBRANCH  21  28
ENDBRANCH   1  19
BRANCH   1  30
HETATM   30  C   UNL     1      -9.991  12.841  68.032  1.00  0.00    -0.225 C  
BRANCH  30  31
HETATM   31  S   UNL     1     -11.185  12.368  66.807  1.00  0.00    -0.330 S  
HETATM   32  O   UNL     1     -10.433  11.926  65.648  1.00  0.00    -0.244 OA 
HETATM   33  C   UNL     1     -12.043  13.845  66.315  1.00  0.00    -0.451 C  
HETATM   34  O   UNL     1     -12.157  11.490  67.426  1.00  0.00    -0.593 OA 
ENDBRANCH  30  31
ENDBRANCH   1  30
TORSDOF 9
ENDMDL
MODEL      187
REMARK 921   NORMALIZED FREE ENERGY PREDICTED BY IDOCK:   -4.14 KCAL/MOL
REMARK 922        TOTAL FREE ENERGY PREDICTED BY IDOCK:   -7.37 KCAL/MOL
REMARK 923 INTER-LIGAND FREE ENERGY PREDICTED BY IDOCK:   -6.37 KCAL/MOL
REMARK 924 INTRA-LIGAND FREE ENERGY PREDICTED BY IDOCK:   -1.00 KCAL/MOL
REMARK 927      BINDING AFFINITY PREDICTED BY RF-SCORE:    0.00 PKD
ROOT
HETATM    1  C   UNL     1      -9.086  11.986  67.210  1.00  0.00    -0.178 C  
ENDROOT
BRANCH   1   2
HETATM    2  N   UNL     1      -8.541  13.350  67.109  1.00  0.00    -0.208 N  
HETATM    3  C   UNL     1      -5.826  15.653  67.658  1.00  0.00    -0.146 A  
HETATM    4  C   UNL     1      -5.809  17.024  67.463  1.00  0.00    -0.161 A  
HETATM    5  O   UNL     1     -10.194  14.606  66.055  1.00  0.00    -0.282 OA 
HETATM    6  C   UNL     1      -6.908  17.660  66.857  1.00  0.00    -0.212 A  
HETATM    7  C   UNL     1      -7.239  13.568  67.452  1.00  0.00    -0.098 C  
HETATM    8  C   UNL     1      -9.090  14.492  66.551  1.00  0.00    -0.219 C  
HETATM    9  C   UNL     1      -8.037  16.951  66.381  1.00  0.00    -0.315 A  
HETATM   10  C   UNL     1      -8.072  15.582  66.673  1.00  0.00    -0.189 A  
HETATM   11  C   UNL     1      -6.966  14.981  67.271  1.00  0.00    -0.087 A  
HETATM   12  O   UNL     1      -6.403  12.760  67.820  1.00  0.00    -0.104 OA 
BRANCH   9  13
HETATM   13  N   UNL     1      -9.099  17.615  65.735  1.00  0.00    -0.429 NA 
HETATM   14  H   UNL     1      -9.279  17.367  64.762  1.00  0.00     0.000 HD 
BRANCH  13  15
HETATM   15  C   UNL     1      -9.867  18.511  66.265  1.00  0.00    -0.337 C  
HETATM   16  C   UNL     1     -10.187  19.940  65.934  1.00  0.00    -0.552 C  
HETATM   17  O   UNL     1     -10.525  18.138  67.377  1.00  0.00    -0.375 OA 
HETATM   18  H   UNL     1     -11.088  18.796  67.766  1.00  0.00     0.000 HD 
ENDBRANCH  13  15
ENDBRANCH   9  13
ENDBRANCH   1   2
BRANCH   1  19
HETATM   19  C   UNL     1      -8.108  10.865  66.811  1.00  0.00    -0.142 A  
HETATM   20  C   UNL     1      -7.769   9.854  67.717  1.00  0.00    -0.091 A  
HETATM   21  C   UNL     1      -6.837   8.492  65.933  1.00  0.00    -0.064 A  
HETATM   22  C   UNL     1      -7.692  10.720  65.465  1.00  0.00    -0.020 A  
HETATM   23  C   UNL     1      -7.148   8.679  67.282  1.00  0.00    -0.079 A  
HETATM   24  C   UNL     1      -7.066   9.541  65.021  1.00  0.00    -0.109 A  
BRANCH  24  25
HETATM   25  O   UNL     1      -6.687   9.287  63.725  1.00  0.00    -0.090 OA 
BRANCH  25  26
HETATM   26  C   UNL     1      -7.661   9.374  62.690  1.00  0.00    -0.115 C  
HETATM   27  C   UNL     1      -8.112   7.963  62.339  1.00  0.00    -0.161 C  
ENDBRANCH  25  26
ENDBRANCH  24  25
BRANCH  21  28
HETATM   28  O   UNL     1      -6.323   7.328  65.415  1.00  0.00    -0.037 OA 
HETATM   29  C   UNL     1      -7.120   6.155  65.525  1.00  0.00    -0.069 C  
ENDBRANCH  21  28
ENDBRANCH   1  19
BRANCH   1  30
HETATM   30  C   UNL     1      -9.747  11.607  68.536  1.00  0.00    -0.184 C  
BRANCH  30  31
HETATM   31  S   UNL     1     -11.521  11.643  68.552  1.00  0.00    -0.327 S  
HETATM   32  O   UNL     1     -11.903  13.035  68.702  1.00  0.00    -0.305 OA 
HETATM   33  C   UNL     1     -12.048  10.816  70.035  1.00  0.00    -0.345 C  
HETATM   34  O   UNL     1     -12.009  10.869  67.429  1.00  0.00    -0.343 OA 
ENDBRANCH  30  31
ENDBRANCH   1  30
TORSDOF 9
ENDMDL
MODEL      188
REMARK 921   NORMALIZED FREE ENERGY PREDICTED BY IDOCK:   -4.14 KCAL/MOL
REMARK 922        TOTAL FREE ENERGY PREDICTED BY IDOCK:   -7.37 KCAL/MOL
REMARK 923 INTER-LIGAND FREE ENERGY PREDICTED BY IDOCK:   -6.97 KCAL/MOL
REMARK 924 INTRA-LIGAND FREE ENERGY PREDICTED BY IDOCK:   -0.40 KCAL/MOL
REMARK 927      BINDING AFFINITY PREDICTED BY RF-SCORE:    0.00 PKD
ROOT
HETATM    1  C   UNL     1     -11.620  12.507  69.196  1.00  0.00    -0.320 C  
ENDROOT
BRANCH   1   2
HETATM    2  N   UNL     1     -11.367  13.593  68.234  1.00  0.00    -0.271 N  
HETATM    3  C   UNL     1     -11.707  14.933  64.909  1.00  0.00    -0.371 A  
HETATM    4  C   UNL     1     -11.157  16.092  64.388  1.00  0.00    -0.141 A  
HETATM    5  O   UNL     1     -10.265  15.250  69.443  1.00  0.00    -0.230 OA 
HETATM    6  C   UNL     1     -10.467  16.981  65.232  1.00  0.00    -0.056 A  
HETATM    7  C   UNL     1     -11.920  13.517  66.990  1.00  0.00    -0.394 C  
HETATM    8  C   UNL     1     -10.763  14.825  68.419  1.00  0.00    -0.243 C  
HETATM    9  C   UNL     1     -10.345  16.775  66.627  1.00  0.00    -0.297 A  
HETATM   10  C   UNL     1     -10.828  15.553  67.112  1.00  0.00    -0.316 A  
HETATM   11  C   UNL     1     -11.509  14.695  66.251  1.00  0.00    -0.351 A  
HETATM   12  O   UNL     1     -12.656  12.658  66.536  1.00  0.00    -0.252 OA 
BRANCH   9  13
HETATM   13  N   UNL     1      -9.689  17.712  67.451  1.00  0.00    -0.276 NA 
HETATM   14  H   UNL     1      -9.002  17.349  68.111  1.00  0.00     0.000 HD 
BRANCH  13  15
HETATM   15  C   UNL     1      -9.882  18.991  67.446  1.00  0.00    -0.324 C  
HETATM   16  C   UNL     1      -9.224  20.142  66.742  1.00  0.00    -0.487 C  
HETATM   17  O   UNL     1     -10.859  19.442  68.252  1.00  0.00    -0.374 OA 
HETATM   18  H   UNL     1     -11.000  20.382  68.248  1.00  0.00     0.000 HD 
ENDBRANCH  13  15
ENDBRANCH   9  13
ENDBRANCH   1   2
BRANCH   1  19
HETATM   19  C   UNL     1     -10.797  11.226  68.959  1.00  0.00    -0.268 A  
HETATM   20  C   UNL     1     -11.032  10.074  69.718  1.00  0.00    -0.317 A  
HETATM   21  C   UNL     1      -9.766   8.717  68.149  1.00  0.00    -0.158 A  
HETATM   22  C   UNL     1      -9.934  11.123  67.841  1.00  0.00    -0.189 A  
HETATM   23  C   UNL     1     -10.528   8.834  69.314  1.00  0.00    -0.228 A  
HETATM   24  C   UNL     1      -9.423   9.878  67.429  1.00  0.00    -0.149 A  
BRANCH  24  25
HETATM   25  O   UNL     1      -8.633   9.674  66.324  1.00  0.00    -0.125 OA 
BRANCH  25  26
HETATM   26  C   UNL     1      -9.248   9.569  65.044  1.00  0.00    -0.236 C  
HETATM   27  C   UNL     1      -9.771  10.945  64.652  1.00  0.00    -0.333 C  
ENDBRANCH  25  26
ENDBRANCH  24  25
BRANCH  21  28
HETATM   28  O   UNL     1      -9.325   7.522  67.633  1.00  0.00    -0.136 OA 
HETATM   29  C   UNL     1      -8.130   6.976  68.177  1.00  0.00    -0.119 C  
ENDBRANCH  21  28
ENDBRANCH   1  19
BRANCH   1  30
HETATM   30  C   UNL     1     -11.542  12.870  70.679  1.00  0.00     0.498 C  
BRANCH  30  31
HETATM   31  S   UNL     1     -12.802  13.969  71.273  1.00  0.00    -0.364 S  
HETATM   32  O   UNL     1     -12.115  15.109  71.850  1.00  0.00    -0.328 OA 
HETATM   33  C   UNL     1     -13.624  13.146  72.617  1.00  0.00    -0.319 C  
HETATM   34  O   UNL     1     -13.779  14.161  70.221  1.00  0.00     0.506 OA 
ENDBRANCH  30  31
ENDBRANCH   1  30
TORSDOF 9
ENDMDL
MODEL      189
REMARK 921   NORMALIZED FREE ENERGY PREDICTED BY IDOCK:   -4.12 KCAL/MOL
REMARK 922        TOTAL FREE ENERGY PREDICTED BY IDOCK:   -7.34 KCAL/MOL
REMARK 923 INTER-LIGAND FREE ENERGY PREDICTED BY IDOCK:   -5.86 KCAL/MOL
REMARK 924 INTRA-LIGAND FREE ENERGY PREDICTED BY IDOCK:   -1.48 KCAL/MOL
REMARK 927      BINDING AFFINITY PREDICTED BY RF-SCORE:    0.00 PKD
ROOT
HETATM    1  C   UNL     1      -9.565  10.447  67.487  1.00  0.00    -0.156 C  
ENDROOT
BRANCH   1   2
HETATM    2  N   UNL     1      -9.451   9.674  68.734  1.00  0.00    -0.146 N  
HETATM    3  C   UNL     1      -7.550   8.763  71.655  1.00  0.00    -0.109 A  
HETATM    4  C   UNL     1      -7.851   7.812  72.615  1.00  0.00    -0.139 A  
HETATM    5  O   UNL     1     -11.471   8.536  68.950  1.00  0.00     0.497 OA 
HETATM    6  C   UNL     1      -9.099   7.161  72.590  1.00  0.00    -0.157 A  
HETATM    7  C   UNL     1      -8.372   9.880  69.543  1.00  0.00    -0.168 C  
HETATM    8  C   UNL     1     -10.366   8.840  69.355  1.00  0.00    -0.214 C  
HETATM    9  C   UNL     1     -10.106   7.469  71.644  1.00  0.00    -0.180 A  
HETATM   10  C   UNL     1      -9.743   8.365  70.630  1.00  0.00    -0.203 A  
HETATM   11  C   UNL     1      -8.501   8.995  70.685  1.00  0.00    -0.229 A  
HETATM   12  O   UNL     1      -7.453  10.669  69.400  1.00  0.00    -0.118 OA 
BRANCH   9  13
HETATM   13  N   UNL     1     -11.363   6.833  71.678  1.00  0.00    -0.254 NA 
HETATM   14  H   UNL     1     -11.384   5.835  71.469  1.00  0.00     0.000 HD 
BRANCH  13  15
HETATM   15  C   UNL     1     -12.492   7.402  71.952  1.00  0.00    -0.302 C  
HETATM   16  C   UNL     1     -13.866   7.335  71.351  1.00  0.00    -0.416 C  
HETATM   17  O   UNL     1     -12.479   8.274  72.975  1.00  0.00    -0.673 OA 
HETATM   18  H   UNL     1     -13.308   8.691  73.176  1.00  0.00     0.000 HD 
ENDBRANCH  13  15
ENDBRANCH   9  13
ENDBRANCH   1   2
BRANCH   1  19
HETATM   19  C   UNL     1      -8.792   9.863  66.289  1.00  0.00    -0.160 A  
HETATM   20  C   UNL     1      -7.739  10.573  65.701  1.00  0.00    -0.139 A  
HETATM   21  C   UNL     1      -6.976   8.583  64.534  1.00  0.00    -0.073 A  
HETATM   22  C   UNL     1      -8.993   8.519  65.891  1.00  0.00    -0.235 A  
HETATM   23  C   UNL     1      -6.838   9.939  64.840  1.00  0.00    -0.127 A  
HETATM   24  C   UNL     1      -8.092   7.875  65.023  1.00  0.00    -0.144 A  
BRANCH  24  25
HETATM   25  O   UNL     1      -8.171   6.560  64.634  1.00  0.00    -0.123 OA 
BRANCH  25  26
HETATM   26  C   UNL     1      -8.166   5.542  65.630  1.00  0.00    -0.127 C  
HETATM   27  C   UNL     1      -6.738   5.371  66.130  1.00  0.00    -0.057 C  
ENDBRANCH  25  26
ENDBRANCH  24  25
BRANCH  21  28
HETATM   28  O   UNL     1      -6.076   7.867  63.781  1.00  0.00    -0.057 OA 
HETATM   29  C   UNL     1      -5.914   8.247  62.421  1.00  0.00    -0.083 C  
ENDBRANCH  21  28
ENDBRANCH   1  19
BRANCH   1  30
HETATM   30  C   UNL     1     -10.979  10.805  67.027  1.00  0.00    -0.227 C  
BRANCH  30  31
HETATM   31  S   UNL     1     -11.152  12.370  66.209  1.00  0.00    -0.320 S  
HETATM   32  O   UNL     1     -12.409  12.934  66.663  1.00  0.00    -0.422 OA 
HETATM   33  C   UNL     1     -11.350  12.035  64.474  1.00  0.00    -0.330 C  
HETATM   34  O   UNL     1      -9.919  13.113  66.368  1.00  0.00    -0.269 OA 
ENDBRANCH  30  31
ENDBRANCH   1  30
TORSDOF 9
ENDMDL
MODEL      190
REMARK 921   NORMALIZED FREE ENERGY PREDICTED BY IDOCK:   -4.11 KCAL/MOL
REMARK 922        TOTAL FREE ENERGY PREDICTED BY IDOCK:   -7.32 KCAL/MOL
REMARK 923 INTER-LIGAND FREE ENERGY PREDICTED BY IDOCK:   -7.03 KCAL/MOL
REMARK 924 INTRA-LIGAND FREE ENERGY PREDICTED BY IDOCK:   -0.29 KCAL/MOL
REMARK 927      BINDING AFFINITY PREDICTED BY RF-SCORE:    0.00 PKD
ROOT
HETATM    1  C   UNL     1      -8.167  10.123  67.537  1.00  0.00    -0.114 C  
ENDROOT
BRANCH   1   2
HETATM    2  N   UNL     1      -9.107   9.906  68.650  1.00  0.00    -0.129 N  
HETATM    3  C   UNL     1     -10.015   8.108  71.636  1.00  0.00    -0.252 A  
HETATM    4  C   UNL     1     -11.179   8.205  72.378  1.00  0.00    -0.452 A  
HETATM    5  O   UNL     1     -10.772  11.512  68.382  1.00  0.00    -0.189 OA 
HETATM    6  C   UNL     1     -12.127   9.197  72.067  1.00  0.00    -0.431 A  
HETATM    7  C   UNL     1      -8.776   9.017  69.630  1.00  0.00    -0.143 C  
HETATM    8  C   UNL     1     -10.263  10.589  68.988  1.00  0.00    -0.216 C  
HETATM    9  C   UNL     1     -11.928  10.155  71.044  1.00  0.00    -0.378 A  
HETATM   10  C   UNL     1     -10.788   9.978  70.250  1.00  0.00    -0.370 A  
HETATM   11  C   UNL     1      -9.867   8.988  70.586  1.00  0.00    -0.284 A  
HETATM   12  O   UNL     1      -7.754   8.363  69.751  1.00  0.00    -0.089 OA 
BRANCH   9  13
HETATM   13  N   UNL     1     -12.877  11.166  70.792  1.00  0.00    -0.276 NA 
HETATM   14  H   UNL     1     -13.687  10.912  70.226  1.00  0.00     0.000 HD 
BRANCH  13  15
HETATM   15  C   UNL     1     -12.813  12.388  71.214  1.00  0.00    -0.240 C  
HETATM   16  C   UNL     1     -13.578  13.181  72.233  1.00  0.00    -0.677 C  
HETATM   17  O   UNL     1     -11.892  13.167  70.621  1.00  0.00    -0.524 OA 
HETATM   18  H   UNL     1     -11.845  14.063  70.931  1.00  0.00     0.000 HD 
ENDBRANCH  13  15
ENDBRANCH   9  13
ENDBRANCH   1   2
BRANCH   1  19
HETATM   19  C   UNL     1      -7.935   8.896  66.635  1.00  0.00    -0.103 A  
HETATM   20  C   UNL     1      -6.682   8.659  66.057  1.00  0.00    -0.061 A  
HETATM   21  C   UNL     1      -7.307   6.375  65.512  1.00  0.00    -0.076 A  
HETATM   22  C   UNL     1      -8.917   7.880  66.537  1.00  0.00    -0.192 A  
HETATM   23  C   UNL     1      -6.370   7.411  65.509  1.00  0.00    -0.041 A  
HETATM   24  C   UNL     1      -8.610   6.623  65.985  1.00  0.00    -0.148 A  
BRANCH  24  25
HETATM   25  O   UNL     1      -9.477   5.561  65.907  1.00  0.00    -0.157 OA 
BRANCH  25  26
HETATM   26  C   UNL     1     -10.329   5.280  67.013  1.00  0.00    -0.236 C  
HETATM   27  C   UNL     1      -9.547   4.446  68.019  1.00  0.00    -0.204 C  
ENDBRANCH  25  26
ENDBRANCH  24  25
BRANCH  21  28
HETATM   28  O   UNL     1      -7.041   5.095  65.087  1.00  0.00    -0.060 OA 
HETATM   29  C   UNL     1      -6.363   4.946  63.845  1.00  0.00    -0.022 C  
ENDBRANCH  21  28
ENDBRANCH   1  19
BRANCH   1  30
HETATM   30  C   UNL     1      -8.425  11.341  66.648  1.00  0.00    -0.168 C  
BRANCH  30  31
HETATM   31  S   UNL     1      -9.470  11.063  65.242  1.00  0.00    -0.232 S  
HETATM   32  O   UNL     1      -8.594  10.709  64.142  1.00  0.00    -0.169 OA 
HETATM   33  C   UNL     1     -10.202  12.626  64.817  1.00  0.00    -0.283 C  
HETATM   34  O   UNL     1     -10.545  10.175  65.635  1.00  0.00    -0.111 OA 
ENDBRANCH  30  31
ENDBRANCH   1  30
TORSDOF 9
ENDMDL
MODEL      191
REMARK 921   NORMALIZED FREE ENERGY PREDICTED BY IDOCK:   -4.10 KCAL/MOL
REMARK 922        TOTAL FREE ENERGY PREDICTED BY IDOCK:   -7.32 KCAL/MOL
REMARK 923 INTER-LIGAND FREE ENERGY PREDICTED BY IDOCK:   -5.67 KCAL/MOL
REMARK 924 INTRA-LIGAND FREE ENERGY PREDICTED BY IDOCK:   -1.65 KCAL/MOL
REMARK 927      BINDING AFFINITY PREDICTED BY RF-SCORE:    0.00 PKD
ROOT
HETATM    1  C   UNL     1      -9.921   7.666  71.511  1.00  0.00    -0.173 C  
ENDROOT
BRANCH   1   2
HETATM    2  N   UNL     1      -9.025   6.977  70.567  1.00  0.00    -0.154 N  
HETATM    3  C   UNL     1      -5.750   5.715  69.758  1.00  0.00    -0.016 A  
HETATM    4  C   UNL     1      -5.313   5.157  68.569  1.00  0.00    -0.007 A  
HETATM    5  O   UNL     1     -10.366   6.379  68.759  1.00  0.00    -0.166 OA 
HETATM    6  C   UNL     1      -6.233   4.898  67.536  1.00  0.00    -0.039 A  
HETATM    7  C   UNL     1      -7.750   6.688  70.956  1.00  0.00    -0.097 C  
HETATM    8  C   UNL     1      -9.297   6.397  69.340  1.00  0.00    -0.141 C  
HETATM    9  C   UNL     1      -7.621   5.138  67.669  1.00  0.00    -0.087 A  
HETATM   10  C   UNL     1      -8.024   5.787  68.842  1.00  0.00    -0.098 A  
HETATM   11  C   UNL     1      -7.089   6.026  69.847  1.00  0.00    -0.072 A  
HETATM   12  O   UNL     1      -7.219   6.894  72.034  1.00  0.00    -0.080 OA 
BRANCH   9  13
HETATM   13  N   UNL     1      -8.522   4.821  66.631  1.00  0.00    -0.106 NA 
HETATM   14  H   UNL     1      -8.436   5.350  65.764  1.00  0.00     0.000 HD 
BRANCH  13  15
HETATM   15  C   UNL     1      -9.447   3.917  66.681  1.00  0.00    -0.199 C  
HETATM   16  C   UNL     1      -9.465   2.461  67.045  1.00  0.00     0.058 C  
HETATM   17  O   UNL     1     -10.676   4.314  66.308  1.00  0.00    -0.315 OA 
HETATM   18  H   UNL     1     -11.355   3.651  66.344  1.00  0.00     0.000 HD 
ENDBRANCH  13  15
ENDBRANCH   9  13
ENDBRANCH   1   2
BRANCH   1  19
HETATM   19  C   UNL     1     -10.329   9.092  71.095  1.00  0.00    -0.362 A  
HETATM   20  C   UNL     1      -9.603   9.789  70.123  1.00  0.00    -0.287 A  
HETATM   21  C   UNL     1     -11.394  11.413  69.873  1.00  0.00    -0.219 A  
HETATM   22  C   UNL     1     -11.557   9.644  71.533  1.00  0.00    -0.451 A  
HETATM   23  C   UNL     1     -10.132  10.932  69.515  1.00  0.00    -0.056 A  
HETATM   24  C   UNL     1     -12.095  10.794  70.927  1.00  0.00    -0.370 A  
BRANCH  24  25
HETATM   25  O   UNL     1     -13.305  11.362  71.243  1.00  0.00    -0.155 OA 
BRANCH  25  26
HETATM   26  C   UNL     1     -13.372  12.297  72.315  1.00  0.00    -0.270 C  
HETATM   27  C   UNL     1     -13.777  13.650  71.745  1.00  0.00    -0.413 C  
ENDBRANCH  25  26
ENDBRANCH  24  25
BRANCH  21  28
HETATM   28  O   UNL     1     -12.023  12.465  69.251  1.00  0.00    -0.298 OA 
HETATM   29  C   UNL     1     -11.719  12.689  67.880  1.00  0.00    -0.358 C  
ENDBRANCH  21  28
ENDBRANCH   1  19
BRANCH   1  30
HETATM   30  C   UNL     1     -11.175   6.906  71.946  1.00  0.00    -0.254 C  
BRANCH  30  31
HETATM   31  S   UNL     1     -10.895   5.414  72.863  1.00  0.00    -0.291 S  
HETATM   32  O   UNL     1     -12.153   5.085  73.506  1.00  0.00     0.172 OA 
HETATM   33  C   UNL     1      -9.753   5.807  74.167  1.00  0.00    -0.183 C  
HETATM   34  O   UNL     1     -10.246   4.454  71.995  1.00  0.00    -0.186 OA 
ENDBRANCH  30  31
ENDBRANCH   1  30
TORSDOF 9
ENDMDL
MODEL      192
REMARK 921   NORMALIZED FREE ENERGY PREDICTED BY IDOCK:   -4.09 KCAL/MOL
REMARK 922        TOTAL FREE ENERGY PREDICTED BY IDOCK:   -7.30 KCAL/MOL
REMARK 923 INTER-LIGAND FREE ENERGY PREDICTED BY IDOCK:   -6.39 KCAL/MOL
REMARK 924 INTRA-LIGAND FREE ENERGY PREDICTED BY IDOCK:   -0.90 KCAL/MOL
REMARK 927      BINDING AFFINITY PREDICTED BY RF-SCORE:    0.00 PKD
ROOT
HETATM    1  C   UNL     1     -10.492   8.111  69.385  1.00  0.00    -0.220 C  
ENDROOT
BRANCH   1   2
HETATM    2  N   UNL     1     -10.470   9.355  68.599  1.00  0.00    -0.207 N  
HETATM    3  C   UNL     1     -10.413  10.997  65.393  1.00  0.00    -0.306 A  
HETATM    4  C   UNL     1     -10.288  12.348  65.121  1.00  0.00    -0.313 A  
HETATM    5  O   UNL     1     -10.559  11.081  70.159  1.00  0.00     0.042 OA 
HETATM    6  C   UNL     1     -10.305  13.280  66.175  1.00  0.00    -0.290 A  
HETATM    7  C   UNL     1     -10.570   9.280  67.240  1.00  0.00    -0.233 C  
HETATM    8  C   UNL     1     -10.524  10.675  69.014  1.00  0.00    -0.214 C  
HETATM    9  C   UNL     1     -10.497  12.905  67.527  1.00  0.00    -0.223 A  
HETATM   10  C   UNL     1     -10.528  11.529  67.784  1.00  0.00    -0.216 A  
HETATM   11  C   UNL     1     -10.513  10.632  66.718  1.00  0.00    -0.303 A  
HETATM   12  O   UNL     1     -10.715   8.292  66.541  1.00  0.00    -0.090 OA 
BRANCH   9  13
HETATM   13  N   UNL     1     -10.558  13.870  68.553  1.00  0.00    -0.247 NA 
HETATM   14  H   UNL     1      -9.677  14.288  68.849  1.00  0.00     0.000 HD 
BRANCH  13  15
HETATM   15  C   UNL     1     -11.632  14.272  69.152  1.00  0.00    -0.305 C  
HETATM   16  C   UNL     1     -12.417  13.774  70.331  1.00  0.00    -0.384 C  
HETATM   17  O   UNL     1     -12.230  15.354  68.625  1.00  0.00    -0.569 OA 
HETATM   18  H   UNL     1     -13.018  15.649  69.065  1.00  0.00     0.000 HD 
ENDBRANCH  13  15
ENDBRANCH   9  13
ENDBRANCH   1   2
BRANCH   1  19
HETATM   19  C   UNL     1      -9.358   7.119  69.063  1.00  0.00    -0.140 A  
HETATM   20  C   UNL     1      -8.086   7.579  68.703  1.00  0.00    -0.124 A  
HETATM   21  C   UNL     1      -7.125   5.378  69.079  1.00  0.00    -0.057 A  
HETATM   22  C   UNL     1      -9.518   5.736  69.321  1.00  0.00    -0.159 A  
HETATM   23  C   UNL     1      -6.982   6.721  68.718  1.00  0.00    -0.079 A  
HETATM   24  C   UNL     1      -8.412   4.866  69.336  1.00  0.00    -0.087 A  
BRANCH  24  25
HETATM   25  O   UNL     1      -8.464   3.527  69.637  1.00  0.00    -0.058 OA 
BRANCH  25  26
HETATM   26  C   UNL     1      -9.557   3.032  70.403  1.00  0.00    -0.100 C  
HETATM   27  C   UNL     1      -9.126   2.962  71.862  1.00  0.00    -0.148 C  
ENDBRANCH  25  26
ENDBRANCH  24  25
BRANCH  21  28
HETATM   28  O   UNL     1      -6.076   4.502  69.217  1.00  0.00    -0.024 OA 
HETATM   29  C   UNL     1      -5.131   4.442  68.156  1.00  0.00    -0.007 C  
ENDBRANCH  21  28
ENDBRANCH   1  19
BRANCH   1  30
HETATM   30  C   UNL     1     -10.594   8.260  70.904  1.00  0.00    -0.207 C  
BRANCH  30  31
HETATM   31  S   UNL     1     -11.939   7.399  71.677  1.00  0.00    -0.324 S  
HETATM   32  O   UNL     1     -12.506   8.312  72.651  1.00  0.00    -0.308 OA 
HETATM   33  C   UNL     1     -11.236   6.052  72.600  1.00  0.00    -0.285 C  
HETATM   34  O   UNL     1     -12.774   6.824  70.642  1.00  0.00    -0.206 OA 
ENDBRANCH  30  31
ENDBRANCH   1  30
TORSDOF 9
ENDMDL
MODEL      193
REMARK 921   NORMALIZED FREE ENERGY PREDICTED BY IDOCK:   -4.08 KCAL/MOL
REMARK 922        TOTAL FREE ENERGY PREDICTED BY IDOCK:   -7.29 KCAL/MOL
REMARK 923 INTER-LIGAND FREE ENERGY PREDICTED BY IDOCK:   -8.84 KCAL/MOL
REMARK 924 INTRA-LIGAND FREE ENERGY PREDICTED BY IDOCK:    1.55 KCAL/MOL
REMARK 927      BINDING AFFINITY PREDICTED BY RF-SCORE:    0.00 PKD
ROOT
HETATM    1  C   UNL     1      -9.575  12.230  67.193  1.00  0.00    -0.200 C  
ENDROOT
BRANCH   1   2
HETATM    2  N   UNL     1     -10.483  12.146  68.349  1.00  0.00    -0.226 N  
HETATM    3  C   UNL     1     -12.208  10.147  70.798  1.00  0.00    -0.434 A  
HETATM    4  C   UNL     1     -13.139  10.554  71.739  1.00  0.00    -0.570 A  
HETATM    5  O   UNL     1     -11.030  14.348  68.873  1.00  0.00    -0.238 OA 
HETATM    6  C   UNL     1     -13.409  11.924  71.911  1.00  0.00    -0.405 A  
HETATM    7  C   UNL     1     -10.678  10.937  68.950  1.00  0.00    -0.215 C  
HETATM    8  C   UNL     1     -11.093  13.152  69.079  1.00  0.00    -0.234 C  
HETATM    9  C   UNL     1     -12.729  12.936  71.193  1.00  0.00    -0.276 A  
HETATM   10  C   UNL     1     -11.862  12.496  70.184  1.00  0.00    -0.336 A  
HETATM   11  C   UNL     1     -11.614  11.133  70.041  1.00  0.00    -0.421 A  
HETATM   12  O   UNL     1     -10.165   9.864  68.683  1.00  0.00    -0.165 OA 
BRANCH   9  13
HETATM   13  N   UNL     1     -12.989  14.302  71.426  1.00  0.00    -0.324 NA 
HETATM   14  H   UNL     1     -13.764  14.721  70.911  1.00  0.00     0.000 HD 
BRANCH  13  15
HETATM   15  C   UNL     1     -12.334  15.070  72.234  1.00  0.00    -0.353 C  
HETATM   16  C   UNL     1     -12.696  15.823  73.481  1.00  0.00    -0.696 C  
HETATM   17  O   UNL     1     -11.048  15.299  71.915  1.00  0.00    -0.501 OA 
HETATM   18  H   UNL     1     -10.567  15.863  72.509  1.00  0.00     0.000 HD 
ENDBRANCH  13  15
ENDBRANCH   9  13
ENDBRANCH   1   2
BRANCH   1  19
HETATM   19  C   UNL     1      -9.087  10.873  66.652  1.00  0.00    -0.175 A  
HETATM   20  C   UNL     1      -9.718  10.271  65.557  1.00  0.00    -0.326 A  
HETATM   21  C   UNL     1      -7.856   8.737  65.260  1.00  0.00    -0.109 A  
HETATM   22  C   UNL     1      -7.874  10.309  67.115  1.00  0.00    -0.110 A  
HETATM   23  C   UNL     1      -9.105   9.220  64.865  1.00  0.00    -0.227 A  
HETATM   24  C   UNL     1      -7.253   9.251  66.425  1.00  0.00    -0.088 A  
BRANCH  24  25
HETATM   25  O   UNL     1      -6.048   8.685  66.764  1.00  0.00    -0.055 OA 
BRANCH  25  26
HETATM   26  C   UNL     1      -6.023   7.341  67.234  1.00  0.00    -0.041 C  
HETATM   27  C   UNL     1      -5.160   7.290  68.488  1.00  0.00    -0.020 C  
ENDBRANCH  25  26
ENDBRANCH  24  25
BRANCH  21  28
HETATM   28  O   UNL     1      -7.147   7.781  64.572  1.00  0.00    -0.061 OA 
HETATM   29  C   UNL     1      -7.877   6.927  63.701  1.00  0.00    -0.107 C  
ENDBRANCH  21  28
ENDBRANCH   1  19
BRANCH   1  30
HETATM   30  C   UNL     1     -10.039  13.087  66.015  1.00  0.00    -0.284 C  
BRANCH  30  31
HETATM   31  S   UNL     1     -11.771  13.006  65.636  1.00  0.00    -0.398 S  
HETATM   32  O   UNL     1     -12.255  11.757  66.192  1.00  0.00    -0.336 OA 
HETATM   33  C   UNL     1     -11.915  12.859  63.871  1.00  0.00    -0.480 C  
HETATM   34  O   UNL     1     -12.385  14.261  66.017  1.00  0.00    -0.432 OA 
ENDBRANCH  30  31
ENDBRANCH   1  30
TORSDOF 9
ENDMDL
MODEL      194
REMARK 921   NORMALIZED FREE ENERGY PREDICTED BY IDOCK:   -4.07 KCAL/MOL
REMARK 922        TOTAL FREE ENERGY PREDICTED BY IDOCK:   -7.27 KCAL/MOL
REMARK 923 INTER-LIGAND FREE ENERGY PREDICTED BY IDOCK:   -5.74 KCAL/MOL
REMARK 924 INTRA-LIGAND FREE ENERGY PREDICTED BY IDOCK:   -1.53 KCAL/MOL
REMARK 927      BINDING AFFINITY PREDICTED BY RF-SCORE:    0.00 PKD
ROOT
HETATM    1  C   UNL     1      -8.331   8.466  66.899  1.00  0.00    -0.106 C  
ENDROOT
BRANCH   1   2
HETATM    2  N   UNL     1      -8.229   9.886  67.277  1.00  0.00    -0.120 N  
HETATM    3  C   UNL     1      -6.226  12.660  68.399  1.00  0.00    -0.067 A  
HETATM    4  C   UNL     1      -6.639  13.935  68.744  1.00  0.00    -0.098 A  
HETATM    5  O   UNL     1     -10.359  10.771  66.954  1.00  0.00    -0.221 OA 
HETATM    6  C   UNL     1      -7.978  14.317  68.541  1.00  0.00    -0.145 A  
HETATM    7  C   UNL     1      -7.000  10.411  67.547  1.00  0.00    -0.084 C  
HETATM    8  C   UNL     1      -9.187  10.885  67.258  1.00  0.00    -0.151 C  
HETATM    9  C   UNL     1      -8.936  13.465  67.943  1.00  0.00    -0.201 A  
HETATM   10  C   UNL     1      -8.518  12.153  67.688  1.00  0.00    -0.163 A  
HETATM   11  C   UNL     1      -7.184  11.807  67.897  1.00  0.00    -0.092 A  
HETATM   12  O   UNL     1      -5.911   9.866  67.492  1.00  0.00    -0.052 OA 
BRANCH   9  13
HETATM   13  N   UNL     1     -10.257  13.897  67.709  1.00  0.00    -0.234 NA 
HETATM   14  H   UNL     1     -10.569  13.936  66.739  1.00  0.00     0.000 HD 
BRANCH  13  15
HETATM   15  C   UNL     1     -11.110  14.250  68.616  1.00  0.00    -0.253 C  
HETATM   16  C   UNL     1     -11.865  15.515  68.903  1.00  0.00    -0.357 C  
HETATM   17  O   UNL     1     -11.397  13.322  69.545  1.00  0.00    -0.375 OA 
HETATM   18  H   UNL     1     -12.023  13.581  70.211  1.00  0.00     0.000 HD 
ENDBRANCH  13  15
ENDBRANCH   9  13
ENDBRANCH   1   2
BRANCH   1  19
HETATM   19  C   UNL     1      -9.043   7.570  67.930  1.00  0.00    -0.130 A  
HETATM   20  C   UNL     1      -8.632   6.248  68.135  1.00  0.00    -0.116 A  
HETATM   21  C   UNL     1      -9.892   6.120  70.209  1.00  0.00    -0.169 A  
HETATM   22  C   UNL     1      -9.986   8.121  68.831  1.00  0.00    -0.198 A  
HETATM   23  C   UNL     1      -9.046   5.535  69.265  1.00  0.00    -0.132 A  
HETATM   24  C   UNL     1     -10.408   7.409  69.969  1.00  0.00    -0.219 A  
BRANCH  24  25
HETATM   25  O   UNL     1     -11.268   7.887  70.927  1.00  0.00    -0.262 OA 
BRANCH  25  26
HETATM   26  C   UNL     1     -10.988   9.138  71.547  1.00  0.00    -0.364 C  
HETATM   27  C   UNL     1     -12.265   9.967  71.547  1.00  0.00    -0.496 C  
ENDBRANCH  25  26
ENDBRANCH  24  25
BRANCH  21  28
HETATM   28  O   UNL     1     -10.258   5.523  71.392  1.00  0.00    -0.199 OA 
HETATM   29  C   UNL     1      -9.959   4.141  71.545  1.00  0.00    -0.160 C  
ENDBRANCH  21  28
ENDBRANCH   1  19
BRANCH   1  30
HETATM   30  C   UNL     1      -8.902   8.163  65.513  1.00  0.00    -0.089 C  
BRANCH  30  31
HETATM   31  S   UNL     1      -7.815   8.474  64.146  1.00  0.00    -0.150 S  
HETATM   32  O   UNL     1      -6.464   8.396  64.668  1.00  0.00    -0.064 OA 
HETATM   33  C   UNL     1      -8.065  10.164  63.652  1.00  0.00    -0.163 C  
HETATM   34  O   UNL     1      -8.218   7.635  63.036  1.00  0.00    -0.105 OA 
ENDBRANCH  30  31
ENDBRANCH   1  30
TORSDOF 9
ENDMDL
MODEL      195
REMARK 921   NORMALIZED FREE ENERGY PREDICTED BY IDOCK:   -4.07 KCAL/MOL
REMARK 922        TOTAL FREE ENERGY PREDICTED BY IDOCK:   -7.27 KCAL/MOL
REMARK 923 INTER-LIGAND FREE ENERGY PREDICTED BY IDOCK:   -6.55 KCAL/MOL
REMARK 924 INTRA-LIGAND FREE ENERGY PREDICTED BY IDOCK:   -0.72 KCAL/MOL
REMARK 927      BINDING AFFINITY PREDICTED BY RF-SCORE:    0.00 PKD
ROOT
HETATM    1  C   UNL     1     -11.563  12.349  69.014  1.00  0.00    -0.311 C  
ENDROOT
BRANCH   1   2
HETATM    2  N   UNL     1     -11.329  13.504  68.132  1.00  0.00    -0.268 N  
HETATM    3  C   UNL     1     -11.740  15.090  64.924  1.00  0.00    -0.336 A  
HETATM    4  C   UNL     1     -11.200  16.284  64.480  1.00  0.00    -0.218 A  
HETATM    5  O   UNL     1     -10.199  15.067  69.437  1.00  0.00    -0.234 OA 
HETATM    6  C   UNL     1     -10.491  17.108  65.373  1.00  0.00    -0.096 A  
HETATM    7  C   UNL     1     -11.909  13.521  66.898  1.00  0.00    -0.407 C  
HETATM    8  C   UNL     1     -10.720  14.720  68.395  1.00  0.00    -0.243 C  
HETATM    9  C   UNL     1     -10.338  16.799  66.746  1.00  0.00    -0.293 A  
HETATM   10  C   UNL     1     -10.812  15.544  67.148  1.00  0.00    -0.316 A  
HETATM   11  C   UNL     1     -11.513  14.752  66.240  1.00  0.00    -0.316 A  
HETATM   12  O   UNL     1     -12.656  12.699  66.397  1.00  0.00    -0.307 OA 
BRANCH   9  13
HETATM   13  N   UNL     1      -9.664  17.671  67.623  1.00  0.00    -0.271 NA 
HETATM   14  H   UNL     1      -8.781  17.344  68.016  1.00  0.00     0.000 HD 
BRANCH  13  15
HETATM   15  C   UNL     1     -10.064  18.850  67.975  1.00  0.00    -0.377 C  
HETATM   16  C   UNL     1     -10.378  20.112  67.226  1.00  0.00    -0.494 C  
HETATM   17  O   UNL     1     -10.223  19.047  69.295  1.00  0.00    -0.530 OA 
HETATM   18  H   UNL     1     -10.517  19.913  69.554  1.00  0.00     0.000 HD 
ENDBRANCH  13  15
ENDBRANCH   9  13
ENDBRANCH   1   2
BRANCH   1  19
HETATM   19  C   UNL     1     -10.682  11.120  68.720  1.00  0.00    -0.236 A  
HETATM   20  C   UNL     1     -11.013  10.231  67.691  1.00  0.00    -0.356 A  
HETATM   21  C   UNL     1      -8.794   9.243  67.757  1.00  0.00    -0.120 A  
HETATM   22  C   UNL     1      -9.419  10.975  69.344  1.00  0.00     0.123 A  
HETATM   23  C   UNL     1     -10.078   9.309  67.211  1.00  0.00    -0.291 A  
HETATM   24  C   UNL     1      -8.474  10.049  68.867  1.00  0.00    -0.132 A  
BRANCH  24  25
HETATM   25  O   UNL     1      -7.205   9.884  69.367  1.00  0.00    -0.067 OA 
BRANCH  25  26
HETATM   26  C   UNL     1      -6.270  10.951  69.247  1.00  0.00    -0.055 C  
HETATM   27  C   UNL     1      -5.535  11.093  70.572  1.00  0.00    -0.124 C  
ENDBRANCH  25  26
ENDBRANCH  24  25
BRANCH  21  28
HETATM   28  O   UNL     1      -7.791   8.438  67.272  1.00  0.00    -0.096 OA 
HETATM   29  C   UNL     1      -7.962   7.032  67.400  1.00  0.00    -0.112 C  
ENDBRANCH  21  28
ENDBRANCH   1  19
BRANCH   1  30
HETATM   30  C   UNL     1     -11.538  12.618  70.520  1.00  0.00     0.344 C  
BRANCH  30  31
HETATM   31  S   UNL     1     -12.903  13.555  71.159  1.00  0.00    -0.270 S  
HETATM   32  O   UNL     1     -13.439  14.312  70.044  1.00  0.00     0.446 OA 
HETATM   33  C   UNL     1     -12.234  14.745  72.298  1.00  0.00    -0.298 C  
HETATM   34  O   UNL     1     -13.758  12.665  71.916  1.00  0.00    -0.290 OA 
ENDBRANCH  30  31
ENDBRANCH   1  30
TORSDOF 9
ENDMDL
MODEL      196
REMARK 921   NORMALIZED FREE ENERGY PREDICTED BY IDOCK:   -4.07 KCAL/MOL
REMARK 922        TOTAL FREE ENERGY PREDICTED BY IDOCK:   -7.27 KCAL/MOL
REMARK 923 INTER-LIGAND FREE ENERGY PREDICTED BY IDOCK:   -6.79 KCAL/MOL
REMARK 924 INTRA-LIGAND FREE ENERGY PREDICTED BY IDOCK:   -0.48 KCAL/MOL
REMARK 927      BINDING AFFINITY PREDICTED BY RF-SCORE:    0.00 PKD
ROOT
HETATM    1  C   UNL     1     -10.077   9.463  67.329  1.00  0.00    -0.226 C  
ENDROOT
BRANCH   1   2
HETATM    2  N   UNL     1     -10.570  10.796  66.943  1.00  0.00    -0.253 N  
HETATM    3  C   UNL     1     -11.405  13.166  64.363  1.00  0.00    -0.400 A  
HETATM    4  C   UNL     1     -11.790  14.488  64.502  1.00  0.00    -0.459 A  
HETATM    5  O   UNL     1     -11.111  11.863  68.941  1.00  0.00    -0.221 OA 
HETATM    6  C   UNL     1     -12.033  15.017  65.783  1.00  0.00     0.051 A  
HETATM    7  C   UNL     1     -10.768  11.070  65.622  1.00  0.00    -0.148 C  
HETATM    8  C   UNL     1     -11.046  11.833  67.727  1.00  0.00    -0.243 C  
HETATM    9  C   UNL     1     -11.950  14.238  66.962  1.00  0.00    -0.433 A  
HETATM   10  C   UNL     1     -11.469  12.932  66.803  1.00  0.00    -0.391 A  
HETATM   11  C   UNL     1     -11.241  12.438  65.521  1.00  0.00    -0.364 A  
HETATM   12  O   UNL     1     -10.622  10.333  64.661  1.00  0.00    -0.066 OA 
BRANCH   9  13
HETATM   13  N   UNL     1     -12.248  14.788  68.226  1.00  0.00    -0.591 NA 
HETATM   14  H   UNL     1     -13.215  14.722  68.544  1.00  0.00     0.000 HD 
BRANCH  13  15
HETATM   15  C   UNL     1     -11.405  15.367  69.017  1.00  0.00    -0.316 C  
HETATM   16  C   UNL     1     -10.894  16.773  69.149  1.00  0.00    -0.287 C  
HETATM   17  O   UNL     1     -10.806  14.573  69.921  1.00  0.00    -0.418 OA 
HETATM   18  H   UNL     1     -10.186  14.999  70.502  1.00  0.00     0.000 HD 
ENDBRANCH  13  15
ENDBRANCH   9  13
ENDBRANCH   1   2
BRANCH   1  19
HETATM   19  C   UNL     1      -9.006   8.872  66.393  1.00  0.00    -0.193 A  
HETATM   20  C   UNL     1      -7.888   9.626  66.017  1.00  0.00    -0.102 A  
HETATM   21  C   UNL     1      -6.748   7.636  65.213  1.00  0.00    -0.044 A  
HETATM   22  C   UNL     1      -9.023   7.496  66.060  1.00  0.00    -0.164 A  
HETATM   23  C   UNL     1      -6.771   9.014  65.441  1.00  0.00    -0.072 A  
HETATM   24  C   UNL     1      -7.903   6.874  65.478  1.00  0.00    -0.112 A  
BRANCH  24  25
HETATM   25  O   UNL     1      -7.807   5.537  65.180  1.00  0.00    -0.088 OA 
BRANCH  25  26
HETATM   26  C   UNL     1      -8.551   5.018  64.082  1.00  0.00    -0.125 C  
HETATM   27  C   UNL     1      -9.409   3.866  64.588  1.00  0.00    -0.156 C  
ENDBRANCH  25  26
ENDBRANCH  24  25
BRANCH  21  28
HETATM   28  O   UNL     1      -5.652   6.950  64.748  1.00  0.00    -0.030 OA 
HETATM   29  C   UNL     1      -5.203   7.250  63.432  1.00  0.00    -0.033 C  
ENDBRANCH  21  28
ENDBRANCH   1  19
BRANCH   1  30
HETATM   30  C   UNL     1      -9.607   9.297  68.775  1.00  0.00    -0.154 C  
BRANCH  30  31
HETATM   31  S   UNL     1     -10.296   7.920  69.657  1.00  0.00    -0.218 S  
HETATM   32  O   UNL     1     -10.976   7.100  68.672  1.00  0.00    -0.144 OA 
HETATM   33  C   UNL     1     -11.558   8.565  70.730  1.00  0.00    -0.231 C  
HETATM   34  O   UNL     1      -9.265   7.348  70.497  1.00  0.00    -0.157 OA 
ENDBRANCH  30  31
ENDBRANCH   1  30
TORSDOF 9
ENDMDL
MODEL      197
REMARK 921   NORMALIZED FREE ENERGY PREDICTED BY IDOCK:   -4.06 KCAL/MOL
REMARK 922        TOTAL FREE ENERGY PREDICTED BY IDOCK:   -7.25 KCAL/MOL
REMARK 923 INTER-LIGAND FREE ENERGY PREDICTED BY IDOCK:   -5.23 KCAL/MOL
REMARK 924 INTRA-LIGAND FREE ENERGY PREDICTED BY IDOCK:   -2.02 KCAL/MOL
REMARK 927      BINDING AFFINITY PREDICTED BY RF-SCORE:    0.00 PKD
ROOT
HETATM    1  C   UNL     1     -11.296  12.794  68.905  1.00  0.00    -0.296 C  
ENDROOT
BRANCH   1   2
HETATM    2  N   UNL     1     -10.717  14.070  68.450  1.00  0.00    -0.244 N  
HETATM    3  C   UNL     1     -10.766  16.862  66.176  1.00  0.00    -0.109 A  
HETATM    4  C   UNL     1      -9.853  17.897  66.065  1.00  0.00    -0.180 A  
HETATM    5  O   UNL     1      -8.973  14.523  69.925  1.00  0.00     0.454 OA 
HETATM    6  C   UNL     1      -8.812  18.017  67.004  1.00  0.00    -0.259 A  
HETATM    7  C   UNL     1     -11.350  14.769  67.465  1.00  0.00    -0.344 C  
HETATM    8  C   UNL     1      -9.673  14.813  68.974  1.00  0.00    -0.190 C  
HETATM    9  C   UNL     1      -8.673  17.145  68.110  1.00  0.00    -0.232 A  
HETATM   10  C   UNL     1      -9.551  16.055  68.148  1.00  0.00    -0.209 A  
HETATM   11  C   UNL     1     -10.573  15.967  67.205  1.00  0.00    -0.314 A  
HETATM   12  O   UNL     1     -12.393  14.503  66.893  1.00  0.00    -0.319 OA 
BRANCH   9  13
HETATM   13  N   UNL     1      -7.646  17.324  69.059  1.00  0.00    -0.221 NA 
HETATM   14  H   UNL     1      -7.815  17.999  69.805  1.00  0.00     0.000 HD 
BRANCH  13  15
HETATM   15  C   UNL     1      -6.508  16.708  69.069  1.00  0.00    -0.190 C  
HETATM   16  C   UNL     1      -5.290  16.754  68.193  1.00  0.00    -0.117 C  
HETATM   17  O   UNL     1      -6.340  15.797  70.043  1.00  0.00    -0.168 OA 
HETATM   18  H   UNL     1      -5.505  15.345  70.050  1.00  0.00     0.000 HD 
ENDBRANCH  13  15
ENDBRANCH   9  13
ENDBRANCH   1   2
BRANCH   1  19
HETATM   19  C   UNL     1     -10.615  11.535  68.337  1.00  0.00    -0.227 A  
HETATM   20  C   UNL     1     -11.275  10.720  67.410  1.00  0.00    -0.315 A  
HETATM   21  C   UNL     1      -9.195   9.607  66.826  1.00  0.00    -0.149 A  
HETATM   22  C   UNL     1      -9.242  11.288  68.582  1.00  0.00    -0.163 A  
HETATM   23  C   UNL     1     -10.572   9.773  66.659  1.00  0.00    -0.178 A  
HETATM   24  C   UNL     1      -8.529  10.335  67.831  1.00  0.00    -0.118 A  
BRANCH  24  25
HETATM   25  O   UNL     1      -7.186  10.074  67.956  1.00  0.00    -0.081 OA 
BRANCH  25  26
HETATM   26  C   UNL     1      -6.266  11.162  67.944  1.00  0.00    -0.053 C  
HETATM   27  C   UNL     1      -5.966  11.518  66.494  1.00  0.00    -0.101 C  
ENDBRANCH  25  26
ENDBRANCH  24  25
BRANCH  21  28
HETATM   28  O   UNL     1      -8.420   8.773  66.056  1.00  0.00    -0.121 OA 
HETATM   29  C   UNL     1      -8.246   9.121  64.688  1.00  0.00    -0.152 C  
ENDBRANCH  21  28
ENDBRANCH   1  19
BRANCH   1  30
HETATM   30  C   UNL     1     -11.470  12.617  70.414  1.00  0.00     0.388 C  
BRANCH  30  31
HETATM   31  S   UNL     1     -12.422  13.870  71.233  1.00  0.00    -0.335 S  
HETATM   32  O   UNL     1     -11.480  14.676  71.986  1.00  0.00    -0.129 OA 
HETATM   33  C   UNL     1     -13.448  13.048  72.430  1.00  0.00    -0.515 C  
HETATM   34  O   UNL     1     -13.302  14.489  70.263  1.00  0.00    -0.038 OA 
ENDBRANCH  30  31
ENDBRANCH   1  30
TORSDOF 9
ENDMDL
MODEL      198
REMARK 921   NORMALIZED FREE ENERGY PREDICTED BY IDOCK:   -4.05 KCAL/MOL
REMARK 922        TOTAL FREE ENERGY PREDICTED BY IDOCK:   -7.23 KCAL/MOL
REMARK 923 INTER-LIGAND FREE ENERGY PREDICTED BY IDOCK:   -7.23 KCAL/MOL
REMARK 924 INTRA-LIGAND FREE ENERGY PREDICTED BY IDOCK:   -0.01 KCAL/MOL
REMARK 927      BINDING AFFINITY PREDICTED BY RF-SCORE:    0.00 PKD
ROOT
HETATM    1  C   UNL     1     -10.807  12.146  68.661  1.00  0.00    -0.235 C  
ENDROOT
BRANCH   1   2
HETATM    2  N   UNL     1     -10.769  11.024  69.614  1.00  0.00    -0.191 N  
HETATM    3  C   UNL     1     -12.492   8.831  71.894  1.00  0.00    -0.434 A  
HETATM    4  C   UNL     1     -11.955   7.872  72.736  1.00  0.00    -0.223 A  
HETATM    5  O   UNL     1      -8.560  10.284  69.618  1.00  0.00    -0.170 OA 
HETATM    6  C   UNL     1     -10.584   7.564  72.663  1.00  0.00    -0.338 A  
HETATM    7  C   UNL     1     -11.941  10.556  70.131  1.00  0.00    -0.316 C  
HETATM    8  C   UNL     1      -9.716  10.205  69.987  1.00  0.00    -0.093 C  
HETATM    9  C   UNL     1      -9.713   8.160  71.720  1.00  0.00    -0.191 A  
HETATM   10  C   UNL     1     -10.258   9.191  70.945  1.00  0.00    -0.351 A  
HETATM   11  C   UNL     1     -11.620   9.470  71.038  1.00  0.00    -0.419 A  
HETATM   12  O   UNL     1     -13.078  10.922  69.891  1.00  0.00    -0.049 OA 
BRANCH   9  13
HETATM   13  N   UNL     1      -8.354   7.791  71.643  1.00  0.00    -0.106 NA 
HETATM   14  H   UNL     1      -7.707   8.271  72.268  1.00  0.00     0.000 HD 
BRANCH  13  15
HETATM   15  C   UNL     1      -7.855   6.900  70.849  1.00  0.00    -0.097 C  
HETATM   16  C   UNL     1      -6.960   5.711  71.047  1.00  0.00    -0.065 C  
HETATM   17  O   UNL     1      -8.154   7.040  69.546  1.00  0.00    -0.125 OA 
HETATM   18  H   UNL     1      -7.787   6.385  68.964  1.00  0.00     0.000 HD 
ENDBRANCH  13  15
ENDBRANCH   9  13
ENDBRANCH   1   2
BRANCH   1  19
HETATM   19  C   UNL     1     -10.830  11.735  67.177  1.00  0.00    -0.303 A  
HETATM   20  C   UNL     1     -11.863  12.159  66.333  1.00  0.00    -0.321 A  
HETATM   21  C   UNL     1     -10.583  11.533  64.363  1.00  0.00    -0.334 A  
HETATM   22  C   UNL     1      -9.711  11.095  66.590  1.00  0.00    -0.224 A  
HETATM   23  C   UNL     1     -11.737  12.066  64.943  1.00  0.00    -0.321 A  
HETATM   24  C   UNL     1      -9.579  10.997  65.193  1.00  0.00    -0.237 A  
BRANCH  24  25
HETATM   25  O   UNL     1      -8.502  10.452  64.537  1.00  0.00    -0.174 OA 
BRANCH  25  26
HETATM   26  C   UNL     1      -7.371  10.031  65.294  1.00  0.00    -0.137 C  
HETATM   27  C   UNL     1      -7.309   8.510  65.252  1.00  0.00    -0.084 C  
ENDBRANCH  25  26
ENDBRANCH  24  25
BRANCH  21  28
HETATM   28  O   UNL     1     -10.343  11.503  63.010  1.00  0.00    -0.322 OA 
HETATM   29  C   UNL     1      -9.821  10.298  62.466  1.00  0.00     0.107 C  
ENDBRANCH  21  28
ENDBRANCH   1  19
BRANCH   1  30
HETATM   30  C   UNL     1     -11.884  13.206  68.891  1.00  0.00    -0.320 C  
BRANCH  30  31
HETATM   31  S   UNL     1     -11.301  14.871  69.078  1.00  0.00    -0.312 S  
HETATM   32  O   UNL     1      -9.940  14.777  69.569  1.00  0.00    -0.141 OA 
HETATM   33  C   UNL     1     -12.254  15.617  70.380  1.00  0.00    -0.395 C  
HETATM   34  O   UNL     1     -11.590  15.600  67.860  1.00  0.00    -0.305 OA 
ENDBRANCH  30  31
ENDBRANCH   1  30
TORSDOF 9
ENDMDL
MODEL      199
REMARK 921   NORMALIZED FREE ENERGY PREDICTED BY IDOCK:   -4.05 KCAL/MOL
REMARK 922        TOTAL FREE ENERGY PREDICTED BY IDOCK:   -7.23 KCAL/MOL
REMARK 923 INTER-LIGAND FREE ENERGY PREDICTED BY IDOCK:   -6.60 KCAL/MOL
REMARK 924 INTRA-LIGAND FREE ENERGY PREDICTED BY IDOCK:   -0.63 KCAL/MOL
REMARK 927      BINDING AFFINITY PREDICTED BY RF-SCORE:    0.00 PKD
ROOT
HETATM    1  C   UNL     1      -8.762   7.717  67.300  1.00  0.00    -0.128 C  
ENDROOT
BRANCH   1   2
HETATM    2  N   UNL     1      -8.545   8.532  66.093  1.00  0.00    -0.130 N  
HETATM    3  C   UNL     1      -6.329   9.738  63.523  1.00  0.00    -0.116 A  
HETATM    4  C   UNL     1      -6.586  10.673  62.534  1.00  0.00    -0.107 A  
HETATM    5  O   UNL     1     -10.627   9.430  65.565  1.00  0.00     0.438 OA 
HETATM    6  C   UNL     1      -7.891  11.171  62.364  1.00  0.00    -0.073 A  
HETATM    7  C   UNL     1      -7.334   8.476  65.467  1.00  0.00    -0.084 C  
HETATM    8  C   UNL     1      -9.443   9.269  65.340  1.00  0.00    -0.210 C  
HETATM    9  C   UNL     1      -8.990  10.722  63.133  1.00  0.00    -0.237 A  
HETATM   10  C   UNL     1      -8.688   9.848  64.185  1.00  0.00    -0.224 A  
HETATM   11  C   UNL     1      -7.386   9.370  64.325  1.00  0.00    -0.109 A  
HETATM   12  O   UNL     1      -6.362   7.797  65.749  1.00  0.00    -0.041 OA 
BRANCH   9  13
HETATM   13  N   UNL     1     -10.293  11.207  62.902  1.00  0.00    -0.739 NA 
HETATM   14  H   UNL     1     -10.790  10.837  62.092  1.00  0.00     0.000 HD 
BRANCH  13  15
HETATM   15  C   UNL     1     -10.916  12.080  63.627  1.00  0.00    -0.448 C  
HETATM   16  C   UNL     1     -12.361  12.330  63.947  1.00  0.00    -0.606 C  
HETATM   17  O   UNL     1     -10.145  13.005  64.225  1.00  0.00    -0.587 OA 
HETATM   18  H   UNL     1     -10.602  13.645  64.756  1.00  0.00     0.000 HD 
ENDBRANCH  13  15
ENDBRANCH   9  13
ENDBRANCH   1   2
BRANCH   1  19
HETATM   19  C   UNL     1      -9.798   8.286  68.288  1.00  0.00    -0.192 A  
HETATM   20  C   UNL     1     -10.376   7.470  69.267  1.00  0.00    -0.209 A  
HETATM   21  C   UNL     1     -11.199   9.411  70.476  1.00  0.00    -0.275 A  
HETATM   22  C   UNL     1     -10.033   9.681  68.360  1.00  0.00    -0.178 A  
HETATM   23  C   UNL     1     -11.062   8.027  70.351  1.00  0.00    -0.238 A  
HETATM   24  C   UNL     1     -10.723  10.247  69.447  1.00  0.00    -0.241 A  
BRANCH  24  25
HETATM   25  O   UNL     1     -10.942  11.591  69.631  1.00  0.00    -0.181 OA 
BRANCH  25  26
HETATM   26  C   UNL     1     -10.953  12.452  68.497  1.00  0.00    -0.245 C  
HETATM   27  C   UNL     1     -12.105  13.435  68.655  1.00  0.00    -0.281 C  
ENDBRANCH  25  26
ENDBRANCH  24  25
BRANCH  21  28
HETATM   28  O   UNL     1     -11.767  10.035  71.561  1.00  0.00    -0.365 OA 
HETATM   29  C   UNL     1     -12.720   9.296  72.315  1.00  0.00    -0.363 C  
ENDBRANCH  21  28
ENDBRANCH   1  19
BRANCH   1  30
HETATM   30  C   UNL     1      -9.057   6.233  67.084  1.00  0.00    -0.119 C  
BRANCH  30  31
HETATM   31  S   UNL     1      -7.860   5.102  67.744  1.00  0.00    -0.091 S  
HETATM   32  O   UNL     1      -6.841   5.912  68.385  1.00  0.00    -0.061 OA 
HETATM   33  C   UNL     1      -7.072   4.308  66.362  1.00  0.00    -0.067 C  
HETATM   34  O   UNL     1      -8.557   4.077  68.493  1.00  0.00    -0.089 OA 
ENDBRANCH  30  31
ENDBRANCH   1  30
TORSDOF 9
ENDMDL
MODEL      200
REMARK 921   NORMALIZED FREE ENERGY PREDICTED BY IDOCK:   -4.03 KCAL/MOL
REMARK 922        TOTAL FREE ENERGY PREDICTED BY IDOCK:   -7.21 KCAL/MOL
REMARK 923 INTER-LIGAND FREE ENERGY PREDICTED BY IDOCK:   -5.77 KCAL/MOL
REMARK 924 INTRA-LIGAND FREE ENERGY PREDICTED BY IDOCK:   -1.44 KCAL/MOL
REMARK 927      BINDING AFFINITY PREDICTED BY RF-SCORE:    0.00 PKD
ROOT
HETATM    1  C   UNL     1      -8.447   9.854  66.926  1.00  0.00    -0.125 C  
ENDROOT
BRANCH   1   2
HETATM    2  N   UNL     1      -8.505  11.279  67.289  1.00  0.00    -0.140 N  
HETATM    3  C   UNL     1      -6.827  14.429  67.769  1.00  0.00    -0.194 A  
HETATM    4  C   UNL     1      -7.344  15.612  68.267  1.00  0.00    -0.117 A  
HETATM    5  O   UNL     1     -10.753  11.722  67.710  1.00  0.00    -0.193 OA 
HETATM    6  C   UNL     1      -8.723  15.720  68.527  1.00  0.00    -0.184 A  
HETATM    7  C   UNL     1      -7.383  12.042  67.156  1.00  0.00    -0.134 C  
HETATM    8  C   UNL     1      -9.592  12.073  67.614  1.00  0.00    -0.188 C  
HETATM    9  C   UNL     1      -9.639  14.676  68.252  1.00  0.00    -0.208 A  
HETATM   10  C   UNL     1      -9.079  13.462  67.837  1.00  0.00    -0.208 A  
HETATM   11  C   UNL     1      -7.711  13.388  67.586  1.00  0.00    -0.179 A  
HETATM   12  O   UNL     1      -6.288  11.717  66.730  1.00  0.00    -0.144 OA 
BRANCH   9  13
HETATM   13  N   UNL     1     -11.021  14.836  68.478  1.00  0.00    -0.249 NA 
HETATM   14  H   UNL     1     -11.586  15.157  67.692  1.00  0.00     0.000 HD 
BRANCH  13  15
HETATM   15  C   UNL     1     -11.637  14.612  69.594  1.00  0.00    -0.307 C  
HETATM   16  C   UNL     1     -11.958  15.452  70.795  1.00  0.00    -0.402 C  
HETATM   17  O   UNL     1     -12.083  13.357  69.777  1.00  0.00    -0.322 OA 
HETATM   18  H   UNL     1     -12.535  13.192  70.596  1.00  0.00     0.000 HD 
ENDBRANCH  13  15
ENDBRANCH   9  13
ENDBRANCH   1   2
BRANCH   1  19
HETATM   19  C   UNL     1      -8.696   8.877  68.090  1.00  0.00    -0.134 A  
HETATM   20  C   UNL     1      -8.457   9.264  69.414  1.00  0.00    -0.137 A  
HETATM   21  C   UNL     1      -9.718   7.364  70.255  1.00  0.00    -0.172 A  
HETATM   22  C   UNL     1      -9.362   7.647  67.867  1.00  0.00    -0.146 A  
HETATM   23  C   UNL     1      -8.968   8.521  70.482  1.00  0.00    -0.171 A  
HETATM   24  C   UNL     1      -9.877   6.893  68.937  1.00  0.00    -0.147 A  
BRANCH  24  25
HETATM   25  O   UNL     1     -10.589   5.725  68.812  1.00  0.00    -0.231 OA 
BRANCH  25  26
HETATM   26  C   UNL     1      -9.889   4.485  68.817  1.00  0.00    -0.110 C  
HETATM   27  C   UNL     1      -8.441   4.752  68.429  1.00  0.00    -0.096 C  
ENDBRANCH  25  26
ENDBRANCH  24  25
BRANCH  21  28
HETATM   28  O   UNL     1     -10.338   6.641  71.246  1.00  0.00    -0.203 OA 
HETATM   29  C   UNL     1     -11.572   7.141  71.745  1.00  0.00    -0.280 C  
ENDBRANCH  21  28
ENDBRANCH   1  19
BRANCH   1  30
HETATM   30  C   UNL     1      -9.292   9.414  65.730  1.00  0.00    -0.239 C  
BRANCH  30  31
HETATM   31  S   UNL     1      -8.651   9.840  64.132  1.00  0.00    -0.212 S  
HETATM   32  O   UNL     1      -7.233  10.088  64.311  1.00  0.00    -0.132 OA 
HETATM   33  C   UNL     1      -9.378  11.397  63.674  1.00  0.00    -0.131 C  
HETATM   34  O   UNL     1      -9.105   8.853  63.174  1.00  0.00     0.062 OA 
ENDBRANCH  30  31
ENDBRANCH   1  30
TORSDOF 9
ENDMDL
MODEL      201
REMARK 921   NORMALIZED FREE ENERGY PREDICTED BY IDOCK:   -4.02 KCAL/MOL
REMARK 922        TOTAL FREE ENERGY PREDICTED BY IDOCK:   -7.19 KCAL/MOL
REMARK 923 INTER-LIGAND FREE ENERGY PREDICTED BY IDOCK:   -6.93 KCAL/MOL
REMARK 924 INTRA-LIGAND FREE ENERGY PREDICTED BY IDOCK:   -0.25 KCAL/MOL
REMARK 927      BINDING AFFINITY PREDICTED BY RF-SCORE:    0.00 PKD
ROOT
HETATM    1  C   UNL     1      -8.994   8.672  68.743  1.00  0.00    -0.138 C  
ENDROOT
BRANCH   1   2
HETATM    2  N   UNL     1     -10.152   9.022  69.582  1.00  0.00    -0.190 N  
HETATM    3  C   UNL     1     -12.990   7.980  71.541  1.00  0.00    -0.326 A  
HETATM    4  C   UNL     1     -13.960   8.768  72.136  1.00  0.00    -0.522 A  
HETATM    5  O   UNL     1     -10.105  11.342  69.774  1.00  0.00     0.227 OA 
HETATM    6  C   UNL     1     -13.826  10.169  72.129  1.00  0.00    -0.047 A  
HETATM    7  C   UNL     1     -10.863   8.021  70.178  1.00  0.00    -0.242 C  
HETATM    8  C   UNL     1     -10.589  10.256  70.032  1.00  0.00    -0.269 C  
HETATM    9  C   UNL     1     -12.703  10.830  71.578  1.00  0.00    -0.431 A  
HETATM   10  C   UNL     1     -11.784  10.018  70.901  1.00  0.00    -0.462 A  
HETATM   11  C   UNL     1     -11.943   8.634  70.929  1.00  0.00    -0.220 A  
HETATM   12  O   UNL     1     -10.659   6.820  70.146  1.00  0.00    -0.202 OA 
BRANCH   9  13
HETATM   13  N   UNL     1     -12.578  12.233  71.632  1.00  0.00    -0.167 NA 
HETATM   14  H   UNL     1     -11.672  12.628  71.380  1.00  0.00     0.000 HD 
BRANCH  13  15
HETATM   15  C   UNL     1     -13.509  13.063  71.973  1.00  0.00    -0.492 C  
HETATM   16  C   UNL     1     -13.876  14.454  71.542  1.00  0.00    -0.455 C  
HETATM   17  O   UNL     1     -14.343  12.647  72.942  1.00  0.00    -0.406 OA 
HETATM   18  H   UNL     1     -15.026  13.256  73.192  1.00  0.00     0.000 HD 
ENDBRANCH  13  15
ENDBRANCH   9  13
ENDBRANCH   1   2
BRANCH   1  19
HETATM   19  C   UNL     1      -9.035   9.241  67.312  1.00  0.00    -0.136 A  
HETATM   20  C   UNL     1      -9.158   8.390  66.207  1.00  0.00    -0.241 A  
HETATM   21  C   UNL     1      -9.735  10.260  64.764  1.00  0.00    -0.332 A  
HETATM   22  C   UNL     1      -9.155  10.635  67.096  1.00  0.00    -0.154 A  
HETATM   23  C   UNL     1      -9.511   8.893  64.950  1.00  0.00     0.310 A  
HETATM   24  C   UNL     1      -9.508  11.148  65.834  1.00  0.00    -0.215 A  
BRANCH  24  25
HETATM   25  O   UNL     1      -9.708  12.477  65.548  1.00  0.00    -0.220 OA 
BRANCH  25  26
HETATM   26  C   UNL     1     -10.245  13.328  66.556  1.00  0.00    -0.283 C  
HETATM   27  C   UNL     1      -9.207  14.391  66.887  1.00  0.00    -0.269 C  
ENDBRANCH  25  26
ENDBRANCH  24  25
BRANCH  21  28
HETATM   28  O   UNL     1     -10.183  10.814  63.590  1.00  0.00    -0.333 OA 
HETATM   29  C   UNL     1      -9.604  10.340  62.381  1.00  0.00    -0.132 C  
ENDBRANCH  21  28
ENDBRANCH   1  19
BRANCH   1  30
HETATM   30  C   UNL     1      -7.610   8.941  69.336  1.00  0.00    -0.081 C  
BRANCH  30  31
HETATM   31  S   UNL     1      -7.273   8.164  70.894  1.00  0.00    -0.059 S  
HETATM   32  O   UNL     1      -7.950   8.956  71.904  1.00  0.00    -0.328 OA 
HETATM   33  C   UNL     1      -5.531   8.342  71.202  1.00  0.00    -0.033 C  
HETATM   34  O   UNL     1      -7.548   6.747  70.772  1.00  0.00    -0.088 OA 
ENDBRANCH  30  31
ENDBRANCH   1  30
TORSDOF 9
ENDMDL
MODEL      202
REMARK 921   NORMALIZED FREE ENERGY PREDICTED BY IDOCK:   -3.99 KCAL/MOL
REMARK 922        TOTAL FREE ENERGY PREDICTED BY IDOCK:   -7.15 KCAL/MOL
REMARK 923 INTER-LIGAND FREE ENERGY PREDICTED BY IDOCK:   -6.21 KCAL/MOL
REMARK 924 INTRA-LIGAND FREE ENERGY PREDICTED BY IDOCK:   -0.94 KCAL/MOL
REMARK 927      BINDING AFFINITY PREDICTED BY RF-SCORE:    0.00 PKD
ROOT
HETATM    1  C   UNL     1      -7.932   9.140  68.265  1.00  0.00    -0.103 C  
ENDROOT
BRANCH   1   2
HETATM    2  N   UNL     1      -9.118   9.659  68.967  1.00  0.00    -0.142 N  
HETATM    3  C   UNL     1     -11.463   9.417  71.690  1.00  0.00    -0.463 A  
HETATM    4  C   UNL     1     -12.605  10.167  71.910  1.00  0.00    -0.437 A  
HETATM    5  O   UNL     1      -9.754  11.565  67.790  1.00  0.00    -0.168 OA 
HETATM    6  C   UNL     1     -12.892  11.267  71.081  1.00  0.00    -0.452 A  
HETATM    7  C   UNL     1      -9.483   9.095  70.153  1.00  0.00    -0.208 C  
HETATM    8  C   UNL     1      -9.887  10.781  68.710  1.00  0.00    -0.194 C  
HETATM    9  C   UNL     1     -12.031  11.688  70.040  1.00  0.00    -0.351 A  
HETATM   10  C   UNL     1     -10.932  10.860  69.778  1.00  0.00    -0.290 A  
HETATM   11  C   UNL     1     -10.673   9.780  70.620  1.00  0.00    -0.394 A  
HETATM   12  O   UNL     1      -8.933   8.199  70.771  1.00  0.00    -0.139 OA 
BRANCH   9  13
HETATM   13  N   UNL     1     -12.325  12.825  69.259  1.00  0.00    -0.017 NA 
HETATM   14  H   UNL     1     -12.895  12.681  68.426  1.00  0.00     0.000 HD 
BRANCH  13  15
HETATM   15  C   UNL     1     -11.937  14.034  69.506  1.00  0.00    -0.339 C  
HETATM   16  C   UNL     1     -10.656  14.784  69.283  1.00  0.00    -0.248 C  
HETATM   17  O   UNL     1     -12.833  14.825  70.121  1.00  0.00    -0.553 OA 
HETATM   18  H   UNL     1     -12.548  15.713  70.302  1.00  0.00     0.000 HD 
ENDBRANCH  13  15
ENDBRANCH   9  13
ENDBRANCH   1   2
BRANCH   1  19
HETATM   19  C   UNL     1      -7.912   7.612  68.069  1.00  0.00    -0.122 A  
HETATM   20  C   UNL     1      -6.923   6.826  68.672  1.00  0.00    -0.080 A  
HETATM   21  C   UNL     1      -8.199   4.801  68.251  1.00  0.00    -0.088 A  
HETATM   22  C   UNL     1      -9.002   6.952  67.451  1.00  0.00    -0.116 A  
HETATM   23  C   UNL     1      -7.068   5.439  68.768  1.00  0.00    -0.061 A  
HETATM   24  C   UNL     1      -9.153   5.556  67.542  1.00  0.00    -0.107 A  
BRANCH  24  25
HETATM   25  O   UNL     1     -10.208   4.840  67.029  1.00  0.00    -0.203 OA 
BRANCH  25  26
HETATM   26  C   UNL     1     -10.438   4.859  65.624  1.00  0.00    -0.121 C  
HETATM   27  C   UNL     1      -9.626   3.738  64.992  1.00  0.00    -0.177 C  
ENDBRANCH  25  26
ENDBRANCH  24  25
BRANCH  21  28
HETATM   28  O   UNL     1      -8.461   3.460  68.397  1.00  0.00    -0.079 OA 
HETATM   29  C   UNL     1      -8.649   2.971  69.719  1.00  0.00    -0.065 C  
ENDBRANCH  21  28
ENDBRANCH   1  19
BRANCH   1  30
HETATM   30  C   UNL     1      -7.574   9.806  66.936  1.00  0.00    -0.095 C  
BRANCH  30  31
HETATM   31  S   UNL     1      -6.121  10.825  66.950  1.00  0.00    -0.081 S  
HETATM   32  O   UNL     1      -6.581  12.195  67.070  1.00  0.00    -0.147 OA 
HETATM   33  C   UNL     1      -5.369  10.687  65.345  1.00  0.00    -0.139 C  
HETATM   34  O   UNL     1      -5.186  10.281  67.913  1.00  0.00    -0.035 OA 
ENDBRANCH  30  31
ENDBRANCH   1  30
TORSDOF 9
ENDMDL
MODEL      203
REMARK 921   NORMALIZED FREE ENERGY PREDICTED BY IDOCK:   -3.98 KCAL/MOL
REMARK 922        TOTAL FREE ENERGY PREDICTED BY IDOCK:   -7.13 KCAL/MOL
REMARK 923 INTER-LIGAND FREE ENERGY PREDICTED BY IDOCK:   -6.60 KCAL/MOL
REMARK 924 INTRA-LIGAND FREE ENERGY PREDICTED BY IDOCK:   -0.53 KCAL/MOL
REMARK 927      BINDING AFFINITY PREDICTED BY RF-SCORE:    0.00 PKD
ROOT
HETATM    1  C   UNL     1      -8.962  14.773  66.903  1.00  0.00    -0.253 C  
ENDROOT
BRANCH   1   2
HETATM    2  N   UNL     1      -9.120  16.229  67.054  1.00  0.00    -0.201 N  
HETATM    3  C   UNL     1     -10.629  19.026  68.748  1.00  0.00     0.170 A  
HETATM    4  C   UNL     1     -10.533  20.372  68.439  1.00  0.00    -0.120 A  
HETATM    5  O   UNL     1      -7.679  17.177  65.489  1.00  0.00    -0.137 OA 
HETATM    6  C   UNL     1      -9.654  20.798  67.427  1.00  0.00    -0.484 A  
HETATM    7  C   UNL     1      -9.865  16.709  68.090  1.00  0.00    -0.250 C  
HETATM    8  C   UNL     1      -8.488  17.268  66.392  1.00  0.00    -0.269 C  
HETATM    9  C   UNL     1      -8.806  19.910  66.724  1.00  0.00    -0.348 A  
HETATM   10  C   UNL     1      -8.989  18.547  66.989  1.00  0.00    -0.275 A  
HETATM   11  C   UNL     1      -9.865  18.157  68.000  1.00  0.00    -0.331 A  
HETATM   12  O   UNL     1     -10.426  16.088  68.976  1.00  0.00    -0.218 OA 
BRANCH   9  13
HETATM   13  N   UNL     1      -7.901  20.377  65.749  1.00  0.00    -0.539 NA 
HETATM   14  H   UNL     1      -8.289  20.923  64.979  1.00  0.00     0.000 HD 
BRANCH  13  15
HETATM   15  C   UNL     1      -6.623  20.176  65.743  1.00  0.00    -0.244 C  
HETATM   16  C   UNL     1      -5.661  19.611  64.740  1.00  0.00    -0.235 C  
HETATM   17  O   UNL     1      -5.971  20.505  66.872  1.00  0.00    -0.173 OA 
HETATM   18  H   UNL     1      -5.033  20.357  66.868  1.00  0.00     0.000 HD 
ENDBRANCH  13  15
ENDBRANCH   9  13
ENDBRANCH   1   2
BRANCH   1  19
HETATM   19  C   UNL     1      -7.821  14.155  67.735  1.00  0.00    -0.177 A  
HETATM   20  C   UNL     1      -7.500  14.664  68.998  1.00  0.00    -0.136 A  
HETATM   21  C   UNL     1      -6.192  12.684  69.523  1.00  0.00    -0.121 A  
HETATM   22  C   UNL     1      -7.215  12.941  67.332  1.00  0.00    -0.130 A  
HETATM   23  C   UNL     1      -6.701  13.934  69.884  1.00  0.00     0.038 A  
HETATM   24  C   UNL     1      -6.409  12.202  68.217  1.00  0.00    -0.053 A  
BRANCH  24  25
HETATM   25  O   UNL     1      -5.833  10.987  67.936  1.00  0.00    -0.046 OA 
BRANCH  25  26
HETATM   26  C   UNL     1      -6.623   9.806  68.037  1.00  0.00    -0.061 C  
HETATM   27  C   UNL     1      -6.355   8.946  66.810  1.00  0.00    -0.059 C  
ENDBRANCH  25  26
ENDBRANCH  24  25
BRANCH  21  28
HETATM   28  O   UNL     1      -5.488  11.864  70.372  1.00  0.00    -0.111 OA 
HETATM   29  C   UNL     1      -5.128  12.393  71.642  1.00  0.00    -0.054 C  
ENDBRANCH  21  28
ENDBRANCH   1  19
BRANCH   1  30
HETATM   30  C   UNL     1     -10.219  13.922  67.091  1.00  0.00    -0.258 C  
BRANCH  30  31
HETATM   31  S   UNL     1     -11.251  13.743  65.659  1.00  0.00    -0.307 S  
HETATM   32  O   UNL     1     -12.324  12.842  66.036  1.00  0.00    -0.504 OA 
HETATM   33  C   UNL     1     -10.293  12.894  64.426  1.00  0.00    -0.369 C  
HETATM   34  O   UNL     1     -11.552  15.061  65.140  1.00  0.00    -0.348 OA 
ENDBRANCH  30  31
ENDBRANCH   1  30
TORSDOF 9
ENDMDL
MODEL      204
REMARK 921   NORMALIZED FREE ENERGY PREDICTED BY IDOCK:   -3.95 KCAL/MOL
REMARK 922        TOTAL FREE ENERGY PREDICTED BY IDOCK:   -7.09 KCAL/MOL
REMARK 923 INTER-LIGAND FREE ENERGY PREDICTED BY IDOCK:   -7.95 KCAL/MOL
REMARK 924 INTRA-LIGAND FREE ENERGY PREDICTED BY IDOCK:    0.87 KCAL/MOL
REMARK 927      BINDING AFFINITY PREDICTED BY RF-SCORE:    0.00 PKD
ROOT
HETATM    1  C   UNL     1     -10.508   8.016  69.679  1.00  0.00    -0.224 C  
ENDROOT
BRANCH   1   2
HETATM    2  N   UNL     1     -10.863   9.413  69.381  1.00  0.00    -0.218 N  
HETATM    3  C   UNL     1     -11.454  12.014  66.961  1.00  0.00    -0.402 A  
HETATM    4  C   UNL     1     -11.703  13.358  67.186  1.00  0.00    -0.424 A  
HETATM    5  O   UNL     1     -11.288  10.402  71.446  1.00  0.00    -0.123 OA 
HETATM    6  C   UNL     1     -11.888  13.826  68.500  1.00  0.00    -0.406 A  
HETATM    7  C   UNL     1     -11.034   9.789  68.082  1.00  0.00    -0.175 C  
HETATM    8  C   UNL     1     -11.229  10.442  70.233  1.00  0.00    -0.320 C  
HETATM    9  C   UNL     1     -11.883  12.970  69.627  1.00  0.00    -0.319 A  
HETATM   10  C   UNL     1     -11.539  11.635  69.383  1.00  0.00    -0.392 A  
HETATM   11  C   UNL     1     -11.365  11.201  68.070  1.00  0.00    -0.380 A  
HETATM   12  O   UNL     1     -10.965   9.103  67.076  1.00  0.00    -0.098 OA 
BRANCH   9  13
HETATM   13  N   UNL     1     -12.121  13.466  70.925  1.00  0.00    -0.484 NA 
HETATM   14  H   UNL     1     -11.337  13.907  71.404  1.00  0.00     0.000 HD 
BRANCH  13  15
HETATM   15  C   UNL     1     -13.246  13.412  71.562  1.00  0.00    -0.312 C  
HETATM   16  C   UNL     1     -14.410  14.350  71.705  1.00  0.00    -0.584 C  
HETATM   17  O   UNL     1     -13.455  12.304  72.293  1.00  0.00    -0.573 OA 
HETATM   18  H   UNL     1     -14.280  12.264  72.761  1.00  0.00     0.000 HD 
ENDBRANCH  13  15
ENDBRANCH   9  13
ENDBRANCH   1   2
BRANCH   1  19
HETATM   19  C   UNL     1      -9.336   7.840  70.663  1.00  0.00    -0.162 A  
HETATM   20  C   UNL     1      -8.994   6.573  71.151  1.00  0.00    -0.145 A  
HETATM   21  C   UNL     1      -6.850   7.398  71.946  1.00  0.00    -0.058 A  
HETATM   22  C   UNL     1      -8.456   8.916  70.932  1.00  0.00    -0.226 A  
HETATM   23  C   UNL     1      -7.763   6.354  71.778  1.00  0.00    -0.096 A  
HETATM   24  C   UNL     1      -7.217   8.703  71.564  1.00  0.00    -0.098 A  
BRANCH  24  25
HETATM   25  O   UNL     1      -6.277   9.674  71.809  1.00  0.00    -0.289 OA 
BRANCH  25  26
HETATM   26  C   UNL     1      -5.741  10.410  70.714  1.00  0.00    -0.099 C  
HETATM   27  C   UNL     1      -5.681  11.879  71.109  1.00  0.00     0.165 C  
ENDBRANCH  25  26
ENDBRANCH  24  25
BRANCH  21  28
HETATM   28  O   UNL     1      -5.585   7.240  72.457  1.00  0.00    -0.037 OA 
HETATM   29  C   UNL     1      -5.443   6.413  73.606  1.00  0.00    -0.042 C  
ENDBRANCH  21  28
ENDBRANCH   1  19
BRANCH   1  30
HETATM   30  C   UNL     1     -11.650   7.094  70.112  1.00  0.00    -0.168 C  
BRANCH  30  31
HETATM   31  S   UNL     1     -12.113   7.188  71.822  1.00  0.00    -0.343 S  
HETATM   32  O   UNL     1     -11.883   5.870  72.383  1.00  0.00    -0.311 OA 
HETATM   33  C   UNL     1     -13.869   7.457  71.875  1.00  0.00    -0.245 C  
HETATM   34  O   UNL     1     -11.479   8.351  72.408  1.00  0.00    -0.367 OA 
ENDBRANCH  30  31
ENDBRANCH   1  30
TORSDOF 9
ENDMDL
MODEL      205
REMARK 921   NORMALIZED FREE ENERGY PREDICTED BY IDOCK:   -3.95 KCAL/MOL
REMARK 922        TOTAL FREE ENERGY PREDICTED BY IDOCK:   -7.09 KCAL/MOL
REMARK 923 INTER-LIGAND FREE ENERGY PREDICTED BY IDOCK:   -5.45 KCAL/MOL
REMARK 924 INTRA-LIGAND FREE ENERGY PREDICTED BY IDOCK:   -1.63 KCAL/MOL
REMARK 927      BINDING AFFINITY PREDICTED BY RF-SCORE:    0.00 PKD
ROOT
HETATM    1  C   UNL     1      -9.618   7.498  70.543  1.00  0.00    -0.168 C  
ENDROOT
BRANCH   1   2
HETATM    2  N   UNL     1      -9.184   8.763  69.926  1.00  0.00    -0.153 N  
HETATM    3  C   UNL     1      -6.522  10.956  68.890  1.00  0.00    -0.049 A  
HETATM    4  C   UNL     1      -6.615  12.238  68.375  1.00  0.00    -0.060 A  
HETATM    5  O   UNL     1     -11.142   9.835  69.263  1.00  0.00    -0.219 OA 
HETATM    6  C   UNL     1      -7.876  12.781  68.069  1.00  0.00    -0.150 A  
HETATM    7  C   UNL     1      -7.854   8.974  69.715  1.00  0.00    -0.086 C  
HETATM    8  C   UNL     1      -9.931   9.773  69.343  1.00  0.00    -0.205 C  
HETATM    9  C   UNL     1      -9.081  12.052  68.215  1.00  0.00    -0.190 A  
HETATM   10  C   UNL     1      -8.968  10.795  68.823  1.00  0.00    -0.171 A  
HETATM   11  C   UNL     1      -7.704  10.284  69.112  1.00  0.00    -0.119 A  
HETATM   12  O   UNL     1      -6.919   8.225  69.943  1.00  0.00    -0.043 OA 
BRANCH   9  13
HETATM   13  N   UNL     1     -10.323  12.610  67.853  1.00  0.00    -0.213 NA 
HETATM   14  H   UNL     1     -10.705  13.330  68.465  1.00  0.00     0.000 HD 
BRANCH  13  15
HETATM   15  C   UNL     1     -11.022  12.289  66.812  1.00  0.00    -0.276 C  
HETATM   16  C   UNL     1     -10.990  12.695  65.368  1.00  0.00    -0.320 C  
HETATM   17  O   UNL     1     -12.030  11.424  67.025  1.00  0.00    -0.492 OA 
HETATM   18  H   UNL     1     -12.543  11.189  66.261  1.00  0.00     0.000 HD 
ENDBRANCH  13  15
ENDBRANCH   9  13
ENDBRANCH   1   2
BRANCH   1  19
HETATM   19  C   UNL     1      -9.168   6.226  69.799  1.00  0.00    -0.150 A  
HETATM   20  C   UNL     1      -8.425   5.238  70.455  1.00  0.00    -0.120 A  
HETATM   21  C   UNL     1      -8.869   3.645  68.674  1.00  0.00    -0.113 A  
HETATM   22  C   UNL     1      -9.665   5.936  68.505  1.00  0.00    -0.151 A  
HETATM   23  C   UNL     1      -8.284   3.961  69.903  1.00  0.00    -0.068 A  
HETATM   24  C   UNL     1      -9.526   4.654  67.943  1.00  0.00    -0.152 A  
BRANCH  24  25
HETATM   25  O   UNL     1     -10.030   4.266  66.725  1.00  0.00    -0.223 OA 
BRANCH  25  26
HETATM   26  C   UNL     1      -9.616   4.959  65.552  1.00  0.00    -0.132 C  
HETATM   27  C   UNL     1      -8.185   4.546  65.234  1.00  0.00    -0.112 C  
ENDBRANCH  25  26
ENDBRANCH  24  25
BRANCH  21  28
HETATM   28  O   UNL     1      -8.862   2.388  68.118  1.00  0.00    -0.092 OA 
HETATM   29  C   UNL     1      -7.609   1.869  67.692  1.00  0.00    -0.059 C  
ENDBRANCH  21  28
ENDBRANCH   1  19
BRANCH   1  30
HETATM   30  C   UNL     1      -9.320   7.323  72.033  1.00  0.00    -0.133 C  
BRANCH  30  31
HETATM   31  S   UNL     1     -10.729   7.040  73.073  1.00  0.00    -0.324 S  
HETATM   32  O   UNL     1     -10.229   6.400  74.276  1.00  0.00    -0.321 OA 
HETATM   33  C   UNL     1     -11.752   5.839  72.254  1.00  0.00    -0.205 C  
HETATM   34  O   UNL     1     -11.491   8.268  73.162  1.00  0.00    -0.187 OA 
ENDBRANCH  30  31
ENDBRANCH   1  30
TORSDOF 9
ENDMDL
MODEL      206
REMARK 921   NORMALIZED FREE ENERGY PREDICTED BY IDOCK:   -3.91 KCAL/MOL
REMARK 922        TOTAL FREE ENERGY PREDICTED BY IDOCK:   -7.03 KCAL/MOL
REMARK 923 INTER-LIGAND FREE ENERGY PREDICTED BY IDOCK:   -5.62 KCAL/MOL
REMARK 924 INTRA-LIGAND FREE ENERGY PREDICTED BY IDOCK:   -1.41 KCAL/MOL
REMARK 927      BINDING AFFINITY PREDICTED BY RF-SCORE:    0.00 PKD
ROOT
HETATM    1  C   UNL     1      -9.956   7.725  69.455  1.00  0.00    -0.187 C  
ENDROOT
BRANCH   1   2
HETATM    2  N   UNL     1      -9.474   7.990  68.090  1.00  0.00    -0.143 N  
HETATM    3  C   UNL     1      -8.158   6.759  64.971  1.00  0.00    -0.126 A  
HETATM    4  C   UNL     1      -7.716   7.485  63.878  1.00  0.00    -0.125 A  
HETATM    5  O   UNL     1      -9.719  10.285  67.778  1.00  0.00    -0.153 OA 
HETATM    6  C   UNL     1      -7.883   8.882  63.850  1.00  0.00    -0.137 A  
HETATM    7  C   UNL     1      -9.171   6.936  67.279  1.00  0.00    -0.127 C  
HETATM    8  C   UNL     1      -9.414   9.177  67.380  1.00  0.00    -0.143 C  
HETATM    9  C   UNL     1      -8.539   9.597  64.880  1.00  0.00    -0.170 A  
HETATM   10  C   UNL     1      -8.893   8.854  66.014  1.00  0.00    -0.206 A  
HETATM   11  C   UNL     1      -8.717   7.472  66.010  1.00  0.00    -0.178 A  
HETATM   12  O   UNL     1      -9.272   5.744  67.512  1.00  0.00    -0.111 OA 
BRANCH   9  13
HETATM   13  N   UNL     1      -8.733  10.990  64.797  1.00  0.00    -0.367 NA 
HETATM   14  H   UNL     1      -7.987  11.585  65.157  1.00  0.00     0.000 HD 
BRANCH  13  15
HETATM   15  C   UNL     1      -9.773  11.582  64.304  1.00  0.00    -0.202 C  
HETATM   16  C   UNL     1     -11.251  11.455  64.531  1.00  0.00    -0.251 C  
HETATM   17  O   UNL     1      -9.530  12.503  63.355  1.00  0.00    -0.596 OA 
HETATM   18  H   UNL     1     -10.293  12.937  62.993  1.00  0.00     0.000 HD 
ENDBRANCH  13  15
ENDBRANCH   9  13
ENDBRANCH   1   2
BRANCH   1  19
HETATM   19  C   UNL     1      -8.850   7.454  70.492  1.00  0.00    -0.148 A  
HETATM   20  C   UNL     1      -8.182   8.512  71.120  1.00  0.00    -0.172 A  
HETATM   21  C   UNL     1      -7.288   7.015  72.813  1.00  0.00    -0.077 A  
HETATM   22  C   UNL     1      -8.627   6.144  70.981  1.00  0.00    -0.132 A  
HETATM   23  C   UNL     1      -7.417   8.296  72.270  1.00  0.00    -0.149 A  
HETATM   24  C   UNL     1      -7.857   5.919  72.137  1.00  0.00    -0.103 A  
BRANCH  24  25
HETATM   25  O   UNL     1      -7.641   4.693  72.717  1.00  0.00    -0.083 OA 
BRANCH  25  26
HETATM   26  C   UNL     1      -7.456   3.555  71.880  1.00  0.00    -0.056 C  
HETATM   27  C   UNL     1      -6.038   3.593  71.328  1.00  0.00    -0.014 C  
ENDBRANCH  25  26
ENDBRANCH  24  25
BRANCH  21  28
HETATM   28  O   UNL     1      -6.641   6.741  73.994  1.00  0.00    -0.072 OA 
HETATM   29  C   UNL     1      -5.226   6.888  74.014  1.00  0.00    -0.042 C  
ENDBRANCH  21  28
ENDBRANCH   1  19
BRANCH   1  30
HETATM   30  C   UNL     1     -10.941   8.735  70.045  1.00  0.00    -0.209 C  
BRANCH  30  31
HETATM   31  S   UNL     1     -12.187   8.065  71.116  1.00  0.00    -0.194 S  
HETATM   32  O   UNL     1     -13.188   9.102  71.281  1.00  0.00    -0.317 OA 
HETATM   33  C   UNL     1     -11.437   7.832  72.711  1.00  0.00    -0.359 C  
HETATM   34  O   UNL     1     -12.565   6.757  70.621  1.00  0.00    -0.268 OA 
ENDBRANCH  30  31
ENDBRANCH   1  30
TORSDOF 9
ENDMDL
MODEL      207
REMARK 921   NORMALIZED FREE ENERGY PREDICTED BY IDOCK:   -3.91 KCAL/MOL
REMARK 922        TOTAL FREE ENERGY PREDICTED BY IDOCK:   -7.02 KCAL/MOL
REMARK 923 INTER-LIGAND FREE ENERGY PREDICTED BY IDOCK:   -5.81 KCAL/MOL
REMARK 924 INTRA-LIGAND FREE ENERGY PREDICTED BY IDOCK:   -1.21 KCAL/MOL
REMARK 927      BINDING AFFINITY PREDICTED BY RF-SCORE:    0.00 PKD
ROOT
HETATM    1  C   UNL     1     -10.560   9.042  69.024  1.00  0.00    -0.190 C  
ENDROOT
BRANCH   1   2
HETATM    2  N   UNL     1      -9.648   8.335  68.110  1.00  0.00    -0.147 N  
HETATM    3  C   UNL     1      -8.535   7.655  64.753  1.00  0.00     0.037 A  
HETATM    4  C   UNL     1      -7.589   6.737  64.329  1.00  0.00    -0.105 A  
HETATM    5  O   UNL     1      -8.216   7.113  69.480  1.00  0.00    -0.127 OA 
HETATM    6  C   UNL     1      -6.829   6.027  65.277  1.00  0.00    -0.051 A  
HETATM    7  C   UNL     1      -9.687   8.630  66.779  1.00  0.00    -0.233 C  
HETATM    8  C   UNL     1      -8.588   7.488  68.385  1.00  0.00    -0.124 C  
HETATM    9  C   UNL     1      -6.947   6.241  66.671  1.00  0.00    -0.067 A  
HETATM   10  C   UNL     1      -7.972   7.104  67.075  1.00  0.00    -0.113 A  
HETATM   11  C   UNL     1      -8.706   7.795  66.113  1.00  0.00    -0.177 A  
HETATM   12  O   UNL     1     -10.375   9.455  66.202  1.00  0.00    -0.232 OA 
BRANCH   9  13
HETATM   13  N   UNL     1      -6.134   5.547  67.590  1.00  0.00    -0.025 NA 
HETATM   14  H   UNL     1      -5.303   6.030  67.932  1.00  0.00     0.000 HD 
BRANCH  13  15
HETATM   15  C   UNL     1      -6.347   4.352  68.038  1.00  0.00    -0.037 C  
HETATM   16  C   UNL     1      -7.216   3.211  67.594  1.00  0.00    -0.054 C  
HETATM   17  O   UNL     1      -5.691   4.020  69.163  1.00  0.00    -0.016 OA 
HETATM   18  H   UNL     1      -5.848   3.143  69.492  1.00  0.00     0.000 HD 
ENDBRANCH  13  15
ENDBRANCH   9  13
ENDBRANCH   1   2
BRANCH   1  19
HETATM   19  C   UNL     1     -10.947   8.255  70.291  1.00  0.00    -0.233 A  
HETATM   20  C   UNL     1     -11.698   7.077  70.200  1.00  0.00    -0.238 A  
HETATM   21  C   UNL     1     -11.135   6.478  72.488  1.00  0.00    -0.260 A  
HETATM   22  C   UNL     1     -10.382   8.589  71.546  1.00  0.00    -0.321 A  
HETATM   23  C   UNL     1     -11.785   6.197  71.284  1.00  0.00    -0.211 A  
HETATM   24  C   UNL     1     -10.467   7.709  72.640  1.00  0.00    -0.287 A  
BRANCH  24  25
HETATM   25  O   UNL     1      -9.898   7.921  73.872  1.00  0.00    -0.079 OA 
BRANCH  25  26
HETATM   26  C   UNL     1      -8.479   7.880  73.995  1.00  0.00    -0.265 C  
HETATM   27  C   UNL     1      -8.009   6.481  73.620  1.00  0.00    -0.102 C  
ENDBRANCH  25  26
ENDBRANCH  24  25
BRANCH  21  28
HETATM   28  O   UNL     1     -11.089   5.617  73.558  1.00  0.00    -0.256 OA 
HETATM   29  C   UNL     1     -10.558   4.318  73.329  1.00  0.00    -0.204 C  
ENDBRANCH  21  28
ENDBRANCH   1  19
BRANCH   1  30
HETATM   30  C   UNL     1     -10.160  10.460  69.434  1.00  0.00    -0.229 C  
BRANCH  30  31
HETATM   31  S   UNL     1     -11.351  11.729  69.090  1.00  0.00    -0.297 S  
HETATM   32  O   UNL     1     -12.257  11.183  68.096  1.00  0.00    -0.612 OA 
HETATM   33  C   UNL     1     -10.482  13.062  68.298  1.00  0.00    -0.250 C  
HETATM   34  O   UNL     1     -11.864  12.233  70.347  1.00  0.00    -0.303 OA 
ENDBRANCH  30  31
ENDBRANCH   1  30
TORSDOF 9
ENDMDL
MODEL      208
REMARK 921   NORMALIZED FREE ENERGY PREDICTED BY IDOCK:   -3.87 KCAL/MOL
REMARK 922        TOTAL FREE ENERGY PREDICTED BY IDOCK:   -6.97 KCAL/MOL
REMARK 923 INTER-LIGAND FREE ENERGY PREDICTED BY IDOCK:   -7.45 KCAL/MOL
REMARK 924 INTRA-LIGAND FREE ENERGY PREDICTED BY IDOCK:    0.48 KCAL/MOL
REMARK 927      BINDING AFFINITY PREDICTED BY RF-SCORE:    0.00 PKD
ROOT
HETATM    1  C   UNL     1      -9.164  11.370  68.629  1.00  0.00    -0.146 C  
ENDROOT
BRANCH   1   2
HETATM    2  N   UNL     1      -8.735  10.252  67.774  1.00  0.00    -0.122 N  
HETATM    3  C   UNL     1      -6.134   8.584  65.923  1.00  0.00    -0.048 A  
HETATM    4  C   UNL     1      -6.239   7.477  65.098  1.00  0.00    -0.038 A  
HETATM    5  O   UNL     1     -10.609   8.890  67.541  1.00  0.00    -0.271 OA 
HETATM    6  C   UNL     1      -7.458   6.779  65.016  1.00  0.00    -0.092 A  
HETATM    7  C   UNL     1      -7.414  10.134  67.453  1.00  0.00    -0.094 C  
HETATM    8  C   UNL     1      -9.438   9.144  67.333  1.00  0.00    -0.143 C  
HETATM    9  C   UNL     1      -8.594   7.124  65.786  1.00  0.00    -0.133 A  
HETATM   10  C   UNL     1      -8.490   8.300  66.540  1.00  0.00    -0.121 A  
HETATM   11  C   UNL     1      -7.269   8.967  66.603  1.00  0.00    -0.085 A  
HETATM   12  O   UNL     1      -6.480  10.831  67.810  1.00  0.00    -0.058 OA 
BRANCH   9  13
HETATM   13  N   UNL     1      -9.784   6.372  65.715  1.00  0.00    -0.329 NA 
HETATM   14  H   UNL     1     -10.607   6.840  65.335  1.00  0.00     0.000 HD 
BRANCH  13  15
HETATM   15  C   UNL     1      -9.925   5.141  66.088  1.00  0.00    -0.194 C  
HETATM   16  C   UNL     1      -9.021   4.141  66.747  1.00  0.00    -0.131 C  
HETATM   17  O   UNL     1     -11.119   4.581  65.826  1.00  0.00    -0.668 OA 
HETATM   18  H   UNL     1     -11.223   3.678  66.100  1.00  0.00     0.000 HD 
ENDBRANCH  13  15
ENDBRANCH   9  13
ENDBRANCH   1   2
BRANCH   1  19
HETATM   19  C   UNL     1      -9.658  12.616  67.869  1.00  0.00    -0.211 A  
HETATM   20  C   UNL     1      -9.422  13.901  68.371  1.00  0.00    -0.211 A  
HETATM   21  C   UNL     1      -9.984  14.900  66.228  1.00  0.00    -0.282 A  
HETATM   22  C   UNL     1     -10.176  12.499  66.557  1.00  0.00    -0.255 A  
HETATM   23  C   UNL     1      -9.576  15.028  67.558  1.00  0.00    -0.203 A  
HETATM   24  C   UNL     1     -10.335  13.629  65.734  1.00  0.00    -0.298 A  
BRANCH  24  25
HETATM   25  O   UNL     1     -10.769  13.603  64.431  1.00  0.00    -0.410 OA 
BRANCH  25  26
HETATM   26  C   UNL     1     -10.764  12.367  63.724  1.00  0.00    -0.451 C  
HETATM   27  C   UNL     1     -12.208  11.951  63.479  1.00  0.00    -0.591 C  
ENDBRANCH  25  26
ENDBRANCH  24  25
BRANCH  21  28
HETATM   28  O   UNL     1     -10.058  15.947  65.341  1.00  0.00    -0.390 OA 
HETATM   29  C   UNL     1     -10.233  17.251  65.881  1.00  0.00    -0.261 C  
ENDBRANCH  21  28
ENDBRANCH   1  19
BRANCH   1  30
HETATM   30  C   UNL     1     -10.169  11.043  69.735  1.00  0.00     0.245 C  
BRANCH  30  31
HETATM   31  S   UNL     1     -11.779  11.767  69.554  1.00  0.00    -0.355 S  
HETATM   32  O   UNL     1     -11.671  13.133  70.030  1.00  0.00    -0.289 OA 
HETATM   33  C   UNL     1     -12.861  10.925  70.686  1.00  0.00    -0.255 C  
HETATM   34  O   UNL     1     -12.258  11.495  68.214  1.00  0.00    -0.561 OA 
ENDBRANCH  30  31
ENDBRANCH   1  30
TORSDOF 9
ENDMDL
MODEL      209
REMARK 921   NORMALIZED FREE ENERGY PREDICTED BY IDOCK:   -3.87 KCAL/MOL
REMARK 922        TOTAL FREE ENERGY PREDICTED BY IDOCK:   -6.96 KCAL/MOL
REMARK 923 INTER-LIGAND FREE ENERGY PREDICTED BY IDOCK:   -7.56 KCAL/MOL
REMARK 924 INTRA-LIGAND FREE ENERGY PREDICTED BY IDOCK:    0.60 KCAL/MOL
REMARK 927      BINDING AFFINITY PREDICTED BY RF-SCORE:    0.00 PKD
ROOT
HETATM    1  C   UNL     1      -9.539  12.773  65.434  1.00  0.00     0.061 C  
ENDROOT
BRANCH   1   2
HETATM    2  N   UNL     1      -9.953  13.794  66.411  1.00  0.00    -0.289 N  
HETATM    3  C   UNL     1     -11.219  14.626  69.678  1.00  0.00    -0.307 A  
HETATM    4  C   UNL     1     -11.578  15.870  70.170  1.00  0.00    -0.357 A  
HETATM    5  O   UNL     1      -9.566  15.842  65.373  1.00  0.00    -0.383 OA 
HETATM    6  C   UNL     1     -11.330  17.024  69.405  1.00  0.00     0.513 A  
HETATM    7  C   UNL     1     -10.285  13.403  67.674  1.00  0.00    -0.228 C  
HETATM    8  C   UNL     1      -9.919  15.175  66.327  1.00  0.00    -0.288 C  
HETATM    9  C   UNL     1     -10.674  16.988  68.152  1.00  0.00    -0.374 A  
HETATM   10  C   UNL     1     -10.406  15.714  67.636  1.00  0.00    -0.275 A  
HETATM   11  C   UNL     1     -10.660  14.590  68.419  1.00  0.00    -0.244 A  
HETATM   12  O   UNL     1     -10.261  12.283  68.156  1.00  0.00    -0.200 OA 
BRANCH   9  13
HETATM   13  N   UNL     1     -10.397  18.170  67.434  1.00  0.00    -0.373 NA 
HETATM   14  H   UNL     1     -11.175  18.603  66.937  1.00  0.00     0.000 HD 
BRANCH  13  15
HETATM   15  C   UNL     1      -9.246  18.752  67.350  1.00  0.00    -0.282 C  
HETATM   16  C   UNL     1      -8.343  19.427  68.342  1.00  0.00    -0.385 C  
HETATM   17  O   UNL     1      -8.708  18.818  66.120  1.00  0.00    -0.439 OA 
HETATM   18  H   UNL     1      -7.863  19.246  66.058  1.00  0.00     0.000 HD 
ENDBRANCH  13  15
ENDBRANCH   9  13
ENDBRANCH   1   2
BRANCH   1  19
HETATM   19  C   UNL     1      -9.244  11.385  66.033  1.00  0.00    -0.229 A  
HETATM   20  C   UNL     1      -9.940  10.253  65.594  1.00  0.00    -0.347 A  
HETATM   21  C   UNL     1      -8.313   8.780  66.640  1.00  0.00    -0.108 A  
HETATM   22  C   UNL     1      -8.130  11.192  66.886  1.00  0.00    -0.150 A  
HETATM   23  C   UNL     1      -9.475   8.966  65.887  1.00  0.00    -0.303 A  
HETATM   24  C   UNL     1      -7.659   9.901  67.187  1.00  0.00    -0.092 A  
BRANCH  24  25
HETATM   25  O   UNL     1      -6.552   9.621  67.951  1.00  0.00    -0.061 OA 
BRANCH  25  26
HETATM   26  C   UNL     1      -6.523  10.048  69.310  1.00  0.00    -0.049 C  
HETATM   27  C   UNL     1      -6.989   8.890  70.183  1.00  0.00    -0.043 C  
ENDBRANCH  25  26
ENDBRANCH  24  25
BRANCH  21  28
HETATM   28  O   UNL     1      -7.740   7.555  66.881  1.00  0.00    -0.105 OA 
HETATM   29  C   UNL     1      -7.204   6.853  65.767  1.00  0.00    -0.073 C  
ENDBRANCH  21  28
ENDBRANCH   1  19
BRANCH   1  30
HETATM   30  C   UNL     1     -10.432  12.594  64.205  1.00  0.00    -0.392 C  
BRANCH  30  31
HETATM   31  S   UNL     1     -12.168  12.844  64.470  1.00  0.00    -0.435 S  
HETATM   32  O   UNL     1     -12.457  12.345  65.802  1.00  0.00    -0.615 OA 
HETATM   33  C   UNL     1     -13.030  11.778  63.338  1.00  0.00    -0.037 C  
HETATM   34  O   UNL     1     -12.497  14.209  64.114  1.00  0.00    -0.668 OA 
ENDBRANCH  30  31
ENDBRANCH   1  30
TORSDOF 9
ENDMDL
MODEL      210
REMARK 921   NORMALIZED FREE ENERGY PREDICTED BY IDOCK:   -3.76 KCAL/MOL
REMARK 922        TOTAL FREE ENERGY PREDICTED BY IDOCK:   -6.80 KCAL/MOL
REMARK 923 INTER-LIGAND FREE ENERGY PREDICTED BY IDOCK:   -8.25 KCAL/MOL
REMARK 924 INTRA-LIGAND FREE ENERGY PREDICTED BY IDOCK:    1.45 KCAL/MOL
REMARK 927      BINDING AFFINITY PREDICTED BY RF-SCORE:    0.00 PKD
ROOT
HETATM    1  C   UNL     1     -10.319   7.912  69.576  1.00  0.00    -0.217 C  
ENDROOT
BRANCH   1   2
HETATM    2  N   UNL     1     -10.745   9.312  69.413  1.00  0.00    -0.224 N  
HETATM    3  C   UNL     1     -11.387  12.128  67.261  1.00  0.00    -0.398 A  
HETATM    4  C   UNL     1     -11.728  13.422  67.616  1.00  0.00    -0.397 A  
HETATM    5  O   UNL     1     -11.324  10.040  71.548  1.00  0.00    -0.301 OA 
HETATM    6  C   UNL     1     -12.000  13.731  68.962  1.00  0.00    -0.399 A  
HETATM    7  C   UNL     1     -10.881   9.820  68.154  1.00  0.00    -0.214 C  
HETATM    8  C   UNL     1     -11.212  10.218  70.350  1.00  0.00    -0.332 C  
HETATM    9  C   UNL     1     -11.994  12.757  69.989  1.00  0.00    -0.301 A  
HETATM   10  C   UNL     1     -11.557  11.478  69.620  1.00  0.00    -0.403 A  
HETATM   11  C   UNL     1     -11.297  11.204  68.279  1.00  0.00    -0.365 A  
HETATM   12  O   UNL     1     -10.724   9.255  67.085  1.00  0.00    -0.251 OA 
BRANCH   9  13
HETATM   13  N   UNL     1     -12.320  13.091  71.318  1.00  0.00    -0.314 NA 
HETATM   14  H   UNL     1     -11.599  12.945  72.024  1.00  0.00     0.000 HD 
BRANCH  13  15
HETATM   15  C   UNL     1     -13.453  13.568  71.723  1.00  0.00    -0.380 C  
HETATM   16  C   UNL     1     -14.199  14.845  71.467  1.00  0.00    -0.617 C  
HETATM   17  O   UNL     1     -14.139  12.799  72.587  1.00  0.00    -0.679 OA 
HETATM   18  H   UNL     1     -14.970  13.149  72.884  1.00  0.00     0.000 HD 
ENDBRANCH  13  15
ENDBRANCH   9  13
ENDBRANCH   1   2
BRANCH   1  19
HETATM   19  C   UNL     1      -9.043   7.717  70.417  1.00  0.00    -0.155 A  
HETATM   20  C   UNL     1      -8.361   8.818  70.949  1.00  0.00    -0.196 A  
HETATM   21  C   UNL     1      -7.100   7.380  72.449  1.00  0.00    -0.071 A  
HETATM   22  C   UNL     1      -8.651   6.424  70.839  1.00  0.00    -0.135 A  
HETATM   23  C   UNL     1      -7.407   8.651  71.958  1.00  0.00    -0.076 A  
HETATM   24  C   UNL     1      -7.690   6.249  71.852  1.00  0.00    -0.097 A  
BRANCH  24  25
HETATM   25  O   UNL     1      -7.295   5.038  72.366  1.00  0.00    -0.086 OA 
BRANCH  25  26
HETATM   26  C   UNL     1      -8.277   4.170  72.924  1.00  0.00    -0.093 C  
HETATM   27  C   UNL     1      -8.625   4.676  74.318  1.00  0.00    -0.107 C  
ENDBRANCH  25  26
ENDBRANCH  24  25
BRANCH  21  28
HETATM   28  O   UNL     1      -6.253   7.146  73.505  1.00  0.00    -0.064 OA 
HETATM   29  C   UNL     1      -5.649   8.276  74.121  1.00  0.00    -0.084 C  
ENDBRANCH  21  28
ENDBRANCH   1  19
BRANCH   1  30
HETATM   30  C   UNL     1     -11.379   6.923  70.061  1.00  0.00    -0.294 C  
BRANCH  30  31
HETATM   31  S   UNL     1     -11.885   7.101  71.752  1.00  0.00    -0.319 S  
HETATM   32  O   UNL     1     -10.828   7.834  72.422  1.00  0.00    -0.253 OA 
HETATM   33  C   UNL     1     -11.899   5.474  72.468  1.00  0.00    -0.092 C  
HETATM   34  O   UNL     1     -13.246   7.595  71.776  1.00  0.00    -0.335 OA 
ENDBRANCH  30  31
ENDBRANCH   1  30
TORSDOF 9
ENDMDL
MODEL      211
REMARK 921   NORMALIZED FREE ENERGY PREDICTED BY IDOCK:   -3.74 KCAL/MOL
REMARK 922        TOTAL FREE ENERGY PREDICTED BY IDOCK:   -6.77 KCAL/MOL
REMARK 923 INTER-LIGAND FREE ENERGY PREDICTED BY IDOCK:   -7.30 KCAL/MOL
REMARK 924 INTRA-LIGAND FREE ENERGY PREDICTED BY IDOCK:    0.54 KCAL/MOL
REMARK 927      BINDING AFFINITY PREDICTED BY RF-SCORE:    0.00 PKD
ROOT
HETATM    1  C   UNL     1      -9.317  10.881  67.846  1.00  0.00    -0.156 C  
ENDROOT
BRANCH   1   2
HETATM    2  N   UNL     1      -9.269   9.492  67.359  1.00  0.00    -0.133 N  
HETATM    3  C   UNL     1      -8.046   7.081  64.979  1.00  0.00    -0.119 A  
HETATM    4  C   UNL     1      -8.391   5.746  64.853  1.00  0.00    -0.127 A  
HETATM    5  O   UNL     1     -10.553   8.260  68.861  1.00  0.00    -0.211 OA 
HETATM    6  C   UNL     1      -9.224   5.143  65.813  1.00  0.00    -0.162 A  
HETATM    7  C   UNL     1      -8.428   9.181  66.331  1.00  0.00    -0.123 C  
HETATM    8  C   UNL     1      -9.838   8.343  67.881  1.00  0.00    -0.170 C  
HETATM    9  C   UNL     1      -9.700   5.831  66.955  1.00  0.00    -0.142 A  
HETATM   10  C   UNL     1      -9.414   7.200  67.011  1.00  0.00    -0.192 A  
HETATM   11  C   UNL     1      -8.584   7.767  66.046  1.00  0.00    -0.166 A  
HETATM   12  O   UNL     1      -7.645   9.906  65.742  1.00  0.00    -0.104 OA 
BRANCH   9  13
HETATM   13  N   UNL     1     -10.493   5.182  67.924  1.00  0.00    -0.088 NA 
HETATM   14  H   UNL     1     -11.398   4.826  67.619  1.00  0.00     0.000 HD 
BRANCH  13  15
HETATM   15  C   UNL     1     -10.174   4.998  69.164  1.00  0.00    -0.157 C  
HETATM   16  C   UNL     1      -9.100   4.213  69.860  1.00  0.00    -0.179 C  
HETATM   17  O   UNL     1     -10.964   5.599  70.070  1.00  0.00    -0.328 OA 
HETATM   18  H   UNL     1     -10.730   5.464  70.980  1.00  0.00     0.000 HD 
ENDBRANCH  13  15
ENDBRANCH   9  13
ENDBRANCH   1   2
BRANCH   1  19
HETATM   19  C   UNL     1     -10.044  11.870  66.915  1.00  0.00    -0.229 A  
HETATM   20  C   UNL     1     -10.947  11.411  65.950  1.00  0.00    -0.268 A  
HETATM   21  C   UNL     1     -11.836  13.653  65.640  1.00  0.00    -0.364 A  
HETATM   22  C   UNL     1      -9.971  13.264  67.151  1.00  0.00    -0.238 A  
HETATM   23  C   UNL     1     -11.837  12.291  65.325  1.00  0.00    -0.411 A  
HETATM   24  C   UNL     1     -10.862  14.155  66.524  1.00  0.00    -0.298 A  
BRANCH  24  25
HETATM   25  O   UNL     1     -10.905  15.511  66.740  1.00  0.00    -0.311 OA 
BRANCH  25  26
HETATM   26  C   UNL     1      -9.833  16.321  66.268  1.00  0.00    -0.313 C  
HETATM   27  C   UNL     1     -10.288  17.774  66.289  1.00  0.00    -0.358 C  
ENDBRANCH  25  26
ENDBRANCH  24  25
BRANCH  21  28
HETATM   28  O   UNL     1     -12.744  14.558  65.147  1.00  0.00    -0.479 OA 
HETATM   29  C   UNL     1     -12.390  15.261  63.963  1.00  0.00     0.071 C  
ENDBRANCH  21  28
ENDBRANCH   1  19
BRANCH   1  30
HETATM   30  C   UNL     1      -9.824  11.091  69.273  1.00  0.00    -0.035 C  
BRANCH  30  31
HETATM   31  S   UNL     1     -11.567  11.376  69.439  1.00  0.00    -0.355 S  
HETATM   32  O   UNL     1     -11.731  12.800  69.667  1.00  0.00    -0.304 OA 
HETATM   33  C   UNL     1     -12.091  10.566  70.933  1.00  0.00    -0.383 C  
HETATM   34  O   UNL     1     -12.247  10.730  68.336  1.00  0.00    -0.470 OA 
ENDBRANCH  30  31
ENDBRANCH   1  30
TORSDOF 9
ENDMDL
MODEL      212
REMARK 921   NORMALIZED FREE ENERGY PREDICTED BY IDOCK:   -3.73 KCAL/MOL
REMARK 922        TOTAL FREE ENERGY PREDICTED BY IDOCK:   -6.75 KCAL/MOL
REMARK 923 INTER-LIGAND FREE ENERGY PREDICTED BY IDOCK:   -7.71 KCAL/MOL
REMARK 924 INTRA-LIGAND FREE ENERGY PREDICTED BY IDOCK:    0.96 KCAL/MOL
REMARK 927      BINDING AFFINITY PREDICTED BY RF-SCORE:    0.00 PKD
ROOT
HETATM    1  C   UNL     1     -11.581  13.326  67.192  1.00  0.00    -0.357 C  
ENDROOT
BRANCH   1   2
HETATM    2  N   UNL     1     -10.821  12.140  67.621  1.00  0.00    -0.224 N  
HETATM    3  C   UNL     1      -9.951   9.780  70.198  1.00  0.00    -0.315 A  
HETATM    4  C   UNL     1      -9.008   8.767  70.154  1.00  0.00    -0.173 A  
HETATM    5  O   UNL     1      -9.674  11.417  65.728  1.00  0.00    -0.216 OA 
HETATM    6  C   UNL     1      -8.351   8.474  68.946  1.00  0.00    -0.118 A  
HETATM    7  C   UNL     1     -11.041  11.629  68.866  1.00  0.00    -0.232 C  
HETATM    8  C   UNL     1      -9.988  11.304  66.897  1.00  0.00    -0.207 C  
HETATM    9  C   UNL     1      -8.643   9.141  67.732  1.00  0.00    -0.121 A  
HETATM   10  C   UNL     1      -9.530  10.220  67.823  1.00  0.00    -0.163 A  
HETATM   11  C   UNL     1     -10.168  10.483  69.034  1.00  0.00    -0.233 A  
HETATM   12  O   UNL     1     -11.834  12.003  69.713  1.00  0.00    -0.309 OA 
BRANCH   9  13
HETATM   13  N   UNL     1      -7.999   8.788  66.529  1.00  0.00    -0.102 NA 
HETATM   14  H   UNL     1      -7.067   9.170  66.371  1.00  0.00     0.000 HD 
BRANCH  13  15
HETATM   15  C   UNL     1      -8.486   8.023  65.606  1.00  0.00    -0.149 C  
HETATM   16  C   UNL     1      -8.468   6.542  65.361  1.00  0.00    -0.119 C  
HETATM   17  O   UNL     1      -9.138   8.646  64.609  1.00  0.00    -0.417 OA 
HETATM   18  H   UNL     1      -9.495   8.084  63.931  1.00  0.00     0.000 HD 
ENDBRANCH  13  15
ENDBRANCH   9  13
ENDBRANCH   1   2
BRANCH   1  19
HETATM   19  C   UNL     1     -10.747  14.615  67.056  1.00  0.00    -0.290 A  
HETATM   20  C   UNL     1     -11.338  15.871  67.234  1.00  0.00    -0.003 A  
HETATM   21  C   UNL     1      -9.158  16.928  67.431  1.00  0.00    -0.217 A  
HETATM   22  C   UNL     1      -9.337  14.551  66.952  1.00  0.00    -0.258 A  
HETATM   23  C   UNL     1     -10.552  17.012  67.426  1.00  0.00    -0.289 A  
HETATM   24  C   UNL     1      -8.540  15.695  67.143  1.00  0.00    -0.210 A  
BRANCH  24  25
HETATM   25  O   UNL     1      -7.167  15.715  67.123  1.00  0.00    -0.210 OA 
BRANCH  25  26
HETATM   26  C   UNL     1      -6.450  14.778  67.920  1.00  0.00    -0.162 C  
HETATM   27  C   UNL     1      -6.370  15.321  69.340  1.00  0.00    -0.135 C  
ENDBRANCH  25  26
ENDBRANCH  24  25
BRANCH  21  28
HETATM   28  O   UNL     1      -8.323  17.982  67.715  1.00  0.00    -0.242 OA 
HETATM   29  C   UNL     1      -8.375  19.108  66.848  1.00  0.00    -0.285 C  
ENDBRANCH  21  28
ENDBRANCH   1  19
BRANCH   1  30
HETATM   30  C   UNL     1     -12.449  13.172  65.943  1.00  0.00    -0.319 C  
BRANCH  30  31
HETATM   31  S   UNL     1     -11.737  13.767  64.430  1.00  0.00    -0.403 S  
HETATM   32  O   UNL     1     -10.301  13.791  64.633  1.00  0.00    -0.426 OA 
HETATM   33  C   UNL     1     -12.246  15.460  64.242  1.00  0.00    -0.126 C  
HETATM   34  O   UNL     1     -12.306  13.020  63.327  1.00  0.00    -0.682 OA 
ENDBRANCH  30  31
ENDBRANCH   1  30
TORSDOF 9
ENDMDL
MODEL      213
REMARK 921   NORMALIZED FREE ENERGY PREDICTED BY IDOCK:   -3.68 KCAL/MOL
REMARK 922        TOTAL FREE ENERGY PREDICTED BY IDOCK:   -6.67 KCAL/MOL
REMARK 923 INTER-LIGAND FREE ENERGY PREDICTED BY IDOCK:   -5.86 KCAL/MOL
REMARK 924 INTRA-LIGAND FREE ENERGY PREDICTED BY IDOCK:   -0.81 KCAL/MOL
REMARK 927      BINDING AFFINITY PREDICTED BY RF-SCORE:    0.00 PKD
ROOT
HETATM    1  C   UNL     1      -9.210   8.313  68.813  1.00  0.00    -0.143 C  
ENDROOT
BRANCH   1   2
HETATM    2  N   UNL     1      -9.010   7.302  67.761  1.00  0.00    -0.127 N  
HETATM    3  C   UNL     1     -10.274   4.521  65.853  1.00  0.00    -0.289 A  
HETATM    4  C   UNL     1      -9.606   3.742  64.923  1.00  0.00    -0.177 A  
HETATM    5  O   UNL     1      -6.897   7.728  66.881  1.00  0.00    -0.068 OA 
HETATM    6  C   UNL     1      -8.304   4.092  64.521  1.00  0.00    -0.099 A  
HETATM    7  C   UNL     1     -10.055   6.499  67.409  1.00  0.00    -0.162 C  
HETATM    8  C   UNL     1      -7.941   7.105  66.904  1.00  0.00    -0.115 C  
HETATM    9  C   UNL     1      -7.642   5.252  64.990  1.00  0.00    -0.082 A  
HETATM   10  C   UNL     1      -8.299   5.969  65.997  1.00  0.00    -0.134 A  
HETATM   11  C   UNL     1      -9.590   5.599  66.371  1.00  0.00    -0.175 A  
HETATM   12  O   UNL     1     -11.199   6.510  67.831  1.00  0.00    -0.292 OA 
BRANCH   9  13
HETATM   13  N   UNL     1      -6.356   5.599  64.529  1.00  0.00    -0.032 NA 
HETATM   14  H   UNL     1      -5.562   5.151  64.987  1.00  0.00     0.000 HD 
BRANCH  13  15
HETATM   15  C   UNL     1      -6.093   6.434  63.577  1.00  0.00    -0.022 C  
HETATM   16  C   UNL     1      -5.884   7.919  63.520  1.00  0.00    -0.058 C  
HETATM   17  O   UNL     1      -6.002   5.909  62.343  1.00  0.00    -0.024 OA 
HETATM   18  H   UNL     1      -5.809   6.522  61.644  1.00  0.00     0.000 HD 
ENDBRANCH  13  15
ENDBRANCH   9  13
ENDBRANCH   1   2
BRANCH   1  19
HETATM   19  C   UNL     1      -9.492   9.737  68.298  1.00  0.00    -0.148 A  
HETATM   20  C   UNL     1      -8.947  10.853  68.943  1.00  0.00    -0.146 A  
HETATM   21  C   UNL     1      -9.466  12.275  67.042  1.00  0.00    -0.204 A  
HETATM   22  C   UNL     1     -10.134   9.937  67.051  1.00  0.00    -0.275 A  
HETATM   23  C   UNL     1      -8.928  12.104  68.320  1.00  0.00    -0.186 A  
HETATM   24  C   UNL     1     -10.120  11.194  66.419  1.00  0.00    -0.226 A  
BRANCH  24  25
HETATM   25  O   UNL     1     -10.660  11.464  65.185  1.00  0.00    -0.284 OA 
BRANCH  25  26
HETATM   26  C   UNL     1     -11.903  12.156  65.111  1.00  0.00    -0.298 C  
HETATM   27  C   UNL     1     -12.374  12.136  63.663  1.00  0.00    -0.673 C  
ENDBRANCH  25  26
ENDBRANCH  24  25
BRANCH  21  28
HETATM   28  O   UNL     1      -9.393  13.445  66.325  1.00  0.00    -0.222 OA 
HETATM   29  C   UNL     1      -9.061  14.629  67.038  1.00  0.00    -0.238 C  
ENDBRANCH  21  28
ENDBRANCH   1  19
BRANCH   1  30
HETATM   30  C   UNL     1     -10.229   7.978  69.903  1.00  0.00    -0.204 C  
BRANCH  30  31
HETATM   31  S   UNL     1      -9.554   7.397  71.438  1.00  0.00    -0.158 S  
HETATM   32  O   UNL     1      -9.286   5.982  71.259  1.00  0.00    -0.155 OA 
HETATM   33  C   UNL     1     -10.844   7.514  72.655  1.00  0.00    -0.315 C  
HETATM   34  O   UNL     1      -8.493   8.295  71.845  1.00  0.00    -0.132 OA 
ENDBRANCH  30  31
ENDBRANCH   1  30
TORSDOF 9
ENDMDL
MODEL      214
REMARK 921   NORMALIZED FREE ENERGY PREDICTED BY IDOCK:   -3.65 KCAL/MOL
REMARK 922        TOTAL FREE ENERGY PREDICTED BY IDOCK:   -6.63 KCAL/MOL
REMARK 923 INTER-LIGAND FREE ENERGY PREDICTED BY IDOCK:   -6.68 KCAL/MOL
REMARK 924 INTRA-LIGAND FREE ENERGY PREDICTED BY IDOCK:    0.05 KCAL/MOL
REMARK 927      BINDING AFFINITY PREDICTED BY RF-SCORE:    0.00 PKD
ROOT
HETATM    1  C   UNL     1     -10.626   7.505  69.322  1.00  0.00    -0.210 C  
ENDROOT
BRANCH   1   2
HETATM    2  N   UNL     1     -10.417   8.398  68.171  1.00  0.00    -0.201 N  
HETATM    3  C   UNL     1      -8.834   9.054  65.002  1.00  0.00    -0.213 A  
HETATM    4  C   UNL     1      -8.875  10.212  64.244  1.00  0.00    -0.244 A  
HETATM    5  O   UNL     1     -11.793  10.238  68.550  1.00  0.00    -0.197 OA 
HETATM    6  C   UNL     1      -9.719  11.271  64.626  1.00  0.00    -0.294 A  
HETATM    7  C   UNL     1      -9.672   7.955  67.117  1.00  0.00    -0.191 C  
HETATM    8  C   UNL     1     -10.997   9.619  67.871  1.00  0.00    -0.145 C  
HETATM    9  C   UNL     1     -10.587  11.195  65.741  1.00  0.00    -0.227 A  
HETATM   10  C   UNL     1     -10.460  10.054  66.543  1.00  0.00    -0.223 A  
HETATM   11  C   UNL     1      -9.617   9.022  66.136  1.00  0.00    -0.341 A  
HETATM   12  O   UNL     1      -9.151   6.865  66.959  1.00  0.00    -0.128 OA 
BRANCH   9  13
HETATM   13  N   UNL     1     -11.456  12.257  66.066  1.00  0.00    -0.364 NA 
HETATM   14  H   UNL     1     -11.625  12.431  67.057  1.00  0.00     0.000 HD 
BRANCH  13  15
HETATM   15  C   UNL     1     -12.059  13.028  65.221  1.00  0.00    -0.441 C  
HETATM   16  C   UNL     1     -12.028  14.505  64.950  1.00  0.00    -0.425 C  
HETATM   17  O   UNL     1     -12.936  12.428  64.398  1.00  0.00    -0.721 OA 
HETATM   18  H   UNL     1     -13.379  12.995  63.778  1.00  0.00     0.000 HD 
ENDBRANCH  13  15
ENDBRANCH   9  13
ENDBRANCH   1   2
BRANCH   1  19
HETATM   19  C   UNL     1      -9.386   7.293  70.212  1.00  0.00    -0.158 A  
HETATM   20  C   UNL     1      -9.238   6.123  70.965  1.00  0.00    -0.166 A  
HETATM   21  C   UNL     1      -6.884   6.598  71.341  1.00  0.00    -0.062 A  
HETATM   22  C   UNL     1      -8.282   8.176  70.129  1.00  0.00    -0.119 A  
HETATM   23  C   UNL     1      -8.000   5.776  71.517  1.00  0.00    -0.113 A  
HETATM   24  C   UNL     1      -7.035   7.834  70.682  1.00  0.00    -0.046 A  
BRANCH  24  25
HETATM   25  O   UNL     1      -5.896   8.598  70.596  1.00  0.00    -0.031 OA 
BRANCH  25  26
HETATM   26  C   UNL     1      -5.819   9.812  71.336  1.00  0.00    -0.024 C  
HETATM   27  C   UNL     1      -5.257  10.893  70.422  1.00  0.00    -0.076 C  
ENDBRANCH  25  26
ENDBRANCH  24  25
BRANCH  21  28
HETATM   28  O   UNL     1      -5.617   6.276  71.762  1.00  0.00    -0.026 OA 
HETATM   29  C   UNL     1      -5.417   6.102  73.159  1.00  0.00    -0.036 C  
ENDBRANCH  21  28
ENDBRANCH   1  19
BRANCH   1  30
HETATM   30  C   UNL     1     -11.825   7.813  70.221  1.00  0.00     0.132 C  
BRANCH  30  31
HETATM   31  S   UNL     1     -11.503   8.888  71.595  1.00  0.00    -0.364 S  
HETATM   32  O   UNL     1     -11.251   8.031  72.738  1.00  0.00    -0.384 OA 
HETATM   33  C   UNL     1     -13.015   9.757  71.945  1.00  0.00    -0.440 C  
HETATM   34  O   UNL     1     -10.522   9.874  71.190  1.00  0.00    -0.203 OA 
ENDBRANCH  30  31
ENDBRANCH   1  30
TORSDOF 9
ENDMDL
MODEL      215
REMARK 921   NORMALIZED FREE ENERGY PREDICTED BY IDOCK:   -3.59 KCAL/MOL
REMARK 922        TOTAL FREE ENERGY PREDICTED BY IDOCK:   -6.54 KCAL/MOL
REMARK 923 INTER-LIGAND FREE ENERGY PREDICTED BY IDOCK:   -6.40 KCAL/MOL
REMARK 924 INTRA-LIGAND FREE ENERGY PREDICTED BY IDOCK:   -0.14 KCAL/MOL
REMARK 927      BINDING AFFINITY PREDICTED BY RF-SCORE:    0.00 PKD
ROOT
HETATM    1  C   UNL     1      -9.676   7.961  70.300  1.00  0.00    -0.183 C  
ENDROOT
BRANCH   1   2
HETATM    2  N   UNL     1      -8.818   7.957  69.103  1.00  0.00    -0.141 N  
HETATM    3  C   UNL     1      -5.533   7.735  67.643  1.00  0.00    -0.032 A  
HETATM    4  C   UNL     1      -5.169   7.896  66.317  1.00  0.00    -0.025 A  
HETATM    5  O   UNL     1     -10.273   8.130  67.293  1.00  0.00    -0.223 OA 
HETATM    6  C   UNL     1      -6.161   8.045  65.330  1.00  0.00    -0.045 A  
HETATM    7  C   UNL     1      -7.486   7.701  69.245  1.00  0.00    -0.094 C  
HETATM    8  C   UNL     1      -9.157   8.016  67.762  1.00  0.00    -0.131 C  
HETATM    9  C   UNL     1      -7.545   7.987  65.620  1.00  0.00    -0.084 A  
HETATM   10  C   UNL     1      -7.887   7.916  66.976  1.00  0.00    -0.108 A  
HETATM   11  C   UNL     1      -6.881   7.767  67.929  1.00  0.00    -0.068 A  
HETATM   12  O   UNL     1      -6.867   7.430  70.260  1.00  0.00    -0.050 OA 
BRANCH   9  13
HETATM   13  N   UNL     1      -8.513   8.090  64.600  1.00  0.00    -0.363 NA 
HETATM   14  H   UNL     1      -9.168   7.315  64.501  1.00  0.00     0.000 HD 
BRANCH  13  15
HETATM   15  C   UNL     1      -8.643   9.080  63.777  1.00  0.00    -0.130 C  
HETATM   16  C   UNL     1      -8.137   9.359  62.392  1.00  0.00    -0.138 C  
HETATM   17  O   UNL     1      -9.359  10.126  64.225  1.00  0.00    -0.254 OA 
HETATM   18  H   UNL     1      -9.454  10.853  63.621  1.00  0.00     0.000 HD 
ENDBRANCH  13  15
ENDBRANCH   9  13
ENDBRANCH   1   2
BRANCH   1  19
HETATM   19  C   UNL     1     -10.731   9.082  70.338  1.00  0.00    -0.267 A  
HETATM   20  C   UNL     1     -11.806   9.024  71.233  1.00  0.00    -0.379 A  
HETATM   21  C   UNL     1     -12.306  11.375  70.868  1.00  0.00    -0.381 A  
HETATM   22  C   UNL     1     -10.527  10.285  69.619  1.00  0.00    -0.286 A  
HETATM   23  C   UNL     1     -12.579  10.159  71.500  1.00  0.00    -0.537 A  
HETATM   24  C   UNL     1     -11.303  11.430  69.881  1.00  0.00    -0.219 A  
BRANCH  24  25
HETATM   25  O   UNL     1     -11.135  12.653  69.280  1.00  0.00    -0.215 OA 
BRANCH  25  26
HETATM   26  C   UNL     1     -12.008  13.028  68.218  1.00  0.00    -0.267 C  
HETATM   27  C   UNL     1     -11.888  14.532  68.010  1.00  0.00    -0.350 C  
ENDBRANCH  25  26
ENDBRANCH  24  25
BRANCH  21  28
HETATM   28  O   UNL     1     -12.953  12.553  71.154  1.00  0.00    -0.271 OA 
HETATM   29  C   UNL     1     -13.525  12.688  72.448  1.00  0.00    -0.345 C  
ENDBRANCH  21  28
ENDBRANCH   1  19
BRANCH   1  30
HETATM   30  C   UNL     1     -10.355   6.640  70.663  1.00  0.00    -0.202 C  
BRANCH  30  31
HETATM   31  S   UNL     1     -10.510   6.302  72.398  1.00  0.00    -0.204 S  
HETATM   32  O   UNL     1      -9.364   6.917  73.040  1.00  0.00    -0.136 OA 
HETATM   33  C   UNL     1     -10.321   4.547  72.609  1.00  0.00    -0.193 C  
HETATM   34  O   UNL     1     -11.853   6.645  72.816  1.00  0.00    -0.082 OA 
ENDBRANCH  30  31
ENDBRANCH   1  30
TORSDOF 9
ENDMDL
MODEL      216
REMARK 921   NORMALIZED FREE ENERGY PREDICTED BY IDOCK:   -3.59 KCAL/MOL
REMARK 922        TOTAL FREE ENERGY PREDICTED BY IDOCK:   -6.54 KCAL/MOL
REMARK 923 INTER-LIGAND FREE ENERGY PREDICTED BY IDOCK:   -4.89 KCAL/MOL
REMARK 924 INTRA-LIGAND FREE ENERGY PREDICTED BY IDOCK:   -1.65 KCAL/MOL
REMARK 927      BINDING AFFINITY PREDICTED BY RF-SCORE:    0.00 PKD
ROOT
HETATM    1  C   UNL     1      -9.515   7.097  69.149  1.00  0.00    -0.147 C  
ENDROOT
BRANCH   1   2
HETATM    2  N   UNL     1      -8.990   6.928  67.784  1.00  0.00    -0.118 N  
HETATM    3  C   UNL     1      -8.821   5.010  64.741  1.00  0.00    -0.128 A  
HETATM    4  C   UNL     1      -8.024   5.228  63.630  1.00  0.00    -0.101 A  
HETATM    5  O   UNL     1      -7.687   8.816  67.381  1.00  0.00    -0.095 OA 
HETATM    6  C   UNL     1      -7.243   6.395  63.546  1.00  0.00    -0.059 A  
HETATM    7  C   UNL     1      -9.453   5.898  67.020  1.00  0.00    -0.125 C  
HETATM    8  C   UNL     1      -8.179   7.761  67.031  1.00  0.00    -0.117 C  
HETATM    9  C   UNL     1      -7.266   7.407  64.536  1.00  0.00    -0.073 A  
HETATM   10  C   UNL     1      -8.006   7.120  65.689  1.00  0.00    -0.126 A  
HETATM   11  C   UNL     1      -8.772   5.957  65.740  1.00  0.00    -0.153 A  
HETATM   12  O   UNL     1     -10.303   5.069  67.295  1.00  0.00    -0.188 OA 
BRANCH   9  13
HETATM   13  N   UNL     1      -6.508   8.587  64.395  1.00  0.00    -0.066 NA 
HETATM   14  H   UNL     1      -5.540   8.557  64.714  1.00  0.00     0.000 HD 
BRANCH  13  15
HETATM   15  C   UNL     1      -6.931   9.704  63.899  1.00  0.00    -0.112 C  
HETATM   16  C   UNL     1      -7.031  10.255  62.506  1.00  0.00    -0.141 C  
HETATM   17  O   UNL     1      -7.361  10.617  64.786  1.00  0.00    -0.343 OA 
HETATM   18  H   UNL     1      -7.672  11.437  64.422  1.00  0.00     0.000 HD 
ENDBRANCH  13  15
ENDBRANCH   9  13
ENDBRANCH   1   2
BRANCH   1  19
HETATM   19  C   UNL     1      -8.715   6.370  70.247  1.00  0.00    -0.143 A  
HETATM   20  C   UNL     1      -7.596   6.971  70.833  1.00  0.00    -0.086 A  
HETATM   21  C   UNL     1      -7.617   5.360  72.653  1.00  0.00    -0.098 A  
HETATM   22  C   UNL     1      -9.210   5.176  70.825  1.00  0.00    -0.188 A  
HETATM   23  C   UNL     1      -7.058   6.476  72.026  1.00  0.00    -0.081 A  
HETATM   24  C   UNL     1      -8.673   4.671  72.024  1.00  0.00    -0.122 A  
BRANCH  24  25
HETATM   25  O   UNL     1      -9.129   3.559  72.689  1.00  0.00    -0.097 OA 
BRANCH  25  26
HETATM   26  C   UNL     1     -10.529   3.297  72.719  1.00  0.00    -0.127 C  
HETATM   27  C   UNL     1     -11.202   4.394  73.532  1.00  0.00    -0.375 C  
ENDBRANCH  25  26
ENDBRANCH  24  25
BRANCH  21  28
HETATM   28  O   UNL     1      -7.212   4.879  73.875  1.00  0.00    -0.079 OA 
HETATM   29  C   UNL     1      -5.962   5.337  74.376  1.00  0.00    -0.052 C  
ENDBRANCH  21  28
ENDBRANCH   1  19
BRANCH   1  30
HETATM   30  C   UNL     1      -9.785   8.530  69.610  1.00  0.00    -0.179 C  
BRANCH  30  31
HETATM   31  S   UNL     1     -11.041   8.720  70.848  1.00  0.00    -0.282 S  
HETATM   32  O   UNL     1     -12.001   7.655  70.627  1.00  0.00    -0.223 OA 
HETATM   33  C   UNL     1     -11.892  10.242  70.502  1.00  0.00    -0.329 C  
HETATM   34  O   UNL     1     -10.399   8.867  72.138  1.00  0.00    -0.333 OA 
ENDBRANCH  30  31
ENDBRANCH   1  30
TORSDOF 9
ENDMDL
MODEL      217
REMARK 921   NORMALIZED FREE ENERGY PREDICTED BY IDOCK:   -3.54 KCAL/MOL
REMARK 922        TOTAL FREE ENERGY PREDICTED BY IDOCK:   -6.46 KCAL/MOL
REMARK 923 INTER-LIGAND FREE ENERGY PREDICTED BY IDOCK:   -5.33 KCAL/MOL
REMARK 924 INTRA-LIGAND FREE ENERGY PREDICTED BY IDOCK:   -1.13 KCAL/MOL
REMARK 927      BINDING AFFINITY PREDICTED BY RF-SCORE:    0.00 PKD
ROOT
HETATM    1  C   UNL     1      -9.643   8.791  69.582  1.00  0.00    -0.171 C  
ENDROOT
BRANCH   1   2
HETATM    2  N   UNL     1     -10.181  10.160  69.519  1.00  0.00    -0.223 N  
HETATM    3  C   UNL     1     -12.582  12.604  70.631  1.00  0.00    -0.241 A  
HETATM    4  C   UNL     1     -12.779  13.892  70.162  1.00  0.00    -0.182 A  
HETATM    5  O   UNL     1      -8.800  11.304  68.033  1.00  0.00    -0.137 OA 
HETATM    6  C   UNL     1     -11.889  14.437  69.218  1.00  0.00    -0.365 A  
HETATM    7  C   UNL     1     -11.172  10.522  70.383  1.00  0.00    -0.298 C  
HETATM    8  C   UNL     1      -9.735  11.262  68.809  1.00  0.00    -0.174 C  
HETATM    9  C   UNL     1     -10.749  13.743  68.748  1.00  0.00    -0.249 A  
HETATM   10  C   UNL     1     -10.624  12.413  69.166  1.00  0.00    -0.003 A  
HETATM   11  C   UNL     1     -11.520  11.902  70.104  1.00  0.00    -0.136 A  
HETATM   12  O   UNL     1     -11.689   9.861  71.267  1.00  0.00    -0.354 OA 
BRANCH   9  13
HETATM   13  N   UNL     1      -9.851  14.340  67.840  1.00  0.00    -0.221 NA 
HETATM   14  H   UNL     1     -10.024  14.185  66.847  1.00  0.00     0.000 HD 
BRANCH  13  15
HETATM   15  C   UNL     1      -8.827  15.065  68.153  1.00  0.00    -0.167 C  
HETATM   16  C   UNL     1      -7.432  14.757  68.614  1.00  0.00    -0.126 C  
HETATM   17  O   UNL     1      -9.009  16.396  68.093  1.00  0.00    -0.190 OA 
HETATM   18  H   UNL     1      -8.257  16.929  68.323  1.00  0.00     0.000 HD 
ENDBRANCH  13  15
ENDBRANCH   9  13
ENDBRANCH   1   2
BRANCH   1  19
HETATM   19  C   UNL     1      -9.007   8.283  68.274  1.00  0.00    -0.136 A  
HETATM   20  C   UNL     1      -7.656   8.521  67.996  1.00  0.00    -0.098 A  
HETATM   21  C   UNL     1      -7.673   6.856  66.225  1.00  0.00    -0.094 A  
HETATM   22  C   UNL     1      -9.716   7.397  67.427  1.00  0.00    -0.196 A  
HETATM   23  C   UNL     1      -6.996   7.810  66.988  1.00  0.00    -0.077 A  
HETATM   24  C   UNL     1      -9.059   6.680  66.411  1.00  0.00    -0.152 A  
BRANCH  24  25
HETATM   25  O   UNL     1      -9.651   5.755  65.585  1.00  0.00    -0.009 OA 
BRANCH  25  26
HETATM   26  C   UNL     1     -10.414   4.701  66.163  1.00  0.00    -0.241 C  
HETATM   27  C   UNL     1      -9.455   3.598  66.592  1.00  0.00    -0.197 C  
ENDBRANCH  25  26
ENDBRANCH  24  25
BRANCH  21  28
HETATM   28  O   UNL     1      -7.071   6.047  65.291  1.00  0.00    -0.061 OA 
HETATM   29  C   UNL     1      -6.195   6.667  64.358  1.00  0.00    -0.035 C  
ENDBRANCH  21  28
ENDBRANCH   1  19
BRANCH   1  30
HETATM   30  C   UNL     1      -8.694   8.478  70.740  1.00  0.00    -0.160 C  
BRANCH  30  31
HETATM   31  S   UNL     1      -9.233   7.212  71.859  1.00  0.00    -0.137 S  
HETATM   32  O   UNL     1      -9.060   7.746  73.197  1.00  0.00    -0.172 OA 
HETATM   33  C   UNL     1      -8.090   5.858  71.708  1.00  0.00    -0.118 C  
HETATM   34  O   UNL     1     -10.529   6.734  71.425  1.00  0.00    -0.213 OA 
ENDBRANCH  30  31
ENDBRANCH   1  30
TORSDOF 9
ENDMDL
MODEL      218
REMARK 921   NORMALIZED FREE ENERGY PREDICTED BY IDOCK:   -3.54 KCAL/MOL
REMARK 922        TOTAL FREE ENERGY PREDICTED BY IDOCK:   -6.46 KCAL/MOL
REMARK 923 INTER-LIGAND FREE ENERGY PREDICTED BY IDOCK:   -6.59 KCAL/MOL
REMARK 924 INTRA-LIGAND FREE ENERGY PREDICTED BY IDOCK:    0.13 KCAL/MOL
REMARK 927      BINDING AFFINITY PREDICTED BY RF-SCORE:    0.00 PKD
ROOT
HETATM    1  C   UNL     1      -8.684   8.917  68.901  1.00  0.00    -0.136 C  
ENDROOT
BRANCH   1   2
HETATM    2  N   UNL     1      -9.873   9.258  69.700  1.00  0.00    -0.177 N  
HETATM    3  C   UNL     1     -12.281   8.349  72.219  1.00  0.00    -0.449 A  
HETATM    4  C   UNL     1     -13.412   9.041  72.618  1.00  0.00    -0.400 A  
HETATM    5  O   UNL     1     -10.442  11.429  69.077  1.00  0.00    -0.207 OA 
HETATM    6  C   UNL     1     -13.657  10.332  72.115  1.00  0.00    -0.245 A  
HETATM    7  C   UNL     1     -10.276   8.403  70.683  1.00  0.00    -0.194 C  
HETATM    8  C   UNL     1     -10.612  10.428  69.747  1.00  0.00    -0.258 C  
HETATM    9  C   UNL     1     -12.764  10.997  71.241  1.00  0.00    -0.432 A  
HETATM   10  C   UNL     1     -11.678  10.241  70.781  1.00  0.00    -0.453 A  
HETATM   11  C   UNL     1     -11.461   8.967  71.301  1.00  0.00    -0.368 A  
HETATM   12  O   UNL     1      -9.759   7.359  71.042  1.00  0.00    -0.166 OA 
BRANCH   9  13
HETATM   13  N   UNL     1     -13.016  12.310  70.795  1.00  0.00     0.011 NA 
HETATM   14  H   UNL     1     -13.612  12.415  69.974  1.00  0.00     0.000 HD 
BRANCH  13  15
HETATM   15  C   UNL     1     -12.560  13.394  71.334  1.00  0.00    -0.283 C  
HETATM   16  C   UNL     1     -13.058  14.312  72.413  1.00  0.00    -0.519 C  
HETATM   17  O   UNL     1     -11.401  13.856  70.835  1.00  0.00    -0.425 OA 
HETATM   18  H   UNL     1     -11.066  14.652  71.231  1.00  0.00     0.000 HD 
ENDBRANCH  13  15
ENDBRANCH   9  13
ENDBRANCH   1   2
BRANCH   1  19
HETATM   19  C   UNL     1      -8.667   7.481  68.345  1.00  0.00    -0.123 A  
HETATM   20  C   UNL     1      -9.843   6.876  67.887  1.00  0.00    -0.155 A  
HETATM   21  C   UNL     1      -8.574   5.132  66.767  1.00  0.00    -0.109 A  
HETATM   22  C   UNL     1      -7.438   6.821  68.097  1.00  0.00    -0.099 A  
HETATM   23  C   UNL     1      -9.796   5.720  67.101  1.00  0.00    -0.163 A  
HETATM   24  C   UNL     1      -7.384   5.657  67.309  1.00  0.00    -0.077 A  
BRANCH  24  25
HETATM   25  O   UNL     1      -6.235   4.988  66.964  1.00  0.00    -0.030 OA 
BRANCH  25  26
HETATM   26  C   UNL     1      -5.350   4.559  67.994  1.00  0.00    -0.011 C  
HETATM   27  C   UNL     1      -5.843   3.217  68.519  1.00  0.00    -0.023 C  
ENDBRANCH  25  26
ENDBRANCH  24  25
BRANCH  21  28
HETATM   28  O   UNL     1      -8.442   4.060  65.918  1.00  0.00    -0.108 OA 
HETATM   29  C   UNL     1      -8.830   4.247  64.563  1.00  0.00    -0.143 C  
ENDBRANCH  21  28
ENDBRANCH   1  19
BRANCH   1  30
HETATM   30  C   UNL     1      -8.315   9.882  67.773  1.00  0.00    -0.114 C  
BRANCH  30  31
HETATM   31  S   UNL     1      -9.258   9.720  66.279  1.00  0.00    -0.175 S  
HETATM   32  O   UNL     1      -8.486   8.866  65.397  1.00  0.00    -0.141 OA 
HETATM   33  C   UNL     1      -9.302  11.323  65.512  1.00  0.00    -0.221 C  
HETATM   34  O   UNL     1     -10.619   9.370  66.629  1.00  0.00    -0.197 OA 
ENDBRANCH  30  31
ENDBRANCH   1  30
TORSDOF 9
ENDMDL
MODEL      219
REMARK 921   NORMALIZED FREE ENERGY PREDICTED BY IDOCK:   -3.54 KCAL/MOL
REMARK 922        TOTAL FREE ENERGY PREDICTED BY IDOCK:   -6.46 KCAL/MOL
REMARK 923 INTER-LIGAND FREE ENERGY PREDICTED BY IDOCK:   -7.68 KCAL/MOL
REMARK 924 INTRA-LIGAND FREE ENERGY PREDICTED BY IDOCK:    1.22 KCAL/MOL
REMARK 927      BINDING AFFINITY PREDICTED BY RF-SCORE:    0.00 PKD
ROOT
HETATM    1  C   UNL     1      -9.866  17.215  67.560  1.00  0.00    -0.266 C  
ENDROOT
BRANCH   1   2
HETATM    2  N   UNL     1     -10.163  15.774  67.603  1.00  0.00    -0.261 N  
HETATM    3  C   UNL     1      -9.779  12.485  66.185  1.00  0.00    -0.259 A  
HETATM    4  C   UNL     1     -10.398  11.306  66.566  1.00  0.00    -0.284 A  
HETATM    5  O   UNL     1     -11.453  15.460  69.516  1.00  0.00    -0.275 OA 
HETATM    6  C   UNL     1     -11.198  11.277  67.724  1.00  0.00    -0.354 A  
HETATM    7  C   UNL     1      -9.547  14.945  66.711  1.00  0.00    -0.251 C  
HETATM    8  C   UNL     1     -10.874  15.036  68.534  1.00  0.00    -0.250 C  
HETATM    9  C   UNL     1     -11.368  12.401  68.567  1.00  0.00    -0.293 A  
HETATM   10  C   UNL     1     -10.809  13.601  68.111  1.00  0.00    -0.262 A  
HETATM   11  C   UNL     1     -10.019  13.597  66.963  1.00  0.00    -0.248 A  
HETATM   12  O   UNL     1      -8.722  15.224  65.858  1.00  0.00    -0.054 OA 
BRANCH   9  13
HETATM   13  N   UNL     1     -12.137  12.323  69.746  1.00  0.00    -0.266 NA 
HETATM   14  H   UNL     1     -12.840  13.047  69.890  1.00  0.00     0.000 HD 
BRANCH  13  15
HETATM   15  C   UNL     1     -12.030  11.415  70.661  1.00  0.00    -0.314 C  
HETATM   16  C   UNL     1     -12.963  10.867  71.702  1.00  0.00    -0.569 C  
HETATM   17  O   UNL     1     -10.829  10.818  70.760  1.00  0.00    -0.245 OA 
HETATM   18  H   UNL     1     -10.751  10.151  71.431  1.00  0.00     0.000 HD 
ENDBRANCH  13  15
ENDBRANCH   9  13
ENDBRANCH   1   2
BRANCH   1  19
HETATM   19  C   UNL     1      -8.507  17.615  68.166  1.00  0.00    -0.260 A  
HETATM   20  C   UNL     1      -8.237  18.947  68.502  1.00  0.00    -0.388 A  
HETATM   21  C   UNL     1      -6.313  18.279  69.828  1.00  0.00    -0.121 A  
HETATM   22  C   UNL     1      -7.586  16.623  68.583  1.00  0.00    -0.214 A  
HETATM   23  C   UNL     1      -7.158  19.273  69.329  1.00  0.00    -0.333 A  
HETATM   24  C   UNL     1      -6.497  16.945  69.414  1.00  0.00    -0.234 A  
BRANCH  24  25
HETATM   25  O   UNL     1      -5.592  16.042  69.917  1.00  0.00    -0.137 OA 
BRANCH  25  26
HETATM   26  C   UNL     1      -6.050  15.026  70.805  1.00  0.00     0.029 C  
HETATM   27  C   UNL     1      -6.894  14.042  70.008  1.00  0.00     0.124 C  
ENDBRANCH  25  26
ENDBRANCH  24  25
BRANCH  21  28
HETATM   28  O   UNL     1      -5.298  18.509  70.725  1.00  0.00    -0.243 OA 
HETATM   29  C   UNL     1      -5.144  19.836  71.212  1.00  0.00    -0.289 C  
ENDBRANCH  21  28
ENDBRANCH   1  19
BRANCH   1  30
HETATM   30  C   UNL     1     -10.019  17.909  66.206  1.00  0.00    -0.331 C  
BRANCH  30  31
HETATM   31  S   UNL     1     -10.349  19.651  66.264  1.00  0.00    -0.540 S  
HETATM   32  O   UNL     1     -11.219  19.942  65.140  1.00  0.00    -0.280 OA 
HETATM   33  C   UNL     1      -8.814  20.486  65.939  1.00  0.00     0.317 C  
HETATM   34  O   UNL     1     -10.755  19.999  67.610  1.00  0.00    -0.324 OA 
ENDBRANCH  30  31
ENDBRANCH   1  30
TORSDOF 9
ENDMDL
MODEL      220
REMARK 921   NORMALIZED FREE ENERGY PREDICTED BY IDOCK:   -3.52 KCAL/MOL
REMARK 922        TOTAL FREE ENERGY PREDICTED BY IDOCK:   -6.43 KCAL/MOL
REMARK 923 INTER-LIGAND FREE ENERGY PREDICTED BY IDOCK:   -7.82 KCAL/MOL
REMARK 924 INTRA-LIGAND FREE ENERGY PREDICTED BY IDOCK:    1.39 KCAL/MOL
REMARK 927      BINDING AFFINITY PREDICTED BY RF-SCORE:    0.00 PKD
ROOT
HETATM    1  C   UNL     1      -9.200  11.108  68.412  1.00  0.00    -0.175 C  
ENDROOT
BRANCH   1   2
HETATM    2  N   UNL     1      -9.316   9.674  68.722  1.00  0.00    -0.145 N  
HETATM    3  C   UNL     1      -8.783   6.241  67.769  1.00  0.00    -0.113 A  
HETATM    4  C   UNL     1      -9.192   5.093  68.426  1.00  0.00    -0.142 A  
HETATM    5  O   UNL     1     -10.239   9.571  70.858  1.00  0.00    -0.292 OA 
HETATM    6  C   UNL     1      -9.787   5.187  69.698  1.00  0.00    -0.286 A  
HETATM    7  C   UNL     1      -8.759   8.766  67.870  1.00  0.00    -0.136 C  
HETATM    8  C   UNL     1      -9.779   9.042  69.864  1.00  0.00    -0.183 C  
HETATM    9  C   UNL     1      -9.950   6.417  70.379  1.00  0.00    -0.183 A  
HETATM   10  C   UNL     1      -9.615   7.569  69.657  1.00  0.00    -0.159 A  
HETATM   11  C   UNL     1      -9.024   7.442  68.401  1.00  0.00    -0.134 A  
HETATM   12  O   UNL     1      -8.119   8.970  66.853  1.00  0.00    -0.110 OA 
BRANCH   9  13
HETATM   13  N   UNL     1     -10.506   6.469  71.674  1.00  0.00    -0.211 NA 
HETATM   14  H   UNL     1      -9.855   6.532  72.456  1.00  0.00     0.000 HD 
BRANCH  13  15
HETATM   15  C   UNL     1     -11.768   6.444  71.957  1.00  0.00    -0.329 C  
HETATM   16  C   UNL     1     -12.944   7.286  71.556  1.00  0.00    -0.434 C  
HETATM   17  O   UNL     1     -12.158   5.489  72.819  1.00  0.00    -0.502 OA 
HETATM   18  H   UNL     1     -13.084   5.471  73.027  1.00  0.00     0.000 HD 
ENDBRANCH  13  15
ENDBRANCH   9  13
ENDBRANCH   1   2
BRANCH   1  19
HETATM   19  C   UNL     1      -9.494  11.480  66.946  1.00  0.00    -0.194 A  
HETATM   20  C   UNL     1      -9.966  10.519  66.044  1.00  0.00    -0.295 A  
HETATM   21  C   UNL     1     -10.623  12.246  64.465  1.00  0.00    -0.311 A  
HETATM   22  C   UNL     1      -9.489  12.835  66.534  1.00  0.00    -0.253 A  
HETATM   23  C   UNL     1     -10.530  10.898  64.822  1.00  0.00    -0.373 A  
HETATM   24  C   UNL     1     -10.054  13.223  65.305  1.00  0.00    -0.239 A  
BRANCH  24  25
HETATM   25  O   UNL     1     -10.150  14.516  64.852  1.00  0.00    -0.378 OA 
BRANCH  25  26
HETATM   26  C   UNL     1     -10.888  15.464  65.618  1.00  0.00    -0.355 C  
HETATM   27  C   UNL     1     -10.010  16.689  65.835  1.00  0.00    -0.320 C  
ENDBRANCH  25  26
ENDBRANCH  24  25
BRANCH  21  28
HETATM   28  O   UNL     1     -11.254  12.701  63.332  1.00  0.00    -0.467 OA 
HETATM   29  C   UNL     1     -12.672  12.800  63.369  1.00  0.00    -0.059 C  
ENDBRANCH  21  28
ENDBRANCH   1  19
BRANCH   1  30
HETATM   30  C   UNL     1      -9.962  12.072  69.322  1.00  0.00     0.425 C  
BRANCH  30  31
HETATM   31  S   UNL     1     -11.715  12.152  69.067  1.00  0.00    -0.319 S  
HETATM   32  O   UNL     1     -11.985  13.445  68.466  1.00  0.00    -0.348 OA 
HETATM   33  C   UNL     1     -12.478  12.177  70.673  1.00  0.00    -0.242 C  
HETATM   34  O   UNL     1     -12.141  10.937  68.405  1.00  0.00    -0.559 OA 
ENDBRANCH  30  31
ENDBRANCH   1  30
TORSDOF 9
ENDMDL
MODEL      221
REMARK 921   NORMALIZED FREE ENERGY PREDICTED BY IDOCK:   -3.50 KCAL/MOL
REMARK 922        TOTAL FREE ENERGY PREDICTED BY IDOCK:   -6.40 KCAL/MOL
REMARK 923 INTER-LIGAND FREE ENERGY PREDICTED BY IDOCK:   -4.89 KCAL/MOL
REMARK 924 INTRA-LIGAND FREE ENERGY PREDICTED BY IDOCK:   -1.51 KCAL/MOL
REMARK 927      BINDING AFFINITY PREDICTED BY RF-SCORE:    0.00 PKD
ROOT
HETATM    1  C   UNL     1      -8.939   9.404  69.052  1.00  0.00    -0.141 C  
ENDROOT
BRANCH   1   2
HETATM    2  N   UNL     1      -8.214   8.427  68.224  1.00  0.00    -0.122 N  
HETATM    3  C   UNL     1      -6.455   5.296  67.945  1.00  0.00    -0.048 A  
HETATM    4  C   UNL     1      -5.789   4.778  66.847  1.00  0.00    -0.026 A  
HETATM    5  O   UNL     1      -8.266   9.285  66.059  1.00  0.00    -0.108 OA 
HETATM    6  C   UNL     1      -5.866   5.437  65.606  1.00  0.00    -0.021 A  
HETATM    7  C   UNL     1      -7.839   7.239  68.779  1.00  0.00    -0.121 C  
HETATM    8  C   UNL     1      -7.962   8.423  66.862  1.00  0.00    -0.099 C  
HETATM    9  C   UNL     1      -6.647   6.600  65.402  1.00  0.00    -0.050 A  
HETATM   10  C   UNL     1      -7.234   7.154  66.546  1.00  0.00    -0.079 A  
HETATM   11  C   UNL     1      -7.142   6.476  67.760  1.00  0.00    -0.088 A  
HETATM   12  O   UNL     1      -8.049   6.826  69.906  1.00  0.00    -0.121 OA 
BRANCH   9  13
HETATM   13  N   UNL     1      -6.741   7.206  64.133  1.00  0.00    -0.046 NA 
HETATM   14  H   UNL     1      -5.917   7.703  63.793  1.00  0.00     0.000 HD 
BRANCH  13  15
HETATM   15  C   UNL     1      -7.778   7.188  63.360  1.00  0.00    -0.119 C  
HETATM   16  C   UNL     1      -8.344   8.144  62.351  1.00  0.00    -0.142 C  
HETATM   17  O   UNL     1      -8.572   6.108  63.466  1.00  0.00    -0.333 OA 
HETATM   18  H   UNL     1      -9.334   6.096  62.899  1.00  0.00     0.000 HD 
ENDBRANCH  13  15
ENDBRANCH   9  13
ENDBRANCH   1   2
BRANCH   1  19
HETATM   19  C   UNL     1      -8.826  10.866  68.579  1.00  0.00    -0.153 A  
HETATM   20  C   UNL     1      -9.970  11.606  68.261  1.00  0.00    -0.201 A  
HETATM   21  C   UNL     1      -8.709  13.683  68.320  1.00  0.00    -0.171 A  
HETATM   22  C   UNL     1      -7.589  11.551  68.652  1.00  0.00    -0.134 A  
HETATM   23  C   UNL     1      -9.914  12.998  68.140  1.00  0.00    -0.231 A  
HETATM   24  C   UNL     1      -7.524  12.951  68.530  1.00  0.00    -0.123 A  
BRANCH  24  25
HETATM   25  O   UNL     1      -6.381  13.704  68.650  1.00  0.00    -0.080 OA 
BRANCH  25  26
HETATM   26  C   UNL     1      -5.407  13.332  69.621  1.00  0.00    -0.089 C  
HETATM   27  C   UNL     1      -5.800  13.956  70.953  1.00  0.00    -0.199 C  
ENDBRANCH  25  26
ENDBRANCH  24  25
BRANCH  21  28
HETATM   28  O   UNL     1      -8.594  15.052  68.320  1.00  0.00    -0.147 OA 
HETATM   29  C   UNL     1      -9.409  15.777  69.232  1.00  0.00    -0.261 C  
ENDBRANCH  21  28
ENDBRANCH   1  19
BRANCH   1  30
HETATM   30  C   UNL     1     -10.408   9.099  69.347  1.00  0.00    -0.216 C  
BRANCH  30  31
HETATM   31  S   UNL     1     -10.838   8.953  71.062  1.00  0.00    -0.285 S  
HETATM   32  O   UNL     1      -9.591   9.000  71.803  1.00  0.00    -0.290 OA 
HETATM   33  C   UNL     1     -11.501   7.321  71.299  1.00  0.00    -0.276 C  
HETATM   34  O   UNL     1     -11.897   9.897  71.355  1.00  0.00    -0.369 OA 
ENDBRANCH  30  31
ENDBRANCH   1  30
TORSDOF 9
ENDMDL
MODEL      222
REMARK 921   NORMALIZED FREE ENERGY PREDICTED BY IDOCK:   -3.45 KCAL/MOL
REMARK 922        TOTAL FREE ENERGY PREDICTED BY IDOCK:   -6.33 KCAL/MOL
REMARK 923 INTER-LIGAND FREE ENERGY PREDICTED BY IDOCK:   -6.53 KCAL/MOL
REMARK 924 INTRA-LIGAND FREE ENERGY PREDICTED BY IDOCK:    0.20 KCAL/MOL
REMARK 927      BINDING AFFINITY PREDICTED BY RF-SCORE:    0.00 PKD
ROOT
HETATM    1  C   UNL     1      -9.566  16.683  67.329  1.00  0.00    -0.243 C  
ENDROOT
BRANCH   1   2
HETATM    2  N   UNL     1     -10.275  15.539  66.731  1.00  0.00    -0.273 N  
HETATM    3  C   UNL     1     -11.695  13.944  63.831  1.00  0.00    -0.241 A  
HETATM    4  C   UNL     1     -12.430  12.772  63.768  1.00  0.00    -0.474 A  
HETATM    5  O   UNL     1     -10.589  14.022  68.470  1.00  0.00    -0.241 OA 
HETATM    6  C   UNL     1     -12.582  11.977  64.918  1.00  0.00     0.112 A  
HETATM    7  C   UNL     1     -10.443  15.501  65.378  1.00  0.00    -0.405 C  
HETATM    8  C   UNL     1     -10.692  14.350  67.303  1.00  0.00    -0.285 C  
HETATM    9  C   UNL     1     -11.968  12.291  66.154  1.00  0.00    -0.249 A  
HETATM   10  C   UNL     1     -11.309  13.524  66.217  1.00  0.00    -0.327 A  
HETATM   11  C   UNL     1     -11.173  14.288  65.059  1.00  0.00    -0.364 A  
HETATM   12  O   UNL     1     -10.050  16.293  64.540  1.00  0.00     0.254 OA 
BRANCH   9  13
HETATM   13  N   UNL     1     -12.101  11.445  67.274  1.00  0.00    -0.234 NA 
HETATM   14  H   UNL     1     -13.033  11.353  67.678  1.00  0.00     0.000 HD 
BRANCH  13  15
HETATM   15  C   UNL     1     -11.146  10.775  67.835  1.00  0.00    -0.308 C  
HETATM   16  C   UNL     1     -10.119  11.100  68.880  1.00  0.00    -0.199 C  
HETATM   17  O   UNL     1     -10.980   9.514  67.403  1.00  0.00    -0.391 OA 
HETATM   18  H   UNL     1     -10.280   9.022  67.814  1.00  0.00     0.000 HD 
ENDBRANCH  13  15
ENDBRANCH   9  13
ENDBRANCH   1   2
BRANCH   1  19
HETATM   19  C   UNL     1      -8.219  16.335  67.991  1.00  0.00    -0.157 A  
HETATM   20  C   UNL     1      -7.696  17.136  69.014  1.00  0.00    -0.164 A  
HETATM   21  C   UNL     1      -6.107  15.404  69.631  1.00  0.00    -0.140 A  
HETATM   22  C   UNL     1      -7.585  15.097  67.725  1.00  0.00    -0.171 A  
HETATM   23  C   UNL     1      -6.658  16.672  69.828  1.00  0.00    -0.066 A  
HETATM   24  C   UNL     1      -6.539  14.626  68.539  1.00  0.00    -0.095 A  
BRANCH  24  25
HETATM   25  O   UNL     1      -5.910  13.413  68.395  1.00  0.00    -0.075 OA 
BRANCH  25  26
HETATM   26  C   UNL     1      -6.163  12.637  67.228  1.00  0.00    -0.089 C  
HETATM   27  C   UNL     1      -7.390  11.773  67.485  1.00  0.00    -0.127 C  
ENDBRANCH  25  26
ENDBRANCH  24  25
BRANCH  21  28
HETATM   28  O   UNL     1      -5.159  14.840  70.451  1.00  0.00    -0.102 OA 
HETATM   29  C   UNL     1      -5.340  14.983  71.854  1.00  0.00     0.037 C  
ENDBRANCH  21  28
ENDBRANCH   1  19
BRANCH   1  30
HETATM   30  C   UNL     1      -9.370  17.912  66.441  1.00  0.00    -0.255 C  
BRANCH  30  31
HETATM   31  S   UNL     1     -10.343  19.333  66.864  1.00  0.00    -0.460 S  
HETATM   32  O   UNL     1     -11.016  19.748  65.647  1.00  0.00    -0.382 OA 
HETATM   33  C   UNL     1      -9.210  20.639  67.280  1.00  0.00    -0.308 C  
HETATM   34  O   UNL     1     -11.109  19.030  68.055  1.00  0.00    -0.110 OA 
ENDBRANCH  30  31
ENDBRANCH   1  30
TORSDOF 9
ENDMDL
MODEL      223
REMARK 921   NORMALIZED FREE ENERGY PREDICTED BY IDOCK:   -3.43 KCAL/MOL
REMARK 922        TOTAL FREE ENERGY PREDICTED BY IDOCK:   -6.28 KCAL/MOL
REMARK 923 INTER-LIGAND FREE ENERGY PREDICTED BY IDOCK:   -5.31 KCAL/MOL
REMARK 924 INTRA-LIGAND FREE ENERGY PREDICTED BY IDOCK:   -0.97 KCAL/MOL
REMARK 927      BINDING AFFINITY PREDICTED BY RF-SCORE:    0.00 PKD
ROOT
HETATM    1  C   UNL     1      -9.285   6.885  67.068  1.00  0.00    -0.142 C  
ENDROOT
BRANCH   1   2
HETATM    2  N   UNL     1      -9.216   6.549  68.500  1.00  0.00    -0.127 N  
HETATM    3  C   UNL     1     -10.899   5.884  71.614  1.00  0.00    -0.321 A  
HETATM    4  C   UNL     1     -10.344   5.684  72.866  1.00  0.00    -0.224 A  
HETATM    5  O   UNL     1      -6.951   6.270  68.967  1.00  0.00    -0.063 OA 
HETATM    6  C   UNL     1      -8.947   5.587  73.006  1.00  0.00    -0.122 A  
HETATM    7  C   UNL     1     -10.374   6.313  69.180  1.00  0.00    -0.216 C  
HETATM    8  C   UNL     1      -8.122   6.260  69.297  1.00  0.00    -0.110 C  
HETATM    9  C   UNL     1      -8.061   5.635  71.904  1.00  0.00    -0.115 A  
HETATM   10  C   UNL     1      -8.639   5.931  70.663  1.00  0.00    -0.133 A  
HETATM   11  C   UNL     1     -10.026   6.018  70.557  1.00  0.00    -0.233 A  
HETATM   12  O   UNL     1     -11.517   6.306  68.756  1.00  0.00    -0.294 OA 
BRANCH   9  13
HETATM   13  N   UNL     1      -6.670   5.486  72.075  1.00  0.00    -0.057 NA 
HETATM   14  H   UNL     1      -6.066   5.936  71.387  1.00  0.00     0.000 HD 
BRANCH  13  15
HETATM   15  C   UNL     1      -6.090   4.829  73.027  1.00  0.00    -0.022 C  
HETATM   16  C   UNL     1      -5.541   3.437  73.150  1.00  0.00     0.000 C  
HETATM   17  O   UNL     1      -5.949   5.484  74.192  1.00  0.00    -0.053 OA 
HETATM   18  H   UNL     1      -5.524   5.001  74.891  1.00  0.00     0.000 HD 
ENDBRANCH  13  15
ENDBRANCH   9  13
ENDBRANCH   1   2
BRANCH   1  19
HETATM   19  C   UNL     1      -9.359   8.393  66.759  1.00  0.00    -0.235 A  
HETATM   20  C   UNL     1      -9.407   8.851  65.437  1.00  0.00    -0.158 A  
HETATM   21  C   UNL     1     -10.116  11.057  66.170  1.00  0.00    -0.237 A  
HETATM   22  C   UNL     1      -9.585   9.329  67.797  1.00  0.00    -0.167 A  
HETATM   23  C   UNL     1      -9.788  10.164  65.147  1.00  0.00    -0.394 A  
HETATM   24  C   UNL     1      -9.968  10.653  67.512  1.00  0.00    -0.171 A  
BRANCH  24  25
HETATM   25  O   UNL     1     -10.268  11.609  68.451  1.00  0.00    -0.195 OA 
BRANCH  25  26
HETATM   26  C   UNL     1     -10.632  11.197  69.765  1.00  0.00     0.075 C  
HETATM   27  C   UNL     1     -12.151  11.125  69.839  1.00  0.00    -0.418 C  
ENDBRANCH  25  26
ENDBRANCH  24  25
BRANCH  21  28
HETATM   28  O   UNL     1     -10.597  12.327  65.960  1.00  0.00    -0.243 OA 
HETATM   29  C   UNL     1     -10.987  12.668  64.636  1.00  0.00    -0.313 C  
ENDBRANCH  21  28
ENDBRANCH   1  19
BRANCH   1  30
HETATM   30  C   UNL     1      -8.227   6.253  66.162  1.00  0.00    -0.121 C  
BRANCH  30  31
HETATM   31  S   UNL     1      -8.574   4.605  65.605  1.00  0.00    -0.128 S  
HETATM   32  O   UNL     1      -9.343   4.738  64.382  1.00  0.00    -0.106 OA 
HETATM   33  C   UNL     1      -9.661   3.865  66.802  1.00  0.00    -0.198 C  
HETATM   34  O   UNL     1      -7.341   3.846  65.613  1.00  0.00    -0.070 OA 
ENDBRANCH  30  31
ENDBRANCH   1  30
TORSDOF 9
ENDMDL
MODEL      224
REMARK 921   NORMALIZED FREE ENERGY PREDICTED BY IDOCK:   -3.36 KCAL/MOL
REMARK 922        TOTAL FREE ENERGY PREDICTED BY IDOCK:   -6.18 KCAL/MOL
REMARK 923 INTER-LIGAND FREE ENERGY PREDICTED BY IDOCK:   -6.30 KCAL/MOL
REMARK 924 INTRA-LIGAND FREE ENERGY PREDICTED BY IDOCK:    0.11 KCAL/MOL
REMARK 927      BINDING AFFINITY PREDICTED BY RF-SCORE:    0.00 PKD
ROOT
HETATM    1  C   UNL     1      -7.524   7.927  70.672  1.00  0.00    -0.069 C  
ENDROOT
BRANCH   1   2
HETATM    2  N   UNL     1      -8.850   8.552  70.809  1.00  0.00    -0.148 N  
HETATM    3  C   UNL     1     -12.087   8.644  72.387  1.00  0.00    -0.415 A  
HETATM    4  C   UNL     1     -13.168   9.454  72.084  1.00  0.00    -0.541 A  
HETATM    5  O   UNL     1      -8.838  10.367  69.351  1.00  0.00    -0.167 OA 
HETATM    6  C   UNL     1     -13.029  10.485  71.137  1.00  0.00    -0.506 A  
HETATM    7  C   UNL     1      -9.691   8.110  71.788  1.00  0.00    -0.191 C  
HETATM    8  C   UNL     1      -9.376   9.675  70.193  1.00  0.00    -0.251 C  
HETATM    9  C   UNL     1     -11.800  10.778  70.498  1.00  0.00    -0.356 A  
HETATM   10  C   UNL     1     -10.749   9.888  70.751  1.00  0.00    -0.350 A  
HETATM   11  C   UNL     1     -10.918   8.879  71.697  1.00  0.00    -0.415 A  
HETATM   12  O   UNL     1      -9.492   7.254  72.633  1.00  0.00    -0.143 OA 
BRANCH   9  13
HETATM   13  N   UNL     1     -11.684  11.850  69.590  1.00  0.00    -0.326 NA 
HETATM   14  H   UNL     1     -11.252  11.650  68.688  1.00  0.00     0.000 HD 
BRANCH  13  15
HETATM   15  C   UNL     1     -12.077  13.065  69.798  1.00  0.00    -0.258 C  
HETATM   16  C   UNL     1     -12.291  13.895  71.031  1.00  0.00    -0.453 C  
HETATM   17  O   UNL     1     -12.402  13.774  68.704  1.00  0.00    -0.430 OA 
HETATM   18  H   UNL     1     -12.691  14.665  68.857  1.00  0.00     0.000 HD 
ENDBRANCH  13  15
ENDBRANCH   9  13
ENDBRANCH   1   2
BRANCH   1  19
HETATM   19  C   UNL     1      -7.541   6.478  70.150  1.00  0.00    -0.096 A  
HETATM   20  C   UNL     1      -6.680   5.513  70.688  1.00  0.00    -0.047 A  
HETATM   21  C   UNL     1      -7.969   3.720  69.673  1.00  0.00    -0.050 A  
HETATM   22  C   UNL     1      -8.559   6.043  69.268  1.00  0.00    -0.118 A  
HETATM   23  C   UNL     1      -6.896   4.151  70.457  1.00  0.00    -0.033 A  
HETATM   24  C   UNL     1      -8.781   4.674  69.030  1.00  0.00    -0.085 A  
BRANCH  24  25
HETATM   25  O   UNL     1      -9.782   4.160  68.242  1.00  0.00    -0.148 OA 
BRANCH  25  26
HETATM   26  C   UNL     1      -9.878   4.580  66.884  1.00  0.00    -0.213 C  
HETATM   27  C   UNL     1      -8.793   3.870  66.087  1.00  0.00    -0.124 C  
ENDBRANCH  25  26
ENDBRANCH  24  25
BRANCH  21  28
HETATM   28  O   UNL     1      -8.305   2.400  69.486  1.00  0.00    -0.044 OA 
HETATM   29  C   UNL     1      -8.941   1.729  70.567  1.00  0.00    -0.076 C  
ENDBRANCH  21  28
ENDBRANCH   1  19
BRANCH   1  30
HETATM   30  C   UNL     1      -6.471   8.714  69.891  1.00  0.00    -0.034 C  
BRANCH  30  31
HETATM   31  S   UNL     1      -6.357   8.344  68.160  1.00  0.00    -0.057 S  
HETATM   32  O   UNL     1      -5.460   7.210  68.041  1.00  0.00    -0.019 OA 
HETATM   33  C   UNL     1      -5.535   9.717  67.384  1.00  0.00    -0.036 C  
HETATM   34  O   UNL     1      -7.696   8.278  67.613  1.00  0.00    -0.097 OA 
ENDBRANCH  30  31
ENDBRANCH   1  30
TORSDOF 9
ENDMDL
MODEL      225
REMARK 921   NORMALIZED FREE ENERGY PREDICTED BY IDOCK:   -3.32 KCAL/MOL
REMARK 922        TOTAL FREE ENERGY PREDICTED BY IDOCK:   -6.12 KCAL/MOL
REMARK 923 INTER-LIGAND FREE ENERGY PREDICTED BY IDOCK:   -6.35 KCAL/MOL
REMARK 924 INTRA-LIGAND FREE ENERGY PREDICTED BY IDOCK:    0.23 KCAL/MOL
REMARK 927      BINDING AFFINITY PREDICTED BY RF-SCORE:    0.00 PKD
ROOT
HETATM    1  C   UNL     1     -10.891   6.577  69.119  1.00  0.00    -0.302 C  
ENDROOT
BRANCH   1   2
HETATM    2  N   UNL     1     -10.430   7.671  68.248  1.00  0.00    -0.195 N  
HETATM    3  C   UNL     1      -8.889   8.752  65.178  1.00  0.00    -0.177 A  
HETATM    4  C   UNL     1      -8.542  10.036  64.795  1.00  0.00    -0.188 A  
HETATM    5  O   UNL     1     -11.013   9.636  69.355  1.00  0.00    -0.231 OA 
HETATM    6  C   UNL     1      -8.917  11.131  65.595  1.00  0.00    -0.195 A  
HETATM    7  C   UNL     1      -9.958   7.372  67.004  1.00  0.00    -0.231 C  
HETATM    8  C   UNL     1     -10.537   9.043  68.406  1.00  0.00    -0.154 C  
HETATM    9  C   UNL     1      -9.691  10.992  66.771  1.00  0.00    -0.193 A  
HETATM   10  C   UNL     1      -9.949   9.679  67.185  1.00  0.00    -0.249 A  
HETATM   11  C   UNL     1      -9.567   8.616  66.369  1.00  0.00    -0.316 A  
HETATM   12  O   UNL     1      -9.882   6.283  66.461  1.00  0.00    -0.165 OA 
BRANCH   9  13
HETATM   13  N   UNL     1     -10.092  12.116  67.522  1.00  0.00    -0.195 NA 
HETATM   14  H   UNL     1      -9.392  12.541  68.131  1.00  0.00     0.000 HD 
BRANCH  13  15
HETATM   15  C   UNL     1     -11.267  12.656  67.509  1.00  0.00    -0.288 C  
HETATM   16  C   UNL     1     -11.994  13.596  68.426  1.00  0.00    -0.391 C  
HETATM   17  O   UNL     1     -12.062  12.309  66.481  1.00  0.00    -0.616 OA 
HETATM   18  H   UNL     1     -12.925  12.706  66.472  1.00  0.00     0.000 HD 
ENDBRANCH  13  15
ENDBRANCH   9  13
ENDBRANCH   1   2
BRANCH   1  19
HETATM   19  C   UNL     1      -9.770   5.816  69.852  1.00  0.00    -0.212 A  
HETATM   20  C   UNL     1      -9.952   4.488  70.256  1.00  0.00    -0.288 A  
HETATM   21  C   UNL     1      -7.565   4.214  70.619  1.00  0.00    -0.048 A  
HETATM   22  C   UNL     1      -8.470   6.369  69.949  1.00  0.00    -0.131 A  
HETATM   23  C   UNL     1      -8.862   3.695  70.628  1.00  0.00    -0.138 A  
HETATM   24  C   UNL     1      -7.369   5.578  70.324  1.00  0.00    -0.068 A  
BRANCH  24  25
HETATM   25  O   UNL     1      -6.067   6.012  70.385  1.00  0.00    -0.028 OA 
BRANCH  25  26
HETATM   26  C   UNL     1      -5.510   6.354  71.650  1.00  0.00    -0.027 C  
HETATM   27  C   UNL     1      -5.911   7.787  71.976  1.00  0.00    -0.036 C  
ENDBRANCH  25  26
ENDBRANCH  24  25
BRANCH  21  28
HETATM   28  O   UNL     1      -6.436   3.472  70.871  1.00  0.00    -0.028 OA 
HETATM   29  C   UNL     1      -6.099   2.457  69.934  1.00  0.00    -0.024 C  
ENDBRANCH  21  28
ENDBRANCH   1  19
BRANCH   1  30
HETATM   30  C   UNL     1     -11.990   6.917  70.127  1.00  0.00    -0.145 C  
BRANCH  30  31
HETATM   31  S   UNL     1     -11.436   7.336  71.760  1.00  0.00    -0.278 S  
HETATM   32  O   UNL     1     -11.621   6.150  72.574  1.00  0.00    -0.286 OA 
HETATM   33  C   UNL     1     -12.559   8.560  72.395  1.00  0.00    -0.348 C  
HETATM   34  O   UNL     1     -10.132   7.958  71.659  1.00  0.00    -0.175 OA 
ENDBRANCH  30  31
ENDBRANCH   1  30
TORSDOF 9
ENDMDL
MODEL      226
REMARK 921   NORMALIZED FREE ENERGY PREDICTED BY IDOCK:   -3.30 KCAL/MOL
REMARK 922        TOTAL FREE ENERGY PREDICTED BY IDOCK:   -6.09 KCAL/MOL
REMARK 923 INTER-LIGAND FREE ENERGY PREDICTED BY IDOCK:   -5.37 KCAL/MOL
REMARK 924 INTRA-LIGAND FREE ENERGY PREDICTED BY IDOCK:   -0.72 KCAL/MOL
REMARK 927      BINDING AFFINITY PREDICTED BY RF-SCORE:    0.00 PKD
ROOT
HETATM    1  C   UNL     1      -9.084  15.735  68.083  1.00  0.00    -0.185 C  
ENDROOT
BRANCH   1   2
HETATM    2  N   UNL     1      -9.656  14.783  67.117  1.00  0.00    -0.222 N  
HETATM    3  C   UNL     1     -12.516  13.526  65.324  1.00  0.00    -0.525 A  
HETATM    4  C   UNL     1     -12.592  12.422  64.493  1.00  0.00    -0.477 A  
HETATM    5  O   UNL     1      -7.858  13.520  66.348  1.00  0.00     0.793 OA 
HETATM    6  C   UNL     1     -11.422  11.718  64.153  1.00  0.00    -0.409 A  
HETATM    7  C   UNL     1     -10.964  14.916  66.754  1.00  0.00    -0.326 C  
HETATM    8  C   UNL     1      -9.038  13.814  66.345  1.00  0.00    -0.059 C  
HETATM    9  C   UNL     1     -10.135  12.117  64.584  1.00  0.00    -0.257 A  
HETATM   10  C   UNL     1     -10.094  13.179  65.496  1.00  0.00    -0.271 A  
HETATM   11  C   UNL     1     -11.270  13.857  65.810  1.00  0.00    -0.303 A  
HETATM   12  O   UNL     1     -11.767  15.765  67.099  1.00  0.00     0.076 OA 
BRANCH   9  13
HETATM   13  N   UNL     1      -8.978  11.417  64.184  1.00  0.00    -0.392 NA 
HETATM   14  H   UNL     1      -8.561  11.681  63.292  1.00  0.00     0.000 HD 
BRANCH  13  15
HETATM   15  C   UNL     1      -8.399  10.469  64.848  1.00  0.00    -0.135 C  
HETATM   16  C   UNL     1      -8.665   9.001  65.017  1.00  0.00    -0.217 C  
HETATM   17  O   UNL     1      -7.336  10.832  65.586  1.00  0.00    -0.282 OA 
HETATM   18  H   UNL     1      -6.911  10.136  66.073  1.00  0.00     0.000 HD 
ENDBRANCH  13  15
ENDBRANCH   9  13
ENDBRANCH   1   2
BRANCH   1  19
HETATM   19  C   UNL     1      -7.849  15.221  68.847  1.00  0.00    -0.165 A  
HETATM   20  C   UNL     1      -6.990  16.111  69.502  1.00  0.00    -0.186 A  
HETATM   21  C   UNL     1      -5.966  14.292  70.747  1.00  0.00    -0.202 A  
HETATM   22  C   UNL     1      -7.670  13.835  69.073  1.00  0.00     0.058 A  
HETATM   23  C   UNL     1      -6.066  15.653  70.446  1.00  0.00    -0.003 A  
HETATM   24  C   UNL     1      -6.740  13.366  70.020  1.00  0.00     0.248 A  
BRANCH  24  25
HETATM   25  O   UNL     1      -6.544  12.047  70.350  1.00  0.00    -0.029 OA 
BRANCH  25  26
HETATM   26  C   UNL     1      -6.759  11.047  69.359  1.00  0.00    -0.112 C  
HETATM   27  C   UNL     1      -5.437  10.788  68.649  1.00  0.00    -0.040 C  
ENDBRANCH  25  26
ENDBRANCH  24  25
BRANCH  21  28
HETATM   28  O   UNL     1      -5.158  13.778  71.732  1.00  0.00    -0.144 OA 
HETATM   29  C   UNL     1      -5.610  13.894  73.075  1.00  0.00     0.009 C  
ENDBRANCH  21  28
ENDBRANCH   1  19
BRANCH   1  30
HETATM   30  C   UNL     1      -8.787  17.144  67.567  1.00  0.00    -0.216 C  
BRANCH  30  31
HETATM   31  S   UNL     1      -9.654  18.463  68.376  1.00  0.00    -0.360 S  
HETATM   32  O   UNL     1     -10.517  17.842  69.364  1.00  0.00    -0.200 OA 
HETATM   33  C   UNL     1     -10.727  19.203  67.168  1.00  0.00    -0.471 C  
HETATM   34  O   UNL     1      -8.693  19.470  68.776  1.00  0.00    -0.359 OA 
ENDBRANCH  30  31
ENDBRANCH   1  30
TORSDOF 9
ENDMDL
MODEL      227
REMARK 921   NORMALIZED FREE ENERGY PREDICTED BY IDOCK:   -3.28 KCAL/MOL
REMARK 922        TOTAL FREE ENERGY PREDICTED BY IDOCK:   -6.07 KCAL/MOL
REMARK 923 INTER-LIGAND FREE ENERGY PREDICTED BY IDOCK:   -7.34 KCAL/MOL
REMARK 924 INTRA-LIGAND FREE ENERGY PREDICTED BY IDOCK:    1.27 KCAL/MOL
REMARK 927      BINDING AFFINITY PREDICTED BY RF-SCORE:    0.00 PKD
ROOT
HETATM    1  C   UNL     1      -9.471   9.079  66.448  1.00  0.00    -0.226 C  
ENDROOT
BRANCH   1   2
HETATM    2  N   UNL     1      -9.490   8.002  67.451  1.00  0.00    -0.146 N  
HETATM    3  C   UNL     1      -9.525   4.485  68.226  1.00  0.00    -0.205 A  
HETATM    4  C   UNL     1      -9.651   3.878  69.464  1.00  0.00    -0.248 A  
HETATM    5  O   UNL     1      -9.415   9.074  69.517  1.00  0.00    -0.158 OA 
HETATM    6  C   UNL     1      -9.643   4.661  70.633  1.00  0.00    -0.261 A  
HETATM    7  C   UNL     1      -9.379   6.708  67.035  1.00  0.00    -0.141 C  
HETATM    8  C   UNL     1      -9.441   8.069  68.834  1.00  0.00    -0.151 C  
HETATM    9  C   UNL     1      -9.460   6.065  70.614  1.00  0.00    -0.168 A  
HETATM   10  C   UNL     1      -9.429   6.663  69.348  1.00  0.00    -0.146 A  
HETATM   11  C   UNL     1      -9.435   5.860  68.210  1.00  0.00    -0.123 A  
HETATM   12  O   UNL     1      -9.228   6.284  65.902  1.00  0.00    -0.127 OA 
BRANCH   9  13
HETATM   13  N   UNL     1      -9.408   6.813  71.807  1.00  0.00    -0.148 NA 
HETATM   14  H   UNL     1      -8.766   7.605  71.831  1.00  0.00     0.000 HD 
BRANCH  13  15
HETATM   15  C   UNL     1     -10.102   6.585  72.875  1.00  0.00    -0.181 C  
HETATM   16  C   UNL     1      -9.865   5.784  74.122  1.00  0.00    -0.208 C  
HETATM   17  O   UNL     1     -11.324   7.144  72.913  1.00  0.00    -0.446 OA 
HETATM   18  H   UNL     1     -11.834   6.977  73.696  1.00  0.00     0.000 HD 
ENDBRANCH  13  15
ENDBRANCH   9  13
ENDBRANCH   1   2
BRANCH   1  19
HETATM   19  C   UNL     1     -10.461  10.229  66.713  1.00  0.00    -0.279 A  
HETATM   20  C   UNL     1     -11.020  10.414  67.982  1.00  0.00    -0.347 A  
HETATM   21  C   UNL     1     -11.763  12.651  67.388  1.00  0.00    -0.369 A  
HETATM   22  C   UNL     1     -10.667  11.238  65.741  1.00  0.00    -0.284 A  
HETATM   23  C   UNL     1     -11.657  11.614  68.318  1.00  0.00    -0.378 A  
HETATM   24  C   UNL     1     -11.308  12.447  66.071  1.00  0.00    -0.353 A  
BRANCH  24  25
HETATM   25  O   UNL     1     -11.494  13.503  65.213  1.00  0.00    -0.294 OA 
BRANCH  25  26
HETATM   26  C   UNL     1     -10.388  14.343  64.898  1.00  0.00    -0.389 C  
HETATM   27  C   UNL     1     -10.824  15.791  65.069  1.00  0.00    -0.461 C  
ENDBRANCH  25  26
ENDBRANCH  24  25
BRANCH  21  28
HETATM   28  O   UNL     1     -12.280  13.892  67.674  1.00  0.00    -0.345 OA 
HETATM   29  C   UNL     1     -11.899  14.491  68.906  1.00  0.00    -0.324 C  
ENDBRANCH  21  28
ENDBRANCH   1  19
BRANCH   1  30
HETATM   30  C   UNL     1      -8.106   9.678  66.108  1.00  0.00    -0.108 C  
BRANCH  30  31
HETATM   31  S   UNL     1      -7.030   9.979  67.487  1.00  0.00    -0.087 S  
HETATM   32  O   UNL     1      -7.796  10.755  68.444  1.00  0.00    -0.108 OA 
HETATM   33  C   UNL     1      -5.725  11.041  66.911  1.00  0.00    -0.077 C  
HETATM   34  O   UNL     1      -6.424   8.724  67.882  1.00  0.00    -0.056 OA 
ENDBRANCH  30  31
ENDBRANCH   1  30
TORSDOF 9
ENDMDL
MODEL      228
REMARK 921   NORMALIZED FREE ENERGY PREDICTED BY IDOCK:   -3.27 KCAL/MOL
REMARK 922        TOTAL FREE ENERGY PREDICTED BY IDOCK:   -6.05 KCAL/MOL
REMARK 923 INTER-LIGAND FREE ENERGY PREDICTED BY IDOCK:   -6.21 KCAL/MOL
REMARK 924 INTRA-LIGAND FREE ENERGY PREDICTED BY IDOCK:    0.17 KCAL/MOL
REMARK 927      BINDING AFFINITY PREDICTED BY RF-SCORE:    0.00 PKD
ROOT
HETATM    1  C   UNL     1     -11.137   6.777  69.761  1.00  0.00    -0.316 C  
ENDROOT
BRANCH   1   2
HETATM    2  N   UNL     1     -10.430   7.145  68.523  1.00  0.00    -0.201 N  
HETATM    3  C   UNL     1      -8.404   6.183  65.705  1.00  0.00    -0.146 A  
HETATM    4  C   UNL     1      -7.840   6.993  64.734  1.00  0.00    -0.126 A  
HETATM    5  O   UNL     1     -10.860   9.412  68.210  1.00  0.00    -0.197 OA 
HETATM    6  C   UNL     1      -8.151   8.365  64.699  1.00  0.00    -0.156 A  
HETATM    7  C   UNL     1      -9.861   6.161  67.769  1.00  0.00    -0.123 C  
HETATM    8  C   UNL     1     -10.363   8.359  67.860  1.00  0.00    -0.221 C  
HETATM    9  C   UNL     1      -9.070   8.966  65.592  1.00  0.00    -0.212 A  
HETATM   10  C   UNL     1      -9.554   8.147  66.619  1.00  0.00    -0.295 A  
HETATM   11  C   UNL     1      -9.229   6.791  66.625  1.00  0.00    -0.184 A  
HETATM   12  O   UNL     1      -9.873   4.957  67.955  1.00  0.00    -0.151 OA 
BRANCH   9  13
HETATM   13  N   UNL     1      -9.396  10.334  65.497  1.00  0.00    -0.184 NA 
HETATM   14  H   UNL     1      -8.902  10.973  66.120  1.00  0.00     0.000 HD 
BRANCH  13  15
HETATM   15  C   UNL     1     -10.265  10.851  64.690  1.00  0.00    -0.345 C  
HETATM   16  C   UNL     1     -11.297  11.933  64.823  1.00  0.00    -0.344 C  
HETATM   17  O   UNL     1     -10.313  10.318  63.457  1.00  0.00    -0.438 OA 
HETATM   18  H   UNL     1     -10.951  10.698  62.865  1.00  0.00     0.000 HD 
ENDBRANCH  13  15
ENDBRANCH   9  13
ENDBRANCH   1   2
BRANCH   1  19
HETATM   19  C   UNL     1     -10.226   6.322  70.916  1.00  0.00    -0.236 A  
HETATM   20  C   UNL     1     -10.659   5.356  71.832  1.00  0.00    -0.288 A  
HETATM   21  C   UNL     1      -8.391   5.025  72.640  1.00  0.00    -0.116 A  
HETATM   22  C   UNL     1      -8.866   6.716  70.958  1.00  0.00    -0.142 A  
HETATM   23  C   UNL     1      -9.751   4.710  72.678  1.00  0.00    -0.184 A  
HETATM   24  C   UNL     1      -7.948   6.072  71.808  1.00  0.00    -0.107 A  
BRANCH  24  25
HETATM   25  O   UNL     1      -6.603   6.344  71.870  1.00  0.00    -0.056 OA 
BRANCH  25  26
HETATM   26  C   UNL     1      -6.146   7.652  71.542  1.00  0.00    -0.035 C  
HETATM   27  C   UNL     1      -6.133   8.486  72.816  1.00  0.00    -0.085 C  
ENDBRANCH  25  26
ENDBRANCH  24  25
BRANCH  21  28
HETATM   28  O   UNL     1      -7.427   4.366  73.364  1.00  0.00    -0.074 OA 
HETATM   29  C   UNL     1      -7.868   3.480  74.386  1.00  0.00    -0.066 C  
ENDBRANCH  21  28
ENDBRANCH   1  19
BRANCH   1  30
HETATM   30  C   UNL     1     -12.145   7.790  70.304  1.00  0.00     0.324 C  
BRANCH  30  31
HETATM   31  S   UNL     1     -11.538   8.886  71.560  1.00  0.00    -0.344 S  
HETATM   32  O   UNL     1     -11.663   8.176  72.820  1.00  0.00    -0.403 OA 
HETATM   33  C   UNL     1     -12.662  10.260  71.645  1.00  0.00    -0.456 C  
HETATM   34  O   UNL     1     -10.252   9.404  71.139  1.00  0.00    -0.304 OA 
ENDBRANCH  30  31
ENDBRANCH   1  30
TORSDOF 9
ENDMDL
MODEL      229
REMARK 921   NORMALIZED FREE ENERGY PREDICTED BY IDOCK:   -3.22 KCAL/MOL
REMARK 922        TOTAL FREE ENERGY PREDICTED BY IDOCK:   -5.96 KCAL/MOL
REMARK 923 INTER-LIGAND FREE ENERGY PREDICTED BY IDOCK:   -6.24 KCAL/MOL
REMARK 924 INTRA-LIGAND FREE ENERGY PREDICTED BY IDOCK:    0.28 KCAL/MOL
REMARK 927      BINDING AFFINITY PREDICTED BY RF-SCORE:    0.00 PKD
ROOT
HETATM    1  C   UNL     1      -8.424  10.522  68.070  1.00  0.00    -0.120 C  
ENDROOT
BRANCH   1   2
HETATM    2  N   UNL     1      -8.075   9.346  67.255  1.00  0.00    -0.109 N  
HETATM    3  C   UNL     1      -6.375   7.938  64.409  1.00  0.00    -0.056 A  
HETATM    4  C   UNL     1      -6.418   6.637  63.940  1.00  0.00    -0.037 A  
HETATM    5  O   UNL     1      -9.039   7.527  68.344  1.00  0.00    -0.134 OA 
HETATM    6  C   UNL     1      -7.086   5.645  64.681  1.00  0.00    -0.057 A  
HETATM    7  C   UNL     1      -7.198   9.494  66.222  1.00  0.00    -0.093 C  
HETATM    8  C   UNL     1      -8.370   8.007  67.449  1.00  0.00    -0.123 C  
HETATM    9  C   UNL     1      -7.689   5.902  65.936  1.00  0.00    -0.095 A  
HETATM   10  C   UNL     1      -7.714   7.241  66.343  1.00  0.00    -0.093 A  
HETATM   11  C   UNL     1      -7.040   8.199  65.588  1.00  0.00    -0.067 A  
HETATM   12  O   UNL     1      -6.601  10.497  65.868  1.00  0.00    -0.115 OA 
BRANCH   9  13
HETATM   13  N   UNL     1      -8.308   4.874  66.675  1.00  0.00    -0.107 NA 
HETATM   14  H   UNL     1      -7.783   4.483  67.457  1.00  0.00     0.000 HD 
BRANCH  13  15
HETATM   15  C   UNL     1      -9.484   4.382  66.451  1.00  0.00    -0.176 C  
HETATM   16  C   UNL     1     -10.708   4.886  65.744  1.00  0.00    -0.194 C  
HETATM   17  O   UNL     1      -9.720   3.163  66.967  1.00  0.00    -0.401 OA 
HETATM   18  H   UNL     1     -10.582   2.802  66.803  1.00  0.00     0.000 HD 
ENDBRANCH  13  15
ENDBRANCH   9  13
ENDBRANCH   1   2
BRANCH   1  19
HETATM   19  C   UNL     1      -9.250  11.596  67.337  1.00  0.00    -0.168 A  
HETATM   20  C   UNL     1     -10.060  11.256  66.248  1.00  0.00    -0.271 A  
HETATM   21  C   UNL     1     -11.227  13.384  66.383  1.00  0.00    -0.304 A  
HETATM   22  C   UNL     1      -9.367  12.902  67.872  1.00  0.00    -0.208 A  
HETATM   23  C   UNL     1     -11.042  12.137  65.781  1.00  0.00    -0.362 A  
HETATM   24  C   UNL     1     -10.351  13.794  67.407  1.00  0.00    -0.252 A  
BRANCH  24  25
HETATM   25  O   UNL     1     -10.578  15.052  67.908  1.00  0.00    -0.251 OA 
BRANCH  25  26
HETATM   26  C   UNL     1     -10.186  15.346  69.245  1.00  0.00    -0.250 C  
HETATM   27  C   UNL     1     -11.424  15.770  70.023  1.00  0.00    -0.359 C  
ENDBRANCH  25  26
ENDBRANCH  24  25
BRANCH  21  28
HETATM   28  O   UNL     1     -12.234  14.258  66.049  1.00  0.00    -0.421 OA 
HETATM   29  C   UNL     1     -12.372  14.603  64.676  1.00  0.00    -0.375 C  
ENDBRANCH  21  28
ENDBRANCH   1  19
BRANCH   1  30
HETATM   30  C   UNL     1      -9.072  10.250  69.428  1.00  0.00    -0.187 C  
BRANCH  30  31
HETATM   31  S   UNL     1     -10.837  10.073  69.420  1.00  0.00    -0.247 S  
HETATM   32  O   UNL     1     -11.381  11.352  69.836  1.00  0.00    -0.270 OA 
HETATM   33  C   UNL     1     -11.253   8.910  70.699  1.00  0.00    -0.266 C  
HETATM   34  O   UNL     1     -11.236   9.486  68.157  1.00  0.00    -0.073 OA 
ENDBRANCH  30  31
ENDBRANCH   1  30
TORSDOF 9
ENDMDL
MODEL      230
REMARK 921   NORMALIZED FREE ENERGY PREDICTED BY IDOCK:   -3.14 KCAL/MOL
REMARK 922        TOTAL FREE ENERGY PREDICTED BY IDOCK:   -5.84 KCAL/MOL
REMARK 923 INTER-LIGAND FREE ENERGY PREDICTED BY IDOCK:   -5.11 KCAL/MOL
REMARK 924 INTRA-LIGAND FREE ENERGY PREDICTED BY IDOCK:   -0.73 KCAL/MOL
REMARK 927      BINDING AFFINITY PREDICTED BY RF-SCORE:    0.00 PKD
ROOT
HETATM    1  C   UNL     1      -9.254   8.352  68.786  1.00  0.00    -0.143 C  
ENDROOT
BRANCH   1   2
HETATM    2  N   UNL     1      -9.000   7.360  67.728  1.00  0.00    -0.127 N  
HETATM    3  C   UNL     1     -10.105   4.519  65.810  1.00  0.00    -0.274 A  
HETATM    4  C   UNL     1      -9.397   3.786  64.873  1.00  0.00    -0.156 A  
HETATM    5  O   UNL     1      -6.920   7.916  66.840  1.00  0.00    -0.070 OA 
HETATM    6  C   UNL     1      -8.120   4.215  64.467  1.00  0.00    -0.094 A  
HETATM    7  C   UNL     1      -9.997   6.498  67.376  1.00  0.00    -0.143 C  
HETATM    8  C   UNL     1      -7.925   7.232  66.865  1.00  0.00    -0.112 C  
HETATM    9  C   UNL     1      -7.526   5.410  64.939  1.00  0.00    -0.070 A  
HETATM   10  C   UNL     1      -8.220   6.081  65.953  1.00  0.00    -0.129 A  
HETATM   11  C   UNL     1      -9.484   5.633  66.331  1.00  0.00    -0.170 A  
HETATM   12  O   UNL     1     -11.137   6.439  67.803  1.00  0.00    -0.328 OA 
BRANCH   9  13
HETATM   13  N   UNL     1      -6.265   5.835  64.474  1.00  0.00    -0.025 NA 
HETATM   14  H   UNL     1      -5.444   5.419  64.913  1.00  0.00     0.000 HD 
BRANCH  13  15
HETATM   15  C   UNL     1      -6.057   6.706  63.540  1.00  0.00    -0.038 C  
HETATM   16  C   UNL     1      -5.317   8.010  63.477  1.00  0.00    -0.049 C  
HETATM   17  O   UNL     1      -6.630   6.444  62.353  1.00  0.00    -0.033 OA 
HETATM   18  H   UNL     1      -6.477   7.083  61.668  1.00  0.00     0.000 HD 
ENDBRANCH  13  15
ENDBRANCH   9  13
ENDBRANCH   1   2
BRANCH   1  19
HETATM   19  C   UNL     1      -9.637   9.755  68.281  1.00  0.00    -0.155 A  
HETATM   20  C   UNL     1     -10.873   9.981  67.664  1.00  0.00    -0.336 A  
HETATM   21  C   UNL     1     -10.620  12.386  67.915  1.00  0.00    -0.213 A  
HETATM   22  C   UNL     1      -8.842  10.880  68.609  1.00  0.00    -0.158 A  
HETATM   23  C   UNL     1     -11.361  11.281  67.490  1.00  0.00    -0.360 A  
HETATM   24  C   UNL     1      -9.325  12.189  68.436  1.00  0.00    -0.170 A  
BRANCH  24  25
HETATM   25  O   UNL     1      -8.651  13.334  68.784  1.00  0.00    -0.027 OA 
BRANCH  25  26
HETATM   26  C   UNL     1      -7.982  14.079  67.771  1.00  0.00    -0.171 C  
HETATM   27  C   UNL     1      -7.153  15.164  68.444  1.00  0.00    -0.107 C  
ENDBRANCH  25  26
ENDBRANCH  24  25
BRANCH  21  28
HETATM   28  O   UNL     1     -11.075  13.681  67.873  1.00  0.00    -0.248 OA 
HETATM   29  C   UNL     1     -11.351  14.236  66.593  1.00  0.00    -0.349 C  
ENDBRANCH  21  28
ENDBRANCH   1  19
BRANCH   1  30
HETATM   30  C   UNL     1     -10.234   7.945  69.888  1.00  0.00    -0.210 C  
BRANCH  30  31
HETATM   31  S   UNL     1      -9.503   7.435  71.422  1.00  0.00    -0.151 S  
HETATM   32  O   UNL     1      -8.073   7.634  71.282  1.00  0.00    -0.093 OA 
HETATM   33  C   UNL     1      -9.754   5.681  71.564  1.00  0.00    -0.161 C  
HETATM   34  O   UNL     1     -10.225   8.064  72.508  1.00  0.00    -0.243 OA 
ENDBRANCH  30  31
ENDBRANCH   1  30
TORSDOF 9
ENDMDL
MODEL      231
REMARK 921   NORMALIZED FREE ENERGY PREDICTED BY IDOCK:   -3.13 KCAL/MOL
REMARK 922        TOTAL FREE ENERGY PREDICTED BY IDOCK:   -5.84 KCAL/MOL
REMARK 923 INTER-LIGAND FREE ENERGY PREDICTED BY IDOCK:   -4.83 KCAL/MOL
REMARK 924 INTRA-LIGAND FREE ENERGY PREDICTED BY IDOCK:   -1.01 KCAL/MOL
REMARK 927      BINDING AFFINITY PREDICTED BY RF-SCORE:    0.00 PKD
ROOT
HETATM    1  C   UNL     1      -8.297  11.971  66.678  1.00  0.00    -0.085 C  
ENDROOT
BRANCH   1   2
HETATM    2  N   UNL     1      -8.082  13.360  67.116  1.00  0.00    -0.132 N  
HETATM    3  C   UNL     1      -5.821  15.999  68.061  1.00  0.00    -0.135 A  
HETATM    4  C   UNL     1      -6.125  17.262  68.541  1.00  0.00    -0.155 A  
HETATM    5  O   UNL     1     -10.200  14.326  67.188  1.00  0.00    -0.251 OA 
HETATM    6  C   UNL     1      -7.464  17.695  68.576  1.00  0.00    -0.269 A  
HETATM    7  C   UNL     1      -6.806  13.832  67.217  1.00  0.00     0.172 C  
HETATM    8  C   UNL     1      -8.992  14.387  67.307  1.00  0.00    -0.212 C  
HETATM    9  C   UNL     1      -8.536  16.910  68.090  1.00  0.00    -0.221 A  
HETATM   10  C   UNL     1      -8.214  15.605  67.697  1.00  0.00    -0.165 A  
HETATM   11  C   UNL     1      -6.879  15.207  67.671  1.00  0.00    -0.204 A  
HETATM   12  O   UNL     1      -5.761  13.260  66.957  1.00  0.00    -0.229 OA 
BRANCH   9  13
HETATM   13  N   UNL     1      -9.860  17.394  68.095  1.00  0.00    -0.287 NA 
HETATM   14  H   UNL     1     -10.594  16.744  67.814  1.00  0.00     0.000 HD 
BRANCH  13  15
HETATM   15  C   UNL     1     -10.227  18.591  68.424  1.00  0.00    -0.372 C  
HETATM   16  C   UNL     1     -10.118  19.408  69.678  1.00  0.00     0.113 C  
HETATM   17  O   UNL     1     -10.879  19.287  67.476  1.00  0.00    -0.473 OA 
HETATM   18  H   UNL     1     -11.148  20.165  67.717  1.00  0.00     0.000 HD 
ENDBRANCH  13  15
ENDBRANCH   9  13
ENDBRANCH   1   2
BRANCH   1  19
HETATM   19  C   UNL     1      -8.824  11.021  67.771  1.00  0.00    -0.133 A  
HETATM   20  C   UNL     1     -10.143  11.120  68.230  1.00  0.00    -0.196 A  
HETATM   21  C   UNL     1      -9.995   8.937  69.287  1.00  0.00    -0.192 A  
HETATM   22  C   UNL     1      -8.057   9.906  68.185  1.00  0.00    -0.104 A  
HETATM   23  C   UNL     1     -10.723  10.087  68.973  1.00  0.00    -0.244 A  
HETATM   24  C   UNL     1      -8.634   8.863  68.934  1.00  0.00    -0.135 A  
BRANCH  24  25
HETATM   25  O   UNL     1      -7.985   7.717  69.324  1.00  0.00    -0.120 OA 
BRANCH  25  26
HETATM   26  C   UNL     1      -6.923   7.811  70.268  1.00  0.00    -0.050 C  
HETATM   27  C   UNL     1      -7.391   8.677  71.429  1.00  0.00    -0.116 C  
ENDBRANCH  25  26
ENDBRANCH  24  25
BRANCH  21  28
HETATM   28  O   UNL     1     -10.525   7.839  69.922  1.00  0.00    -0.222 OA 
HETATM   29  C   UNL     1     -11.001   6.777  69.104  1.00  0.00    -0.244 C  
ENDBRANCH  21  28
ENDBRANCH   1  19
BRANCH   1  30
HETATM   30  C   UNL     1      -9.132  11.770  65.413  1.00  0.00     0.072 C  
BRANCH  30  31
HETATM   31  S   UNL     1      -8.424  10.708  64.181  1.00  0.00     0.005 S  
HETATM   32  O   UNL     1      -8.895  11.196  62.898  1.00  0.00    -0.242 OA 
HETATM   33  C   UNL     1      -9.144   9.098  64.400  1.00  0.00     0.034 C  
HETATM   34  O   UNL     1      -7.004  10.586  64.439  1.00  0.00    -0.037 OA 
ENDBRANCH  30  31
ENDBRANCH   1  30
TORSDOF 9
ENDMDL
MODEL      232
REMARK 921   NORMALIZED FREE ENERGY PREDICTED BY IDOCK:   -2.97 KCAL/MOL
REMARK 922        TOTAL FREE ENERGY PREDICTED BY IDOCK:   -5.58 KCAL/MOL
REMARK 923 INTER-LIGAND FREE ENERGY PREDICTED BY IDOCK:   -6.59 KCAL/MOL
REMARK 924 INTRA-LIGAND FREE ENERGY PREDICTED BY IDOCK:    1.00 KCAL/MOL
REMARK 927      BINDING AFFINITY PREDICTED BY RF-SCORE:    0.00 PKD
ROOT
HETATM    1  C   UNL     1      -8.868  10.245  68.147  1.00  0.00    -0.123 C  
ENDROOT
BRANCH   1   2
HETATM    2  N   UNL     1      -9.876   9.888  69.159  1.00  0.00    -0.187 N  
HETATM    3  C   UNL     1     -12.792  10.775  71.079  1.00  0.00    -0.480 A  
HETATM    4  C   UNL     1     -13.399  10.063  72.099  1.00  0.00    -0.469 A  
HETATM    5  O   UNL     1      -9.386   7.699  69.783  1.00  0.00    -0.151 OA 
HETATM    6  C   UNL     1     -12.960   8.762  72.403  1.00  0.00    -0.442 A  
HETATM    7  C   UNL     1     -10.910  10.746  69.393  1.00  0.00    -0.244 C  
HETATM    8  C   UNL     1     -10.068   8.703  69.849  1.00  0.00    -0.194 C  
HETATM    9  C   UNL     1     -11.940   8.106  71.673  1.00  0.00    -0.300 A  
HETATM   10  C   UNL     1     -11.280   8.879  70.709  1.00  0.00    -0.321 A  
HETATM   11  C   UNL     1     -11.742  10.164  70.429  1.00  0.00    -0.390 A  
HETATM   12  O   UNL     1     -11.160  11.805  68.842  1.00  0.00    -0.215 OA 
BRANCH   9  13
HETATM   13  N   UNL     1     -11.558   6.783  71.973  1.00  0.00    -0.278 NA 
HETATM   14  H   UNL     1     -12.133   6.035  71.587  1.00  0.00     0.000 HD 
BRANCH  13  15
HETATM   15  C   UNL     1     -10.544   6.433  72.696  1.00  0.00    -0.224 C  
HETATM   16  C   UNL     1     -10.207   6.561  74.153  1.00  0.00    -0.380 C  
HETATM   17  O   UNL     1      -9.530   5.844  72.039  1.00  0.00    -0.151 OA 
HETATM   18  H   UNL     1      -8.785   5.587  72.569  1.00  0.00     0.000 HD 
ENDBRANCH  13  15
ENDBRANCH   9  13
ENDBRANCH   1   2
BRANCH   1  19
HETATM   19  C   UNL     1      -8.486   9.106  67.183  1.00  0.00    -0.120 A  
HETATM   20  C   UNL     1      -7.155   8.914  66.793  1.00  0.00    -0.081 A  
HETATM   21  C   UNL     1      -7.668   6.695  65.944  1.00  0.00    -0.091 A  
HETATM   22  C   UNL     1      -9.432   8.111  66.835  1.00  0.00    -0.244 A  
HETATM   23  C   UNL     1      -6.750   7.721  66.187  1.00  0.00    -0.053 A  
HETATM   24  C   UNL     1      -9.031   6.909  66.224  1.00  0.00    -0.151 A  
BRANCH  24  25
HETATM   25  O   UNL     1      -9.867   5.865  65.910  1.00  0.00    -0.013 OA 
BRANCH  25  26
HETATM   26  C   UNL     1     -10.526   5.165  66.961  1.00  0.00    -0.196 C  
HETATM   27  C   UNL     1      -9.701   3.932  67.304  1.00  0.00    -0.178 C  
ENDBRANCH  25  26
ENDBRANCH  24  25
BRANCH  21  28
HETATM   28  O   UNL     1      -7.328   5.459  65.449  1.00  0.00    -0.067 OA 
HETATM   29  C   UNL     1      -6.714   5.414  64.167  1.00  0.00    -0.046 C  
ENDBRANCH  21  28
ENDBRANCH   1  19
BRANCH   1  30
HETATM   30  C   UNL     1      -9.133  11.509  67.328  1.00  0.00    -0.164 C  
BRANCH  30  31
HETATM   31  S   UNL     1     -10.081  11.284  65.846  1.00  0.00    -0.255 S  
HETATM   32  O   UNL     1      -9.129  11.002  64.788  1.00  0.00    -0.196 OA 
HETATM   33  C   UNL     1     -10.819  12.853  65.452  1.00  0.00    -0.283 C  
HETATM   34  O   UNL     1     -11.159  10.358  66.124  1.00  0.00     0.101 OA 
ENDBRANCH  30  31
ENDBRANCH   1  30
TORSDOF 9
ENDMDL
MODEL      233
REMARK 921   NORMALIZED FREE ENERGY PREDICTED BY IDOCK:   -2.85 KCAL/MOL
REMARK 922        TOTAL FREE ENERGY PREDICTED BY IDOCK:   -5.40 KCAL/MOL
REMARK 923 INTER-LIGAND FREE ENERGY PREDICTED BY IDOCK:   -4.36 KCAL/MOL
REMARK 924 INTRA-LIGAND FREE ENERGY PREDICTED BY IDOCK:   -1.04 KCAL/MOL
REMARK 927      BINDING AFFINITY PREDICTED BY RF-SCORE:    0.00 PKD
ROOT
HETATM    1  C   UNL     1      -8.272   8.350  69.833  1.00  0.00    -0.122 C  
ENDROOT
BRANCH   1   2
HETATM    2  N   UNL     1      -8.507   7.307  68.822  1.00  0.00    -0.129 N  
HETATM    3  C   UNL     1     -10.785   5.528  66.672  1.00  0.00    -0.332 A  
HETATM    4  C   UNL     1     -10.530   4.429  65.870  1.00  0.00    -0.179 A  
HETATM    5  O   UNL     1      -6.410   6.410  68.352  1.00  0.00    -0.037 OA 
HETATM    6  C   UNL     1      -9.211   3.962  65.720  1.00  0.00    -0.154 A  
HETATM    7  C   UNL     1      -9.749   7.188  68.271  1.00  0.00    -0.144 C  
HETATM    8  C   UNL     1      -7.611   6.474  68.173  1.00  0.00    -0.103 C  
HETATM    9  C   UNL     1      -8.099   4.599  66.320  1.00  0.00    -0.103 A  
HETATM   10  C   UNL     1      -8.393   5.649  67.199  1.00  0.00    -0.104 A  
HETATM   11  C   UNL     1      -9.709   6.090  67.323  1.00  0.00    -0.138 A  
HETATM   12  O   UNL     1     -10.740   7.868  68.475  1.00  0.00    -0.144 OA 
BRANCH   9  13
HETATM   13  N   UNL     1      -6.785   4.133  66.109  1.00  0.00    -0.048 NA 
HETATM   14  H   UNL     1      -6.465   3.365  66.700  1.00  0.00     0.000 HD 
BRANCH  13  15
HETATM   15  C   UNL     1      -5.950   4.592  65.234  1.00  0.00    -0.023 C  
HETATM   16  C   UNL     1      -5.159   5.862  65.112  1.00  0.00    -0.013 C  
HETATM   17  O   UNL     1      -5.728   3.807  64.166  1.00  0.00    -0.013 OA 
HETATM   18  H   UNL     1      -5.115   4.144  63.523  1.00  0.00     0.000 HD 
ENDBRANCH  13  15
ENDBRANCH   9  13
ENDBRANCH   1   2
BRANCH   1  19
HETATM   19  C   UNL     1      -7.972   9.750  69.263  1.00  0.00    -0.112 A  
HETATM   20  C   UNL     1      -7.025  10.582  69.871  1.00  0.00    -0.151 A  
HETATM   21  C   UNL     1      -6.955  12.022  67.914  1.00  0.00    -0.095 A  
HETATM   22  C   UNL     1      -8.493  10.141  68.006  1.00  0.00    -0.118 A  
HETATM   23  C   UNL     1      -6.517  11.700  69.201  1.00  0.00    -0.095 A  
HETATM   24  C   UNL     1      -7.988  11.265  67.327  1.00  0.00    -0.141 A  
BRANCH  24  25
HETATM   25  O   UNL     1      -8.387  11.681  66.080  1.00  0.00    -0.099 OA 
BRANCH  25  26
HETATM   26  C   UNL     1      -8.466  10.728  65.025  1.00  0.00    -0.079 C  
HETATM   27  C   UNL     1      -9.934  10.398  64.788  1.00  0.00    -0.409 C  
ENDBRANCH  25  26
ENDBRANCH  24  25
BRANCH  21  28
HETATM   28  O   UNL     1      -6.431  13.040  67.154  1.00  0.00    -0.224 OA 
HETATM   29  C   UNL     1      -6.411  14.340  67.728  1.00  0.00    -0.166 C  
ENDBRANCH  21  28
ENDBRANCH   1  19
BRANCH   1  30
HETATM   30  C   UNL     1      -9.323   8.488  70.936  1.00  0.00    -0.174 C  
BRANCH  30  31
HETATM   31  S   UNL     1      -9.176   7.349  72.289  1.00  0.00    -0.135 S  
HETATM   32  O   UNL     1      -7.764   7.042  72.415  1.00  0.00    -0.093 OA 
HETATM   33  C   UNL     1      -9.975   5.841  71.793  1.00  0.00    -0.169 C  
HETATM   34  O   UNL     1      -9.912   7.878  73.418  1.00  0.00    -0.314 OA 
ENDBRANCH  30  31
ENDBRANCH   1  30
TORSDOF 9
ENDMDL
MODEL      234
REMARK 921   NORMALIZED FREE ENERGY PREDICTED BY IDOCK:   -2.52 KCAL/MOL
REMARK 922        TOTAL FREE ENERGY PREDICTED BY IDOCK:   -4.89 KCAL/MOL
REMARK 923 INTER-LIGAND FREE ENERGY PREDICTED BY IDOCK:   -6.39 KCAL/MOL
REMARK 924 INTRA-LIGAND FREE ENERGY PREDICTED BY IDOCK:    1.50 KCAL/MOL
REMARK 927      BINDING AFFINITY PREDICTED BY RF-SCORE:    0.00 PKD
ROOT
HETATM    1  C   UNL     1      -8.831  14.891  68.547  1.00  0.00    -0.174 C  
ENDROOT
BRANCH   1   2
HETATM    2  N   UNL     1      -8.176  16.066  67.949  1.00  0.00    -0.147 N  
HETATM    3  C   UNL     1      -5.379  17.495  66.186  1.00  0.00    -0.217 A  
HETATM    4  C   UNL     1      -5.138  18.826  65.891  1.00  0.00    -0.171 A  
HETATM    5  O   UNL     1      -9.673  17.827  68.235  1.00  0.00    -0.290 OA 
HETATM    6  C   UNL     1      -6.119  19.795  66.170  1.00  0.00    -0.189 A  
HETATM    7  C   UNL     1      -7.016  15.893  67.253  1.00  0.00    -0.206 C  
HETATM    8  C   UNL     1      -8.625  17.370  67.821  1.00  0.00    -0.227 C  
HETATM    9  C   UNL     1      -7.389  19.469  66.702  1.00  0.00    -0.240 A  
HETATM   10  C   UNL     1      -7.574  18.133  67.077  1.00  0.00    -0.232 A  
HETATM   11  C   UNL     1      -6.584  17.196  66.784  1.00  0.00    -0.257 A  
HETATM   12  O   UNL     1      -6.422  14.857  67.010  1.00  0.00    -0.163 OA 
BRANCH   9  13
HETATM   13  N   UNL     1      -8.367  20.460  66.923  1.00  0.00    -0.482 NA 
HETATM   14  H   UNL     1      -8.074  21.297  67.427  1.00  0.00     0.000 HD 
BRANCH  13  15
HETATM   15  C   UNL     1      -9.603  20.402  66.543  1.00  0.00    -0.295 C  
HETATM   16  C   UNL     1     -10.905  20.185  67.258  1.00  0.00    -0.109 C  
HETATM   17  O   UNL     1      -9.819  20.534  65.223  1.00  0.00    -0.383 OA 
HETATM   18  H   UNL     1     -10.726  20.492  64.945  1.00  0.00     0.000 HD 
ENDBRANCH  13  15
ENDBRANCH   9  13
ENDBRANCH   1   2
BRANCH   1  19
HETATM   19  C   UNL     1      -7.959  13.623  68.607  1.00  0.00    -0.083 A  
HETATM   20  C   UNL     1      -6.793  13.592  69.380  1.00  0.00    -0.022 A  
HETATM   21  C   UNL     1      -6.695  11.168  69.235  1.00  0.00    -0.103 A  
HETATM   22  C   UNL     1      -8.422  12.406  68.052  1.00  0.00    -0.176 A  
HETATM   23  C   UNL     1      -6.173  12.379  69.696  1.00  0.00    -0.130 A  
HETATM   24  C   UNL     1      -7.802  11.181  68.363  1.00  0.00    -0.133 A  
BRANCH  24  25
HETATM   25  O   UNL     1      -8.219   9.949  67.923  1.00  0.00    -0.112 OA 
BRANCH  25  26
HETATM   26  C   UNL     1      -9.413   9.390  68.461  1.00  0.00    -0.145 C  
HETATM   27  C   UNL     1     -10.429   9.259  67.334  1.00  0.00    -0.340 C  
ENDBRANCH  25  26
ENDBRANCH  24  25
BRANCH  21  28
HETATM   28  O   UNL     1      -6.205   9.934  69.586  1.00  0.00    -0.043 OA 
HETATM   29  C   UNL     1      -6.535   9.443  70.879  1.00  0.00    -0.096 C  
ENDBRANCH  21  28
ENDBRANCH   1  19
BRANCH   1  30
HETATM   30  C   UNL     1      -9.493  15.094  69.912  1.00  0.00     0.063 C  
BRANCH  30  31
HETATM   31  S   UNL     1     -11.267  15.080  69.919  1.00  0.00    -0.286 S  
HETATM   32  O   UNL     1     -11.674  15.372  71.281  1.00  0.00    -0.309 OA 
HETATM   33  C   UNL     1     -11.779  13.409  69.590  1.00  0.00    -0.310 C  
HETATM   34  O   UNL     1     -11.739  15.900  68.823  1.00  0.00    -0.387 OA 
ENDBRANCH  30  31
ENDBRANCH   1  30
TORSDOF 9
ENDMDL
MODEL      235
REMARK 921   NORMALIZED FREE ENERGY PREDICTED BY IDOCK:   -2.05 KCAL/MOL
REMARK 922        TOTAL FREE ENERGY PREDICTED BY IDOCK:   -4.19 KCAL/MOL
REMARK 923 INTER-LIGAND FREE ENERGY PREDICTED BY IDOCK:   -4.92 KCAL/MOL
REMARK 924 INTRA-LIGAND FREE ENERGY PREDICTED BY IDOCK:    0.73 KCAL/MOL
REMARK 927      BINDING AFFINITY PREDICTED BY RF-SCORE:    0.00 PKD
ROOT
HETATM    1  C   UNL     1      -7.538  10.779  68.163  1.00  0.00    -0.093 C  
ENDROOT
BRANCH   1   2
HETATM    2  N   UNL     1      -7.194   9.855  67.070  1.00  0.00    -0.090 N  
HETATM    3  C   UNL     1      -5.704   9.288  63.840  1.00  0.00    -0.071 A  
HETATM    4  C   UNL     1      -5.703   8.128  63.085  1.00  0.00    -0.068 A  
HETATM    5  O   UNL     1      -7.909   7.756  67.782  1.00  0.00    -0.118 OA 
HETATM    6  C   UNL     1      -6.220   6.937  63.629  1.00  0.00    -0.043 A  
HETATM    7  C   UNL     1      -6.441  10.313  66.029  1.00  0.00    -0.107 C  
HETATM    8  C   UNL     1      -7.372   8.485  66.970  1.00  0.00    -0.084 C  
HETATM    9  C   UNL     1      -6.706   6.848  64.955  1.00  0.00    -0.050 A  
HETATM   10  C   UNL     1      -6.782   8.053  65.664  1.00  0.00    -0.048 A  
HETATM   11  C   UNL     1      -6.259   9.214  65.099  1.00  0.00    -0.061 A  
HETATM   12  O   UNL     1      -5.957  11.420  65.870  1.00  0.00    -0.086 OA 
BRANCH   9  13
HETATM   13  N   UNL     1      -7.171   5.626  65.484  1.00  0.00    -0.066 NA 
HETATM   14  H   UNL     1      -6.945   5.426  66.458  1.00  0.00     0.000 HD 
BRANCH  13  15
HETATM   15  C   UNL     1      -7.858   4.737  64.844  1.00  0.00    -0.091 C  
HETATM   16  C   UNL     1      -9.274   4.670  64.348  1.00  0.00    -0.090 C  
HETATM   17  O   UNL     1      -7.217   3.590  64.560  1.00  0.00    -0.059 OA 
HETATM   18  H   UNL     1      -7.722   2.937  64.090  1.00  0.00     0.000 HD 
ENDBRANCH  13  15
ENDBRANCH   9  13
ENDBRANCH   1   2
BRANCH   1  19
HETATM   19  C   UNL     1      -8.366  12.007  67.737  1.00  0.00    -0.156 A  
HETATM   20  C   UNL     1      -7.955  13.301  68.079  1.00  0.00    -0.152 A  
HETATM   21  C   UNL     1      -9.490  14.273  66.464  1.00  0.00    -0.287 A  
HETATM   22  C   UNL     1      -9.439  11.869  66.824  1.00  0.00    -0.207 A  
HETATM   23  C   UNL     1      -8.505  14.419  67.444  1.00  0.00    -0.216 A  
HETATM   24  C   UNL     1      -9.999  12.989  66.184  1.00  0.00    -0.278 A  
BRANCH  24  25
HETATM   25  O   UNL     1     -10.997  12.945  65.241  1.00  0.00    -0.277 OA 
BRANCH  25  26
HETATM   26  C   UNL     1     -10.648  12.750  63.874  1.00  0.00    -0.395 C  
HETATM   27  C   UNL     1     -11.929  12.514  63.084  1.00  0.00    -0.356 C  
ENDBRANCH  25  26
ENDBRANCH  24  25
BRANCH  21  28
HETATM   28  O   UNL     1     -10.003  15.312  65.727  1.00  0.00    -0.309 OA 
HETATM   29  C   UNL     1     -10.779  16.283  66.417  1.00  0.00    -0.182 C  
ENDBRANCH  21  28
ENDBRANCH   1  19
BRANCH   1  30
HETATM   30  C   UNL     1      -8.182  10.164  69.406  1.00  0.00    -0.166 C  
BRANCH  30  31
HETATM   31  S   UNL     1      -9.934   9.899  69.318  1.00  0.00    -0.221 S  
HETATM   32  O   UNL     1     -10.557  11.057  69.929  1.00  0.00    -0.108 OA 
HETATM   33  C   UNL     1     -10.308   8.515  70.370  1.00  0.00    -0.202 C  
HETATM   34  O   UNL     1     -10.274   9.516  67.963  1.00  0.00    -0.179 OA 
ENDBRANCH  30  31
ENDBRANCH   1  30
TORSDOF 9
ENDMDL
MODEL      236
REMARK 921   NORMALIZED FREE ENERGY PREDICTED BY IDOCK:   -2.01 KCAL/MOL
REMARK 922        TOTAL FREE ENERGY PREDICTED BY IDOCK:   -4.13 KCAL/MOL
REMARK 923 INTER-LIGAND FREE ENERGY PREDICTED BY IDOCK:   -5.27 KCAL/MOL
REMARK 924 INTRA-LIGAND FREE ENERGY PREDICTED BY IDOCK:    1.14 KCAL/MOL
REMARK 927      BINDING AFFINITY PREDICTED BY RF-SCORE:    0.00 PKD
ROOT
HETATM    1  C   UNL     1      -7.496  10.126  68.358  1.00  0.00    -0.086 C  
ENDROOT
BRANCH   1   2
HETATM    2  N   UNL     1      -8.779  10.030  69.074  1.00  0.00    -0.147 N  
HETATM    3  C   UNL     1     -11.110   8.086  71.013  1.00  0.00    -0.275 A  
HETATM    4  C   UNL     1     -12.382   8.437  71.433  1.00  0.00    -0.328 A  
HETATM    5  O   UNL     1      -9.737  12.147  68.923  1.00  0.00    -0.052 OA 
HETATM    6  C   UNL     1     -12.852   9.747  71.226  1.00  0.00    -0.472 A  
HETATM    7  C   UNL     1      -9.062   8.894  69.772  1.00  0.00    -0.150 C  
HETATM    8  C   UNL     1      -9.743  10.995  69.312  1.00  0.00    -0.008 C  
HETATM    9  C   UNL     1     -12.058  10.763  70.643  1.00  0.00    -0.370 A  
HETATM   10  C   UNL     1     -10.814  10.360  70.143  1.00  0.00    -0.333 A  
HETATM   11  C   UNL     1     -10.376   9.057  70.367  1.00  0.00    -0.253 A  
HETATM   12  O   UNL     1      -8.368   7.904  69.930  1.00  0.00    -0.119 OA 
BRANCH   9  13
HETATM   13  N   UNL     1     -12.544  12.078  70.495  1.00  0.00    -0.169 NA 
HETATM   14  H   UNL     1     -13.035  12.298  69.629  1.00  0.00     0.000 HD 
BRANCH  13  15
HETATM   15  C   UNL     1     -12.424  13.032  71.362  1.00  0.00    -0.148 C  
HETATM   16  C   UNL     1     -13.220  13.459  72.560  1.00  0.00    -0.517 C  
HETATM   17  O   UNL     1     -11.387  13.868  71.175  1.00  0.00    -0.195 OA 
HETATM   18  H   UNL     1     -11.299  14.567  71.811  1.00  0.00     0.000 HD 
ENDBRANCH  13  15
ENDBRANCH   9  13
ENDBRANCH   1   2
BRANCH   1  19
HETATM   19  C   UNL     1      -7.617  10.341  66.837  1.00  0.00    -0.105 A  
HETATM   20  C   UNL     1      -6.765   9.673  65.950  1.00  0.00    -0.084 A  
HETATM   21  C   UNL     1      -8.204  10.221  64.070  1.00  0.00    -0.151 A  
HETATM   22  C   UNL     1      -8.715  11.053  66.296  1.00  0.00    -0.178 A  
HETATM   23  C   UNL     1      -7.059   9.608  64.584  1.00  0.00    -0.120 A  
HETATM   24  C   UNL     1      -9.016  10.994  64.923  1.00  0.00    -0.101 A  
BRANCH  24  25
HETATM   25  O   UNL     1     -10.093  11.598  64.323  1.00  0.00    -0.255 OA 
BRANCH  25  26
HETATM   26  C   UNL     1     -11.380  11.466  64.917  1.00  0.00    -0.039 C  
HETATM   27  C   UNL     1     -11.558  12.589  65.929  1.00  0.00    -0.454 C  
ENDBRANCH  25  26
ENDBRANCH  24  25
BRANCH  21  28
HETATM   28  O   UNL     1      -8.613  10.115  62.762  1.00  0.00    -0.154 OA 
HETATM   29  C   UNL     1      -9.323   8.939  62.393  1.00  0.00     0.639 C  
ENDBRANCH  21  28
ENDBRANCH   1  19
BRANCH   1  30
HETATM   30  C   UNL     1      -6.473  11.120  68.911  1.00  0.00    -0.056 C  
BRANCH  30  31
HETATM   31  S   UNL     1      -6.301  12.636  68.005  1.00  0.00    -0.109 S  
HETATM   32  O   UNL     1      -5.159  12.463  67.127  1.00  0.00    -0.245 OA 
HETATM   33  C   UNL     1      -5.848  13.896  69.174  1.00  0.00    -0.085 C  
HETATM   34  O   UNL     1      -7.594  12.996  67.460  1.00  0.00    -0.147 OA 
ENDBRANCH  30  31
ENDBRANCH   1  30
TORSDOF 9
ENDMDL
MODEL      237
REMARK 921   NORMALIZED FREE ENERGY PREDICTED BY IDOCK:   -1.85 KCAL/MOL
REMARK 922        TOTAL FREE ENERGY PREDICTED BY IDOCK:   -3.88 KCAL/MOL
REMARK 923 INTER-LIGAND FREE ENERGY PREDICTED BY IDOCK:   -3.83 KCAL/MOL
REMARK 924 INTRA-LIGAND FREE ENERGY PREDICTED BY IDOCK:   -0.05 KCAL/MOL
REMARK 927      BINDING AFFINITY PREDICTED BY RF-SCORE:    0.00 PKD
ROOT
HETATM    1  C   UNL     1      -9.320   5.876  69.537  1.00  0.00    -0.134 C  
ENDROOT
BRANCH   1   2
HETATM    2  N   UNL     1      -8.507   6.579  70.543  1.00  0.00    -0.136 N  
HETATM    3  C   UNL     1      -7.573   7.065  73.988  1.00  0.00    -0.118 A  
HETATM    4  C   UNL     1      -6.729   8.022  74.523  1.00  0.00    -0.146 A  
HETATM    5  O   UNL     1      -7.144   8.033  69.338  1.00  0.00    -0.060 OA 
HETATM    6  C   UNL     1      -6.004   8.874  73.669  1.00  0.00    -0.064 A  
HETATM    7  C   UNL     1      -8.564   6.169  71.843  1.00  0.00    -0.132 C  
HETATM    8  C   UNL     1      -7.518   7.535  70.382  1.00  0.00    -0.081 C  
HETATM    9  C   UNL     1      -6.054   8.769  72.258  1.00  0.00    -0.072 A  
HETATM   10  C   UNL     1      -6.984   7.858  71.743  1.00  0.00    -0.068 A  
HETATM   11  C   UNL     1      -7.684   7.027  72.615  1.00  0.00    -0.091 A  
HETATM   12  O   UNL     1      -9.194   5.242  72.321  1.00  0.00    -0.138 OA 
BRANCH   9  13
HETATM   13  N   UNL     1      -5.277   9.607  71.433  1.00  0.00    -0.059 NA 
HETATM   14  H   UNL     1      -4.267   9.589  71.573  1.00  0.00     0.000 HD 
BRANCH  13  15
HETATM   15  C   UNL     1      -5.730  10.396  70.514  1.00  0.00    -0.091 C  
HETATM   16  C   UNL     1      -5.157  10.957  69.245  1.00  0.00    -0.041 C  
HETATM   17  O   UNL     1      -6.975  10.866  70.704  1.00  0.00    -0.441 OA 
HETATM   18  H   UNL     1      -7.307  11.446  70.029  1.00  0.00     0.000 HD 
ENDBRANCH  13  15
ENDBRANCH   9  13
ENDBRANCH   1   2
BRANCH   1  19
HETATM   19  C   UNL     1      -9.718   6.726  68.316  1.00  0.00    -0.126 A  
HETATM   20  C   UNL     1     -10.641   7.771  68.442  1.00  0.00    -0.157 A  
HETATM   21  C   UNL     1      -9.995   8.674  66.279  1.00  0.00    -0.217 A  
HETATM   22  C   UNL     1      -9.013   6.604  67.094  1.00  0.00    -0.118 A  
HETATM   23  C   UNL     1     -10.772   8.737  67.439  1.00  0.00    -0.216 A  
HETATM   24  C   UNL     1      -9.142   7.571  66.080  1.00  0.00    -0.137 A  
BRANCH  24  25
HETATM   25  O   UNL     1      -8.452   7.568  64.892  1.00  0.00    -0.082 OA 
BRANCH  25  26
HETATM   26  C   UNL     1      -7.717   6.406  64.522  1.00  0.00    -0.108 C  
HETATM   27  C   UNL     1      -6.299   6.831  64.164  1.00  0.00    -0.035 C  
ENDBRANCH  25  26
ENDBRANCH  24  25
BRANCH  21  28
HETATM   28  O   UNL     1      -9.993   9.638  65.300  1.00  0.00    -0.295 OA 
HETATM   29  C   UNL     1      -9.543  10.937  65.663  1.00  0.00    -0.224 C  
ENDBRANCH  21  28
ENDBRANCH   1  19
BRANCH   1  30
HETATM   30  C   UNL     1      -8.788   4.530  69.042  1.00  0.00    -0.088 C  
BRANCH  30  31
HETATM   31  S   UNL     1      -7.024   4.342  69.062  1.00  0.00    -0.051 S  
HETATM   32  O   UNL     1      -6.492   5.361  68.178  1.00  0.00    -0.040 OA 
HETATM   33  C   UNL     1      -6.656   2.777  68.302  1.00  0.00    -0.036 C  
HETATM   34  O   UNL     1      -6.584   4.268  70.440  1.00  0.00    -0.030 OA 
ENDBRANCH  30  31
ENDBRANCH   1  30
TORSDOF 9
ENDMDL
MODEL      238
REMARK 921   NORMALIZED FREE ENERGY PREDICTED BY IDOCK:   -1.28 KCAL/MOL
REMARK 922        TOTAL FREE ENERGY PREDICTED BY IDOCK:   -3.00 KCAL/MOL
REMARK 923 INTER-LIGAND FREE ENERGY PREDICTED BY IDOCK:   -5.15 KCAL/MOL
REMARK 924 INTRA-LIGAND FREE ENERGY PREDICTED BY IDOCK:    2.15 KCAL/MOL
REMARK 927      BINDING AFFINITY PREDICTED BY RF-SCORE:    0.00 PKD
ROOT
HETATM    1  C   UNL     1      -9.259  11.136  68.487  1.00  0.00    -0.183 C  
ENDROOT
BRANCH   1   2
HETATM    2  N   UNL     1      -9.111  12.596  68.375  1.00  0.00    -0.168 N  
HETATM    3  C   UNL     1     -10.591  15.827  67.788  1.00  0.00    -0.292 A  
HETATM    4  C   UNL     1      -9.961  17.055  67.678  1.00  0.00    -0.280 A  
HETATM    5  O   UNL     1      -6.872  13.034  68.844  1.00  0.00    -0.095 OA 
HETATM    6  C   UNL     1      -8.583  17.161  67.941  1.00  0.00    -0.214 A  
HETATM    7  C   UNL     1     -10.227  13.363  68.211  1.00  0.00    -0.250 C  
HETATM    8  C   UNL     1      -8.000  13.399  68.572  1.00  0.00    -0.107 C  
HETATM    9  C   UNL     1      -7.797  16.065  68.370  1.00  0.00    -0.149 A  
HETATM   10  C   UNL     1      -8.436  14.819  68.383  1.00  0.00    -0.157 A  
HETATM   11  C   UNL     1      -9.803  14.747  68.120  1.00  0.00    -0.221 A  
HETATM   12  O   UNL     1     -11.393  13.010  68.171  1.00  0.00    -0.258 OA 
BRANCH   9  13
HETATM   13  N   UNL     1      -6.429  16.217  68.672  1.00  0.00    -0.122 NA 
HETATM   14  H   UNL     1      -5.767  15.682  68.111  1.00  0.00     0.000 HD 
BRANCH  13  15
HETATM   15  C   UNL     1      -5.938  16.976  69.597  1.00  0.00    -0.227 C  
HETATM   16  C   UNL     1      -5.799  16.849  71.087  1.00  0.00     0.767 C  
HETATM   17  O   UNL     1      -5.457  18.164  69.190  1.00  0.00    -0.190 OA 
HETATM   18  H   UNL     1      -5.097  18.721  69.870  1.00  0.00     0.000 HD 
ENDBRANCH  13  15
ENDBRANCH   9  13
ENDBRANCH   1   2
BRANCH   1  19
HETATM   19  C   UNL     1     -10.560  10.666  69.164  1.00  0.00    -0.256 A  
HETATM   20  C   UNL     1     -10.754   9.317  69.483  1.00  0.00    -0.236 A  
HETATM   21  C   UNL     1     -12.619   9.874  70.939  1.00  0.00    -0.302 A  
HETATM   22  C   UNL     1     -11.493  11.608  69.660  1.00  0.00    -0.359 A  
HETATM   23  C   UNL     1     -11.767   8.927  70.366  1.00  0.00    -0.055 A  
HETATM   24  C   UNL     1     -12.515  11.223  70.547  1.00  0.00    -0.310 A  
BRANCH  24  25
HETATM   25  O   UNL     1     -13.423  12.076  71.126  1.00  0.00     0.156 OA 
BRANCH  25  26
HETATM   26  C   UNL     1     -12.947  13.186  71.879  1.00  0.00    -0.314 C  
HETATM   27  C   UNL     1     -13.086  14.438  71.024  1.00  0.00    -0.417 C  
ENDBRANCH  25  26
ENDBRANCH  24  25
BRANCH  21  28
HETATM   28  O   UNL     1     -13.567   9.581  71.890  1.00  0.00    -0.397 OA 
HETATM   29  C   UNL     1     -13.298   8.497  72.770  1.00  0.00    -0.040 C  
ENDBRANCH  21  28
ENDBRANCH   1  19
BRANCH   1  30
HETATM   30  C   UNL     1      -9.053  10.324  67.208  1.00  0.00    -0.138 C  
BRANCH  30  31
HETATM   31  S   UNL     1      -7.602   9.304  67.164  1.00  0.00    -0.091 S  
HETATM   32  O   UNL     1      -8.066   7.934  67.048  1.00  0.00    -0.113 OA 
HETATM   33  C   UNL     1      -6.822   9.436  68.756  1.00  0.00    -0.053 C  
HETATM   34  O   UNL     1      -6.684   9.850  66.186  1.00  0.00    -0.084 OA 
ENDBRANCH  30  31
ENDBRANCH   1  30
TORSDOF 9
ENDMDL
MODEL      239
REMARK 921   NORMALIZED FREE ENERGY PREDICTED BY IDOCK:   -0.61 KCAL/MOL
REMARK 922        TOTAL FREE ENERGY PREDICTED BY IDOCK:   -1.99 KCAL/MOL
REMARK 923 INTER-LIGAND FREE ENERGY PREDICTED BY IDOCK:   -3.59 KCAL/MOL
REMARK 924 INTRA-LIGAND FREE ENERGY PREDICTED BY IDOCK:    1.60 KCAL/MOL
REMARK 927      BINDING AFFINITY PREDICTED BY RF-SCORE:    0.00 PKD
ROOT
HETATM    1  C   UNL     1      -8.324  13.878  68.230  1.00  0.00    -0.163 C  
ENDROOT
BRANCH   1   2
HETATM    2  N   UNL     1      -9.619  13.980  68.922  1.00  0.00    -0.083 N  
HETATM    3  C   UNL     1     -12.013  15.961  70.744  1.00  0.00    -0.413 A  
HETATM    4  C   UNL     1     -13.191  15.549  71.345  1.00  0.00    -0.587 A  
HETATM    5  O   UNL     1     -10.616  11.888  68.693  1.00  0.00    -0.223 OA 
HETATM    6  C   UNL     1     -13.647  14.231  71.161  1.00  0.00    -0.300 A  
HETATM    7  C   UNL     1     -10.035  15.200  69.369  1.00  0.00    -0.228 C  
HETATM    8  C   UNL     1     -10.626  13.042  69.077  1.00  0.00    -0.044 C  
HETATM    9  C   UNL     1     -12.979  13.295  70.336  1.00  0.00     0.216 A  
HETATM   10  C   UNL     1     -11.745  13.706  69.816  1.00  0.00    -0.364 A  
HETATM   11  C   UNL     1     -11.322  15.019  70.013  1.00  0.00    -0.305 A  
HETATM   12  O   UNL     1      -9.485  16.282  69.251  1.00  0.00    -0.242 OA 
BRANCH   9  13
HETATM   13  N   UNL     1     -13.491  11.997  70.135  1.00  0.00     1.582 NA 
HETATM   14  H   UNL     1     -14.505  11.890  70.158  1.00  0.00     0.000 HD 
BRANCH  13  15
HETATM   15  C   UNL     1     -12.790  10.931  69.925  1.00  0.00     0.081 C  
HETATM   16  C   UNL     1     -12.020   9.997  70.813  1.00  0.00    -0.426 C  
HETATM   17  O   UNL     1     -12.673  10.548  68.642  1.00  0.00    -0.188 OA 
HETATM   18  H   UNL     1     -12.158   9.764  68.488  1.00  0.00     0.000 HD 
ENDBRANCH  13  15
ENDBRANCH   9  13
ENDBRANCH   1   2
BRANCH   1  19
HETATM   19  C   UNL     1      -7.828  15.185  67.584  1.00  0.00    -0.178 A  
HETATM   20  C   UNL     1      -8.535  15.776  66.530  1.00  0.00    -0.335 A  
HETATM   21  C   UNL     1      -7.313  17.859  66.807  1.00  0.00    -0.202 A  
HETATM   22  C   UNL     1      -6.771  15.921  68.172  1.00  0.00    -0.131 A  
HETATM   23  C   UNL     1      -8.285  17.099  66.151  1.00  0.00    -0.269 A  
HETATM   24  C   UNL     1      -6.513  17.252  67.795  1.00  0.00    -0.152 A  
BRANCH  24  25
HETATM   25  O   UNL     1      -5.552  18.060  68.353  1.00  0.00    -0.161 OA 
BRANCH  25  26
HETATM   26  C   UNL     1      -5.133  17.813  69.691  1.00  0.00    -0.182 C  
HETATM   27  C   UNL     1      -6.268  18.204  70.627  1.00  0.00     0.624 C  
ENDBRANCH  25  26
ENDBRANCH  24  25
BRANCH  21  28
HETATM   28  O   UNL     1      -7.083  19.191  66.562  1.00  0.00    -0.205 OA 
HETATM   29  C   UNL     1      -8.064  20.117  67.009  1.00  0.00    -0.326 C  
ENDBRANCH  21  28
ENDBRANCH   1  19
BRANCH   1  30
HETATM   30  C   UNL     1      -7.171  13.255  69.019  1.00  0.00    -0.007 C  
BRANCH  30  31
HETATM   31  S   UNL     1      -6.662  11.638  68.496  1.00  0.00    -0.075 S  
HETATM   32  O   UNL     1      -7.563  11.249  67.428  1.00  0.00    -0.108 OA 
HETATM   33  C   UNL     1      -6.979  10.527  69.848  1.00  0.00    -0.150 C  
HETATM   34  O   UNL     1      -5.231  11.654  68.276  1.00  0.00    -0.043 OA 
ENDBRANCH  30  31
ENDBRANCH   1  30
TORSDOF 9
ENDMDL
MODEL      240
REMARK 921   NORMALIZED FREE ENERGY PREDICTED BY IDOCK:   -0.43 KCAL/MOL
REMARK 922        TOTAL FREE ENERGY PREDICTED BY IDOCK:   -1.71 KCAL/MOL
REMARK 923 INTER-LIGAND FREE ENERGY PREDICTED BY IDOCK:   -3.14 KCAL/MOL
REMARK 924 INTRA-LIGAND FREE ENERGY PREDICTED BY IDOCK:    1.43 KCAL/MOL
REMARK 927      BINDING AFFINITY PREDICTED BY RF-SCORE:    0.00 PKD
ROOT
HETATM    1  C   UNL     1     -11.023  17.611  67.254  1.00  0.00    -0.017 C  
ENDROOT
BRANCH   1   2
HETATM    2  N   UNL     1      -9.598  17.633  66.885  1.00  0.00    -0.276 N  
HETATM    3  C   UNL     1      -6.909  19.097  64.988  1.00  0.00     0.071 A  
HETATM    4  C   UNL     1      -5.597  18.667  64.883  1.00  0.00    -0.251 A  
HETATM    5  O   UNL     1      -8.597  15.964  68.162  1.00  0.00    -0.166 OA 
HETATM    6  C   UNL     1      -5.142  17.605  65.685  1.00  0.00    -0.105 A  
HETATM    7  C   UNL     1      -9.139  18.636  66.082  1.00  0.00    -0.125 C  
HETATM    8  C   UNL     1      -8.543  16.869  67.353  1.00  0.00    -0.202 C  
HETATM    9  C   UNL     1      -5.957  16.969  66.651  1.00  0.00    -0.182 A  
HETATM   10  C   UNL     1      -7.302  17.358  66.672  1.00  0.00    -0.282 A  
HETATM   11  C   UNL     1      -7.721  18.416  65.868  1.00  0.00    -0.128 A  
HETATM   12  O   UNL     1      -9.752  19.584  65.623  1.00  0.00    -0.356 OA 
BRANCH   9  13
HETATM   13  N   UNL     1      -5.453  15.939  67.472  1.00  0.00    -0.262 NA 
HETATM   14  H   UNL     1      -5.124  15.094  67.007  1.00  0.00     0.000 HD 
BRANCH  13  15
HETATM   15  C   UNL     1      -5.372  15.972  68.763  1.00  0.00    -0.104 C  
HETATM   16  C   UNL     1      -5.350  17.076  69.780  1.00  0.00    -0.180 C  
HETATM   17  O   UNL     1      -5.252  14.781  69.375  1.00  0.00    -0.088 OA 
HETATM   18  H   UNL     1      -5.192  14.804  70.322  1.00  0.00     0.000 HD 
ENDBRANCH  13  15
ENDBRANCH   9  13
ENDBRANCH   1   2
BRANCH   1  19
HETATM   19  C   UNL     1     -11.550  16.242  67.724  1.00  0.00     0.136 A  
HETATM   20  C   UNL     1     -11.720  15.191  66.816  1.00  0.00    -0.070 A  
HETATM   21  C   UNL     1     -11.905  13.582  68.629  1.00  0.00    -0.369 A  
HETATM   22  C   UNL     1     -11.678  15.956  69.105  1.00  0.00    -0.369 A  
HETATM   23  C   UNL     1     -11.888  13.876  67.263  1.00  0.00    -0.442 A  
HETATM   24  C   UNL     1     -11.848  14.636  69.562  1.00  0.00    -0.330 A  
BRANCH  24  25
HETATM   25  O   UNL     1     -11.918  14.259  70.881  1.00  0.00    -0.328 OA 
BRANCH  25  26
HETATM   26  C   UNL     1     -13.149  14.413  71.580  1.00  0.00    -0.350 C  
HETATM   27  C   UNL     1     -13.574  13.049  72.107  1.00  0.00    -0.618 C  
ENDBRANCH  25  26
ENDBRANCH  24  25
BRANCH  21  28
HETATM   28  O   UNL     1     -11.962  12.309  69.142  1.00  0.00    -0.297 OA 
HETATM   29  C   UNL     1     -10.770  11.535  69.105  1.00  0.00    -0.168 C  
ENDBRANCH  21  28
ENDBRANCH   1  19
BRANCH   1  30
HETATM   30  C   UNL     1     -11.494  18.680  68.242  1.00  0.00     1.492 C  
BRANCH  30  31
HETATM   31  S   UNL     1     -10.215  19.506  69.153  1.00  0.00    -0.000 S  
HETATM   32  O   UNL     1     -10.849  20.079  70.325  1.00  0.00     0.974 OA 
HETATM   33  C   UNL     1      -9.665  20.874  68.161  1.00  0.00     0.291 C  
HETATM   34  O   UNL     1      -9.094  18.600  69.299  1.00  0.00    -0.042 OA 
ENDBRANCH  30  31
ENDBRANCH   1  30
TORSDOF 9
ENDMDL
MODEL      241
REMARK 921   NORMALIZED FREE ENERGY PREDICTED BY IDOCK:    1.39 KCAL/MOL
REMARK 922        TOTAL FREE ENERGY PREDICTED BY IDOCK:    1.06 KCAL/MOL
REMARK 923 INTER-LIGAND FREE ENERGY PREDICTED BY IDOCK:   -1.29 KCAL/MOL
REMARK 924 INTRA-LIGAND FREE ENERGY PREDICTED BY IDOCK:    2.36 KCAL/MOL
REMARK 927      BINDING AFFINITY PREDICTED BY RF-SCORE:    0.00 PKD
ROOT
HETATM    1  C   UNL     1     -10.961  16.849  68.437  1.00  0.00    -0.296 C  
ENDROOT
BRANCH   1   2
HETATM    2  N   UNL     1      -9.550  16.825  68.019  1.00  0.00    -0.231 N  
HETATM    3  C   UNL     1      -7.019  17.652  65.593  1.00  0.00    -0.000 A  
HETATM    4  C   UNL     1      -5.680  17.301  65.593  1.00  0.00     0.555 A  
HETATM    5  O   UNL     1      -8.397  15.818  69.774  1.00  0.00    -0.121 OA 
HETATM    6  C   UNL     1      -5.128  16.644  66.708  1.00  0.00     0.006 A  
HETATM    7  C   UNL     1      -9.185  17.485  66.882  1.00  0.00    -0.265 C  
HETATM    8  C   UNL     1      -8.429  16.360  68.686  1.00  0.00    -0.229 C  
HETATM    9  C   UNL     1      -5.873  16.360  67.878  1.00  0.00    -0.126 A  
HETATM   10  C   UNL     1      -7.243  16.641  67.816  1.00  0.00    -0.154 A  
HETATM   11  C   UNL     1      -7.759  17.295  66.699  1.00  0.00    -0.298 A  
HETATM   12  O   UNL     1      -9.879  18.154  66.135  1.00  0.00    -0.443 OA 
BRANCH   9  13
HETATM   13  N   UNL     1      -5.275  15.745  68.996  1.00  0.00    -0.100 NA 
HETATM   14  H   UNL     1      -4.701  16.334  69.599  1.00  0.00     0.000 HD 
BRANCH  13  15
HETATM   15  C   UNL     1      -5.390  14.499  69.326  1.00  0.00    -0.081 C  
HETATM   16  C   UNL     1      -5.436  13.214  68.551  1.00  0.00    -0.068 C  
HETATM   17  O   UNL     1      -5.528  14.249  70.640  1.00  0.00    -0.116 OA 
HETATM   18  H   UNL     1      -5.612  13.334  70.882  1.00  0.00     0.000 HD 
ENDBRANCH  13  15
ENDBRANCH   9  13
ENDBRANCH   1   2
BRANCH   1  19
HETATM   19  C   UNL     1     -11.422  15.614  69.233  1.00  0.00    -0.368 A  
HETATM   20  C   UNL     1     -12.026  15.755  70.488  1.00  0.00    -0.401 A  
HETATM   21  C   UNL     1     -12.826  13.461  70.423  1.00  0.00     0.041 A  
HETATM   22  C   UNL     1     -11.433  14.333  68.630  1.00  0.00    -0.328 A  
HETATM   23  C   UNL     1     -12.725  14.694  71.072  1.00  0.00    -0.406 A  
HETATM   24  C   UNL     1     -12.133  13.260  69.213  1.00  0.00    -0.242 A  
BRANCH  24  25
HETATM   25  O   UNL     1     -12.251  12.004  68.669  1.00  0.00    -0.299 OA 
BRANCH  25  26
HETATM   26  C   UNL     1     -11.109  11.400  68.069  1.00  0.00    -0.257 C  
HETATM   27  C   UNL     1     -10.945  10.004  68.654  1.00  0.00    -0.247 C  
ENDBRANCH  25  26
ENDBRANCH  24  25
BRANCH  21  28
HETATM   28  O   UNL     1     -13.579  12.408  70.882  1.00  0.00     0.571 OA 
HETATM   29  C   UNL     1     -12.942  11.478  71.749  1.00  0.00    -0.394 C  
ENDBRANCH  21  28
ENDBRANCH   1  19
BRANCH   1  30
HETATM   30  C   UNL     1     -11.441  18.106  69.164  1.00  0.00     2.668 C  
BRANCH  30  31
HETATM   31  S   UNL     1     -10.339  19.495  69.115  1.00  0.00     0.174 S  
HETATM   32  O   UNL     1     -10.892  20.490  70.014  1.00  0.00     0.572 OA 
HETATM   33  C   UNL     1     -10.439  20.186  67.480  1.00  0.00    -0.282 C  
HETATM   34  O   UNL     1      -8.985  19.016  69.300  1.00  0.00    -0.131 OA 
ENDBRANCH  30  31
ENDBRANCH   1  30
TORSDOF 9
ENDMDL
MODEL      242
REMARK 921   NORMALIZED FREE ENERGY PREDICTED BY IDOCK:    3.78 KCAL/MOL
REMARK 922        TOTAL FREE ENERGY PREDICTED BY IDOCK:    4.71 KCAL/MOL
REMARK 923 INTER-LIGAND FREE ENERGY PREDICTED BY IDOCK:   -1.08 KCAL/MOL
REMARK 924 INTRA-LIGAND FREE ENERGY PREDICTED BY IDOCK:    5.80 KCAL/MOL
REMARK 927      BINDING AFFINITY PREDICTED BY RF-SCORE:    0.00 PKD
ROOT
HETATM    1  C   UNL     1      -8.532  14.338  68.496  1.00  0.00    -0.164 C  
ENDROOT
BRANCH   1   2
HETATM    2  N   UNL     1      -8.016  13.024  68.915  1.00  0.00     0.080 N  
HETATM    3  C   UNL     1      -5.312  11.017  70.191  1.00  0.00    -0.063 A  
HETATM    4  C   UNL     1      -5.262   9.643  70.351  1.00  0.00    -0.032 A  
HETATM    5  O   UNL     1      -9.807  11.552  68.690  1.00  0.00    -0.199 OA 
HETATM    6  C   UNL     1      -6.415   8.868  70.128  1.00  0.00    -0.039 A  
HETATM    7  C   UNL     1      -6.772  12.948  69.468  1.00  0.00     0.031 C  
HETATM    8  C   UNL     1      -8.657  11.799  69.000  1.00  0.00     0.240 C  
HETATM    9  C   UNL     1      -7.666   9.437  69.789  1.00  0.00    -0.110 A  
HETATM   10  C   UNL     1      -7.669  10.815  69.543  1.00  0.00    -0.074 A  
HETATM   11  C   UNL     1      -6.511  11.554  69.777  1.00  0.00    -0.125 A  
HETATM   12  O   UNL     1      -5.990  13.851  69.710  1.00  0.00    -0.109 OA 
BRANCH   9  13
HETATM   13  N   UNL     1      -8.814   8.635  69.620  1.00  0.00    -0.135 NA 
HETATM   14  H   UNL     1      -9.685   9.114  69.393  1.00  0.00     0.000 HD 
BRANCH  13  15
HETATM   15  C   UNL     1      -8.860   7.347  69.729  1.00  0.00    -0.141 C  
HETATM   16  C   UNL     1      -8.205   6.214  68.994  1.00  0.00    -0.112 C  
HETATM   17  O   UNL     1      -9.683   6.866  70.677  1.00  0.00    -0.175 OA 
HETATM   18  H   UNL     1      -9.717   5.920  70.757  1.00  0.00     0.000 HD 
ENDBRANCH  13  15
ENDBRANCH   9  13
ENDBRANCH   1   2
BRANCH   1  19
HETATM   19  C   UNL     1      -9.541  14.298  67.333  1.00  0.00    -0.214 A  
HETATM   20  C   UNL     1     -10.293  13.145  67.078  1.00  0.00    -0.249 A  
HETATM   21  C   UNL     1     -11.811  14.389  65.642  1.00  0.00    -0.355 A  
HETATM   22  C   UNL     1      -9.877  15.481  66.632  1.00  0.00    -0.268 A  
HETATM   23  C   UNL     1     -11.418  13.193  66.248  1.00  0.00    -0.372 A  
HETATM   24  C   UNL     1     -11.006  15.535  65.794  1.00  0.00    -0.283 A  
BRANCH  24  25
HETATM   25  O   UNL     1     -11.443  16.653  65.126  1.00  0.00     0.077 OA 
BRANCH  25  26
HETATM   26  C   UNL     1     -10.951  17.930  65.520  1.00  0.00     0.283 C  
HETATM   27  C   UNL     1      -9.634  17.728  66.258  1.00  0.00    -0.256 C  
ENDBRANCH  25  26
ENDBRANCH  24  25
BRANCH  21  28
HETATM   28  O   UNL     1     -12.958  14.537  64.901  1.00  0.00    -0.569 OA 
HETATM   29  C   UNL     1     -13.601  15.804  64.937  1.00  0.00     2.945 C  
ENDBRANCH  21  28
ENDBRANCH   1  19
BRANCH   1  30
HETATM   30  C   UNL     1      -9.092  15.239  69.598  1.00  0.00    -0.125 C  
BRANCH  30  31
HETATM   31  S   UNL     1     -10.797  14.980  70.015  1.00  0.00    -0.182 S  
HETATM   32  O   UNL     1     -11.556  15.970  69.275  1.00  0.00    -0.352 OA 
HETATM   33  C   UNL     1     -10.983  15.389  71.735  1.00  0.00    -0.019 C  
HETATM   34  O   UNL     1     -11.098  13.571  69.870  1.00  0.00    -0.015 OA 
ENDBRANCH  30  31
ENDBRANCH   1  30
TORSDOF 9
ENDMDL
MODEL      243
REMARK 921   NORMALIZED FREE ENERGY PREDICTED BY IDOCK:    4.25 KCAL/MOL
REMARK 922        TOTAL FREE ENERGY PREDICTED BY IDOCK:    5.43 KCAL/MOL
REMARK 923 INTER-LIGAND FREE ENERGY PREDICTED BY IDOCK:    4.20 KCAL/MOL
REMARK 924 INTRA-LIGAND FREE ENERGY PREDICTED BY IDOCK:    1.23 KCAL/MOL
REMARK 927      BINDING AFFINITY PREDICTED BY RF-SCORE:    0.00 PKD
ROOT
HETATM    1  C   UNL     1      -8.673  15.511  69.518  1.00  0.00    -0.223 C  
ENDROOT
BRANCH   1   2
HETATM    2  N   UNL     1      -9.498  14.989  68.416  1.00  0.00    -0.195 N  
HETATM    3  C   UNL     1     -10.398  15.027  64.929  1.00  0.00    -0.317 A  
HETATM    4  C   UNL     1     -11.421  14.341  64.297  1.00  0.00    -0.257 A  
HETATM    5  O   UNL     1     -10.814  13.316  69.360  1.00  0.00    -0.098 OA 
HETATM    6  C   UNL     1     -12.173  13.390  65.011  1.00  0.00    -0.463 A  
HETATM    7  C   UNL     1      -9.245  15.410  67.144  1.00  0.00    -0.213 C  
HETATM    8  C   UNL     1     -10.439  13.973  68.409  1.00  0.00    -0.253 C  
HETATM    9  C   UNL     1     -11.902  13.054  66.359  1.00  0.00    -0.405 A  
HETATM   10  C   UNL     1     -10.926  13.826  67.001  1.00  0.00    -0.297 A  
HETATM   11  C   UNL     1     -10.196  14.758  66.265  1.00  0.00    -0.309 A  
HETATM   12  O   UNL     1      -8.374  16.169  66.753  1.00  0.00    -0.208 OA 
BRANCH   9  13
HETATM   13  N   UNL     1     -12.644  12.060  67.030  1.00  0.00     0.803 NA 
HETATM   14  H   UNL     1     -13.580  12.314  67.345  1.00  0.00     0.000 HD 
BRANCH  13  15
HETATM   15  C   UNL     1     -12.243  10.856  67.281  1.00  0.00     1.985 C  
HETATM   16  C   UNL     1     -11.210   9.952  66.674  1.00  0.00     0.517 C  
HETATM   17  O   UNL     1     -12.880  10.221  68.280  1.00  0.00     1.670 OA 
HETATM   18  H   UNL     1     -12.586   9.337  68.465  1.00  0.00     0.000 HD 
ENDBRANCH  13  15
ENDBRANCH   9  13
ENDBRANCH   1   2
BRANCH   1  19
HETATM   19  C   UNL     1      -7.536  14.577  69.974  1.00  0.00     0.284 A  
HETATM   20  C   UNL     1      -6.685  14.944  71.023  1.00  0.00     0.627 A  
HETATM   21  C   UNL     1      -5.872  12.664  71.234  1.00  0.00     0.390 A  
HETATM   22  C   UNL     1      -7.455  13.251  69.485  1.00  0.00     0.532 A  
HETATM   23  C   UNL     1      -5.869  13.997  71.650  1.00  0.00    -0.140 A  
HETATM   24  C   UNL     1      -6.634  12.293  70.109  1.00  0.00     0.325 A  
BRANCH  24  25
HETATM   25  O   UNL     1      -6.541  10.973  69.744  1.00  0.00    -0.117 OA 
BRANCH  25  26
HETATM   26  C   UNL     1      -7.735  10.234  69.506  1.00  0.00    -0.165 C  
HETATM   27  C   UNL     1      -7.806   9.101  70.521  1.00  0.00    -0.155 C  
ENDBRANCH  25  26
ENDBRANCH  24  25
BRANCH  21  28
HETATM   28  O   UNL     1      -5.178  11.659  71.864  1.00  0.00    -0.343 OA 
HETATM   29  C   UNL     1      -5.608  11.285  73.167  1.00  0.00     1.407 C  
ENDBRANCH  21  28
ENDBRANCH   1  19
BRANCH   1  30
HETATM   30  C   UNL     1      -8.106  16.921  69.345  1.00  0.00     0.206 C  
BRANCH  30  31
HETATM   31  S   UNL     1      -9.292  18.190  68.986  1.00  0.00     0.002 S  
HETATM   32  O   UNL     1     -10.600  17.617  69.244  1.00  0.00    -0.220 OA 
HETATM   33  C   UNL     1      -9.217  18.498  67.236  1.00  0.00    -0.276 C  
HETATM   34  O   UNL     1      -8.883  19.407  69.656  1.00  0.00     0.110 OA 
ENDBRANCH  30  31
ENDBRANCH   1  30
TORSDOF 9
ENDMDL
MODEL      244
REMARK 921   NORMALIZED FREE ENERGY PREDICTED BY IDOCK:    6.71 KCAL/MOL
REMARK 922        TOTAL FREE ENERGY PREDICTED BY IDOCK:    9.18 KCAL/MOL
REMARK 923 INTER-LIGAND FREE ENERGY PREDICTED BY IDOCK:    4.87 KCAL/MOL
REMARK 924 INTRA-LIGAND FREE ENERGY PREDICTED BY IDOCK:    4.31 KCAL/MOL
REMARK 927      BINDING AFFINITY PREDICTED BY RF-SCORE:    0.00 PKD
ROOT
HETATM    1  C   UNL     1      -8.506  14.244  68.857  1.00  0.00    -0.031 C  
ENDROOT
BRANCH   1   2
HETATM    2  N   UNL     1      -7.955  12.973  69.357  1.00  0.00     0.639 N  
HETATM    3  C   UNL     1      -5.277  11.166  70.950  1.00  0.00    -0.117 A  
HETATM    4  C   UNL     1      -5.159   9.801  71.147  1.00  0.00    -0.049 A  
HETATM    5  O   UNL     1      -9.619  11.386  68.988  1.00  0.00    -0.120 OA 
HETATM    6  C   UNL     1      -6.233   8.951  70.826  1.00  0.00    -0.043 A  
HETATM    7  C   UNL     1      -6.772  12.986  70.035  1.00  0.00     0.333 C  
HETATM    8  C   UNL     1      -8.524  11.712  69.406  1.00  0.00     0.671 C  
HETATM    9  C   UNL     1      -7.476   9.432  70.349  1.00  0.00    -0.135 A  
HETATM   10  C   UNL     1      -7.538  10.803  70.071  1.00  0.00     0.288 A  
HETATM   11  C   UNL     1      -6.458  11.619  70.403  1.00  0.00     0.286 A  
HETATM   12  O   UNL     1      -6.077  13.942  70.334  1.00  0.00    -0.159 OA 
BRANCH   9  13
HETATM   13  N   UNL     1      -8.548   8.556  70.084  1.00  0.00    -0.128 NA 
HETATM   14  H   UNL     1      -9.422   8.974  69.765  1.00  0.00     0.000 HD 
BRANCH  13  15
HETATM   15  C   UNL     1      -8.523   7.268  70.209  1.00  0.00    -0.137 C  
HETATM   16  C   UNL     1      -7.685   6.178  69.608  1.00  0.00    -0.098 C  
HETATM   17  O   UNL     1      -9.448   6.739  71.028  1.00  0.00    -0.164 OA 
HETATM   18  H   UNL     1      -9.430   5.793  71.119  1.00  0.00     0.000 HD 
ENDBRANCH  13  15
ENDBRANCH   9  13
ENDBRANCH   1   2
BRANCH   1  19
HETATM   19  C   UNL     1      -9.717  14.100  67.916  1.00  0.00    -0.224 A  
HETATM   20  C   UNL     1     -10.655  15.132  67.794  1.00  0.00    -0.264 A  
HETATM   21  C   UNL     1     -11.569  14.135  65.775  1.00  0.00    -0.343 A  
HETATM   22  C   UNL     1      -9.797  13.017  67.008  1.00  0.00    -0.238 A  
HETATM   23  C   UNL     1     -11.565  15.152  66.732  1.00  0.00    -0.136 A  
HETATM   24  C   UNL     1     -10.711  13.030  65.938  1.00  0.00    -0.276 A  
BRANCH  24  25
HETATM   25  O   UNL     1     -10.815  12.056  64.975  1.00  0.00    -0.286 OA 
BRANCH  25  26
HETATM   26  C   UNL     1      -9.670  11.272  64.657  1.00  0.00    -0.253 C  
HETATM   27  C   UNL     1      -8.726  12.124  63.820  1.00  0.00     1.437 C  
ENDBRANCH  25  26
ENDBRANCH  24  25
BRANCH  21  28
HETATM   28  O   UNL     1     -12.360  14.138  64.651  1.00  0.00    -0.498 OA 
HETATM   29  C   UNL     1     -11.928  13.354  63.546  1.00  0.00    -0.407 C  
ENDBRANCH  21  28
ENDBRANCH   1  19
BRANCH   1  30
HETATM   30  C   UNL     1      -8.824  15.314  69.903  1.00  0.00     0.156 C  
BRANCH  30  31
HETATM   31  S   UNL     1     -10.342  15.094  70.794  1.00  0.00     0.542 S  
HETATM   32  O   UNL     1     -11.081  16.335  70.660  1.00  0.00    -0.341 OA 
HETATM   33  C   UNL     1      -9.922  14.945  72.515  1.00  0.00     4.623 C  
HETATM   34  O   UNL     1     -10.940  13.840  70.385  1.00  0.00     0.335 OA 
ENDBRANCH  30  31
ENDBRANCH   1  30
TORSDOF 9
ENDMDL
MODEL      245
REMARK 921   NORMALIZED FREE ENERGY PREDICTED BY IDOCK:    9.16 KCAL/MOL
REMARK 922        TOTAL FREE ENERGY PREDICTED BY IDOCK:   12.93 KCAL/MOL
REMARK 923 INTER-LIGAND FREE ENERGY PREDICTED BY IDOCK:    6.33 KCAL/MOL
REMARK 924 INTRA-LIGAND FREE ENERGY PREDICTED BY IDOCK:    6.60 KCAL/MOL
REMARK 927      BINDING AFFINITY PREDICTED BY RF-SCORE:    0.00 PKD
ROOT
HETATM    1  C   UNL     1     -10.112  15.533  69.835  1.00  0.00    -0.272 C  
ENDROOT
BRANCH   1   2
HETATM    2  N   UNL     1      -9.449  14.343  69.275  1.00  0.00     0.054 N  
HETATM    3  C   UNL     1      -7.135  12.902  66.921  1.00  0.00     0.400 A  
HETATM    4  C   UNL     1      -6.881  11.563  66.675  1.00  0.00    -0.075 A  
HETATM    5  O   UNL     1     -10.227  12.546  70.535  1.00  0.00     3.099 OA 
HETATM    6  C   UNL     1      -7.466  10.577  67.490  1.00  0.00    -0.093 A  
HETATM    7  C   UNL     1      -8.471  14.510  68.340  1.00  0.00    -0.163 C  
HETATM    8  C   UNL     1      -9.530  13.014  69.656  1.00  0.00     1.823 C  
HETATM    9  C   UNL     1      -8.280  10.888  68.605  1.00  0.00    -0.146 A  
HETATM   10  C   UNL     1      -8.597  12.241  68.777  1.00  0.00     0.126 A  
HETATM   11  C   UNL     1      -7.999  13.194  67.955  1.00  0.00    -0.158 A  
HETATM   12  O   UNL     1      -8.014  15.549  67.894  1.00  0.00    -0.129 OA 
BRANCH   9  13
HETATM   13  N   UNL     1      -8.811   9.875  69.431  1.00  0.00    -0.173 NA 
HETATM   14  H   UNL     1      -9.760   9.563  69.230  1.00  0.00     0.000 HD 
BRANCH  13  15
HETATM   15  C   UNL     1      -8.200   9.307  70.419  1.00  0.00    -0.178 C  
HETATM   16  C   UNL     1      -6.793   9.351  70.940  1.00  0.00    -0.100 C  
HETATM   17  O   UNL     1      -8.938   8.460  71.158  1.00  0.00    -0.142 OA 
HETATM   18  H   UNL     1      -8.489   8.043  71.883  1.00  0.00     0.000 HD 
ENDBRANCH  13  15
ENDBRANCH   9  13
ENDBRANCH   1   2
BRANCH   1  19
HETATM   19  C   UNL     1      -9.962  16.815  68.994  1.00  0.00    -0.272 A  
HETATM   20  C   UNL     1      -8.897  17.696  69.216  1.00  0.00     0.265 A  
HETATM   21  C   UNL     1      -9.307  18.811  67.096  1.00  0.00    -0.297 A  
HETATM   22  C   UNL     1     -10.773  17.024  67.852  1.00  0.00    -0.348 A  
HETATM   23  C   UNL     1      -8.569  18.677  68.275  1.00  0.00    -0.347 A  
HETATM   24  C   UNL     1     -10.450  18.011  66.902  1.00  0.00    -0.341 A  
BRANCH  24  25
HETATM   25  O   UNL     1     -11.140  18.242  65.737  1.00  0.00     0.078 OA 
BRANCH  25  26
HETATM   26  C   UNL     1     -11.323  17.171  64.817  1.00  0.00     0.658 C  
HETATM   27  C   UNL     1     -11.330  15.865  65.599  1.00  0.00     0.128 C  
ENDBRANCH  25  26
ENDBRANCH  24  25
BRANCH  21  28
HETATM   28  O   UNL     1      -8.984  19.678  66.080  1.00  0.00    -0.369 OA 
HETATM   29  C   UNL     1      -8.459  20.948  66.447  1.00  0.00     0.573 C  
ENDBRANCH  21  28
ENDBRANCH   1  19
BRANCH   1  30
HETATM   30  C   UNL     1     -11.581  15.378  70.231  1.00  0.00    -0.320 C  
BRANCH  30  31
HETATM   31  S   UNL     1     -11.947  14.040  71.337  1.00  0.00     0.144 S  
HETATM   32  O   UNL     1     -12.446  12.953  70.515  1.00  0.00    -0.298 OA 
HETATM   33  C   UNL     1     -13.305  14.561  72.359  1.00  0.00    -0.433 C  
HETATM   34  O   UNL     1     -10.806  13.834  72.205  1.00  0.00     3.630 OA 
ENDBRANCH  30  31
ENDBRANCH   1  30
TORSDOF 9
ENDMDL
MODEL      246
REMARK 921   NORMALIZED FREE ENERGY PREDICTED BY IDOCK:   11.45 KCAL/MOL
REMARK 922        TOTAL FREE ENERGY PREDICTED BY IDOCK:   16.42 KCAL/MOL
REMARK 923 INTER-LIGAND FREE ENERGY PREDICTED BY IDOCK:    7.05 KCAL/MOL
REMARK 924 INTRA-LIGAND FREE ENERGY PREDICTED BY IDOCK:    9.37 KCAL/MOL
REMARK 927      BINDING AFFINITY PREDICTED BY RF-SCORE:    0.00 PKD
ROOT
HETATM    1  C   UNL     1      -9.292  10.723  68.680  1.00  0.00    -0.184 C  
ENDROOT
BRANCH   1   2
HETATM    2  N   UNL     1      -9.653   9.318  68.429  1.00  0.00    -0.146 N  
HETATM    3  C   UNL     1     -10.618   6.089  69.701  1.00  0.00    -0.367 A  
HETATM    4  C   UNL     1     -10.775   4.903  69.005  1.00  0.00     0.468 A  
HETATM    5  O   UNL     1      -9.642   9.076  66.113  1.00  0.00    -0.233 OA 
HETATM    6  C   UNL     1     -10.689   4.898  67.600  1.00  0.00     0.265 A  
HETATM    7  C   UNL     1     -10.060   8.543  69.475  1.00  0.00    -0.200 C  
HETATM    8  C   UNL     1      -9.816   8.638  67.234  1.00  0.00    -0.197 C  
HETATM    9  C   UNL     1     -10.495   6.075  66.839  1.00  0.00    -0.280 A  
HETATM   10  C   UNL     1     -10.246   7.244  67.569  1.00  0.00    -0.284 A  
HETATM   11  C   UNL     1     -10.342   7.217  68.959  1.00  0.00    -0.208 A  
HETATM   12  O   UNL     1     -10.207   8.859  70.643  1.00  0.00    -0.193 OA 
BRANCH   9  13
HETATM   13  N   UNL     1     -10.462   6.040  65.430  1.00  0.00     0.679 NA 
HETATM   14  H   UNL     1     -11.360   6.029  64.946  1.00  0.00     0.000 HD 
BRANCH  13  15
HETATM   15  C   UNL     1      -9.396   6.020  64.698  1.00  0.00     0.909 C  
HETATM   16  C   UNL     1      -8.949   6.783  63.485  1.00  0.00     1.191 C  
HETATM   17  O   UNL     1      -8.464   5.114  65.041  1.00  0.00    -0.137 OA 
HETATM   18  H   UNL     1      -7.681   5.099  64.503  1.00  0.00     0.000 HD 
ENDBRANCH  13  15
ENDBRANCH   9  13
ENDBRANCH   1   2
BRANCH   1  19
HETATM   19  C   UNL     1      -9.452  11.660  67.467  1.00  0.00    -0.173 A  
HETATM   20  C   UNL     1      -8.530  12.686  67.229  1.00  0.00    -0.193 A  
HETATM   21  C   UNL     1      -9.354  12.973  64.960  1.00  0.00     0.622 A  
HETATM   22  C   UNL     1     -10.409  11.379  66.463  1.00  0.00    -0.277 A  
HETATM   23  C   UNL     1      -8.477  13.329  65.988  1.00  0.00     1.109 A  
HETATM   24  C   UNL     1     -10.363  12.023  65.213  1.00  0.00    -0.275 A  
BRANCH  24  25
HETATM   25  O   UNL     1     -11.208  11.769  64.160  1.00  0.00    -0.339 OA 
BRANCH  25  26
HETATM   26  C   UNL     1     -11.871  12.858  63.526  1.00  0.00    -0.536 C  
HETATM   27  C   UNL     1     -12.277  13.860  64.600  1.00  0.00    -0.449 C  
ENDBRANCH  25  26
ENDBRANCH  24  25
BRANCH  21  28
HETATM   28  O   UNL     1      -9.296  13.485  63.687  1.00  0.00     2.002 OA 
HETATM   29  C   UNL     1     -10.504  13.984  63.127  1.00  0.00     4.553 C  
ENDBRANCH  21  28
ENDBRANCH   1  19
BRANCH   1  30
HETATM   30  C   UNL     1      -9.931  11.390  69.899  1.00  0.00     1.102 C  
BRANCH  30  31
HETATM   31  S   UNL     1     -11.585  11.991  69.672  1.00  0.00    -0.276 S  
HETATM   32  O   UNL     1     -11.468  13.394  69.322  1.00  0.00    -0.267 OA 
HETATM   33  C   UNL     1     -12.384  11.935  71.259  1.00  0.00    -0.107 C  
HETATM   34  O   UNL     1     -12.292  11.076  68.800  1.00  0.00    -0.533 OA 
ENDBRANCH  30  31
ENDBRANCH   1  30
TORSDOF 9
ENDMDL
MODEL      247
REMARK 921   NORMALIZED FREE ENERGY PREDICTED BY IDOCK:   32.63 KCAL/MOL
REMARK 922        TOTAL FREE ENERGY PREDICTED BY IDOCK:   48.74 KCAL/MOL
REMARK 923 INTER-LIGAND FREE ENERGY PREDICTED BY IDOCK:   48.92 KCAL/MOL
REMARK 924 INTRA-LIGAND FREE ENERGY PREDICTED BY IDOCK:   -0.18 KCAL/MOL
REMARK 927      BINDING AFFINITY PREDICTED BY RF-SCORE:    0.00 PKD
ROOT
HETATM    1  C   UNL     1      -9.673  15.621  69.572  1.00  0.00    -0.287 C  
ENDROOT
BRANCH   1   2
HETATM    2  N   UNL     1      -9.789  14.154  69.609  1.00  0.00     0.450 N  
HETATM    3  C   UNL     1      -8.211  10.917  69.598  1.00  0.00     0.258 A  
HETATM    4  C   UNL     1      -8.808   9.669  69.546  1.00  0.00    -0.197 A  
HETATM    5  O   UNL     1     -12.066  13.714  69.821  1.00  0.00    -0.320 OA 
HETATM    6  C   UNL     1     -10.208   9.558  69.633  1.00  0.00    -0.234 A  
HETATM    7  C   UNL     1      -8.654  13.403  69.684  1.00  0.00     1.660 C  
HETATM    8  C   UNL     1     -10.909  13.350  69.746  1.00  0.00     0.364 C  
HETATM    9  C   UNL     1     -11.055  10.675  69.825  1.00  0.00    -0.295 A  
HETATM   10  C   UNL     1     -10.437  11.930  69.780  1.00  0.00     0.692 A  
HETATM   11  C   UNL     1      -9.048  12.006  69.697  1.00  0.00     1.714 A  
HETATM   12  O   UNL     1      -7.496  13.778  69.760  1.00  0.00     0.326 OA 
BRANCH   9  13
HETATM   13  N   UNL     1     -12.450  10.522  69.957  1.00  0.00    -0.508 NA 
HETATM   14  H   UNL     1     -13.040  11.135  69.395  1.00  0.00     0.000 HD 
BRANCH  13  15
HETATM   15  C   UNL     1     -13.050   9.673  70.728  1.00  0.00    -0.071 C  
HETATM   16  C   UNL     1     -12.577   8.585  71.648  1.00  0.00    -0.369 C  
HETATM   17  O   UNL     1     -14.393   9.716  70.718  1.00  0.00    -0.139 OA 
HETATM   18  H   UNL     1     -14.833   9.093  71.284  1.00  0.00     0.000 HD 
ENDBRANCH  13  15
ENDBRANCH   9  13
ENDBRANCH   1   2
BRANCH   1  19
HETATM   19  C   UNL     1      -9.407  16.215  68.176  1.00  0.00    -0.201 A  
HETATM   20  C   UNL     1      -9.157  17.583  68.016  1.00  0.00    -0.269 A  
HETATM   21  C   UNL     1      -8.312  17.221  65.766  1.00  0.00     0.245 A  
HETATM   22  C   UNL     1      -9.207  15.367  67.060  1.00  0.00    -0.242 A  
HETATM   23  C   UNL     1      -8.610  18.078  66.828  1.00  0.00    -0.270 A  
HETATM   24  C   UNL     1      -8.658  15.859  65.861  1.00  0.00     0.115 A  
BRANCH  24  25
HETATM   25  O   UNL     1      -8.372  15.100  64.753  1.00  0.00     4.378 OA 
BRANCH  25  26
HETATM   26  C   UNL     1      -7.407  14.058  64.859  1.00  0.00    13.199 C  
HETATM   27  C   UNL     1      -7.453  13.507  66.278  1.00  0.00     2.443 C  
ENDBRANCH  25  26
ENDBRANCH  24  25
BRANCH  21  28
HETATM   28  O   UNL     1      -7.680  17.616  64.611  1.00  0.00     3.045 OA 
HETATM   29  C   UNL     1      -8.097  18.842  64.024  1.00  0.00     8.444 C  
ENDBRANCH  21  28
ENDBRANCH   1  19
BRANCH   1  30
HETATM   30  C   UNL     1     -10.799  16.417  70.234  1.00  0.00    -0.212 C  
BRANCH  30  31
HETATM   31  S   UNL     1     -10.706  16.563  72.000  1.00  0.00     2.669 S  
HETATM   32  O   UNL     1     -11.382  15.401  72.545  1.00  0.00    -0.431 OA 
HETATM   33  C   UNL     1     -11.684  17.974  72.460  1.00  0.00     3.273 C  
HETATM   34  O   UNL     1      -9.334  16.850  72.367  1.00  0.00     9.690 OA 
ENDBRANCH  30  31
ENDBRANCH   1  30
TORSDOF 9
ENDMDL
MODEL      248
REMARK 921   NORMALIZED FREE ENERGY PREDICTED BY IDOCK:   51.90 KCAL/MOL
REMARK 922        TOTAL FREE ENERGY PREDICTED BY IDOCK:   78.15 KCAL/MOL
REMARK 923 INTER-LIGAND FREE ENERGY PREDICTED BY IDOCK:   78.52 KCAL/MOL
REMARK 924 INTRA-LIGAND FREE ENERGY PREDICTED BY IDOCK:   -0.36 KCAL/MOL
REMARK 927      BINDING AFFINITY PREDICTED BY RF-SCORE:    0.00 PKD
ROOT
HETATM    1  C   UNL     1      -9.867  15.570  69.596  1.00  0.00    -0.278 C  
ENDROOT
BRANCH   1   2
HETATM    2  N   UNL     1      -9.605  14.668  68.463  1.00  0.00    -0.216 N  
HETATM    3  C   UNL     1      -7.511  13.683  65.703  1.00  0.00     5.820 A  
HETATM    4  C   UNL     1      -7.751  12.712  64.745  1.00  0.00     5.685 A  
HETATM    5  O   UNL     1     -11.337  13.112  68.492  1.00  0.00    -0.248 OA 
HETATM    6  C   UNL     1      -8.874  11.873  64.863  1.00  0.00     0.624 A  
HETATM    7  C   UNL     1      -8.428  14.785  67.783  1.00  0.00    -0.164 C  
HETATM    8  C   UNL     1     -10.304  13.554  68.028  1.00  0.00    -0.241 C  
HETATM    9  C   UNL     1      -9.765  11.935  65.961  1.00  0.00    -0.237 A  
HETATM   10  C   UNL     1      -9.554  12.983  66.866  1.00  0.00    -0.243 A  
HETATM   11  C   UNL     1      -8.431  13.795  66.722  1.00  0.00     0.007 A  
HETATM   12  O   UNL     1      -7.497  15.541  67.999  1.00  0.00    -0.116 OA 
BRANCH   9  13
HETATM   13  N   UNL     1     -10.853  11.045  66.073  1.00  0.00    -0.176 NA 
HETATM   14  H   UNL     1     -11.746  11.438  66.370  1.00  0.00     0.000 HD 
BRANCH  13  15
HETATM   15  C   UNL     1     -10.820   9.774  65.832  1.00  0.00     0.625 C  
HETATM   16  C   UNL     1      -9.751   8.828  65.367  1.00  0.00     0.242 C  
HETATM   17  O   UNL     1     -11.979   9.114  65.995  1.00  0.00     4.499 OA 
HETATM   18  H   UNL     1     -11.955   8.182  65.818  1.00  0.00     0.000 HD 
ENDBRANCH  13  15
ENDBRANCH   9  13
ENDBRANCH   1   2
BRANCH   1  19
HETATM   19  C   UNL     1     -10.722  16.806  69.257  1.00  0.00    -0.324 A  
HETATM   20  C   UNL     1     -10.762  17.908  70.119  1.00  0.00     1.395 A  
HETATM   21  C   UNL     1     -11.756  19.294  68.388  1.00  0.00     2.668 A  
HETATM   22  C   UNL     1     -11.320  16.938  67.980  1.00  0.00     0.073 A  
HETATM   23  C   UNL     1     -11.266  19.139  69.687  1.00  0.00     3.183 A  
HETATM   24  C   UNL     1     -11.831  18.173  67.540  1.00  0.00     2.172 A  
BRANCH  24  25
HETATM   25  O   UNL     1     -12.369  18.408  66.298  1.00  0.00     4.365 OA 
BRANCH  25  26
HETATM   26  C   UNL     1     -11.550  18.236  65.145  1.00  0.00     2.719 C  
HETATM   27  C   UNL     1     -10.533  17.143  65.441  1.00  0.00    -0.096 C  
ENDBRANCH  25  26
ENDBRANCH  24  25
BRANCH  21  28
HETATM   28  O   UNL     1     -12.171  20.493  67.860  1.00  0.00     2.925 OA 
HETATM   29  C   UNL     1     -12.968  21.332  68.687  1.00  0.00     7.305 C  
ENDBRANCH  21  28
ENDBRANCH   1  19
BRANCH   1  30
HETATM   30  C   UNL     1     -10.418  14.930  70.871  1.00  0.00     0.491 C  
BRANCH  30  31
HETATM   31  S   UNL     1      -9.217  14.186  71.943  1.00  0.00     9.339 S  
HETATM   32  O   UNL     1      -9.049  12.819  71.486  1.00  0.00    13.856 OA 
HETATM   33  C   UNL     1      -9.948  14.087  73.561  1.00  0.00     8.965 C  
HETATM   34  O   UNL     1      -8.073  15.070  72.039  1.00  0.00     3.898 OA 
ENDBRANCH  30  31
ENDBRANCH   1  30
TORSDOF 9
ENDMDL
