MODEL        1
REMARK 921   NORMALIZED FREE ENERGY PREDICTED BY IDOCK:   -5.03 KCAL/MOL
REMARK 922        TOTAL FREE ENERGY PREDICTED BY IDOCK:   -6.03 KCAL/MOL
REMARK 923 INTER-LIGAND FREE ENERGY PREDICTED BY IDOCK:   -5.62 KCAL/MOL
REMARK 924 INTRA-LIGAND FREE ENERGY PREDICTED BY IDOCK:   -0.40 KCAL/MOL
REMARK 927      BINDING AFFINITY PREDICTED BY RF-SCORE:    0.00 PKD
ROOT
HETATM    1  C   UNL     1     -10.313  11.447  68.920  1.00  0.00    -0.203 C  
HETATM    2  C   UNL     1     -11.252  12.361  68.122  1.00  0.00    -0.313 C  
HETATM    3  C   UNL     1     -11.939  13.305  69.125  1.00  0.00    -0.343 C  
HETATM    4  C   UNL     1     -10.521  13.150  66.990  1.00  0.00    -0.248 C  
HETATM    5  C   UNL     1     -11.521  13.964  66.150  1.00  0.00    -0.345 C  
HETATM    6  C   UNL     1      -9.668  12.269  66.045  1.00  0.00    -0.254 C  
HETATM    7  N   UNL     1     -10.938  14.886  65.295  1.00  0.00    -0.356 N  
HETATM    8  H   UNL     1      -9.925  14.985  65.355  1.00  0.00     0.000 HD 
HETATM    9  O   UNL     1     -12.741  13.819  66.239  1.00  0.00    -0.373 OA 
ENDROOT
BRANCH   6  10
HETATM   10  C   UNL     1     -10.474  11.333  65.185  1.00  0.00    -0.351 C  
HETATM   11  C   UNL     1     -10.509  11.390  63.849  1.00  0.00    -0.444 C  
ENDBRANCH   6  10
BRANCH   7  12
HETATM   12  C   UNL     1     -11.576  15.676  64.380  1.00  0.00    -0.249 C  
HETATM   13  N   UNL     1     -12.509  15.077  63.605  1.00  0.00    -0.943 N  
HETATM   14  O   UNL     1     -11.316  16.870  64.279  1.00  0.00    -1.202 OA 
HETATM   15  H1  UNL     1     -12.984  15.667  62.922  1.00  0.00     0.000 HD 
HETATM   16  H2  UNL     1     -12.726  14.085  63.699  1.00  0.00     0.000 HD 
ENDBRANCH   7  12
TORSDOF 2
ENDMDL
MODEL        2
REMARK 921   NORMALIZED FREE ENERGY PREDICTED BY IDOCK:   -4.95 KCAL/MOL
REMARK 922        TOTAL FREE ENERGY PREDICTED BY IDOCK:   -5.93 KCAL/MOL
REMARK 923 INTER-LIGAND FREE ENERGY PREDICTED BY IDOCK:   -5.52 KCAL/MOL
REMARK 924 INTRA-LIGAND FREE ENERGY PREDICTED BY IDOCK:   -0.41 KCAL/MOL
REMARK 927      BINDING AFFINITY PREDICTED BY RF-SCORE:    0.00 PKD
ROOT
HETATM    1  C   UNL     1     -11.389  11.623  69.615  1.00  0.00    -0.308 C  
HETATM    2  C   UNL     1     -11.078  11.966  68.152  1.00  0.00    -0.294 C  
HETATM    3  C   UNL     1     -11.142  10.656  67.348  1.00  0.00    -0.341 C  
HETATM    4  C   UNL     1     -12.031  13.054  67.564  1.00  0.00    -0.360 C  
HETATM    5  C   UNL     1     -11.611  13.443  66.135  1.00  0.00    -0.346 C  
HETATM    6  C   UNL     1     -12.144  14.337  68.423  1.00  0.00    -0.297 C  
HETATM    7  N   UNL     1     -12.543  14.205  65.449  1.00  0.00    -0.535 N  
HETATM    8  H   UNL     1     -13.431  14.373  65.921  1.00  0.00     0.000 HD 
HETATM    9  O   UNL     1     -10.540  13.094  65.636  1.00  0.00    -0.270 OA 
ENDROOT
BRANCH   6  10
HETATM   10  C   UNL     1     -10.879  15.150  68.479  1.00  0.00    -0.247 C  
HETATM   11  C   UNL     1     -10.806  16.443  68.142  1.00  0.00    -0.346 C  
ENDBRANCH   6  10
BRANCH   7  12
HETATM   12  C   UNL     1     -12.398  14.758  64.207  1.00  0.00    -0.320 C  
HETATM   13  N   UNL     1     -12.355  13.900  63.162  1.00  0.00    -1.106 N  
HETATM   14  O   UNL     1     -12.324  15.972  64.054  1.00  0.00    -0.752 OA 
HETATM   15  H1  UNL     1     -12.247  14.313  62.235  1.00  0.00     0.000 HD 
HETATM   16  H2  UNL     1     -12.426  12.891  63.294  1.00  0.00     0.000 HD 
ENDBRANCH   7  12
TORSDOF 2
ENDMDL
MODEL        3
REMARK 921   NORMALIZED FREE ENERGY PREDICTED BY IDOCK:   -4.85 KCAL/MOL
REMARK 922        TOTAL FREE ENERGY PREDICTED BY IDOCK:   -5.82 KCAL/MOL
REMARK 923 INTER-LIGAND FREE ENERGY PREDICTED BY IDOCK:   -5.40 KCAL/MOL
REMARK 924 INTRA-LIGAND FREE ENERGY PREDICTED BY IDOCK:   -0.42 KCAL/MOL
REMARK 927      BINDING AFFINITY PREDICTED BY RF-SCORE:    0.00 PKD
ROOT
HETATM    1  C   UNL     1     -11.664  13.237  69.933  1.00  0.00    -0.330 C  
HETATM    2  C   UNL     1     -11.459  12.453  68.630  1.00  0.00    -0.348 C  
HETATM    3  C   UNL     1     -12.026  11.039  68.849  1.00  0.00    -0.332 C  
HETATM    4  C   UNL     1     -12.103  13.150  67.390  1.00  0.00    -0.316 C  
HETATM    5  C   UNL     1     -11.776  12.386  66.095  1.00  0.00    -0.400 C  
HETATM    6  C   UNL     1     -11.703  14.636  67.213  1.00  0.00    -0.406 C  
HETATM    7  N   UNL     1     -12.512  12.784  64.991  1.00  0.00    -0.506 N  
HETATM    8  H   UNL     1     -13.236  13.483  65.154  1.00  0.00     0.000 HD 
HETATM    9  O   UNL     1     -10.939  11.483  66.046  1.00  0.00    -0.291 OA 
ENDROOT
BRANCH   6  10
HETATM   10  C   UNL     1     -10.254  14.843  66.864  1.00  0.00    -0.254 C  
HETATM   11  C   UNL     1      -9.833  15.391  65.718  1.00  0.00    -0.399 C  
ENDBRANCH   6  10
BRANCH   7  12
HETATM   12  C   UNL     1     -12.371  12.341  63.705  1.00  0.00    -0.538 C  
HETATM   13  N   UNL     1     -11.173  12.557  63.116  1.00  0.00    -0.738 N  
HETATM   14  O   UNL     1     -13.286  11.766  63.126  1.00  0.00    -0.538 OA 
HETATM   15  H1  UNL     1     -11.068  12.226  62.157  1.00  0.00     0.000 HD 
HETATM   16  H2  UNL     1     -10.412  13.028  63.606  1.00  0.00     0.000 HD 
ENDBRANCH   7  12
TORSDOF 2
ENDMDL
MODEL        4
REMARK 921   NORMALIZED FREE ENERGY PREDICTED BY IDOCK:   -4.81 KCAL/MOL
REMARK 922        TOTAL FREE ENERGY PREDICTED BY IDOCK:   -5.78 KCAL/MOL
REMARK 923 INTER-LIGAND FREE ENERGY PREDICTED BY IDOCK:   -5.36 KCAL/MOL
REMARK 924 INTRA-LIGAND FREE ENERGY PREDICTED BY IDOCK:   -0.41 KCAL/MOL
REMARK 927      BINDING AFFINITY PREDICTED BY RF-SCORE:    0.00 PKD
ROOT
HETATM    1  C   UNL     1     -10.232  16.002  67.087  1.00  0.00    -0.278 C  
HETATM    2  C   UNL     1     -10.514  16.028  68.595  1.00  0.00    -0.251 C  
HETATM    3  C   UNL     1     -10.392  17.489  69.061  1.00  0.00    -0.303 C  
HETATM    4  C   UNL     1     -11.900  15.414  68.968  1.00  0.00    -0.357 C  
HETATM    5  C   UNL     1     -12.087  15.362  70.495  1.00  0.00    -0.371 C  
HETATM    6  C   UNL     1     -12.154  14.004  68.380  1.00  0.00    -0.318 C  
HETATM    7  N   UNL     1     -13.379  15.073  70.906  1.00  0.00    -0.588 N  
HETATM    8  H   UNL     1     -14.083  14.994  70.174  1.00  0.00     0.000 HD 
HETATM    9  O   UNL     1     -11.169  15.573  71.288  1.00  0.00    -0.352 OA 
ENDROOT
BRANCH   6  10
HETATM   10  C   UNL     1     -11.268  12.932  68.955  1.00  0.00    -0.327 C  
HETATM   11  C   UNL     1     -11.726  11.826  69.553  1.00  0.00    -0.408 C  
ENDBRANCH   6  10
BRANCH   7  12
HETATM   12  C   UNL     1     -13.809  14.881  72.190  1.00  0.00    -0.471 C  
HETATM   13  N   UNL     1     -13.673  15.924  73.039  1.00  0.00    -0.642 N  
HETATM   14  O   UNL     1     -14.303  13.816  72.543  1.00  0.00    -0.696 OA 
HETATM   15  H1  UNL     1     -13.994  15.781  73.996  1.00  0.00     0.000 HD 
HETATM   16  H2  UNL     1     -13.269  16.811  72.737  1.00  0.00     0.000 HD 
ENDBRANCH   7  12
TORSDOF 2
ENDMDL
MODEL        5
REMARK 921   NORMALIZED FREE ENERGY PREDICTED BY IDOCK:   -4.75 KCAL/MOL
REMARK 922        TOTAL FREE ENERGY PREDICTED BY IDOCK:   -5.70 KCAL/MOL
REMARK 923 INTER-LIGAND FREE ENERGY PREDICTED BY IDOCK:   -5.29 KCAL/MOL
REMARK 924 INTRA-LIGAND FREE ENERGY PREDICTED BY IDOCK:   -0.41 KCAL/MOL
REMARK 927      BINDING AFFINITY PREDICTED BY RF-SCORE:    0.00 PKD
ROOT
HETATM    1  C   UNL     1     -10.768  11.069  69.536  1.00  0.00    -0.231 C  
HETATM    2  C   UNL     1     -10.624  11.036  68.009  1.00  0.00    -0.241 C  
HETATM    3  C   UNL     1     -10.757   9.568  67.566  1.00  0.00    -0.311 C  
HETATM    4  C   UNL     1     -11.651  11.958  67.278  1.00  0.00    -0.364 C  
HETATM    5  C   UNL     1     -11.395  11.976  65.761  1.00  0.00    -0.331 C  
HETATM    6  C   UNL     1     -11.687  13.415  67.801  1.00  0.00    -0.394 C  
HETATM    7  N   UNL     1     -12.407  12.558  65.014  1.00  0.00    -0.483 N  
HETATM    8  H   UNL     1     -13.240  12.848  65.524  1.00  0.00     0.000 HD 
HETATM    9  O   UNL     1     -10.381  11.500  65.249  1.00  0.00    -0.250 OA 
ENDROOT
BRANCH   6  10
HETATM   10  C   UNL     1     -10.435  14.199  67.516  1.00  0.00    -0.249 C  
HETATM   11  C   UNL     1     -10.416  15.360  66.850  1.00  0.00    -0.295 C  
ENDBRANCH   6  10
BRANCH   7  12
HETATM   12  C   UNL     1     -12.407  12.784  63.665  1.00  0.00    -0.463 C  
HETATM   13  N   UNL     1     -12.360  11.694  62.866  1.00  0.00    -0.861 N  
HETATM   14  O   UNL     1     -12.458  13.921  63.210  1.00  0.00    -0.817 OA 
HETATM   15  H1  UNL     1     -12.360  11.863  61.861  1.00  0.00     0.000 HD 
HETATM   16  H2  UNL     1     -12.326  10.749  63.250  1.00  0.00     0.000 HD 
ENDBRANCH   7  12
TORSDOF 2
ENDMDL
MODEL        6
REMARK 921   NORMALIZED FREE ENERGY PREDICTED BY IDOCK:   -4.71 KCAL/MOL
REMARK 922        TOTAL FREE ENERGY PREDICTED BY IDOCK:   -5.67 KCAL/MOL
REMARK 923 INTER-LIGAND FREE ENERGY PREDICTED BY IDOCK:   -5.29 KCAL/MOL
REMARK 924 INTRA-LIGAND FREE ENERGY PREDICTED BY IDOCK:   -0.37 KCAL/MOL
REMARK 927      BINDING AFFINITY PREDICTED BY RF-SCORE:    0.00 PKD
ROOT
HETATM    1  C   UNL     1     -11.992  15.607  72.311  1.00  0.00    -0.562 C  
HETATM    2  C   UNL     1     -12.038  14.544  71.205  1.00  0.00    -0.419 C  
HETATM    3  C   UNL     1     -13.255  13.643  71.482  1.00  0.00    -0.409 C  
HETATM    4  C   UNL     1     -12.084  15.156  69.770  1.00  0.00    -0.354 C  
HETATM    5  C   UNL     1     -12.016  14.055  68.697  1.00  0.00    -0.354 C  
HETATM    6  C   UNL     1     -10.980  16.205  69.487  1.00  0.00    -0.341 C  
HETATM    7  N   UNL     1     -12.307  14.484  67.412  1.00  0.00    -0.575 N  
HETATM    8  H   UNL     1     -12.603  15.455  67.312  1.00  0.00     0.000 HD 
HETATM    9  O   UNL     1     -11.739  12.883  68.959  1.00  0.00    -0.291 OA 
ENDROOT
BRANCH   6  10
HETATM   10  C   UNL     1      -9.589  15.634  69.445  1.00  0.00    -0.287 C  
HETATM   11  C   UNL     1      -8.512  16.318  69.040  1.00  0.00    -0.244 C  
ENDBRANCH   6  10
BRANCH   7  12
HETATM   12  C   UNL     1     -12.240  13.746  66.263  1.00  0.00    -0.447 C  
HETATM   13  N   UNL     1     -11.138  12.982  66.096  1.00  0.00    -0.283 N  
HETATM   14  O   UNL     1     -13.145  13.772  65.436  1.00  0.00    -0.727 OA 
HETATM   15  H1  UNL     1     -11.088  12.431  65.239  1.00  0.00     0.000 HD 
HETATM   16  H2  UNL     1     -10.392  12.957  66.792  1.00  0.00     0.000 HD 
ENDBRANCH   7  12
TORSDOF 2
ENDMDL
MODEL        7
REMARK 921   NORMALIZED FREE ENERGY PREDICTED BY IDOCK:   -4.69 KCAL/MOL
REMARK 922        TOTAL FREE ENERGY PREDICTED BY IDOCK:   -5.64 KCAL/MOL
REMARK 923 INTER-LIGAND FREE ENERGY PREDICTED BY IDOCK:   -5.24 KCAL/MOL
REMARK 924 INTRA-LIGAND FREE ENERGY PREDICTED BY IDOCK:   -0.40 KCAL/MOL
REMARK 927      BINDING AFFINITY PREDICTED BY RF-SCORE:    0.00 PKD
ROOT
HETATM    1  C   UNL     1     -11.207  10.947  69.605  1.00  0.00    -0.348 C  
HETATM    2  C   UNL     1     -10.825  11.409  68.192  1.00  0.00    -0.259 C  
HETATM    3  C   UNL     1     -10.690  10.150  67.317  1.00  0.00    -0.316 C  
HETATM    4  C   UNL     1     -11.838  12.430  67.587  1.00  0.00    -0.363 C  
HETATM    5  C   UNL     1     -11.354  12.945  66.220  1.00  0.00    -0.323 C  
HETATM    6  C   UNL     1     -12.149  13.640  68.501  1.00  0.00    -0.321 C  
HETATM    7  N   UNL     1     -12.305  13.652  65.502  1.00  0.00    -0.450 N  
HETATM    8  H   UNL     1     -13.239  13.701  65.908  1.00  0.00     0.000 HD 
HETATM    9  O   UNL     1     -10.218  12.736  65.793  1.00  0.00    -0.280 OA 
ENDROOT
BRANCH   6  10
HETATM   10  C   UNL     1     -10.983  14.571  68.704  1.00  0.00    -0.263 C  
HETATM   11  C   UNL     1     -11.072  15.904  68.642  1.00  0.00    -0.337 C  
ENDBRANCH   6  10
BRANCH   7  12
HETATM   12  C   UNL     1     -12.125  14.291  64.307  1.00  0.00    -0.441 C  
HETATM   13  N   UNL     1     -11.322  15.379  64.314  1.00  0.00    -0.718 N  
HETATM   14  O   UNL     1     -12.660  13.885  63.281  1.00  0.00    -0.824 OA 
HETATM   15  H1  UNL     1     -11.188  15.856  63.422  1.00  0.00     0.000 HD 
HETATM   16  H2  UNL     1     -10.873  15.707  65.169  1.00  0.00     0.000 HD 
ENDBRANCH   7  12
TORSDOF 2
ENDMDL
MODEL        8
REMARK 921   NORMALIZED FREE ENERGY PREDICTED BY IDOCK:   -4.67 KCAL/MOL
REMARK 922        TOTAL FREE ENERGY PREDICTED BY IDOCK:   -5.62 KCAL/MOL
REMARK 923 INTER-LIGAND FREE ENERGY PREDICTED BY IDOCK:   -5.20 KCAL/MOL
REMARK 924 INTRA-LIGAND FREE ENERGY PREDICTED BY IDOCK:   -0.42 KCAL/MOL
REMARK 927      BINDING AFFINITY PREDICTED BY RF-SCORE:    0.00 PKD
ROOT
HETATM    1  C   UNL     1     -13.609  12.532  72.176  1.00  0.00    -0.458 C  
HETATM    2  C   UNL     1     -12.471  12.978  71.248  1.00  0.00    -0.315 C  
HETATM    3  C   UNL     1     -12.189  11.820  70.275  1.00  0.00    -0.381 C  
HETATM    4  C   UNL     1     -12.786  14.307  70.491  1.00  0.00    -0.391 C  
HETATM    5  C   UNL     1     -11.576  14.771  69.661  1.00  0.00    -0.304 C  
HETATM    6  C   UNL     1     -13.245  15.470  71.406  1.00  0.00    -0.587 C  
HETATM    7  N   UNL     1     -11.849  15.792  68.766  1.00  0.00    -0.499 N  
HETATM    8  H   UNL     1     -12.823  16.085  68.692  1.00  0.00     0.000 HD 
HETATM    9  O   UNL     1     -10.457  14.267  69.774  1.00  0.00     0.029 OA 
ENDROOT
BRANCH   6  10
HETATM   10  C   UNL     1     -12.174  15.983  72.330  1.00  0.00    -0.604 C  
HETATM   11  C   UNL     1     -12.297  16.032  73.662  1.00  0.00    -0.678 C  
ENDBRANCH   6  10
BRANCH   7  12
HETATM   12  C   UNL     1     -10.953  16.449  67.970  1.00  0.00    -0.327 C  
HETATM   13  N   UNL     1     -10.516  15.790  66.873  1.00  0.00    -0.311 N  
HETATM   14  O   UNL     1     -10.576  17.585  68.238  1.00  0.00    -0.372 OA 
HETATM   15  H1  UNL     1      -9.848  16.281  66.279  1.00  0.00     0.000 HD 
HETATM   16  H2  UNL     1     -10.840  14.849  66.650  1.00  0.00     0.000 HD 
ENDBRANCH   7  12
TORSDOF 2
ENDMDL
MODEL        9
REMARK 921   NORMALIZED FREE ENERGY PREDICTED BY IDOCK:   -4.64 KCAL/MOL
REMARK 922        TOTAL FREE ENERGY PREDICTED BY IDOCK:   -5.58 KCAL/MOL
REMARK 923 INTER-LIGAND FREE ENERGY PREDICTED BY IDOCK:   -5.17 KCAL/MOL
REMARK 924 INTRA-LIGAND FREE ENERGY PREDICTED BY IDOCK:   -0.41 KCAL/MOL
REMARK 927      BINDING AFFINITY PREDICTED BY RF-SCORE:    0.00 PKD
ROOT
HETATM    1  C   UNL     1      -8.424  11.578  68.427  1.00  0.00    -0.159 C  
HETATM    2  C   UNL     1      -9.784  11.894  67.792  1.00  0.00    -0.189 C  
HETATM    3  C   UNL     1     -10.324  13.167  68.467  1.00  0.00    -0.245 C  
HETATM    4  C   UNL     1      -9.713  12.046  66.239  1.00  0.00    -0.251 C  
HETATM    5  C   UNL     1     -11.116  12.251  65.639  1.00  0.00    -0.317 C  
HETATM    6  C   UNL     1      -9.021  10.868  65.512  1.00  0.00    -0.213 C  
HETATM    7  N   UNL     1     -11.121  12.648  64.312  1.00  0.00    -0.337 N  
HETATM    8  H   UNL     1     -10.212  12.832  63.888  1.00  0.00     0.000 HD 
HETATM    9  O   UNL     1     -12.150  12.089  66.289  1.00  0.00    -0.596 OA 
ENDROOT
BRANCH   6  10
HETATM   10  C   UNL     1      -9.785   9.573  65.578  1.00  0.00    -0.344 C  
HETATM   11  C   UNL     1      -9.388   8.505  66.281  1.00  0.00    -0.287 C  
ENDBRANCH   6  10
BRANCH   7  12
HETATM   12  C   UNL     1     -12.214  12.819  63.509  1.00  0.00    -0.525 C  
HETATM   13  N   UNL     1     -12.800  11.697  63.033  1.00  0.00    -0.889 N  
HETATM   14  O   UNL     1     -12.644  13.937  63.247  1.00  0.00    -0.824 OA 
HETATM   15  H1  UNL     1     -13.615  11.825  62.434  1.00  0.00     0.000 HD 
HETATM   16  H2  UNL     1     -12.443  10.768  63.261  1.00  0.00     0.000 HD 
ENDBRANCH   7  12
TORSDOF 2
ENDMDL
MODEL       10
REMARK 921   NORMALIZED FREE ENERGY PREDICTED BY IDOCK:   -4.63 KCAL/MOL
REMARK 922        TOTAL FREE ENERGY PREDICTED BY IDOCK:   -5.57 KCAL/MOL
REMARK 923 INTER-LIGAND FREE ENERGY PREDICTED BY IDOCK:   -5.47 KCAL/MOL
REMARK 924 INTRA-LIGAND FREE ENERGY PREDICTED BY IDOCK:   -0.10 KCAL/MOL
REMARK 927      BINDING AFFINITY PREDICTED BY RF-SCORE:    0.00 PKD
ROOT
HETATM    1  C   UNL     1     -10.960  15.435  70.607  1.00  0.00    -0.350 C  
HETATM    2  C   UNL     1     -11.146  14.389  69.500  1.00  0.00    -0.267 C  
HETATM    3  C   UNL     1     -12.120  13.323  70.032  1.00  0.00    -0.385 C  
HETATM    4  C   UNL     1     -11.640  15.006  68.153  1.00  0.00    -0.360 C  
HETATM    5  C   UNL     1     -11.704  13.938  67.047  1.00  0.00    -0.397 C  
HETATM    6  C   UNL     1     -10.796  16.203  67.650  1.00  0.00    -0.297 C  
HETATM    7  N   UNL     1     -12.369  14.337  65.899  1.00  0.00    -0.425 N  
HETATM    8  H   UNL     1     -12.807  15.257  65.923  1.00  0.00     0.000 HD 
HETATM    9  O   UNL     1     -11.215  12.814  67.175  1.00  0.00    -0.266 OA 
ENDROOT
BRANCH   6  10
HETATM   10  C   UNL     1      -9.398  15.834  67.232  1.00  0.00    -0.219 C  
HETATM   11  C   UNL     1      -8.800  16.304  66.131  1.00  0.00    -0.362 C  
ENDBRANCH   6  10
BRANCH   7  12
HETATM   12  C   UNL     1     -12.501  13.629  64.737  1.00  0.00    -0.350 C  
HETATM   13  N   UNL     1     -12.036  14.216  63.611  1.00  0.00    -0.964 N  
HETATM   14  O   UNL     1     -13.008  12.513  64.726  1.00  0.00    -0.827 OA 
HETATM   15  H1  UNL     1     -12.135  13.688  62.745  1.00  0.00     0.000 HD 
HETATM   16  H2  UNL     1     -11.608  15.142  63.628  1.00  0.00     0.000 HD 
ENDBRANCH   7  12
TORSDOF 2
ENDMDL
MODEL       11
REMARK 921   NORMALIZED FREE ENERGY PREDICTED BY IDOCK:   -4.60 KCAL/MOL
REMARK 922        TOTAL FREE ENERGY PREDICTED BY IDOCK:   -5.54 KCAL/MOL
REMARK 923 INTER-LIGAND FREE ENERGY PREDICTED BY IDOCK:   -5.17 KCAL/MOL
REMARK 924 INTRA-LIGAND FREE ENERGY PREDICTED BY IDOCK:   -0.37 KCAL/MOL
REMARK 927      BINDING AFFINITY PREDICTED BY RF-SCORE:    0.00 PKD
ROOT
HETATM    1  C   UNL     1     -10.313  16.116  67.791  1.00  0.00    -0.283 C  
HETATM    2  C   UNL     1     -10.788  15.509  66.465  1.00  0.00    -0.284 C  
HETATM    3  C   UNL     1     -10.594  16.577  65.374  1.00  0.00    -0.293 C  
HETATM    4  C   UNL     1     -10.059  14.176  66.107  1.00  0.00    -0.324 C  
HETATM    5  C   UNL     1     -10.646  13.551  64.829  1.00  0.00    -0.417 C  
HETATM    6  C   UNL     1     -10.070  13.118  67.237  1.00  0.00    -0.233 C  
HETATM    7  N   UNL     1      -9.898  12.511  64.300  1.00  0.00    -0.579 N  
HETATM    8  H   UNL     1      -9.010  12.311  64.759  1.00  0.00     0.000 HD 
HETATM    9  O   UNL     1     -11.690  13.950  64.310  1.00  0.00    -0.397 OA 
ENDROOT
BRANCH   6  10
HETATM   10  C   UNL     1     -11.434  12.557  67.538  1.00  0.00    -0.397 C  
HETATM   11  C   UNL     1     -11.778  12.019  68.714  1.00  0.00    -0.377 C  
ENDBRANCH   6  10
BRANCH   7  12
HETATM   12  C   UNL     1     -10.223  11.726  63.230  1.00  0.00    -0.416 C  
HETATM   13  N   UNL     1     -11.534  11.442  63.061  1.00  0.00    -0.852 N  
HETATM   14  O   UNL     1      -9.364  11.311  62.460  1.00  0.00    -0.323 OA 
HETATM   15  H1  UNL     1     -11.776  10.856  62.262  1.00  0.00     0.000 HD 
HETATM   16  H2  UNL     1     -12.246  11.796  63.700  1.00  0.00     0.000 HD 
ENDBRANCH   7  12
TORSDOF 2
ENDMDL
MODEL       12
REMARK 921   NORMALIZED FREE ENERGY PREDICTED BY IDOCK:   -4.56 KCAL/MOL
REMARK 922        TOTAL FREE ENERGY PREDICTED BY IDOCK:   -5.50 KCAL/MOL
REMARK 923 INTER-LIGAND FREE ENERGY PREDICTED BY IDOCK:   -5.09 KCAL/MOL
REMARK 924 INTRA-LIGAND FREE ENERGY PREDICTED BY IDOCK:   -0.41 KCAL/MOL
REMARK 927      BINDING AFFINITY PREDICTED BY RF-SCORE:    0.00 PKD
ROOT
HETATM    1  C   UNL     1     -10.535  14.259  64.881  1.00  0.00    -0.454 C  
HETATM    2  C   UNL     1     -10.393  14.766  66.322  1.00  0.00    -0.305 C  
HETATM    3  C   UNL     1      -9.965  16.243  66.251  1.00  0.00    -0.335 C  
HETATM    4  C   UNL     1     -11.693  14.580  67.167  1.00  0.00    -0.420 C  
HETATM    5  C   UNL     1     -11.466  14.999  68.630  1.00  0.00    -0.311 C  
HETATM    6  C   UNL     1     -12.273  13.144  67.138  1.00  0.00    -0.250 C  
HETATM    7  N   UNL     1     -12.624  15.108  69.383  1.00  0.00    -0.594 N  
HETATM    8  H   UNL     1     -13.505  14.972  68.887  1.00  0.00     0.000 HD 
HETATM    9  O   UNL     1     -10.348  15.233  69.092  1.00  0.00    -0.226 OA 
ENDROOT
BRANCH   6  10
HETATM   10  C   UNL     1     -11.409  12.120  67.822  1.00  0.00    -0.371 C  
HETATM   11  C   UNL     1     -11.031  10.965  67.260  1.00  0.00    -0.355 C  
ENDBRANCH   6  10
BRANCH   7  12
HETATM   12  C   UNL     1     -12.712  15.379  70.720  1.00  0.00    -0.459 C  
HETATM   13  N   UNL     1     -11.855  16.302  71.212  1.00  0.00    -0.636 N  
HETATM   14  O   UNL     1     -13.538  14.816  71.431  1.00  0.00    -0.374 OA 
HETATM   15  H1  UNL     1     -11.921  16.503  72.209  1.00  0.00     0.000 HD 
HETATM   16  H2  UNL     1     -11.176  16.773  70.614  1.00  0.00     0.000 HD 
ENDBRANCH   7  12
TORSDOF 2
ENDMDL
MODEL       13
REMARK 921   NORMALIZED FREE ENERGY PREDICTED BY IDOCK:   -4.56 KCAL/MOL
REMARK 922        TOTAL FREE ENERGY PREDICTED BY IDOCK:   -5.50 KCAL/MOL
REMARK 923 INTER-LIGAND FREE ENERGY PREDICTED BY IDOCK:   -5.13 KCAL/MOL
REMARK 924 INTRA-LIGAND FREE ENERGY PREDICTED BY IDOCK:   -0.37 KCAL/MOL
REMARK 927      BINDING AFFINITY PREDICTED BY RF-SCORE:    0.00 PKD
ROOT
HETATM    1  C   UNL     1      -8.524  15.332  69.073  1.00  0.00    -0.221 C  
HETATM    2  C   UNL     1      -9.363  15.490  67.799  1.00  0.00    -0.195 C  
HETATM    3  C   UNL     1      -8.438  16.052  66.704  1.00  0.00    -0.323 C  
HETATM    4  C   UNL     1     -10.050  14.161  67.351  1.00  0.00    -0.240 C  
HETATM    5  C   UNL     1     -10.967  14.395  66.137  1.00  0.00    -0.320 C  
HETATM    6  C   UNL     1     -10.860  13.454  68.465  1.00  0.00    -0.285 C  
HETATM    7  N   UNL     1     -11.412  13.237  65.520  1.00  0.00    -0.306 N  
HETATM    8  H   UNL     1     -11.040  12.358  65.879  1.00  0.00     0.000 HD 
HETATM    9  O   UNL     1     -11.270  15.520  65.736  1.00  0.00    -0.259 OA 
ENDROOT
BRANCH   6  10
HETATM   10  C   UNL     1     -12.087  14.207  68.904  1.00  0.00    -0.339 C  
HETATM   11  C   UNL     1     -12.128  15.006  69.977  1.00  0.00    -0.382 C  
ENDBRANCH   6  10
BRANCH   7  12
HETATM   12  C   UNL     1     -12.298  13.146  64.483  1.00  0.00    -0.385 C  
HETATM   13  N   UNL     1     -12.210  14.095  63.524  1.00  0.00    -1.090 N  
HETATM   14  O   UNL     1     -13.122  12.240  64.426  1.00  0.00    -0.780 OA 
HETATM   15  H1  UNL     1     -12.870  14.028  62.750  1.00  0.00     0.000 HD 
HETATM   16  H2  UNL     1     -11.516  14.843  63.572  1.00  0.00     0.000 HD 
ENDBRANCH   7  12
TORSDOF 2
ENDMDL
MODEL       14
REMARK 921   NORMALIZED FREE ENERGY PREDICTED BY IDOCK:   -4.56 KCAL/MOL
REMARK 922        TOTAL FREE ENERGY PREDICTED BY IDOCK:   -5.49 KCAL/MOL
REMARK 923 INTER-LIGAND FREE ENERGY PREDICTED BY IDOCK:   -5.03 KCAL/MOL
REMARK 924 INTRA-LIGAND FREE ENERGY PREDICTED BY IDOCK:   -0.47 KCAL/MOL
REMARK 927      BINDING AFFINITY PREDICTED BY RF-SCORE:    0.00 PKD
ROOT
HETATM    1  C   UNL     1     -10.956  15.964  64.886  1.00  0.00    -0.427 C  
HETATM    2  C   UNL     1     -10.431  14.863  65.816  1.00  0.00    -0.345 C  
HETATM    3  C   UNL     1      -9.413  15.513  66.771  1.00  0.00    -0.257 C  
HETATM    4  C   UNL     1     -11.567  14.126  66.594  1.00  0.00    -0.399 C  
HETATM    5  C   UNL     1     -11.002  12.961  67.426  1.00  0.00    -0.260 C  
HETATM    6  C   UNL     1     -12.714  13.597  65.698  1.00  0.00    -0.505 C  
HETATM    7  N   UNL     1     -11.894  12.420  68.337  1.00  0.00    -0.332 N  
HETATM    8  H   UNL     1     -12.799  12.882  68.419  1.00  0.00     0.000 HD 
HETATM    9  O   UNL     1      -9.847  12.551  67.302  1.00  0.00    -0.201 OA 
ENDROOT
BRANCH   6  10
HETATM   10  C   UNL     1     -12.307  12.478  64.778  1.00  0.00    -0.544 C  
HETATM   11  C   UNL     1     -12.325  12.565  63.442  1.00  0.00    -0.577 C  
ENDBRANCH   6  10
BRANCH   7  12
HETATM   12  C   UNL     1     -11.690  11.332  69.139  1.00  0.00    -0.341 C  
HETATM   13  N   UNL     1     -11.493  10.147  68.518  1.00  0.00    -0.518 N  
HETATM   14  O   UNL     1     -11.677  11.434  70.361  1.00  0.00    -0.324 OA 
HETATM   15  H1  UNL     1     -11.341   9.335  69.116  1.00  0.00     0.000 HD 
HETATM   16  H2  UNL     1     -11.496  10.069  67.500  1.00  0.00     0.000 HD 
ENDBRANCH   7  12
TORSDOF 2
ENDMDL
MODEL       15
REMARK 921   NORMALIZED FREE ENERGY PREDICTED BY IDOCK:   -4.55 KCAL/MOL
REMARK 922        TOTAL FREE ENERGY PREDICTED BY IDOCK:   -5.48 KCAL/MOL
REMARK 923 INTER-LIGAND FREE ENERGY PREDICTED BY IDOCK:   -5.01 KCAL/MOL
REMARK 924 INTRA-LIGAND FREE ENERGY PREDICTED BY IDOCK:   -0.47 KCAL/MOL
REMARK 927      BINDING AFFINITY PREDICTED BY RF-SCORE:    0.00 PKD
ROOT
HETATM    1  C   UNL     1     -11.968  12.529  63.786  1.00  0.00    -0.598 C  
HETATM    2  C   UNL     1     -11.635  13.611  64.822  1.00  0.00    -0.374 C  
HETATM    3  C   UNL     1     -12.277  14.924  64.340  1.00  0.00    -0.399 C  
HETATM    4  C   UNL     1     -12.095  13.236  66.266  1.00  0.00    -0.472 C  
HETATM    5  C   UNL     1     -11.642  14.298  67.284  1.00  0.00    -0.377 C  
HETATM    6  C   UNL     1     -11.621  11.842  66.746  1.00  0.00    -0.341 C  
HETATM    7  N   UNL     1     -12.221  14.179  68.537  1.00  0.00    -0.561 N  
HETATM    8  H   UNL     1     -12.932  13.456  68.643  1.00  0.00     0.000 HD 
HETATM    9  O   UNL     1     -10.839  15.190  67.004  1.00  0.00    -0.303 OA 
ENDROOT
BRANCH   6  10
HETATM   10  C   UNL     1     -10.134  11.737  66.948  1.00  0.00    -0.231 C  
HETATM   11  C   UNL     1      -9.320  11.032  66.152  1.00  0.00    -0.214 C  
ENDBRANCH   6  10
BRANCH   7  12
HETATM   12  C   UNL     1     -11.940  14.926  69.647  1.00  0.00    -0.320 C  
HETATM   13  N   UNL     1     -10.648  14.961  70.044  1.00  0.00    -0.455 N  
HETATM   14  O   UNL     1     -12.819  15.539  70.241  1.00  0.00    -0.361 OA 
HETATM   15  H1  UNL     1     -10.439  15.519  70.872  1.00  0.00     0.000 HD 
HETATM   16  H2  UNL     1      -9.919  14.456  69.541  1.00  0.00     0.000 HD 
ENDBRANCH   7  12
TORSDOF 2
ENDMDL
MODEL       16
REMARK 921   NORMALIZED FREE ENERGY PREDICTED BY IDOCK:   -4.50 KCAL/MOL
REMARK 922        TOTAL FREE ENERGY PREDICTED BY IDOCK:   -5.43 KCAL/MOL
REMARK 923 INTER-LIGAND FREE ENERGY PREDICTED BY IDOCK:   -5.06 KCAL/MOL
REMARK 924 INTRA-LIGAND FREE ENERGY PREDICTED BY IDOCK:   -0.37 KCAL/MOL
REMARK 927      BINDING AFFINITY PREDICTED BY RF-SCORE:    0.00 PKD
ROOT
HETATM    1  C   UNL     1      -8.294   8.717  64.423  1.00  0.00    -0.148 C  
HETATM    2  C   UNL     1      -8.882  10.032  63.896  1.00  0.00    -0.250 C  
HETATM    3  C   UNL     1      -9.193   9.832  62.402  1.00  0.00    -0.294 C  
HETATM    4  C   UNL     1     -10.140  10.502  64.693  1.00  0.00    -0.408 C  
HETATM    5  C   UNL     1     -10.625  11.877  64.200  1.00  0.00    -0.350 C  
HETATM    6  C   UNL     1      -9.940  10.558  66.227  1.00  0.00    -0.276 C  
HETATM    7  N   UNL     1     -11.874  12.249  64.670  1.00  0.00    -0.371 N  
HETATM    8  H   UNL     1     -12.374  11.559  65.230  1.00  0.00     0.000 HD 
HETATM    9  O   UNL     1      -9.963  12.584  63.438  1.00  0.00    -0.380 OA 
ENDROOT
BRANCH   6  10
HETATM   10  C   UNL     1      -8.975  11.619  66.682  1.00  0.00    -0.189 C  
HETATM   11  C   UNL     1      -9.260  12.541  67.608  1.00  0.00    -0.190 C  
ENDBRANCH   6  10
BRANCH   7  12
HETATM   12  C   UNL     1     -12.507  13.443  64.464  1.00  0.00    -0.301 C  
HETATM   13  N   UNL     1     -12.374  13.998  63.239  1.00  0.00    -1.145 N  
HETATM   14  O   UNL     1     -13.171  13.972  65.349  1.00  0.00    -0.761 OA 
HETATM   15  H1  UNL     1     -12.846  14.889  63.086  1.00  0.00     0.000 HD 
HETATM   16  H2  UNL     1     -11.827  13.549  62.504  1.00  0.00     0.000 HD 
ENDBRANCH   7  12
TORSDOF 2
ENDMDL
MODEL       17
REMARK 921   NORMALIZED FREE ENERGY PREDICTED BY IDOCK:   -4.49 KCAL/MOL
REMARK 922        TOTAL FREE ENERGY PREDICTED BY IDOCK:   -5.42 KCAL/MOL
REMARK 923 INTER-LIGAND FREE ENERGY PREDICTED BY IDOCK:   -5.05 KCAL/MOL
REMARK 924 INTRA-LIGAND FREE ENERGY PREDICTED BY IDOCK:   -0.37 KCAL/MOL
REMARK 927      BINDING AFFINITY PREDICTED BY RF-SCORE:    0.00 PKD
ROOT
HETATM    1  C   UNL     1     -10.303  10.716  66.442  1.00  0.00    -0.291 C  
HETATM    2  C   UNL     1     -10.739  12.151  66.765  1.00  0.00    -0.269 C  
HETATM    3  C   UNL     1     -10.286  12.458  68.203  1.00  0.00    -0.225 C  
HETATM    4  C   UNL     1     -10.189  13.200  65.748  1.00  0.00    -0.294 C  
HETATM    5  C   UNL     1     -10.743  14.604  66.048  1.00  0.00    -0.312 C  
HETATM    6  C   UNL     1     -10.464  12.856  64.263  1.00  0.00    -0.430 C  
HETATM    7  N   UNL     1     -10.113  15.630  65.361  1.00  0.00    -0.357 N  
HETATM    8  H   UNL     1      -9.312  15.369  64.787  1.00  0.00     0.000 HD 
HETATM    9  O   UNL     1     -11.661  14.803  66.844  1.00  0.00    -0.364 OA 
ENDROOT
BRANCH   6  10
HETATM   10  C   UNL     1     -11.919  12.910  63.881  1.00  0.00    -0.550 C  
HETATM   11  C   UNL     1     -12.577  11.900  63.300  1.00  0.00    -0.473 C  
ENDBRANCH   6  10
BRANCH   7  12
HETATM   12  C   UNL     1     -10.452  16.954  65.370  1.00  0.00    -0.154 C  
HETATM   13  N   UNL     1      -9.976  17.696  66.395  1.00  0.00    -0.324 N  
HETATM   14  O   UNL     1     -11.145  17.440  64.483  1.00  0.00    -1.008 OA 
HETATM   15  H1  UNL     1     -10.230  18.684  66.401  1.00  0.00     0.000 HD 
HETATM   16  H2  UNL     1      -9.393  17.289  67.126  1.00  0.00     0.000 HD 
ENDBRANCH   7  12
TORSDOF 2
ENDMDL
MODEL       18
REMARK 921   NORMALIZED FREE ENERGY PREDICTED BY IDOCK:   -4.46 KCAL/MOL
REMARK 922        TOTAL FREE ENERGY PREDICTED BY IDOCK:   -5.39 KCAL/MOL
REMARK 923 INTER-LIGAND FREE ENERGY PREDICTED BY IDOCK:   -4.93 KCAL/MOL
REMARK 924 INTRA-LIGAND FREE ENERGY PREDICTED BY IDOCK:   -0.46 KCAL/MOL
REMARK 927      BINDING AFFINITY PREDICTED BY RF-SCORE:    0.00 PKD
ROOT
HETATM    1  C   UNL     1      -9.588  14.852  69.128  1.00  0.00    -0.172 C  
HETATM    2  C   UNL     1     -10.644  14.942  68.018  1.00  0.00    -0.248 C  
HETATM    3  C   UNL     1     -10.579  16.365  67.435  1.00  0.00    -0.306 C  
HETATM    4  C   UNL     1     -10.465  13.854  66.914  1.00  0.00    -0.276 C  
HETATM    5  C   UNL     1     -11.609  13.915  65.886  1.00  0.00    -0.340 C  
HETATM    6  C   UNL     1     -10.350  12.407  67.455  1.00  0.00    -0.217 C  
HETATM    7  N   UNL     1     -11.396  13.163  64.742  1.00  0.00    -0.313 N  
HETATM    8  H   UNL     1     -10.488  12.706  64.660  1.00  0.00     0.000 HD 
HETATM    9  O   UNL     1     -12.626  14.588  66.060  1.00  0.00    -0.293 OA 
ENDROOT
BRANCH   6  10
HETATM   10  C   UNL     1     -11.613  11.886  68.084  1.00  0.00    -0.400 C  
HETATM   11  C   UNL     1     -11.783  11.731  69.403  1.00  0.00    -0.405 C  
ENDBRANCH   6  10
BRANCH   7  12
HETATM   12  C   UNL     1     -12.273  12.967  63.712  1.00  0.00    -0.460 C  
HETATM   13  N   UNL     1     -12.607  14.056  62.983  1.00  0.00    -0.872 N  
HETATM   14  O   UNL     1     -12.722  11.855  63.461  1.00  0.00    -0.626 OA 
HETATM   15  H1  UNL     1     -13.262  13.910  62.215  1.00  0.00     0.000 HD 
HETATM   16  H2  UNL     1     -12.224  14.978  63.192  1.00  0.00     0.000 HD 
ENDBRANCH   7  12
TORSDOF 2
ENDMDL
MODEL       19
REMARK 921   NORMALIZED FREE ENERGY PREDICTED BY IDOCK:   -4.45 KCAL/MOL
REMARK 922        TOTAL FREE ENERGY PREDICTED BY IDOCK:   -5.38 KCAL/MOL
REMARK 923 INTER-LIGAND FREE ENERGY PREDICTED BY IDOCK:   -4.97 KCAL/MOL
REMARK 924 INTRA-LIGAND FREE ENERGY PREDICTED BY IDOCK:   -0.41 KCAL/MOL
REMARK 927      BINDING AFFINITY PREDICTED BY RF-SCORE:    0.00 PKD
ROOT
HETATM    1  C   UNL     1      -9.447  10.134  64.113  1.00  0.00    -0.353 C  
HETATM    2  C   UNL     1     -10.225  10.266  65.428  1.00  0.00    -0.312 C  
HETATM    3  C   UNL     1      -9.628   9.253  66.420  1.00  0.00    -0.301 C  
HETATM    4  C   UNL     1     -10.212  11.718  66.004  1.00  0.00    -0.265 C  
HETATM    5  C   UNL     1     -11.095  11.823  67.259  1.00  0.00    -0.287 C  
HETATM    6  C   UNL     1     -10.640  12.810  64.993  1.00  0.00    -0.330 C  
HETATM    7  N   UNL     1     -10.940  12.999  67.975  1.00  0.00    -0.241 N  
HETATM    8  H   UNL     1     -10.217  13.639  67.648  1.00  0.00     0.000 HD 
HETATM    9  O   UNL     1     -11.868  10.929  67.608  1.00  0.00    -0.572 OA 
ENDROOT
BRANCH   6  10
HETATM   10  C   UNL     1     -12.089  12.739  64.590  1.00  0.00    -0.483 C  
HETATM   11  C   UNL     1     -12.531  12.102  63.499  1.00  0.00    -0.666 C  
ENDBRANCH   6  10
BRANCH   7  12
HETATM   12  C   UNL     1     -11.652  13.392  69.074  1.00  0.00    -0.312 C  
HETATM   13  N   UNL     1     -11.634  12.561  70.140  1.00  0.00    -0.543 N  
HETATM   14  O   UNL     1     -12.266  14.454  69.088  1.00  0.00    -0.300 OA 
HETATM   15  H1  UNL     1     -12.165  12.855  70.959  1.00  0.00     0.000 HD 
HETATM   16  H2  UNL     1     -11.114  11.683  70.126  1.00  0.00     0.000 HD 
ENDBRANCH   7  12
TORSDOF 2
ENDMDL
MODEL       20
REMARK 921   NORMALIZED FREE ENERGY PREDICTED BY IDOCK:   -4.44 KCAL/MOL
REMARK 922        TOTAL FREE ENERGY PREDICTED BY IDOCK:   -5.36 KCAL/MOL
REMARK 923 INTER-LIGAND FREE ENERGY PREDICTED BY IDOCK:   -5.17 KCAL/MOL
REMARK 924 INTRA-LIGAND FREE ENERGY PREDICTED BY IDOCK:   -0.19 KCAL/MOL
REMARK 927      BINDING AFFINITY PREDICTED BY RF-SCORE:    0.00 PKD
ROOT
HETATM    1  C   UNL     1      -6.918  19.564  69.418  1.00  0.00    -0.348 C  
HETATM    2  C   UNL     1      -7.072  18.688  68.169  1.00  0.00    -0.265 C  
HETATM    3  C   UNL     1      -6.004  17.583  68.246  1.00  0.00    -0.162 C  
HETATM    4  C   UNL     1      -8.508  18.095  68.011  1.00  0.00    -0.268 C  
HETATM    5  C   UNL     1      -8.643  17.318  66.690  1.00  0.00    -0.257 C  
HETATM    6  C   UNL     1      -9.645  19.143  68.098  1.00  0.00    -0.411 C  
HETATM    7  N   UNL     1      -9.793  16.551  66.589  1.00  0.00    -0.254 N  
HETATM    8  H   UNL     1     -10.393  16.519  67.412  1.00  0.00     0.000 HD 
HETATM    9  O   UNL     1      -7.793  17.362  65.799  1.00  0.00    -0.526 OA 
ENDROOT
BRANCH   6  10
HETATM   10  C   UNL     1      -9.673  20.115  66.949  1.00  0.00    -0.582 C  
HETATM   11  C   UNL     1     -10.504  20.013  65.905  1.00  0.00    -0.511 C  
ENDBRANCH   6  10
BRANCH   7  12
HETATM   12  C   UNL     1     -10.209  15.832  65.502  1.00  0.00    -0.378 C  
HETATM   13  N   UNL     1      -9.746  14.566  65.398  1.00  0.00    -0.530 N  
HETATM   14  O   UNL     1     -10.973  16.315  64.674  1.00  0.00    -0.674 OA 
HETATM   15  H1  UNL     1     -10.056  14.030  64.587  1.00  0.00     0.000 HD 
HETATM   16  H2  UNL     1      -9.117  14.166  66.095  1.00  0.00     0.000 HD 
ENDBRANCH   7  12
TORSDOF 2
ENDMDL
MODEL       21
REMARK 921   NORMALIZED FREE ENERGY PREDICTED BY IDOCK:   -4.39 KCAL/MOL
REMARK 922        TOTAL FREE ENERGY PREDICTED BY IDOCK:   -5.30 KCAL/MOL
REMARK 923 INTER-LIGAND FREE ENERGY PREDICTED BY IDOCK:   -4.83 KCAL/MOL
REMARK 924 INTRA-LIGAND FREE ENERGY PREDICTED BY IDOCK:   -0.47 KCAL/MOL
REMARK 927      BINDING AFFINITY PREDICTED BY RF-SCORE:    0.00 PKD
ROOT
HETATM    1  C   UNL     1      -8.137  15.801  68.992  1.00  0.00    -0.224 C  
HETATM    2  C   UNL     1      -8.621  15.182  67.674  1.00  0.00    -0.180 C  
HETATM    3  C   UNL     1      -7.965  13.795  67.549  1.00  0.00    -0.190 C  
HETATM    4  C   UNL     1     -10.177  15.098  67.574  1.00  0.00    -0.238 C  
HETATM    5  C   UNL     1     -10.614  14.574  66.194  1.00  0.00    -0.306 C  
HETATM    6  C   UNL     1     -10.909  16.432  67.862  1.00  0.00    -0.328 C  
HETATM    7  N   UNL     1     -11.954  14.229  66.108  1.00  0.00    -0.406 N  
HETATM    8  H   UNL     1     -12.495  14.285  66.970  1.00  0.00     0.000 HD 
HETATM    9  O   UNL     1      -9.836  14.459  65.247  1.00  0.00    -0.319 OA 
ENDROOT
BRANCH   6  10
HETATM   10  C   UNL     1     -10.671  17.497  66.826  1.00  0.00    -0.109 C  
HETATM   11  C   UNL     1     -10.000  18.631  67.061  1.00  0.00    -0.368 C  
ENDBRANCH   6  10
BRANCH   7  12
HETATM   12  C   UNL     1     -12.627  13.820  64.991  1.00  0.00    -0.389 C  
HETATM   13  N   UNL     1     -12.613  14.660  63.931  1.00  0.00    -0.963 N  
HETATM   14  O   UNL     1     -13.203  12.738  64.954  1.00  0.00    -0.808 OA 
HETATM   15  H1  UNL     1     -13.115  14.355  63.098  1.00  0.00     0.000 HD 
HETATM   16  H2  UNL     1     -12.124  15.555  63.964  1.00  0.00     0.000 HD 
ENDBRANCH   7  12
TORSDOF 2
ENDMDL
MODEL       22
REMARK 921   NORMALIZED FREE ENERGY PREDICTED BY IDOCK:   -4.33 KCAL/MOL
REMARK 922        TOTAL FREE ENERGY PREDICTED BY IDOCK:   -5.24 KCAL/MOL
REMARK 923 INTER-LIGAND FREE ENERGY PREDICTED BY IDOCK:   -4.86 KCAL/MOL
REMARK 924 INTRA-LIGAND FREE ENERGY PREDICTED BY IDOCK:   -0.38 KCAL/MOL
REMARK 927      BINDING AFFINITY PREDICTED BY RF-SCORE:    0.00 PKD
ROOT
HETATM    1  C   UNL     1     -10.343  17.235  68.636  1.00  0.00    -0.357 C  
HETATM    2  C   UNL     1     -10.970  15.905  68.198  1.00  0.00    -0.335 C  
HETATM    3  C   UNL     1     -10.306  15.497  66.871  1.00  0.00    -0.290 C  
HETATM    4  C   UNL     1     -10.842  14.785  69.278  1.00  0.00    -0.275 C  
HETATM    5  C   UNL     1     -11.581  13.508  68.839  1.00  0.00    -0.323 C  
HETATM    6  C   UNL     1     -11.338  15.196  70.686  1.00  0.00    -0.330 C  
HETATM    7  N   UNL     1     -11.307  12.390  69.612  1.00  0.00    -0.476 N  
HETATM    8  H   UNL     1     -10.601  12.502  70.340  1.00  0.00     0.000 HD 
HETATM    9  O   UNL     1     -12.343  13.476  67.872  1.00  0.00    -0.225 OA 
ENDROOT
BRANCH   6  10
HETATM   10  C   UNL     1     -12.823  15.424  70.771  1.00  0.00    -0.524 C  
HETATM   11  C   UNL     1     -13.476  15.681  71.910  1.00  0.00    -0.537 C  
ENDBRANCH   6  10
BRANCH   7  12
HETATM   12  C   UNL     1     -11.882  11.155  69.504  1.00  0.00    -0.353 C  
HETATM   13  N   UNL     1     -11.661  10.481  68.353  1.00  0.00    -0.498 N  
HETATM   14  O   UNL     1     -12.554  10.683  70.414  1.00  0.00    -0.335 OA 
HETATM   15  H1  UNL     1     -12.090   9.559  68.272  1.00  0.00     0.000 HD 
HETATM   16  H2  UNL     1     -11.094  10.875  67.602  1.00  0.00     0.000 HD 
ENDBRANCH   7  12
TORSDOF 2
ENDMDL
MODEL       23
REMARK 921   NORMALIZED FREE ENERGY PREDICTED BY IDOCK:   -4.28 KCAL/MOL
REMARK 922        TOTAL FREE ENERGY PREDICTED BY IDOCK:   -5.18 KCAL/MOL
REMARK 923 INTER-LIGAND FREE ENERGY PREDICTED BY IDOCK:   -5.10 KCAL/MOL
REMARK 924 INTRA-LIGAND FREE ENERGY PREDICTED BY IDOCK:   -0.09 KCAL/MOL
REMARK 927      BINDING AFFINITY PREDICTED BY RF-SCORE:    0.00 PKD
ROOT
HETATM    1  C   UNL     1     -11.645  12.225  64.476  1.00  0.00    -0.418 C  
HETATM    2  C   UNL     1     -11.539  13.478  65.355  1.00  0.00    -0.334 C  
HETATM    3  C   UNL     1     -12.358  14.589  64.674  1.00  0.00    -0.419 C  
HETATM    4  C   UNL     1     -12.005  13.234  66.825  1.00  0.00    -0.438 C  
HETATM    5  C   UNL     1     -11.776  14.485  67.692  1.00  0.00    -0.382 C  
HETATM    6  C   UNL     1     -11.340  12.016  67.512  1.00  0.00    -0.387 C  
HETATM    7  N   UNL     1     -12.390  14.445  68.934  1.00  0.00    -0.576 N  
HETATM    8  H   UNL     1     -12.982  13.637  69.123  1.00  0.00     0.000 HD 
HETATM    9  O   UNL     1     -11.112  15.450  67.309  1.00  0.00    -0.325 OA 
ENDROOT
BRANCH   6  10
HETATM   10  C   UNL     1      -9.866  12.184  67.765  1.00  0.00    -0.199 C  
HETATM   11  C   UNL     1      -8.914  11.495  67.125  1.00  0.00    -0.166 C  
ENDBRANCH   6  10
BRANCH   7  12
HETATM   12  C   UNL     1     -12.286  15.373  69.932  1.00  0.00    -0.334 C  
HETATM   13  N   UNL     1     -13.426  15.695  70.583  1.00  0.00    -0.800 N  
HETATM   14  O   UNL     1     -11.207  15.876  70.224  1.00  0.00    -0.321 OA 
HETATM   15  H1  UNL     1     -13.349  16.387  71.328  1.00  0.00     0.000 HD 
HETATM   16  H2  UNL     1     -14.320  15.267  70.342  1.00  0.00     0.000 HD 
ENDBRANCH   7  12
TORSDOF 2
ENDMDL
MODEL       24
REMARK 921   NORMALIZED FREE ENERGY PREDICTED BY IDOCK:   -4.20 KCAL/MOL
REMARK 922        TOTAL FREE ENERGY PREDICTED BY IDOCK:   -5.09 KCAL/MOL
REMARK 923 INTER-LIGAND FREE ENERGY PREDICTED BY IDOCK:   -4.66 KCAL/MOL
REMARK 924 INTRA-LIGAND FREE ENERGY PREDICTED BY IDOCK:   -0.43 KCAL/MOL
REMARK 927      BINDING AFFINITY PREDICTED BY RF-SCORE:    0.00 PKD
ROOT
HETATM    1  C   UNL     1     -10.357  10.385  67.581  1.00  0.00    -0.260 C  
HETATM    2  C   UNL     1     -11.208  11.098  68.640  1.00  0.00    -0.314 C  
HETATM    3  C   UNL     1     -11.032  10.333  69.964  1.00  0.00    -0.371 C  
HETATM    4  C   UNL     1     -10.854  12.610  68.792  1.00  0.00    -0.267 C  
HETATM    5  C   UNL     1     -11.806  13.304  69.782  1.00  0.00    -0.325 C  
HETATM    6  C   UNL     1     -10.845  13.402  67.462  1.00  0.00    -0.276 C  
HETATM    7  N   UNL     1     -11.409  14.574  70.169  1.00  0.00    -0.399 N  
HETATM    8  H   UNL     1     -10.504  14.893  69.824  1.00  0.00     0.000 HD 
HETATM    9  O   UNL     1     -12.832  12.770  70.207  1.00  0.00     0.086 OA 
ENDROOT
BRANCH   6  10
HETATM   10  C   UNL     1     -12.202  13.550  66.828  1.00  0.00    -0.392 C  
HETATM   11  C   UNL     1     -12.424  13.468  65.510  1.00  0.00    -0.538 C  
ENDBRANCH   6  10
BRANCH   7  12
HETATM   12  C   UNL     1     -12.100  15.445  70.965  1.00  0.00    -0.365 C  
HETATM   13  N   UNL     1     -13.399  15.652  70.653  1.00  0.00    -0.792 N  
HETATM   14  O   UNL     1     -11.564  15.998  71.919  1.00  0.00    -0.445 OA 
HETATM   15  H1  UNL     1     -13.914  16.302  71.247  1.00  0.00     0.000 HD 
HETATM   16  H2  UNL     1     -13.842  15.182  69.863  1.00  0.00     0.000 HD 
ENDBRANCH   7  12
TORSDOF 2
ENDMDL
MODEL       25
REMARK 921   NORMALIZED FREE ENERGY PREDICTED BY IDOCK:   -4.13 KCAL/MOL
REMARK 922        TOTAL FREE ENERGY PREDICTED BY IDOCK:   -5.02 KCAL/MOL
REMARK 923 INTER-LIGAND FREE ENERGY PREDICTED BY IDOCK:   -4.79 KCAL/MOL
REMARK 924 INTRA-LIGAND FREE ENERGY PREDICTED BY IDOCK:   -0.24 KCAL/MOL
REMARK 927      BINDING AFFINITY PREDICTED BY RF-SCORE:    0.00 PKD
ROOT
HETATM    1  C   UNL     1     -11.073   5.308  73.334  1.00  0.00    -0.362 C  
HETATM    2  C   UNL     1     -10.394   5.448  71.966  1.00  0.00    -0.268 C  
HETATM    3  C   UNL     1      -9.832   4.066  71.588  1.00  0.00    -0.253 C  
HETATM    4  C   UNL     1     -11.348   6.006  70.864  1.00  0.00    -0.299 C  
HETATM    5  C   UNL     1     -10.593   6.232  69.542  1.00  0.00    -0.271 C  
HETATM    6  C   UNL     1     -12.081   7.313  71.255  1.00  0.00    -0.373 C  
HETATM    7  N   UNL     1     -11.409   6.480  68.449  1.00  0.00    -0.566 N  
HETATM    8  H   UNL     1     -12.414   6.420  68.607  1.00  0.00     0.000 HD 
HETATM    9  O   UNL     1      -9.365   6.182  69.458  1.00  0.00    -0.136 OA 
ENDROOT
BRANCH   6  10
HETATM   10  C   UNL     1     -11.174   8.506  71.396  1.00  0.00    -0.327 C  
HETATM   11  C   UNL     1     -11.452   9.718  70.902  1.00  0.00    -0.447 C  
ENDBRANCH   6  10
BRANCH   7  12
HETATM   12  C   UNL     1     -11.009   6.797  67.181  1.00  0.00    -0.388 C  
HETATM   13  N   UNL     1     -11.061   5.807  66.261  1.00  0.00    -0.755 N  
HETATM   14  O   UNL     1     -10.633   7.929  66.895  1.00  0.00    -0.341 OA 
HETATM   15  H1  UNL     1     -10.762   6.044  65.315  1.00  0.00     0.000 HD 
HETATM   16  H2  UNL     1     -11.382   4.869  66.502  1.00  0.00     0.000 HD 
ENDBRANCH   7  12
TORSDOF 2
ENDMDL
MODEL       26
REMARK 921   NORMALIZED FREE ENERGY PREDICTED BY IDOCK:   -4.11 KCAL/MOL
REMARK 922        TOTAL FREE ENERGY PREDICTED BY IDOCK:   -5.00 KCAL/MOL
REMARK 923 INTER-LIGAND FREE ENERGY PREDICTED BY IDOCK:   -4.52 KCAL/MOL
REMARK 924 INTRA-LIGAND FREE ENERGY PREDICTED BY IDOCK:   -0.47 KCAL/MOL
REMARK 927      BINDING AFFINITY PREDICTED BY RF-SCORE:    0.00 PKD
ROOT
HETATM    1  C   UNL     1     -10.335   9.997  69.958  1.00  0.00    -0.323 C  
HETATM    2  C   UNL     1     -11.058  10.868  68.922  1.00  0.00    -0.307 C  
HETATM    3  C   UNL     1     -11.782  11.990  69.688  1.00  0.00    -0.405 C  
HETATM    4  C   UNL     1     -10.100  11.438  67.829  1.00  0.00    -0.198 C  
HETATM    5  C   UNL     1     -10.886  12.210  66.754  1.00  0.00    -0.248 C  
HETATM    6  C   UNL     1      -9.214  10.373  67.138  1.00  0.00    -0.159 C  
HETATM    7  N   UNL     1     -10.100  12.960  65.893  1.00  0.00    -0.286 N  
HETATM    8  H   UNL     1      -9.101  12.985  66.094  1.00  0.00     0.000 HD 
HETATM    9  O   UNL     1     -12.115  12.177  66.673  1.00  0.00    -0.622 OA 
ENDROOT
BRANCH   6  10
HETATM   10  C   UNL     1      -9.979   9.399  66.284  1.00  0.00    -0.353 C  
HETATM   11  C   UNL     1     -10.089   8.093  66.555  1.00  0.00    -0.286 C  
ENDBRANCH   6  10
BRANCH   7  12
HETATM   12  C   UNL     1     -10.521  13.669  64.803  1.00  0.00    -0.418 C  
HETATM   13  N   UNL     1     -11.147  12.971  63.828  1.00  0.00    -0.550 N  
HETATM   14  O   UNL     1     -10.346  14.880  64.725  1.00  0.00    -0.368 OA 
HETATM   15  H1  UNL     1     -11.460  13.501  63.015  1.00  0.00     0.000 HD 
HETATM   16  H2  UNL     1     -11.297  11.965  63.903  1.00  0.00     0.000 HD 
ENDBRANCH   7  12
TORSDOF 2
ENDMDL
MODEL       27
REMARK 921   NORMALIZED FREE ENERGY PREDICTED BY IDOCK:   -4.11 KCAL/MOL
REMARK 922        TOTAL FREE ENERGY PREDICTED BY IDOCK:   -4.99 KCAL/MOL
REMARK 923 INTER-LIGAND FREE ENERGY PREDICTED BY IDOCK:   -4.61 KCAL/MOL
REMARK 924 INTRA-LIGAND FREE ENERGY PREDICTED BY IDOCK:   -0.39 KCAL/MOL
REMARK 927      BINDING AFFINITY PREDICTED BY RF-SCORE:    0.00 PKD
ROOT
HETATM    1  C   UNL     1     -11.321  16.036  68.422  1.00  0.00    -0.355 C  
HETATM    2  C   UNL     1     -11.672  14.548  68.293  1.00  0.00    -0.368 C  
HETATM    3  C   UNL     1     -10.948  14.010  67.047  1.00  0.00    -0.302 C  
HETATM    4  C   UNL     1     -11.318  13.724  69.571  1.00  0.00    -0.283 C  
HETATM    5  C   UNL     1     -11.789  12.265  69.436  1.00  0.00    -0.310 C  
HETATM    6  C   UNL     1     -11.877  14.314  70.888  1.00  0.00    -0.322 C  
HETATM    7  N   UNL     1     -11.294  11.408  70.405  1.00  0.00    -0.453 N  
HETATM    8  H   UNL     1     -10.620  11.802  71.061  1.00  0.00     0.000 HD 
HETATM    9  O   UNL     1     -12.536  11.886  68.532  1.00  0.00    -0.146 OA 
ENDROOT
BRANCH   6  10
HETATM   10  C   UNL     1     -13.377  14.264  70.995  1.00  0.00    -0.326 C  
HETATM   11  C   UNL     1     -14.036  13.868  72.091  1.00  0.00    -0.639 C  
ENDBRANCH   6  10
BRANCH   7  12
HETATM   12  C   UNL     1     -11.611  10.089  70.577  1.00  0.00    -0.323 C  
HETATM   13  N   UNL     1     -12.908   9.749  70.401  1.00  0.00    -0.532 N  
HETATM   14  O   UNL     1     -10.756   9.260  70.865  1.00  0.00    -0.250 OA 
HETATM   15  H1  UNL     1     -13.145   8.765  70.529  1.00  0.00     0.000 HD 
HETATM   16  H2  UNL     1     -13.615  10.442  70.153  1.00  0.00     0.000 HD 
ENDBRANCH   7  12
TORSDOF 2
ENDMDL
MODEL       28
REMARK 921   NORMALIZED FREE ENERGY PREDICTED BY IDOCK:   -4.11 KCAL/MOL
REMARK 922        TOTAL FREE ENERGY PREDICTED BY IDOCK:   -4.99 KCAL/MOL
REMARK 923 INTER-LIGAND FREE ENERGY PREDICTED BY IDOCK:   -4.73 KCAL/MOL
REMARK 924 INTRA-LIGAND FREE ENERGY PREDICTED BY IDOCK:   -0.26 KCAL/MOL
REMARK 927      BINDING AFFINITY PREDICTED BY RF-SCORE:    0.00 PKD
ROOT
HETATM    1  C   UNL     1      -8.365  10.467  68.784  1.00  0.00    -0.136 C  
HETATM    2  C   UNL     1      -8.895  11.642  67.951  1.00  0.00    -0.155 C  
HETATM    3  C   UNL     1      -7.781  12.051  66.971  1.00  0.00    -0.129 C  
HETATM    4  C   UNL     1     -10.228  11.312  67.208  1.00  0.00    -0.226 C  
HETATM    5  C   UNL     1     -10.775  12.552  66.479  1.00  0.00    -0.240 C  
HETATM    6  C   UNL     1     -11.338  10.729  68.116  1.00  0.00    -0.377 C  
HETATM    7  N   UNL     1     -11.807  12.289  65.592  1.00  0.00    -0.402 N  
HETATM    8  H   UNL     1     -12.053  11.308  65.457  1.00  0.00     0.000 HD 
HETATM    9  O   UNL     1     -10.325  13.684  66.658  1.00  0.00    -0.268 OA 
ENDROOT
BRANCH   6  10
HETATM   10  C   UNL     1     -11.877  11.705  69.128  1.00  0.00    -0.390 C  
HETATM   11  C   UNL     1     -12.045  11.420  70.425  1.00  0.00    -0.473 C  
ENDBRANCH   6  10
BRANCH   7  12
HETATM   12  C   UNL     1     -12.532  13.203  64.880  1.00  0.00    -0.433 C  
HETATM   13  N   UNL     1     -12.298  13.260  63.549  1.00  0.00    -0.795 N  
HETATM   14  O   UNL     1     -13.359  13.925  65.425  1.00  0.00    -0.710 OA 
HETATM   15  H1  UNL     1     -12.838  13.943  63.018  1.00  0.00     0.000 HD 
HETATM   16  H2  UNL     1     -11.614  12.652  63.099  1.00  0.00     0.000 HD 
ENDBRANCH   7  12
TORSDOF 2
ENDMDL
MODEL       29
REMARK 921   NORMALIZED FREE ENERGY PREDICTED BY IDOCK:   -4.11 KCAL/MOL
REMARK 922        TOTAL FREE ENERGY PREDICTED BY IDOCK:   -4.99 KCAL/MOL
REMARK 923 INTER-LIGAND FREE ENERGY PREDICTED BY IDOCK:   -4.52 KCAL/MOL
REMARK 924 INTRA-LIGAND FREE ENERGY PREDICTED BY IDOCK:   -0.47 KCAL/MOL
REMARK 927      BINDING AFFINITY PREDICTED BY RF-SCORE:    0.00 PKD
ROOT
HETATM    1  C   UNL     1     -11.693  12.616  65.621  1.00  0.00    -0.458 C  
HETATM    2  C   UNL     1     -11.261  14.071  65.398  1.00  0.00    -0.319 C  
HETATM    3  C   UNL     1     -12.253  14.698  64.402  1.00  0.00    -0.473 C  
HETATM    4  C   UNL     1     -11.172  14.893  66.722  1.00  0.00    -0.338 C  
HETATM    5  C   UNL     1     -10.630  16.309  66.459  1.00  0.00    -0.256 C  
HETATM    6  C   UNL     1     -10.323  14.226  67.832  1.00  0.00    -0.233 C  
HETATM    7  N   UNL     1     -10.759  17.183  67.527  1.00  0.00    -0.318 N  
HETATM    8  H   UNL     1     -11.256  16.832  68.345  1.00  0.00     0.000 HD 
HETATM    9  O   UNL     1     -10.134  16.644  65.382  1.00  0.00    -0.578 OA 
ENDROOT
BRANCH   6  10
HETATM   10  C   UNL     1      -8.854  14.146  67.515  1.00  0.00    -0.202 C  
HETATM   11  C   UNL     1      -8.185  12.998  67.358  1.00  0.00    -0.183 C  
ENDBRANCH   6  10
BRANCH   7  12
HETATM   12  C   UNL     1     -10.290  18.465  67.601  1.00  0.00    -0.405 C  
HETATM   13  N   UNL     1     -10.735  19.330  66.661  1.00  0.00    -0.432 N  
HETATM   14  O   UNL     1      -9.514  18.809  68.485  1.00  0.00    -0.327 OA 
HETATM   15  H1  UNL     1     -10.385  20.286  66.717  1.00  0.00     0.000 HD 
HETATM   16  H2  UNL     1     -11.387  19.039  65.932  1.00  0.00     0.000 HD 
ENDBRANCH   7  12
TORSDOF 2
ENDMDL
MODEL       30
REMARK 921   NORMALIZED FREE ENERGY PREDICTED BY IDOCK:   -4.08 KCAL/MOL
REMARK 922        TOTAL FREE ENERGY PREDICTED BY IDOCK:   -4.96 KCAL/MOL
REMARK 923 INTER-LIGAND FREE ENERGY PREDICTED BY IDOCK:   -4.54 KCAL/MOL
REMARK 924 INTRA-LIGAND FREE ENERGY PREDICTED BY IDOCK:   -0.42 KCAL/MOL
REMARK 927      BINDING AFFINITY PREDICTED BY RF-SCORE:    0.00 PKD
ROOT
HETATM    1  C   UNL     1     -14.127   8.875  72.362  1.00  0.00    -0.493 C  
HETATM    2  C   UNL     1     -12.958   9.414  71.527  1.00  0.00    -0.449 C  
HETATM    3  C   UNL     1     -12.933  10.943  71.702  1.00  0.00    -0.569 C  
HETATM    4  C   UNL     1     -11.588   8.766  71.902  1.00  0.00    -0.432 C  
HETATM    5  C   UNL     1     -10.470   9.255  70.966  1.00  0.00    -0.314 C  
HETATM    6  C   UNL     1     -11.596   7.217  71.912  1.00  0.00    -0.313 C  
HETATM    7  N   UNL     1      -9.188   8.933  71.382  1.00  0.00    -0.251 N  
HETATM    8  H   UNL     1      -9.106   8.473  72.289  1.00  0.00     0.000 HD 
HETATM    9  O   UNL     1     -10.693   9.894  69.936  1.00  0.00    -0.239 OA 
ENDROOT
BRANCH   6  10
HETATM   10  C   UNL     1     -11.776   6.596  70.553  1.00  0.00    -0.453 C  
HETATM   11  C   UNL     1     -10.846   5.853  69.942  1.00  0.00    -0.439 C  
ENDBRANCH   6  10
BRANCH   7  12
HETATM   12  C   UNL     1      -8.022   9.165  70.708  1.00  0.00    -0.163 C  
HETATM   13  N   UNL     1      -7.916   8.625  69.473  1.00  0.00    -0.095 N  
HETATM   14  O   UNL     1      -7.125   9.840  71.200  1.00  0.00    -0.332 OA 
HETATM   15  H1  UNL     1      -7.046   8.798  68.970  1.00  0.00     0.000 HD 
HETATM   16  H2  UNL     1      -8.669   8.070  69.065  1.00  0.00     0.000 HD 
ENDBRANCH   7  12
TORSDOF 2
ENDMDL
MODEL       31
REMARK 921   NORMALIZED FREE ENERGY PREDICTED BY IDOCK:   -4.07 KCAL/MOL
REMARK 922        TOTAL FREE ENERGY PREDICTED BY IDOCK:   -4.95 KCAL/MOL
REMARK 923 INTER-LIGAND FREE ENERGY PREDICTED BY IDOCK:   -4.62 KCAL/MOL
REMARK 924 INTRA-LIGAND FREE ENERGY PREDICTED BY IDOCK:   -0.33 KCAL/MOL
REMARK 927      BINDING AFFINITY PREDICTED BY RF-SCORE:    0.00 PKD
ROOT
HETATM    1  C   UNL     1      -7.625  16.033  66.964  1.00  0.00    -0.265 C  
HETATM    2  C   UNL     1      -8.916  15.437  67.542  1.00  0.00    -0.191 C  
HETATM    3  C   UNL     1      -8.641  13.954  67.850  1.00  0.00    -0.180 C  
HETATM    4  C   UNL     1      -9.433  16.204  68.800  1.00  0.00    -0.230 C  
HETATM    5  C   UNL     1     -10.783  15.640  69.274  1.00  0.00    -0.239 C  
HETATM    6  C   UNL     1      -9.566  17.734  68.605  1.00  0.00    -0.322 C  
HETATM    7  N   UNL     1     -11.187  16.086  70.523  1.00  0.00    -0.370 N  
HETATM    8  H   UNL     1     -10.529  16.679  71.029  1.00  0.00     0.000 HD 
HETATM    9  O   UNL     1     -11.447  14.845  68.606  1.00  0.00    -0.277 OA 
ENDROOT
BRANCH   6  10
HETATM   10  C   UNL     1     -10.644  18.137  67.634  1.00  0.00    -0.424 C  
HETATM   11  C   UNL     1     -10.755  19.362  67.108  1.00  0.00    -0.593 C  
ENDBRANCH   6  10
BRANCH   7  12
HETATM   12  C   UNL     1     -12.372  15.817  71.148  1.00  0.00    -0.427 C  
HETATM   13  N   UNL     1     -13.456  15.660  70.355  1.00  0.00    -0.747 N  
HETATM   14  O   UNL     1     -12.440  15.715  72.368  1.00  0.00    -0.352 OA 
HETATM   15  H1  UNL     1     -14.340  15.460  70.822  1.00  0.00     0.000 HD 
HETATM   16  H2  UNL     1     -13.392  15.738  69.340  1.00  0.00     0.000 HD 
ENDBRANCH   7  12
TORSDOF 2
ENDMDL
MODEL       32
REMARK 921   NORMALIZED FREE ENERGY PREDICTED BY IDOCK:   -4.07 KCAL/MOL
REMARK 922        TOTAL FREE ENERGY PREDICTED BY IDOCK:   -4.95 KCAL/MOL
REMARK 923 INTER-LIGAND FREE ENERGY PREDICTED BY IDOCK:   -4.56 KCAL/MOL
REMARK 924 INTRA-LIGAND FREE ENERGY PREDICTED BY IDOCK:   -0.38 KCAL/MOL
REMARK 927      BINDING AFFINITY PREDICTED BY RF-SCORE:    0.00 PKD
ROOT
HETATM    1  C   UNL     1     -12.444  13.552  70.590  1.00  0.00    -0.405 C  
HETATM    2  C   UNL     1     -12.037  14.896  69.972  1.00  0.00    -0.387 C  
HETATM    3  C   UNL     1     -11.775  15.876  71.130  1.00  0.00    -0.490 C  
HETATM    4  C   UNL     1     -10.806  14.783  69.019  1.00  0.00    -0.250 C  
HETATM    5  C   UNL     1     -10.507  16.132  68.340  1.00  0.00    -0.274 C  
HETATM    6  C   UNL     1     -10.938  13.689  67.931  1.00  0.00    -0.277 C  
HETATM    7  N   UNL     1      -9.288  16.187  67.682  1.00  0.00    -0.214 N  
HETATM    8  H   UNL     1      -8.686  15.369  67.769  1.00  0.00     0.000 HD 
HETATM    9  O   UNL     1     -11.281  17.089  68.387  1.00  0.00    -0.261 OA 
ENDROOT
BRANCH   6  10
HETATM   10  C   UNL     1     -11.997  13.974  66.901  1.00  0.00    -0.479 C  
HETATM   11  C   UNL     1     -12.214  13.212  65.822  1.00  0.00    -0.514 C  
ENDBRANCH   6  10
BRANCH   7  12
HETATM   12  C   UNL     1      -8.808  17.221  66.928  1.00  0.00    -0.240 C  
HETATM   13  N   UNL     1      -8.636  18.405  67.559  1.00  0.00    -0.256 N  
HETATM   14  O   UNL     1      -8.537  17.072  65.742  1.00  0.00    -0.517 OA 
HETATM   15  H1  UNL     1      -8.278  19.176  66.996  1.00  0.00     0.000 HD 
HETATM   16  H2  UNL     1      -8.855  18.521  68.549  1.00  0.00     0.000 HD 
ENDBRANCH   7  12
TORSDOF 2
ENDMDL
MODEL       33
REMARK 921   NORMALIZED FREE ENERGY PREDICTED BY IDOCK:   -4.06 KCAL/MOL
REMARK 922        TOTAL FREE ENERGY PREDICTED BY IDOCK:   -4.94 KCAL/MOL
REMARK 923 INTER-LIGAND FREE ENERGY PREDICTED BY IDOCK:   -4.53 KCAL/MOL
REMARK 924 INTRA-LIGAND FREE ENERGY PREDICTED BY IDOCK:   -0.41 KCAL/MOL
REMARK 927      BINDING AFFINITY PREDICTED BY RF-SCORE:    0.00 PKD
ROOT
HETATM    1  C   UNL     1     -10.471   5.714  69.894  1.00  0.00    -0.378 C  
HETATM    2  C   UNL     1     -10.393   7.246  69.906  1.00  0.00    -0.226 C  
HETATM    3  C   UNL     1     -10.235   7.711  68.448  1.00  0.00    -0.226 C  
HETATM    4  C   UNL     1     -11.623   7.916  70.598  1.00  0.00    -0.215 C  
HETATM    5  C   UNL     1     -11.445   9.442  70.684  1.00  0.00    -0.284 C  
HETATM    6  C   UNL     1     -11.940   7.365  72.010  1.00  0.00    -0.333 C  
HETATM    7  N   UNL     1     -12.589  10.135  71.047  1.00  0.00    -0.353 N  
HETATM    8  H   UNL     1     -13.441   9.584  71.151  1.00  0.00     0.000 HD 
HETATM    9  O   UNL     1     -10.378  10.005  70.437  1.00  0.00    -0.282 OA 
ENDROOT
BRANCH   6  10
HETATM   10  C   UNL     1     -10.894   7.688  73.043  1.00  0.00    -0.457 C  
HETATM   11  C   UNL     1     -10.308   6.773  73.825  1.00  0.00    -0.397 C  
ENDBRANCH   6  10
BRANCH   7  12
HETATM   12  C   UNL     1     -12.698  11.477  71.280  1.00  0.00    -0.364 C  
HETATM   13  N   UNL     1     -11.999  12.295  70.461  1.00  0.00    -0.512 N  
HETATM   14  O   UNL     1     -13.405  11.911  72.183  1.00  0.00    -0.503 OA 
HETATM   15  H1  UNL     1     -12.080  13.297  70.636  1.00  0.00     0.000 HD 
HETATM   16  H2  UNL     1     -11.419  11.929  69.706  1.00  0.00     0.000 HD 
ENDBRANCH   7  12
TORSDOF 2
ENDMDL
MODEL       34
REMARK 921   NORMALIZED FREE ENERGY PREDICTED BY IDOCK:   -4.06 KCAL/MOL
REMARK 922        TOTAL FREE ENERGY PREDICTED BY IDOCK:   -4.94 KCAL/MOL
REMARK 923 INTER-LIGAND FREE ENERGY PREDICTED BY IDOCK:   -4.51 KCAL/MOL
REMARK 924 INTRA-LIGAND FREE ENERGY PREDICTED BY IDOCK:   -0.42 KCAL/MOL
REMARK 927      BINDING AFFINITY PREDICTED BY RF-SCORE:    0.00 PKD
ROOT
HETATM    1  C   UNL     1     -11.405  14.381  69.380  1.00  0.00    -0.319 C  
HETATM    2  C   UNL     1     -11.740  13.767  68.015  1.00  0.00    -0.390 C  
HETATM    3  C   UNL     1     -12.033  14.927  67.047  1.00  0.00    -0.126 C  
HETATM    4  C   UNL     1     -10.615  12.830  67.473  1.00  0.00    -0.240 C  
HETATM    5  C   UNL     1     -11.044  12.154  66.159  1.00  0.00    -0.312 C  
HETATM    6  C   UNL     1     -10.153  11.742  68.473  1.00  0.00    -0.212 C  
HETATM    7  N   UNL     1     -10.020  11.512  65.481  1.00  0.00    -0.232 N  
HETATM    8  H   UNL     1      -9.084  11.608  65.873  1.00  0.00     0.000 HD 
HETATM    9  O   UNL     1     -12.200  12.190  65.736  1.00  0.00    -0.586 OA 
ENDROOT
BRANCH   6  10
HETATM   10  C   UNL     1     -11.195  10.697  68.767  1.00  0.00    -0.337 C  
HETATM   11  C   UNL     1     -11.894  10.639  69.907  1.00  0.00    -0.392 C  
ENDBRANCH   6  10
BRANCH   7  12
HETATM   12  C   UNL     1     -10.130  10.764  64.342  1.00  0.00    -0.353 C  
HETATM   13  N   UNL     1     -10.954  11.238  63.380  1.00  0.00    -0.759 N  
HETATM   14  O   UNL     1      -9.502   9.720  64.203  1.00  0.00    -0.253 OA 
HETATM   15  H1  UNL     1     -11.036  10.680  62.531  1.00  0.00     0.000 HD 
HETATM   16  H2  UNL     1     -11.467  12.112  63.499  1.00  0.00     0.000 HD 
ENDBRANCH   7  12
TORSDOF 2
ENDMDL
MODEL       35
REMARK 921   NORMALIZED FREE ENERGY PREDICTED BY IDOCK:   -4.05 KCAL/MOL
REMARK 922        TOTAL FREE ENERGY PREDICTED BY IDOCK:   -4.93 KCAL/MOL
REMARK 923 INTER-LIGAND FREE ENERGY PREDICTED BY IDOCK:   -4.47 KCAL/MOL
REMARK 924 INTRA-LIGAND FREE ENERGY PREDICTED BY IDOCK:   -0.46 KCAL/MOL
REMARK 927      BINDING AFFINITY PREDICTED BY RF-SCORE:    0.00 PKD
ROOT
HETATM    1  C   UNL     1     -11.212  11.935  66.989  1.00  0.00    -0.379 C  
HETATM    2  C   UNL     1     -11.431  13.302  67.649  1.00  0.00    -0.360 C  
HETATM    3  C   UNL     1     -11.456  13.080  69.172  1.00  0.00    -0.353 C  
HETATM    4  C   UNL     1     -10.360  14.360  67.236  1.00  0.00    -0.260 C  
HETATM    5  C   UNL     1     -10.686  15.740  67.834  1.00  0.00    -0.302 C  
HETATM    6  C   UNL     1     -10.164  14.507  65.706  1.00  0.00    -0.354 C  
HETATM    7  N   UNL     1      -9.661  16.668  67.731  1.00  0.00    -0.237 N  
HETATM    8  H   UNL     1      -8.781  16.333  67.341  1.00  0.00     0.000 HD 
HETATM    9  O   UNL     1     -11.763  15.996  68.373  1.00  0.00    -0.346 OA 
ENDROOT
BRANCH   6  10
HETATM   10  C   UNL     1     -11.351  15.093  64.990  1.00  0.00    -0.381 C  
HETATM   11  C   UNL     1     -12.202  14.379  64.245  1.00  0.00    -0.450 C  
ENDBRANCH   6  10
BRANCH   7  12
HETATM   12  C   UNL     1      -9.705  17.984  68.097  1.00  0.00    -0.322 C  
HETATM   13  N   UNL     1     -10.769  18.700  67.668  1.00  0.00    -0.417 N  
HETATM   14  O   UNL     1      -8.825  18.482  68.791  1.00  0.00    -0.312 OA 
HETATM   15  H1  UNL     1     -10.802  19.682  67.941  1.00  0.00     0.000 HD 
HETATM   16  H2  UNL     1     -11.503  18.278  67.098  1.00  0.00     0.000 HD 
ENDBRANCH   7  12
TORSDOF 2
ENDMDL
MODEL       36
REMARK 921   NORMALIZED FREE ENERGY PREDICTED BY IDOCK:   -4.05 KCAL/MOL
REMARK 922        TOTAL FREE ENERGY PREDICTED BY IDOCK:   -4.92 KCAL/MOL
REMARK 923 INTER-LIGAND FREE ENERGY PREDICTED BY IDOCK:   -4.54 KCAL/MOL
REMARK 924 INTRA-LIGAND FREE ENERGY PREDICTED BY IDOCK:   -0.39 KCAL/MOL
REMARK 927      BINDING AFFINITY PREDICTED BY RF-SCORE:    0.00 PKD
ROOT
HETATM    1  C   UNL     1     -10.965  13.680  68.382  1.00  0.00    -0.284 C  
HETATM    2  C   UNL     1     -10.650  14.683  67.264  1.00  0.00    -0.284 C  
HETATM    3  C   UNL     1     -11.583  14.365  66.083  1.00  0.00    -0.372 C  
HETATM    4  C   UNL     1     -10.781  16.170  67.723  1.00  0.00    -0.325 C  
HETATM    5  C   UNL     1     -10.349  17.133  66.603  1.00  0.00    -0.310 C  
HETATM    6  C   UNL     1      -9.997  16.512  69.013  1.00  0.00    -0.275 C  
HETATM    7  N   UNL     1     -10.672  18.461  66.830  1.00  0.00    -0.334 N  
HETATM    8  H   UNL     1     -11.219  18.660  67.667  1.00  0.00     0.000 HD 
HETATM    9  O   UNL     1      -9.773  16.754  65.582  1.00  0.00    -0.539 OA 
ENDROOT
BRANCH   6  10
HETATM   10  C   UNL     1      -8.501  16.454  68.856  1.00  0.00    -0.247 C  
HETATM   11  C   UNL     1      -7.725  15.525  69.427  1.00  0.00    -0.227 C  
ENDBRANCH   6  10
BRANCH   7  12
HETATM   12  C   UNL     1     -10.337  19.533  66.051  1.00  0.00    -0.511 C  
HETATM   13  N   UNL     1      -9.077  20.008  66.180  1.00  0.00    -0.531 N  
HETATM   14  O   UNL     1     -11.141  20.028  65.269  1.00  0.00    -0.301 OA 
HETATM   15  H1  UNL     1      -8.828  20.808  65.600  1.00  0.00     0.000 HD 
HETATM   16  H2  UNL     1      -8.410  19.587  66.827  1.00  0.00     0.000 HD 
ENDBRANCH   7  12
TORSDOF 2
ENDMDL
MODEL       37
REMARK 921   NORMALIZED FREE ENERGY PREDICTED BY IDOCK:   -4.02 KCAL/MOL
REMARK 922        TOTAL FREE ENERGY PREDICTED BY IDOCK:   -4.90 KCAL/MOL
REMARK 923 INTER-LIGAND FREE ENERGY PREDICTED BY IDOCK:   -4.51 KCAL/MOL
REMARK 924 INTRA-LIGAND FREE ENERGY PREDICTED BY IDOCK:   -0.39 KCAL/MOL
REMARK 927      BINDING AFFINITY PREDICTED BY RF-SCORE:    0.00 PKD
ROOT
HETATM    1  C   UNL     1     -13.454  13.041  72.236  1.00  0.00    -0.645 C  
HETATM    2  C   UNL     1     -12.917  12.476  70.915  1.00  0.00    -0.067 C  
HETATM    3  C   UNL     1     -12.135  13.602  70.216  1.00  0.00    -0.427 C  
HETATM    4  C   UNL     1     -12.043  11.197  71.107  1.00  0.00    -0.302 C  
HETATM    5  C   UNL     1     -11.622  10.606  69.750  1.00  0.00    -0.309 C  
HETATM    6  C   UNL     1     -12.712  10.087  71.955  1.00  0.00    -0.493 C  
HETATM    7  N   UNL     1     -10.642   9.628  69.827  1.00  0.00    -0.227 N  
HETATM    8  H   UNL     1     -10.250   9.448  70.751  1.00  0.00     0.000 HD 
HETATM    9  O   UNL     1     -12.106  10.979  68.681  1.00  0.00    -0.551 OA 
ENDROOT
BRANCH   6  10
HETATM   10  C   UNL     1     -13.906   9.449  71.297  1.00  0.00    -0.183 C  
HETATM   11  C   UNL     1     -14.312   8.197  71.539  1.00  0.00    -0.534 C  
ENDBRANCH   6  10
BRANCH   7  12
HETATM   12  C   UNL     1     -10.145   8.880  68.797  1.00  0.00    -0.200 C  
HETATM   13  N   UNL     1     -11.014   8.052  68.173  1.00  0.00    -0.441 N  
HETATM   14  O   UNL     1      -8.971   8.968  68.454  1.00  0.00    -0.133 OA 
HETATM   15  H1  UNL     1     -10.642   7.493  67.405  1.00  0.00     0.000 HD 
HETATM   16  H2  UNL     1     -11.991   7.989  68.458  1.00  0.00     0.000 HD 
ENDBRANCH   7  12
TORSDOF 2
ENDMDL
MODEL       38
REMARK 921   NORMALIZED FREE ENERGY PREDICTED BY IDOCK:   -4.02 KCAL/MOL
REMARK 922        TOTAL FREE ENERGY PREDICTED BY IDOCK:   -4.90 KCAL/MOL
REMARK 923 INTER-LIGAND FREE ENERGY PREDICTED BY IDOCK:   -4.49 KCAL/MOL
REMARK 924 INTRA-LIGAND FREE ENERGY PREDICTED BY IDOCK:   -0.41 KCAL/MOL
REMARK 927      BINDING AFFINITY PREDICTED BY RF-SCORE:    0.00 PKD
ROOT
HETATM    1  C   UNL     1      -7.015  19.497  67.302  1.00  0.00    -0.225 C  
HETATM    2  C   UNL     1      -7.740  18.148  67.394  1.00  0.00    -0.223 C  
HETATM    3  C   UNL     1      -6.670  17.064  67.613  1.00  0.00    -0.162 C  
HETATM    4  C   UNL     1      -8.834  18.116  68.508  1.00  0.00    -0.312 C  
HETATM    5  C   UNL     1      -9.606  16.785  68.486  1.00  0.00    -0.245 C  
HETATM    6  C   UNL     1      -9.845  19.287  68.444  1.00  0.00    -0.492 C  
HETATM    7  N   UNL     1     -10.413  16.570  69.592  1.00  0.00    -0.295 N  
HETATM    8  H   UNL     1     -10.364  17.268  70.334  1.00  0.00     0.000 HD 
HETATM    9  O   UNL     1      -9.505  15.970  67.568  1.00  0.00    -0.220 OA 
ENDROOT
BRANCH   6  10
HETATM   10  C   UNL     1     -10.747  19.253  67.239  1.00  0.00    -0.594 C  
HETATM   11  C   UNL     1     -10.521  19.946  66.117  1.00  0.00    -0.581 C  
ENDBRANCH   6  10
BRANCH   7  12
HETATM   12  C   UNL     1     -11.267  15.523  69.795  1.00  0.00    -0.304 C  
HETATM   13  N   UNL     1     -10.770  14.283  69.582  1.00  0.00    -0.447 N  
HETATM   14  O   UNL     1     -12.423  15.705  70.162  1.00  0.00    -0.389 OA 
HETATM   15  H1  UNL     1     -11.408  13.502  69.734  1.00  0.00     0.000 HD 
HETATM   16  H2  UNL     1      -9.805  14.136  69.285  1.00  0.00     0.000 HD 
ENDBRANCH   7  12
TORSDOF 2
ENDMDL
MODEL       39
REMARK 921   NORMALIZED FREE ENERGY PREDICTED BY IDOCK:   -4.02 KCAL/MOL
REMARK 922        TOTAL FREE ENERGY PREDICTED BY IDOCK:   -4.89 KCAL/MOL
REMARK 923 INTER-LIGAND FREE ENERGY PREDICTED BY IDOCK:   -4.53 KCAL/MOL
REMARK 924 INTRA-LIGAND FREE ENERGY PREDICTED BY IDOCK:   -0.36 KCAL/MOL
REMARK 927      BINDING AFFINITY PREDICTED BY RF-SCORE:    0.00 PKD
ROOT
HETATM    1  C   UNL     1     -11.559   8.124  72.700  1.00  0.00    -0.441 C  
HETATM    2  C   UNL     1     -10.806   8.875  71.594  1.00  0.00    -0.420 C  
HETATM    3  C   UNL     1      -9.745   7.917  71.027  1.00  0.00    -0.178 C  
HETATM    4  C   UNL     1     -11.749   9.423  70.477  1.00  0.00    -0.254 C  
HETATM    5  C   UNL     1     -10.963  10.261  69.453  1.00  0.00    -0.247 C  
HETATM    6  C   UNL     1     -12.944  10.257  71.001  1.00  0.00    -0.488 C  
HETATM    7  N   UNL     1     -11.668  10.569  68.299  1.00  0.00    -0.466 N  
HETATM    8  H   UNL     1     -12.596  10.159  68.210  1.00  0.00     0.000 HD 
HETATM    9  O   UNL     1      -9.799  10.619  69.636  1.00  0.00    -0.158 OA 
ENDROOT
BRANCH   6  10
HETATM   10  C   UNL     1     -12.549  11.568  71.627  1.00  0.00    -0.299 C  
HETATM   11  C   UNL     1     -13.424  12.495  72.034  1.00  0.00    -0.486 C  
ENDBRANCH   6  10
BRANCH   7  12
HETATM   12  C   UNL     1     -11.250  11.365  67.269  1.00  0.00    -0.304 C  
HETATM   13  N   UNL     1     -10.001  11.146  66.800  1.00  0.00    -0.203 N  
HETATM   14  O   UNL     1     -11.981  12.225  66.792  1.00  0.00    -0.586 OA 
HETATM   15  H1  UNL     1      -9.690  11.739  66.031  1.00  0.00     0.000 HD 
HETATM   16  H2  UNL     1      -9.399  10.422  67.195  1.00  0.00     0.000 HD 
ENDBRANCH   7  12
TORSDOF 2
ENDMDL
MODEL       40
REMARK 921   NORMALIZED FREE ENERGY PREDICTED BY IDOCK:   -3.99 KCAL/MOL
REMARK 922        TOTAL FREE ENERGY PREDICTED BY IDOCK:   -4.86 KCAL/MOL
REMARK 923 INTER-LIGAND FREE ENERGY PREDICTED BY IDOCK:   -4.46 KCAL/MOL
REMARK 924 INTRA-LIGAND FREE ENERGY PREDICTED BY IDOCK:   -0.41 KCAL/MOL
REMARK 927      BINDING AFFINITY PREDICTED BY RF-SCORE:    0.00 PKD
ROOT
HETATM    1  C   UNL     1     -12.319  12.131  63.635  1.00  0.00    -0.673 C  
HETATM    2  C   UNL     1     -11.149  11.753  64.552  1.00  0.00    -0.376 C  
HETATM    3  C   UNL     1     -10.150  10.937  63.712  1.00  0.00    -0.413 C  
HETATM    4  C   UNL     1     -10.470  12.990  65.219  1.00  0.00    -0.318 C  
HETATM    5  C   UNL     1      -9.378  12.554  66.212  1.00  0.00    -0.177 C  
HETATM    6  C   UNL     1     -11.452  13.948  65.938  1.00  0.00    -0.328 C  
HETATM    7  N   UNL     1      -8.558  13.580  66.653  1.00  0.00    -0.443 N  
HETATM    8  H   UNL     1      -8.708  14.496  66.231  1.00  0.00     0.000 HD 
HETATM    9  O   UNL     1      -9.236  11.385  66.576  1.00  0.00    -0.178 OA 
ENDROOT
BRANCH   6  10
HETATM   10  C   UNL     1     -12.099  13.357  67.161  1.00  0.00    -0.367 C  
HETATM   11  C   UNL     1     -12.018  13.896  68.383  1.00  0.00    -0.391 C  
ENDBRANCH   6  10
BRANCH   7  12
HETATM   12  C   UNL     1      -7.570  13.495  67.594  1.00  0.00    -0.177 C  
HETATM   13  N   UNL     1      -7.856  12.794  68.714  1.00  0.00    -0.312 N  
HETATM   14  O   UNL     1      -6.477  14.023  67.419  1.00  0.00    -0.304 OA 
HETATM   15  H1  UNL     1      -7.119  12.731  69.416  1.00  0.00     0.000 HD 
HETATM   16  H2  UNL     1      -8.764  12.350  68.851  1.00  0.00     0.000 HD 
ENDBRANCH   7  12
TORSDOF 2
ENDMDL
MODEL       41
REMARK 921   NORMALIZED FREE ENERGY PREDICTED BY IDOCK:   -3.99 KCAL/MOL
REMARK 922        TOTAL FREE ENERGY PREDICTED BY IDOCK:   -4.86 KCAL/MOL
REMARK 923 INTER-LIGAND FREE ENERGY PREDICTED BY IDOCK:   -4.39 KCAL/MOL
REMARK 924 INTRA-LIGAND FREE ENERGY PREDICTED BY IDOCK:   -0.47 KCAL/MOL
REMARK 927      BINDING AFFINITY PREDICTED BY RF-SCORE:    0.00 PKD
ROOT
HETATM    1  C   UNL     1     -12.178   8.343  72.352  1.00  0.00    -0.430 C  
HETATM    2  C   UNL     1     -12.320   9.379  71.230  1.00  0.00    -0.422 C  
HETATM    3  C   UNL     1     -13.152  10.548  71.784  1.00  0.00    -0.570 C  
HETATM    4  C   UNL     1     -10.946   9.861  70.666  1.00  0.00    -0.405 C  
HETATM    5  C   UNL     1     -11.142  10.812  69.472  1.00  0.00    -0.278 C  
HETATM    6  C   UNL     1      -9.990   8.717  70.249  1.00  0.00    -0.210 C  
HETATM    7  N   UNL     1      -9.996  11.483  69.076  1.00  0.00    -0.402 N  
HETATM    8  H   UNL     1      -9.164  11.340  69.649  1.00  0.00     0.000 HD 
HETATM    9  O   UNL     1     -12.231  10.974  68.919  1.00  0.00    -0.519 OA 
ENDROOT
BRANCH   6  10
HETATM   10  C   UNL     1     -10.460   7.929  69.056  1.00  0.00    -0.210 C  
HETATM   11  C   UNL     1     -10.901   6.667  69.121  1.00  0.00    -0.329 C  
ENDBRANCH   6  10
BRANCH   7  12
HETATM   12  C   UNL     1      -9.860  12.316  68.001  1.00  0.00    -0.204 C  
HETATM   13  N   UNL     1     -10.672  13.397  67.964  1.00  0.00    -0.242 N  
HETATM   14  O   UNL     1      -9.035  12.093  67.123  1.00  0.00    -0.176 OA 
HETATM   15  H1  UNL     1     -10.571  14.019  67.162  1.00  0.00     0.000 HD 
HETATM   16  H2  UNL     1     -11.351  13.582  68.702  1.00  0.00     0.000 HD 
ENDBRANCH   7  12
TORSDOF 2
ENDMDL
MODEL       42
REMARK 921   NORMALIZED FREE ENERGY PREDICTED BY IDOCK:   -3.98 KCAL/MOL
REMARK 922        TOTAL FREE ENERGY PREDICTED BY IDOCK:   -4.85 KCAL/MOL
REMARK 923 INTER-LIGAND FREE ENERGY PREDICTED BY IDOCK:   -4.57 KCAL/MOL
REMARK 924 INTRA-LIGAND FREE ENERGY PREDICTED BY IDOCK:   -0.28 KCAL/MOL
REMARK 927      BINDING AFFINITY PREDICTED BY RF-SCORE:    0.00 PKD
ROOT
HETATM    1  C   UNL     1      -8.555   6.645  68.873  1.00  0.00    -0.126 C  
HETATM    2  C   UNL     1      -9.113   7.664  69.875  1.00  0.00    -0.147 C  
HETATM    3  C   UNL     1      -8.574   9.048  69.474  1.00  0.00    -0.138 C  
HETATM    4  C   UNL     1     -10.672   7.650  69.957  1.00  0.00    -0.245 C  
HETATM    5  C   UNL     1     -11.177   8.606  71.052  1.00  0.00    -0.271 C  
HETATM    6  C   UNL     1     -11.287   6.247  70.188  1.00  0.00    -0.476 C  
HETATM    7  N   UNL     1     -12.541   8.847  71.021  1.00  0.00    -0.489 N  
HETATM    8  H   UNL     1     -13.060   8.433  70.247  1.00  0.00     0.000 HD 
HETATM    9  O   UNL     1     -10.428   9.126  71.881  1.00  0.00    -0.348 OA 
ENDROOT
BRANCH   6  10
HETATM   10  C   UNL     1     -10.984   5.661  71.541  1.00  0.00    -0.268 C  
HETATM   11  C   UNL     1     -10.151   4.632  71.739  1.00  0.00    -0.261 C  
ENDBRANCH   6  10
BRANCH   7  12
HETATM   12  C   UNL     1     -13.267   9.581  71.918  1.00  0.00    -0.439 C  
HETATM   13  N   UNL     1     -13.982   8.888  72.833  1.00  0.00    -0.890 N  
HETATM   14  O   UNL     1     -13.256  10.806  71.894  1.00  0.00    -0.469 OA 
HETATM   15  H1  UNL     1     -14.523   9.436  73.501  1.00  0.00     0.000 HD 
HETATM   16  H2  UNL     1     -13.980   7.868  72.853  1.00  0.00     0.000 HD 
ENDBRANCH   7  12
TORSDOF 2
ENDMDL
MODEL       43
REMARK 921   NORMALIZED FREE ENERGY PREDICTED BY IDOCK:   -3.96 KCAL/MOL
REMARK 922        TOTAL FREE ENERGY PREDICTED BY IDOCK:   -4.83 KCAL/MOL
REMARK 923 INTER-LIGAND FREE ENERGY PREDICTED BY IDOCK:   -4.37 KCAL/MOL
REMARK 924 INTRA-LIGAND FREE ENERGY PREDICTED BY IDOCK:   -0.45 KCAL/MOL
REMARK 927      BINDING AFFINITY PREDICTED BY RF-SCORE:    0.00 PKD
ROOT
HETATM    1  C   UNL     1      -8.119  18.694  67.499  1.00  0.00    -0.262 C  
HETATM    2  C   UNL     1      -9.339  17.807  67.782  1.00  0.00    -0.257 C  
HETATM    3  C   UNL     1     -10.561  18.733  67.913  1.00  0.00    -0.406 C  
HETATM    4  C   UNL     1      -9.559  16.707  66.697  1.00  0.00    -0.280 C  
HETATM    5  C   UNL     1     -10.723  15.777  67.081  1.00  0.00    -0.312 C  
HETATM    6  C   UNL     1      -8.306  15.848  66.394  1.00  0.00    -0.310 C  
HETATM    7  N   UNL     1     -11.150  14.938  66.064  1.00  0.00    -0.333 N  
HETATM    8  H   UNL     1     -10.708  15.064  65.154  1.00  0.00     0.000 HD 
HETATM    9  O   UNL     1     -11.244  15.785  68.198  1.00  0.00    -0.329 OA 
ENDROOT
BRANCH   6  10
HETATM   10  C   UNL     1      -7.881  14.962  67.534  1.00  0.00    -0.206 C  
HETATM   11  C   UNL     1      -6.669  15.003  68.100  1.00  0.00    -0.134 C  
ENDBRANCH   6  10
BRANCH   7  12
HETATM   12  C   UNL     1     -12.100  13.958  66.150  1.00  0.00    -0.448 C  
HETATM   13  N   UNL     1     -11.815  12.904  66.948  1.00  0.00    -0.385 N  
HETATM   14  O   UNL     1     -13.159  14.043  65.539  1.00  0.00    -0.713 OA 
HETATM   15  H1  UNL     1     -12.524  12.174  67.012  1.00  0.00     0.000 HD 
HETATM   16  H2  UNL     1     -10.935  12.843  67.461  1.00  0.00     0.000 HD 
ENDBRANCH   7  12
TORSDOF 2
ENDMDL
MODEL       44
REMARK 921   NORMALIZED FREE ENERGY PREDICTED BY IDOCK:   -3.94 KCAL/MOL
REMARK 922        TOTAL FREE ENERGY PREDICTED BY IDOCK:   -4.81 KCAL/MOL
REMARK 923 INTER-LIGAND FREE ENERGY PREDICTED BY IDOCK:   -4.55 KCAL/MOL
REMARK 924 INTRA-LIGAND FREE ENERGY PREDICTED BY IDOCK:   -0.25 KCAL/MOL
REMARK 927      BINDING AFFINITY PREDICTED BY RF-SCORE:    0.00 PKD
ROOT
HETATM    1  C   UNL     1      -8.832   5.143  74.036  1.00  0.00    -0.117 C  
HETATM    2  C   UNL     1     -10.019   5.494  73.130  1.00  0.00    -0.191 C  
HETATM    3  C   UNL     1     -11.116   4.444  73.381  1.00  0.00    -0.394 C  
HETATM    4  C   UNL     1     -10.547   6.947  73.349  1.00  0.00    -0.372 C  
HETATM    5  C   UNL     1     -11.661   7.288  72.344  1.00  0.00    -0.268 C  
HETATM    6  C   UNL     1      -9.453   8.041  73.280  1.00  0.00    -0.336 C  
HETATM    7  N   UNL     1     -12.356   8.453  72.629  1.00  0.00    -0.563 N  
HETATM    8  H   UNL     1     -12.115   8.925  73.499  1.00  0.00     0.000 HD 
HETATM    9  O   UNL     1     -11.923   6.578  71.372  1.00  0.00    -0.328 OA 
ENDROOT
BRANCH   6  10
HETATM   10  C   UNL     1      -8.852   8.221  71.912  1.00  0.00    -0.238 C  
HETATM   11  C   UNL     1      -9.224   9.178  71.053  1.00  0.00    -0.321 C  
ENDBRANCH   6  10
BRANCH   7  12
HETATM   12  C   UNL     1     -13.330   9.036  71.867  1.00  0.00    -0.417 C  
HETATM   13  N   UNL     1     -14.293   8.219  71.383  1.00  0.00    -0.625 N  
HETATM   14  O   UNL     1     -13.330  10.242  71.647  1.00  0.00    -0.384 OA 
HETATM   15  H1  UNL     1     -15.019   8.654  70.814  1.00  0.00     0.000 HD 
HETATM   16  H2  UNL     1     -14.293   7.217  71.576  1.00  0.00     0.000 HD 
ENDBRANCH   7  12
TORSDOF 2
ENDMDL
MODEL       45
REMARK 921   NORMALIZED FREE ENERGY PREDICTED BY IDOCK:   -3.92 KCAL/MOL
REMARK 922        TOTAL FREE ENERGY PREDICTED BY IDOCK:   -4.78 KCAL/MOL
REMARK 923 INTER-LIGAND FREE ENERGY PREDICTED BY IDOCK:   -4.42 KCAL/MOL
REMARK 924 INTRA-LIGAND FREE ENERGY PREDICTED BY IDOCK:   -0.36 KCAL/MOL
REMARK 927      BINDING AFFINITY PREDICTED BY RF-SCORE:    0.00 PKD
ROOT
HETATM    1  C   UNL     1      -9.208   4.061  72.030  1.00  0.00    -0.174 C  
HETATM    2  C   UNL     1     -10.533   4.799  72.262  1.00  0.00    -0.255 C  
HETATM    3  C   UNL     1     -10.908   4.617  73.744  1.00  0.00    -0.378 C  
HETATM    4  C   UNL     1     -10.471   6.307  71.861  1.00  0.00    -0.244 C  
HETATM    5  C   UNL     1     -11.850   6.974  72.007  1.00  0.00    -0.298 C  
HETATM    6  C   UNL     1      -9.933   6.566  70.432  1.00  0.00    -0.202 C  
HETATM    7  N   UNL     1     -11.831   8.357  71.919  1.00  0.00    -0.312 N  
HETATM    8  H   UNL     1     -10.915   8.797  71.839  1.00  0.00     0.000 HD 
HETATM    9  O   UNL     1     -12.884   6.334  72.199  1.00  0.00    -0.171 OA 
ENDROOT
BRANCH   6  10
HETATM   10  C   UNL     1     -10.842   6.077  69.337  1.00  0.00    -0.433 C  
HETATM   11  C   UNL     1     -10.524   6.097  68.037  1.00  0.00    -0.284 C  
ENDBRANCH   6  10
BRANCH   7  12
HETATM   12  C   UNL     1     -12.911   9.196  71.927  1.00  0.00    -0.404 C  
HETATM   13  N   UNL     1     -13.873   8.938  72.842  1.00  0.00    -0.915 N  
HETATM   14  O   UNL     1     -12.991  10.139  71.148  1.00  0.00    -0.353 OA 
HETATM   15  H1  UNL     1     -14.679   9.564  72.848  1.00  0.00     0.000 HD 
HETATM   16  H2  UNL     1     -13.798   8.157  73.494  1.00  0.00     0.000 HD 
ENDBRANCH   7  12
TORSDOF 2
ENDMDL
MODEL       46
REMARK 921   NORMALIZED FREE ENERGY PREDICTED BY IDOCK:   -3.92 KCAL/MOL
REMARK 922        TOTAL FREE ENERGY PREDICTED BY IDOCK:   -4.78 KCAL/MOL
REMARK 923 INTER-LIGAND FREE ENERGY PREDICTED BY IDOCK:   -4.35 KCAL/MOL
REMARK 924 INTRA-LIGAND FREE ENERGY PREDICTED BY IDOCK:   -0.43 KCAL/MOL
REMARK 927      BINDING AFFINITY PREDICTED BY RF-SCORE:    0.00 PKD
ROOT
HETATM    1  C   UNL     1     -12.087  14.739  64.432  1.00  0.00    -0.457 C  
HETATM    2  C   UNL     1     -12.165  13.528  65.369  1.00  0.00    -0.482 C  
HETATM    3  C   UNL     1     -12.490  12.296  64.505  1.00  0.00    -0.464 C  
HETATM    4  C   UNL     1     -10.865  13.319  66.208  1.00  0.00    -0.293 C  
HETATM    5  C   UNL     1     -11.032  12.163  67.210  1.00  0.00    -0.260 C  
HETATM    6  C   UNL     1     -10.386  14.580  66.969  1.00  0.00    -0.263 C  
HETATM    7  N   UNL     1      -9.855  11.746  67.810  1.00  0.00    -0.178 N  
HETATM    8  H   UNL     1      -8.996  12.188  67.484  1.00  0.00     0.000 HD 
HETATM    9  O   UNL     1     -12.122  11.641  67.450  1.00  0.00    -0.605 OA 
ENDROOT
BRANCH   6  10
HETATM   10  C   UNL     1     -11.306  15.012  68.079  1.00  0.00    -0.339 C  
HETATM   11  C   UNL     1     -10.912  15.207  69.343  1.00  0.00    -0.268 C  
ENDBRANCH   6  10
BRANCH   7  12
HETATM   12  C   UNL     1      -9.722  10.805  68.793  1.00  0.00    -0.192 C  
HETATM   13  N   UNL     1     -10.430  11.006  69.927  1.00  0.00    -0.421 N  
HETATM   14  O   UNL     1      -9.002   9.824  68.642  1.00  0.00    -0.125 OA 
HETATM   15  H1  UNL     1     -10.331  10.304  70.660  1.00  0.00     0.000 HD 
HETATM   16  H2  UNL     1     -11.035  11.820  70.044  1.00  0.00     0.000 HD 
ENDBRANCH   7  12
TORSDOF 2
ENDMDL
MODEL       47
REMARK 921   NORMALIZED FREE ENERGY PREDICTED BY IDOCK:   -3.91 KCAL/MOL
REMARK 922        TOTAL FREE ENERGY PREDICTED BY IDOCK:   -4.77 KCAL/MOL
REMARK 923 INTER-LIGAND FREE ENERGY PREDICTED BY IDOCK:   -4.44 KCAL/MOL
REMARK 924 INTRA-LIGAND FREE ENERGY PREDICTED BY IDOCK:   -0.33 KCAL/MOL
REMARK 927      BINDING AFFINITY PREDICTED BY RF-SCORE:    0.00 PKD
ROOT
HETATM    1  C   UNL     1     -11.349  12.614  63.791  1.00  0.00    -0.529 C  
HETATM    2  C   UNL     1     -11.451  13.049  65.259  1.00  0.00    -0.340 C  
HETATM    3  C   UNL     1     -12.704  13.931  65.392  1.00  0.00    -0.525 C  
HETATM    4  C   UNL     1     -11.481  11.845  66.253  1.00  0.00    -0.367 C  
HETATM    5  C   UNL     1     -11.471  12.333  67.712  1.00  0.00    -0.329 C  
HETATM    6  C   UNL     1     -10.334  10.824  66.054  1.00  0.00    -0.300 C  
HETATM    7  N   UNL     1     -11.753  11.352  68.649  1.00  0.00    -0.320 N  
HETATM    8  H   UNL     1     -12.005  10.434  68.285  1.00  0.00     0.000 HD 
HETATM    9  O   UNL     1     -11.244  13.504  68.023  1.00  0.00    -0.250 OA 
ENDROOT
BRANCH   6  10
HETATM   10  C   UNL     1      -8.969  11.362  66.391  1.00  0.00    -0.196 C  
HETATM   11  C   UNL     1      -8.162  10.826  67.315  1.00  0.00    -0.121 C  
ENDBRANCH   6  10
BRANCH   7  12
HETATM   12  C   UNL     1     -11.728  11.483  70.009  1.00  0.00    -0.332 C  
HETATM   13  N   UNL     1     -12.144  12.667  70.514  1.00  0.00    -0.500 N  
HETATM   14  O   UNL     1     -11.356  10.564  70.731  1.00  0.00    -0.327 OA 
HETATM   15  H1  UNL     1     -12.125  12.764  71.528  1.00  0.00     0.000 HD 
HETATM   16  H2  UNL     1     -12.461  13.425  69.909  1.00  0.00     0.000 HD 
ENDBRANCH   7  12
TORSDOF 2
ENDMDL
MODEL       48
REMARK 921   NORMALIZED FREE ENERGY PREDICTED BY IDOCK:   -3.89 KCAL/MOL
REMARK 922        TOTAL FREE ENERGY PREDICTED BY IDOCK:   -4.75 KCAL/MOL
REMARK 923 INTER-LIGAND FREE ENERGY PREDICTED BY IDOCK:   -4.40 KCAL/MOL
REMARK 924 INTRA-LIGAND FREE ENERGY PREDICTED BY IDOCK:   -0.35 KCAL/MOL
REMARK 927      BINDING AFFINITY PREDICTED BY RF-SCORE:    0.00 PKD
ROOT
HETATM    1  C   UNL     1     -10.766  11.818  65.778  1.00  0.00    -0.328 C  
HETATM    2  C   UNL     1     -11.106  12.144  67.239  1.00  0.00    -0.341 C  
HETATM    3  C   UNL     1     -12.106  13.313  67.229  1.00  0.00    -0.341 C  
HETATM    4  C   UNL     1     -11.658  10.914  68.027  1.00  0.00    -0.295 C  
HETATM    5  C   UNL     1     -11.878  11.262  69.510  1.00  0.00    -0.357 C  
HETATM    6  C   UNL     1     -10.776   9.645  67.931  1.00  0.00    -0.302 C  
HETATM    7  N   UNL     1     -12.600  10.317  70.221  1.00  0.00    -0.525 N  
HETATM    8  H   UNL     1     -12.972   9.532  69.688  1.00  0.00     0.000 HD 
HETATM    9  O   UNL     1     -11.458  12.301  70.021  1.00  0.00    -0.198 OA 
ENDROOT
BRANCH   6  10
HETATM   10  C   UNL     1      -9.442   9.773  68.616  1.00  0.00    -0.151 C  
HETATM   11  C   UNL     1      -9.102   9.098  69.721  1.00  0.00    -0.173 C  
ENDBRANCH   6  10
BRANCH   7  12
HETATM   12  C   UNL     1     -12.868  10.326  71.562  1.00  0.00    -0.452 C  
HETATM   13  N   UNL     1     -13.257  11.506  72.096  1.00  0.00    -0.559 N  
HETATM   14  O   UNL     1     -12.769   9.308  72.238  1.00  0.00    -0.382 OA 
HETATM   15  H1  UNL     1     -13.457  11.512  73.096  1.00  0.00     0.000 HD 
HETATM   16  H2  UNL     1     -13.346  12.348  71.527  1.00  0.00     0.000 HD 
ENDBRANCH   7  12
TORSDOF 2
ENDMDL
MODEL       49
REMARK 921   NORMALIZED FREE ENERGY PREDICTED BY IDOCK:   -3.89 KCAL/MOL
REMARK 922        TOTAL FREE ENERGY PREDICTED BY IDOCK:   -4.74 KCAL/MOL
REMARK 923 INTER-LIGAND FREE ENERGY PREDICTED BY IDOCK:   -4.33 KCAL/MOL
REMARK 924 INTRA-LIGAND FREE ENERGY PREDICTED BY IDOCK:   -0.42 KCAL/MOL
REMARK 927      BINDING AFFINITY PREDICTED BY RF-SCORE:    0.00 PKD
ROOT
HETATM    1  C   UNL     1     -10.302   9.366  69.371  1.00  0.00    -0.222 C  
HETATM    2  C   UNL     1     -10.209   9.713  67.879  1.00  0.00    -0.242 C  
HETATM    3  C   UNL     1     -10.503   8.427  67.088  1.00  0.00    -0.380 C  
HETATM    4  C   UNL     1     -11.160  10.880  67.463  1.00  0.00    -0.375 C  
HETATM    5  C   UNL     1     -10.950  11.264  65.987  1.00  0.00    -0.174 C  
HETATM    6  C   UNL     1     -11.033  12.151  68.338  1.00  0.00    -0.271 C  
HETATM    7  N   UNL     1     -11.920  12.106  65.468  1.00  0.00    -0.315 N  
HETATM    8  H   UNL     1     -12.704  12.329  66.080  1.00  0.00     0.000 HD 
HETATM    9  O   UNL     1     -10.004  10.846  65.317  1.00  0.00    -0.239 OA 
ENDROOT
BRANCH   6  10
HETATM   10  C   UNL     1      -9.718  12.867  68.192  1.00  0.00    -0.227 C  
HETATM   11  C   UNL     1      -9.603  14.185  67.992  1.00  0.00    -0.218 C  
ENDBRANCH   6  10
BRANCH   7  12
HETATM   12  C   UNL     1     -11.938  12.670  64.223  1.00  0.00    -0.408 C  
HETATM   13  N   UNL     1     -10.941  13.536  63.934  1.00  0.00    -0.524 N  
HETATM   14  O   UNL     1     -12.813  12.391  63.410  1.00  0.00    -0.732 OA 
HETATM   15  H1  UNL     1     -10.955  13.957  63.005  1.00  0.00     0.000 HD 
HETATM   16  H2  UNL     1     -10.211  13.758  64.611  1.00  0.00     0.000 HD 
ENDBRANCH   7  12
TORSDOF 2
ENDMDL
MODEL       50
REMARK 921   NORMALIZED FREE ENERGY PREDICTED BY IDOCK:   -3.87 KCAL/MOL
REMARK 922        TOTAL FREE ENERGY PREDICTED BY IDOCK:   -4.73 KCAL/MOL
REMARK 923 INTER-LIGAND FREE ENERGY PREDICTED BY IDOCK:   -4.66 KCAL/MOL
REMARK 924 INTRA-LIGAND FREE ENERGY PREDICTED BY IDOCK:   -0.07 KCAL/MOL
REMARK 927      BINDING AFFINITY PREDICTED BY RF-SCORE:    0.00 PKD
ROOT
HETATM    1  C   UNL     1      -6.672  14.548  67.978  1.00  0.00    -0.153 C  
HETATM    2  C   UNL     1      -7.825  15.384  67.408  1.00  0.00    -0.215 C  
HETATM    3  C   UNL     1      -7.218  16.676  66.833  1.00  0.00    -0.261 C  
HETATM    4  C   UNL     1      -8.669  14.616  66.343  1.00  0.00    -0.008 C  
HETATM    5  C   UNL     1      -9.876  15.453  65.885  1.00  0.00    -0.356 C  
HETATM    6  C   UNL     1      -9.166  13.224  66.804  1.00  0.00    -0.237 C  
HETATM    7  N   UNL     1     -10.527  14.960  64.765  1.00  0.00    -0.544 N  
HETATM    8  H   UNL     1     -10.109  14.145  64.318  1.00  0.00     0.000 HD 
HETATM    9  O   UNL     1     -10.228  16.485  66.458  1.00  0.00    -0.281 OA 
ENDROOT
BRANCH   6  10
HETATM   10  C   UNL     1     -10.187  13.273  67.909  1.00  0.00    -0.233 C  
HETATM   11  C   UNL     1     -11.422  12.766  67.809  1.00  0.00    -0.376 C  
ENDBRANCH   6  10
BRANCH   7  12
HETATM   12  C   UNL     1     -11.670  15.450  64.197  1.00  0.00    -0.100 C  
HETATM   13  N   UNL     1     -12.680  14.570  64.008  1.00  0.00    -0.741 N  
HETATM   14  O   UNL     1     -11.771  16.631  63.886  1.00  0.00    -1.153 OA 
HETATM   15  H1  UNL     1     -13.532  14.936  63.583  1.00  0.00     0.000 HD 
HETATM   16  H2  UNL     1     -12.593  13.590  64.275  1.00  0.00     0.000 HD 
ENDBRANCH   7  12
TORSDOF 2
ENDMDL
MODEL       51
REMARK 921   NORMALIZED FREE ENERGY PREDICTED BY IDOCK:   -3.85 KCAL/MOL
REMARK 922        TOTAL FREE ENERGY PREDICTED BY IDOCK:   -4.71 KCAL/MOL
REMARK 923 INTER-LIGAND FREE ENERGY PREDICTED BY IDOCK:   -4.32 KCAL/MOL
REMARK 924 INTRA-LIGAND FREE ENERGY PREDICTED BY IDOCK:   -0.39 KCAL/MOL
REMARK 927      BINDING AFFINITY PREDICTED BY RF-SCORE:    0.00 PKD
ROOT
HETATM    1  C   UNL     1     -12.286  11.703  70.279  1.00  0.00    -0.401 C  
HETATM    2  C   UNL     1     -11.216  12.443  69.466  1.00  0.00    -0.171 C  
HETATM    3  C   UNL     1     -10.740  11.489  68.356  1.00  0.00    -0.241 C  
HETATM    4  C   UNL     1     -11.721  13.802  68.886  1.00  0.00    -0.374 C  
HETATM    5  C   UNL     1     -10.583  14.556  68.175  1.00  0.00    -0.238 C  
HETATM    6  C   UNL     1     -12.372  14.740  69.932  1.00  0.00    -0.328 C  
HETATM    7  N   UNL     1     -10.997  15.639  67.417  1.00  0.00    -0.312 N  
HETATM    8  H   UNL     1     -12.003  15.788  67.346  1.00  0.00     0.000 HD 
HETATM    9  O   UNL     1      -9.402  14.216  68.261  1.00  0.00    -0.193 OA 
ENDROOT
BRANCH   6  10
HETATM   10  C   UNL     1     -11.410  15.275  70.958  1.00  0.00    -0.393 C  
HETATM   11  C   UNL     1     -11.784  15.937  72.060  1.00  0.00    -0.588 C  
ENDBRANCH   6  10
BRANCH   7  12
HETATM   12  C   UNL     1     -10.200  16.531  66.754  1.00  0.00    -0.295 C  
HETATM   13  N   UNL     1      -9.383  17.297  67.512  1.00  0.00    -0.234 N  
HETATM   14  O   UNL     1     -10.222  16.618  65.531  1.00  0.00    -0.550 OA 
HETATM   15  H1  UNL     1      -8.789  17.961  67.017  1.00  0.00     0.000 HD 
HETATM   16  H2  UNL     1      -9.362  17.214  68.528  1.00  0.00     0.000 HD 
ENDBRANCH   7  12
TORSDOF 2
ENDMDL
MODEL       52
REMARK 921   NORMALIZED FREE ENERGY PREDICTED BY IDOCK:   -3.81 KCAL/MOL
REMARK 922        TOTAL FREE ENERGY PREDICTED BY IDOCK:   -4.66 KCAL/MOL
REMARK 923 INTER-LIGAND FREE ENERGY PREDICTED BY IDOCK:   -4.23 KCAL/MOL
REMARK 924 INTRA-LIGAND FREE ENERGY PREDICTED BY IDOCK:   -0.43 KCAL/MOL
REMARK 927      BINDING AFFINITY PREDICTED BY RF-SCORE:    0.00 PKD
ROOT
HETATM    1  C   UNL     1     -13.909  14.522  71.224  1.00  0.00    -0.381 C  
HETATM    2  C   UNL     1     -12.699  15.396  70.870  1.00  0.00    -0.520 C  
HETATM    3  C   UNL     1     -12.313  16.183  72.135  1.00  0.00    -0.503 C  
HETATM    4  C   UNL     1     -11.496  14.576  70.307  1.00  0.00    -0.281 C  
HETATM    5  C   UNL     1     -10.352  15.506  69.864  1.00  0.00    -0.312 C  
HETATM    6  C   UNL     1     -11.859  13.630  69.136  1.00  0.00    -0.394 C  
HETATM    7  N   UNL     1      -9.157  14.860  69.594  1.00  0.00    -0.447 N  
HETATM    8  H   UNL     1      -9.129  13.858  69.779  1.00  0.00     0.000 HD 
HETATM    9  O   UNL     1     -10.484  16.727  69.769  1.00  0.00    -0.250 OA 
ENDROOT
BRANCH   6  10
HETATM   10  C   UNL     1     -12.258  14.343  67.873  1.00  0.00    -0.178 C  
HETATM   11  C   UNL     1     -11.735  14.080  66.669  1.00  0.00    -0.420 C  
ENDBRANCH   6  10
BRANCH   7  12
HETATM   12  C   UNL     1      -8.011  15.422  69.104  1.00  0.00    -0.222 C  
HETATM   13  N   UNL     1      -8.103  16.045  67.907  1.00  0.00    -0.140 N  
HETATM   14  O   UNL     1      -6.958  15.369  69.730  1.00  0.00    -0.183 OA 
HETATM   15  H1  UNL     1      -7.247  16.464  67.542  1.00  0.00     0.000 HD 
HETATM   16  H2  UNL     1      -8.983  16.093  67.395  1.00  0.00     0.000 HD 
ENDBRANCH   7  12
TORSDOF 2
ENDMDL
MODEL       53
REMARK 921   NORMALIZED FREE ENERGY PREDICTED BY IDOCK:   -3.81 KCAL/MOL
REMARK 922        TOTAL FREE ENERGY PREDICTED BY IDOCK:   -4.66 KCAL/MOL
REMARK 923 INTER-LIGAND FREE ENERGY PREDICTED BY IDOCK:   -4.28 KCAL/MOL
REMARK 924 INTRA-LIGAND FREE ENERGY PREDICTED BY IDOCK:   -0.37 KCAL/MOL
REMARK 927      BINDING AFFINITY PREDICTED BY RF-SCORE:    0.00 PKD
ROOT
HETATM    1  C   UNL     1     -10.537   9.983  67.153  1.00  0.00    -0.296 C  
HETATM    2  C   UNL     1      -9.951  11.348  66.770  1.00  0.00    -0.238 C  
HETATM    3  C   UNL     1      -9.130  11.152  65.483  1.00  0.00    -0.211 C  
HETATM    4  C   UNL     1     -11.040  12.455  66.599  1.00  0.00    -0.336 C  
HETATM    5  C   UNL     1     -10.397  13.825  66.325  1.00  0.00    -0.294 C  
HETATM    6  C   UNL     1     -12.012  12.584  67.797  1.00  0.00    -0.286 C  
HETATM    7  N   UNL     1     -11.285  14.805  65.910  1.00  0.00    -0.339 N  
HETATM    8  H   UNL     1     -12.250  14.511  65.760  1.00  0.00     0.000 HD 
HETATM    9  O   UNL     1      -9.189  14.033  66.450  1.00  0.00    -0.246 OA 
ENDROOT
BRANCH   6  10
HETATM   10  C   UNL     1     -11.367  13.093  69.058  1.00  0.00    -0.332 C  
HETATM   11  C   UNL     1     -12.049  13.503  70.134  1.00  0.00    -0.425 C  
ENDBRANCH   6  10
BRANCH   7  12
HETATM   12  C   UNL     1     -11.006  16.123  65.680  1.00  0.00    -0.140 C  
HETATM   13  N   UNL     1     -10.633  16.861  66.751  1.00  0.00    -0.253 N  
HETATM   14  O   UNL     1     -11.082  16.604  64.555  1.00  0.00    -0.886 OA 
HETATM   15  H1  UNL     1     -10.426  17.845  66.579  1.00  0.00     0.000 HD 
HETATM   16  H2  UNL     1     -10.564  16.454  67.684  1.00  0.00     0.000 HD 
ENDBRANCH   7  12
TORSDOF 2
ENDMDL
MODEL       54
REMARK 921   NORMALIZED FREE ENERGY PREDICTED BY IDOCK:   -3.79 KCAL/MOL
REMARK 922        TOTAL FREE ENERGY PREDICTED BY IDOCK:   -4.64 KCAL/MOL
REMARK 923 INTER-LIGAND FREE ENERGY PREDICTED BY IDOCK:   -4.20 KCAL/MOL
REMARK 924 INTRA-LIGAND FREE ENERGY PREDICTED BY IDOCK:   -0.44 KCAL/MOL
REMARK 927      BINDING AFFINITY PREDICTED BY RF-SCORE:    0.00 PKD
ROOT
HETATM    1  C   UNL     1     -13.146  11.003  71.760  1.00  0.00    -0.554 C  
HETATM    2  C   UNL     1     -12.241  10.317  70.729  1.00  0.00    -0.447 C  
HETATM    3  C   UNL     1     -11.550  11.425  69.913  1.00  0.00    -0.402 C  
HETATM    4  C   UNL     1     -11.207   9.342  71.375  1.00  0.00    -0.452 C  
HETATM    5  C   UNL     1     -10.401   8.598  70.296  1.00  0.00    -0.198 C  
HETATM    6  C   UNL     1     -11.826   8.307  72.346  1.00  0.00    -0.461 C  
HETATM    7  N   UNL     1      -9.297   7.910  70.774  1.00  0.00    -0.157 N  
HETATM    8  H   UNL     1      -9.087   8.020  71.766  1.00  0.00     0.000 HD 
HETATM    9  O   UNL     1     -10.703   8.621  69.102  1.00  0.00    -0.206 OA 
ENDROOT
BRANCH   6  10
HETATM   10  C   UNL     1     -12.710   7.290  71.677  1.00  0.00    -0.410 C  
HETATM   11  C   UNL     1     -14.046   7.362  71.651  1.00  0.00    -0.552 C  
ENDBRANCH   6  10
BRANCH   7  12
HETATM   12  C   UNL     1      -8.459   7.101  70.059  1.00  0.00    -0.140 C  
HETATM   13  N   UNL     1      -7.846   7.655  68.988  1.00  0.00    -0.117 N  
HETATM   14  O   UNL     1      -8.269   5.934  70.385  1.00  0.00    -0.108 OA 
HETATM   15  H1  UNL     1      -7.222   7.050  68.455  1.00  0.00     0.000 HD 
HETATM   16  H2  UNL     1      -8.002   8.628  68.727  1.00  0.00     0.000 HD 
ENDBRANCH   7  12
TORSDOF 2
ENDMDL
MODEL       55
REMARK 921   NORMALIZED FREE ENERGY PREDICTED BY IDOCK:   -3.79 KCAL/MOL
REMARK 922        TOTAL FREE ENERGY PREDICTED BY IDOCK:   -4.64 KCAL/MOL
REMARK 923 INTER-LIGAND FREE ENERGY PREDICTED BY IDOCK:   -4.23 KCAL/MOL
REMARK 924 INTRA-LIGAND FREE ENERGY PREDICTED BY IDOCK:   -0.41 KCAL/MOL
REMARK 927      BINDING AFFINITY PREDICTED BY RF-SCORE:    0.00 PKD
ROOT
HETATM    1  C   UNL     1      -7.296   8.060  72.684  1.00  0.00    -0.130 C  
HETATM    2  C   UNL     1      -8.733   7.539  72.816  1.00  0.00    -0.174 C  
HETATM    3  C   UNL     1      -8.962   7.188  74.297  1.00  0.00    -0.250 C  
HETATM    4  C   UNL     1      -9.801   8.549  72.289  1.00  0.00    -0.383 C  
HETATM    5  C   UNL     1     -11.212   7.939  72.340  1.00  0.00    -0.350 C  
HETATM    6  C   UNL     1      -9.530   9.076  70.858  1.00  0.00    -0.331 C  
HETATM    7  N   UNL     1     -12.239   8.846  72.134  1.00  0.00    -0.369 N  
HETATM    8  H   UNL     1     -11.970   9.825  72.042  1.00  0.00     0.000 HD 
HETATM    9  O   UNL     1     -11.415   6.744  72.559  1.00  0.00    -0.267 OA 
ENDROOT
BRANCH   6  10
HETATM   10  C   UNL     1      -9.659   8.028  69.785  1.00  0.00    -0.171 C  
HETATM   11  C   UNL     1     -10.320   8.214  68.636  1.00  0.00    -0.224 C  
ENDBRANCH   6  10
BRANCH   7  12
HETATM   12  C   UNL     1     -13.575   8.569  72.042  1.00  0.00    -0.392 C  
HETATM   13  N   UNL     1     -13.929   7.549  71.228  1.00  0.00    -0.625 N  
HETATM   14  O   UNL     1     -14.404   9.211  72.677  1.00  0.00    -0.561 OA 
HETATM   15  H1  UNL     1     -14.925   7.343  71.159  1.00  0.00     0.000 HD 
HETATM   16  H2  UNL     1     -13.234   7.013  70.708  1.00  0.00     0.000 HD 
ENDBRANCH   7  12
TORSDOF 2
ENDMDL
MODEL       56
REMARK 921   NORMALIZED FREE ENERGY PREDICTED BY IDOCK:   -3.79 KCAL/MOL
REMARK 922        TOTAL FREE ENERGY PREDICTED BY IDOCK:   -4.64 KCAL/MOL
REMARK 923 INTER-LIGAND FREE ENERGY PREDICTED BY IDOCK:   -4.18 KCAL/MOL
REMARK 924 INTRA-LIGAND FREE ENERGY PREDICTED BY IDOCK:   -0.45 KCAL/MOL
REMARK 927      BINDING AFFINITY PREDICTED BY RF-SCORE:    0.00 PKD
ROOT
HETATM    1  C   UNL     1      -9.450   4.021  71.204  1.00  0.00    -0.230 C  
HETATM    2  C   UNL     1     -10.083   5.388  70.919  1.00  0.00    -0.286 C  
HETATM    3  C   UNL     1     -10.353   5.465  69.406  1.00  0.00    -0.339 C  
HETATM    4  C   UNL     1     -11.378   5.648  71.752  1.00  0.00    -0.181 C  
HETATM    5  C   UNL     1     -11.912   7.071  71.515  1.00  0.00    -0.334 C  
HETATM    6  C   UNL     1     -11.215   5.417  73.275  1.00  0.00    -0.322 C  
HETATM    7  N   UNL     1     -13.187   7.298  72.010  1.00  0.00    -0.535 N  
HETATM    8  H   UNL     1     -13.668   6.494  72.413  1.00  0.00     0.000 HD 
HETATM    9  O   UNL     1     -11.266   7.936  70.922  1.00  0.00    -0.262 OA 
ENDROOT
BRANCH   6  10
HETATM   10  C   UNL     1     -10.308   6.409  73.951  1.00  0.00    -0.338 C  
HETATM   11  C   UNL     1      -9.081   6.116  74.398  1.00  0.00    -0.155 C  
ENDBRANCH   6  10
BRANCH   7  12
HETATM   12  C   UNL     1     -13.868   8.483  72.016  1.00  0.00    -0.419 C  
HETATM   13  N   UNL     1     -14.291   8.947  70.818  1.00  0.00    -0.371 N  
HETATM   14  O   UNL     1     -14.090   9.085  73.061  1.00  0.00    -0.414 OA 
HETATM   15  H1  UNL     1     -14.798   9.831  70.823  1.00  0.00     0.000 HD 
HETATM   16  H2  UNL     1     -14.110   8.438  69.953  1.00  0.00     0.000 HD 
ENDBRANCH   7  12
TORSDOF 2
ENDMDL
MODEL       57
REMARK 921   NORMALIZED FREE ENERGY PREDICTED BY IDOCK:   -3.79 KCAL/MOL
REMARK 922        TOTAL FREE ENERGY PREDICTED BY IDOCK:   -4.64 KCAL/MOL
REMARK 923 INTER-LIGAND FREE ENERGY PREDICTED BY IDOCK:   -4.42 KCAL/MOL
REMARK 924 INTRA-LIGAND FREE ENERGY PREDICTED BY IDOCK:   -0.21 KCAL/MOL
REMARK 927      BINDING AFFINITY PREDICTED BY RF-SCORE:    0.00 PKD
ROOT
HETATM    1  C   UNL     1     -12.858  13.811  65.640  1.00  0.00    -0.456 C  
HETATM    2  C   UNL     1     -12.025  12.685  65.014  1.00  0.00    -0.467 C  
HETATM    3  C   UNL     1     -11.968  12.943  63.498  1.00  0.00    -0.629 C  
HETATM    4  C   UNL     1     -10.598  12.563  65.635  1.00  0.00    -0.298 C  
HETATM    5  C   UNL     1      -9.844  11.354  65.053  1.00  0.00    -0.261 C  
HETATM    6  C   UNL     1     -10.579  12.473  67.180  1.00  0.00    -0.247 C  
HETATM    7  N   UNL     1      -8.492  11.319  65.354  1.00  0.00    -0.385 N  
HETATM    8  H   UNL     1      -8.118  12.120  65.862  1.00  0.00     0.000 HD 
HETATM    9  O   UNL     1     -10.394  10.493  64.365  1.00  0.00    -0.341 OA 
ENDROOT
BRANCH   6  10
HETATM   10  C   UNL     1     -11.175  11.204  67.728  1.00  0.00    -0.359 C  
HETATM   11  C   UNL     1     -11.779  11.115  68.919  1.00  0.00    -0.406 C  
ENDBRANCH   6  10
BRANCH   7  12
HETATM   12  C   UNL     1      -7.606  10.326  65.043  1.00  0.00    -0.124 C  
HETATM   13  N   UNL     1      -6.638  10.633  64.149  1.00  0.00    -0.358 N  
HETATM   14  O   UNL     1      -7.684   9.218  65.561  1.00  0.00    -0.093 OA 
HETATM   15  H1  UNL     1      -5.977   9.892  63.917  1.00  0.00     0.000 HD 
HETATM   16  H2  UNL     1      -6.573  11.560  63.728  1.00  0.00     0.000 HD 
ENDBRANCH   7  12
TORSDOF 2
ENDMDL
MODEL       58
REMARK 921   NORMALIZED FREE ENERGY PREDICTED BY IDOCK:   -3.79 KCAL/MOL
REMARK 922        TOTAL FREE ENERGY PREDICTED BY IDOCK:   -4.64 KCAL/MOL
REMARK 923 INTER-LIGAND FREE ENERGY PREDICTED BY IDOCK:   -4.18 KCAL/MOL
REMARK 924 INTRA-LIGAND FREE ENERGY PREDICTED BY IDOCK:   -0.45 KCAL/MOL
REMARK 927      BINDING AFFINITY PREDICTED BY RF-SCORE:    0.00 PKD
ROOT
HETATM    1  C   UNL     1     -10.585   7.182  73.617  1.00  0.00    -0.375 C  
HETATM    2  C   UNL     1     -10.207   8.137  72.477  1.00  0.00    -0.383 C  
HETATM    3  C   UNL     1      -8.671   8.231  72.446  1.00  0.00    -0.279 C  
HETATM    4  C   UNL     1     -10.789   7.700  71.096  1.00  0.00    -0.251 C  
HETATM    5  C   UNL     1     -10.476   8.745  70.010  1.00  0.00    -0.212 C  
HETATM    6  C   UNL     1     -12.312   7.421  71.104  1.00  0.00    -0.349 C  
HETATM    7  N   UNL     1     -10.730   8.321  68.715  1.00  0.00    -0.407 N  
HETATM    8  H   UNL     1     -11.026   7.352  68.602  1.00  0.00     0.000 HD 
HETATM    9  O   UNL     1     -10.025   9.862  70.268  1.00  0.00    -0.254 OA 
ENDROOT
BRANCH   6  10
HETATM   10  C   UNL     1     -13.158   8.645  71.331  1.00  0.00    -0.277 C  
HETATM   11  C   UNL     1     -13.783   8.918  72.483  1.00  0.00    -0.474 C  
ENDBRANCH   6  10
BRANCH   7  12
HETATM   12  C   UNL     1     -10.626   9.065  67.572  1.00  0.00    -0.237 C  
HETATM   13  N   UNL     1     -11.168  10.303  67.601  1.00  0.00    -0.410 N  
HETATM   14  O   UNL     1     -10.058   8.627  66.577  1.00  0.00    -0.273 OA 
HETATM   15  H1  UNL     1     -11.090  10.857  66.748  1.00  0.00     0.000 HD 
HETATM   16  H2  UNL     1     -11.632  10.665  68.434  1.00  0.00     0.000 HD 
ENDBRANCH   7  12
TORSDOF 2
ENDMDL
MODEL       59
REMARK 921   NORMALIZED FREE ENERGY PREDICTED BY IDOCK:   -3.77 KCAL/MOL
REMARK 922        TOTAL FREE ENERGY PREDICTED BY IDOCK:   -4.62 KCAL/MOL
REMARK 923 INTER-LIGAND FREE ENERGY PREDICTED BY IDOCK:   -4.26 KCAL/MOL
REMARK 924 INTRA-LIGAND FREE ENERGY PREDICTED BY IDOCK:   -0.36 KCAL/MOL
REMARK 927      BINDING AFFINITY PREDICTED BY RF-SCORE:    0.00 PKD
ROOT
HETATM    1  C   UNL     1      -9.917  15.306  69.778  1.00  0.00    -0.210 C  
HETATM    2  C   UNL     1     -10.803  14.607  68.739  1.00  0.00    -0.261 C  
HETATM    3  C   UNL     1     -12.160  15.332  68.728  1.00  0.00    -0.195 C  
HETATM    4  C   UNL     1     -10.159  14.563  67.317  1.00  0.00    -0.247 C  
HETATM    5  C   UNL     1     -11.032  13.757  66.339  1.00  0.00    -0.298 C  
HETATM    6  C   UNL     1      -8.716  14.000  67.286  1.00  0.00    -0.227 C  
HETATM    7  N   UNL     1     -10.670  13.881  65.008  1.00  0.00    -0.362 N  
HETATM    8  H   UNL     1      -9.918  14.537  64.799  1.00  0.00     0.000 HD 
HETATM    9  O   UNL     1     -11.985  13.068  66.708  1.00  0.00    -0.391 OA 
ENDROOT
BRANCH   6  10
HETATM   10  C   UNL     1      -8.623  12.536  67.624  1.00  0.00    -0.178 C  
HETATM   11  C   UNL     1      -8.283  11.586  66.744  1.00  0.00    -0.164 C  
ENDBRANCH   6  10
BRANCH   7  12
HETATM   12  C   UNL     1     -11.212  13.216  63.943  1.00  0.00    -0.336 C  
HETATM   13  N   UNL     1     -12.438  13.618  63.536  1.00  0.00    -0.946 N  
HETATM   14  O   UNL     1     -10.607  12.309  63.383  1.00  0.00    -0.445 OA 
HETATM   15  H1  UNL     1     -12.842  13.122  62.742  1.00  0.00     0.000 HD 
HETATM   16  H2  UNL     1     -12.933  14.379  64.000  1.00  0.00     0.000 HD 
ENDBRANCH   7  12
TORSDOF 2
ENDMDL
MODEL       60
REMARK 921   NORMALIZED FREE ENERGY PREDICTED BY IDOCK:   -3.77 KCAL/MOL
REMARK 922        TOTAL FREE ENERGY PREDICTED BY IDOCK:   -4.61 KCAL/MOL
REMARK 923 INTER-LIGAND FREE ENERGY PREDICTED BY IDOCK:   -4.23 KCAL/MOL
REMARK 924 INTRA-LIGAND FREE ENERGY PREDICTED BY IDOCK:   -0.39 KCAL/MOL
REMARK 927      BINDING AFFINITY PREDICTED BY RF-SCORE:    0.00 PKD
ROOT
HETATM    1  C   UNL     1      -9.504  13.148  67.477  1.00  0.00    -0.212 C  
HETATM    2  C   UNL     1      -9.048  14.564  67.853  1.00  0.00    -0.191 C  
HETATM    3  C   UNL     1      -7.775  14.868  67.044  1.00  0.00    -0.079 C  
HETATM    4  C   UNL     1     -10.153  15.643  67.624  1.00  0.00    -0.248 C  
HETATM    5  C   UNL     1      -9.687  17.024  68.119  1.00  0.00    -0.268 C  
HETATM    6  C   UNL     1     -11.518  15.308  68.274  1.00  0.00    -0.359 C  
HETATM    7  N   UNL     1     -10.495  18.079  67.725  1.00  0.00    -0.398 N  
HETATM    8  H   UNL     1     -11.266  17.852  67.098  1.00  0.00     0.000 HD 
HETATM    9  O   UNL     1      -8.672  17.182  68.799  1.00  0.00    -0.268 OA 
ENDROOT
BRANCH   6  10
HETATM   10  C   UNL     1     -11.499  15.318  69.779  1.00  0.00    -0.332 C  
HETATM   11  C   UNL     1     -12.584  15.513  70.538  1.00  0.00    -0.462 C  
ENDBRANCH   6  10
BRANCH   7  12
HETATM   12  C   UNL     1     -10.369  19.390  68.088  1.00  0.00    -0.415 C  
HETATM   13  N   UNL     1     -10.238  19.645  69.410  1.00  0.00    -0.607 N  
HETATM   14  O   UNL     1     -10.366  20.286  67.251  1.00  0.00    -0.387 OA 
HETATM   15  H1  UNL     1     -10.144  20.624  69.681  1.00  0.00     0.000 HD 
HETATM   16  H2  UNL     1     -10.233  18.896  70.102  1.00  0.00     0.000 HD 
ENDBRANCH   7  12
TORSDOF 2
ENDMDL
MODEL       61
REMARK 921   NORMALIZED FREE ENERGY PREDICTED BY IDOCK:   -3.75 KCAL/MOL
REMARK 922        TOTAL FREE ENERGY PREDICTED BY IDOCK:   -4.59 KCAL/MOL
REMARK 923 INTER-LIGAND FREE ENERGY PREDICTED BY IDOCK:   -4.21 KCAL/MOL
REMARK 924 INTRA-LIGAND FREE ENERGY PREDICTED BY IDOCK:   -0.38 KCAL/MOL
REMARK 927      BINDING AFFINITY PREDICTED BY RF-SCORE:    0.00 PKD
ROOT
HETATM    1  C   UNL     1      -7.903  20.214  66.341  1.00  0.00    -0.294 C  
HETATM    2  C   UNL     1      -8.806  19.478  67.339  1.00  0.00    -0.363 C  
HETATM    3  C   UNL     1     -10.028  20.375  67.604  1.00  0.00    -0.514 C  
HETATM    4  C   UNL     1      -9.226  18.055  66.851  1.00  0.00    -0.271 C  
HETATM    5  C   UNL     1     -10.035  17.316  67.931  1.00  0.00    -0.297 C  
HETATM    6  C   UNL     1      -8.044  17.159  66.404  1.00  0.00    -0.337 C  
HETATM    7  N   UNL     1     -10.661  16.161  67.491  1.00  0.00    -0.311 N  
HETATM    8  H   UNL     1     -10.585  15.952  66.496  1.00  0.00     0.000 HD 
HETATM    9  O   UNL     1     -10.132  17.725  69.089  1.00  0.00    -0.322 OA 
ENDROOT
BRANCH   6  10
HETATM   10  C   UNL     1      -7.126  16.752  67.525  1.00  0.00    -0.171 C  
HETATM   11  C   UNL     1      -6.776  15.486  67.781  1.00  0.00    -0.186 C  
ENDBRANCH   6  10
BRANCH   7  12
HETATM   12  C   UNL     1     -11.368  15.270  68.249  1.00  0.00    -0.336 C  
HETATM   13  N   UNL     1     -12.212  15.790  69.169  1.00  0.00    -0.552 N  
HETATM   14  O   UNL     1     -11.247  14.060  68.089  1.00  0.00    -0.254 OA 
HETATM   15  H1  UNL     1     -12.739  15.125  69.734  1.00  0.00     0.000 HD 
HETATM   16  H2  UNL     1     -12.315  16.797  69.292  1.00  0.00     0.000 HD 
ENDBRANCH   7  12
TORSDOF 2
ENDMDL
MODEL       62
REMARK 921   NORMALIZED FREE ENERGY PREDICTED BY IDOCK:   -3.74 KCAL/MOL
REMARK 922        TOTAL FREE ENERGY PREDICTED BY IDOCK:   -4.58 KCAL/MOL
REMARK 923 INTER-LIGAND FREE ENERGY PREDICTED BY IDOCK:   -4.16 KCAL/MOL
REMARK 924 INTRA-LIGAND FREE ENERGY PREDICTED BY IDOCK:   -0.41 KCAL/MOL
REMARK 927      BINDING AFFINITY PREDICTED BY RF-SCORE:    0.00 PKD
ROOT
HETATM    1  C   UNL     1     -11.026  15.619  67.331  1.00  0.00    -0.293 C  
HETATM    2  C   UNL     1     -10.193  14.349  67.114  1.00  0.00    -0.257 C  
HETATM    3  C   UNL     1      -9.176  14.264  68.266  1.00  0.00    -0.197 C  
HETATM    4  C   UNL     1     -11.062  13.057  67.012  1.00  0.00    -0.311 C  
HETATM    5  C   UNL     1     -10.193  11.830  66.684  1.00  0.00    -0.210 C  
HETATM    6  C   UNL     1     -12.218  13.144  65.985  1.00  0.00    -0.478 C  
HETATM    7  N   UNL     1     -10.839  10.612  66.827  1.00  0.00    -0.211 N  
HETATM    8  H   UNL     1     -11.788  10.641  67.197  1.00  0.00     0.000 HD 
HETATM    9  O   UNL     1      -9.014  11.921  66.336  1.00  0.00    -0.202 OA 
ENDROOT
BRANCH   6  10
HETATM   10  C   UNL     1     -11.762  13.225  64.553  1.00  0.00    -0.420 C  
HETATM   11  C   UNL     1     -12.198  12.412  63.583  1.00  0.00    -0.653 C  
ENDBRANCH   6  10
BRANCH   7  12
HETATM   12  C   UNL     1     -10.339   9.376  66.524  1.00  0.00    -0.198 C  
HETATM   13  N   UNL     1      -9.709   9.250  65.334  1.00  0.00    -0.456 N  
HETATM   14  O   UNL     1     -10.450   8.436  67.303  1.00  0.00    -0.279 OA 
HETATM   15  H1  UNL     1      -9.337   8.328  65.108  1.00  0.00     0.000 HD 
HETATM   16  H2  UNL     1      -9.613  10.038  64.693  1.00  0.00     0.000 HD 
ENDBRANCH   7  12
TORSDOF 2
ENDMDL
MODEL       63
REMARK 921   NORMALIZED FREE ENERGY PREDICTED BY IDOCK:   -3.72 KCAL/MOL
REMARK 922        TOTAL FREE ENERGY PREDICTED BY IDOCK:   -4.56 KCAL/MOL
REMARK 923 INTER-LIGAND FREE ENERGY PREDICTED BY IDOCK:   -4.14 KCAL/MOL
REMARK 924 INTRA-LIGAND FREE ENERGY PREDICTED BY IDOCK:   -0.42 KCAL/MOL
REMARK 927      BINDING AFFINITY PREDICTED BY RF-SCORE:    0.00 PKD
ROOT
HETATM    1  C   UNL     1      -9.590  17.048  65.711  1.00  0.00    -0.043 C  
HETATM    2  C   UNL     1     -10.055  17.104  67.172  1.00  0.00    -0.295 C  
HETATM    3  C   UNL     1     -10.731  18.470  67.389  1.00  0.00    -0.424 C  
HETATM    4  C   UNL     1     -11.000  15.923  67.559  1.00  0.00    -0.280 C  
HETATM    5  C   UNL     1     -11.349  15.962  69.057  1.00  0.00    -0.371 C  
HETATM    6  C   UNL     1     -10.447  14.521  67.205  1.00  0.00    -0.266 C  
HETATM    7  N   UNL     1     -12.376  15.110  69.431  1.00  0.00    -0.577 N  
HETATM    8  H   UNL     1     -12.842  14.602  68.680  1.00  0.00     0.000 HD 
HETATM    9  O   UNL     1     -10.771  16.699  69.858  1.00  0.00    -0.309 OA 
ENDROOT
BRANCH   6  10
HETATM   10  C   UNL     1      -9.239  14.118  68.009  1.00  0.00    -0.195 C  
HETATM   11  C   UNL     1      -7.979  14.241  67.576  1.00  0.00    -0.203 C  
ENDBRANCH   6  10
BRANCH   7  12
HETATM   12  C   UNL     1     -12.831  14.878  70.699  1.00  0.00    -0.353 C  
HETATM   13  N   UNL     1     -13.460  15.904  71.316  1.00  0.00    -0.478 N  
HETATM   14  O   UNL     1     -12.683  13.788  71.240  1.00  0.00    -0.341 OA 
HETATM   15  H1  UNL     1     -13.800  15.731  72.262  1.00  0.00     0.000 HD 
HETATM   16  H2  UNL     1     -13.589  16.807  70.858  1.00  0.00     0.000 HD 
ENDBRANCH   7  12
TORSDOF 2
ENDMDL
MODEL       64
REMARK 921   NORMALIZED FREE ENERGY PREDICTED BY IDOCK:   -3.71 KCAL/MOL
REMARK 922        TOTAL FREE ENERGY PREDICTED BY IDOCK:   -4.54 KCAL/MOL
REMARK 923 INTER-LIGAND FREE ENERGY PREDICTED BY IDOCK:   -4.17 KCAL/MOL
REMARK 924 INTRA-LIGAND FREE ENERGY PREDICTED BY IDOCK:   -0.37 KCAL/MOL
REMARK 927      BINDING AFFINITY PREDICTED BY RF-SCORE:    0.00 PKD
ROOT
HETATM    1  C   UNL     1     -11.348  13.715  68.610  1.00  0.00    -0.321 C  
HETATM    2  C   UNL     1     -11.634  12.878  69.864  1.00  0.00    -0.246 C  
HETATM    3  C   UNL     1     -12.415  13.770  70.845  1.00  0.00    -0.451 C  
HETATM    4  C   UNL     1     -12.397  11.552  69.553  1.00  0.00    -0.190 C  
HETATM    5  C   UNL     1     -12.561  10.698  70.823  1.00  0.00    -0.386 C  
HETATM    6  C   UNL     1     -11.749  10.687  68.444  1.00  0.00    -0.168 C  
HETATM    7  N   UNL     1     -13.441   9.636  70.692  1.00  0.00    -0.580 N  
HETATM    8  H   UNL     1     -13.941   9.565  69.807  1.00  0.00     0.000 HD 
HETATM    9  O   UNL     1     -11.969  10.945  71.875  1.00  0.00     0.254 OA 
ENDROOT
BRANCH   6  10
HETATM   10  C   UNL     1     -10.418  10.098  68.825  1.00  0.00    -0.223 C  
HETATM   11  C   UNL     1     -10.091   8.813  68.648  1.00  0.00    -0.207 C  
ENDBRANCH   6  10
BRANCH   7  12
HETATM   12  C   UNL     1     -13.711   8.673  71.624  1.00  0.00    -0.384 C  
HETATM   13  N   UNL     1     -13.821   9.083  72.908  1.00  0.00    -0.923 N  
HETATM   14  O   UNL     1     -13.856   7.498  71.303  1.00  0.00    -0.347 OA 
HETATM   15  H1  UNL     1     -14.022   8.364  73.603  1.00  0.00     0.000 HD 
HETATM   16  H2  UNL     1     -13.708  10.063  73.169  1.00  0.00     0.000 HD 
ENDBRANCH   7  12
TORSDOF 2
ENDMDL
MODEL       65
REMARK 921   NORMALIZED FREE ENERGY PREDICTED BY IDOCK:   -3.69 KCAL/MOL
REMARK 922        TOTAL FREE ENERGY PREDICTED BY IDOCK:   -4.53 KCAL/MOL
REMARK 923 INTER-LIGAND FREE ENERGY PREDICTED BY IDOCK:   -4.11 KCAL/MOL
REMARK 924 INTRA-LIGAND FREE ENERGY PREDICTED BY IDOCK:   -0.41 KCAL/MOL
REMARK 927      BINDING AFFINITY PREDICTED BY RF-SCORE:    0.00 PKD
ROOT
HETATM    1  C   UNL     1      -8.921  13.629  68.008  1.00  0.00    -0.188 C  
HETATM    2  C   UNL     1      -9.486  15.037  68.235  1.00  0.00    -0.196 C  
HETATM    3  C   UNL     1      -8.882  15.570  69.546  1.00  0.00    -0.229 C  
HETATM    4  C   UNL     1      -9.219  16.004  67.039  1.00  0.00    -0.229 C  
HETATM    5  C   UNL     1      -9.899  17.365  67.265  1.00  0.00    -0.278 C  
HETATM    6  C   UNL     1      -9.651  15.447  65.659  1.00  0.00    -0.323 C  
HETATM    7  N   UNL     1      -9.505  18.359  66.383  1.00  0.00    -0.312 N  
HETATM    8  H   UNL     1      -8.764  18.117  65.727  1.00  0.00     0.000 HD 
HETATM    9  O   UNL     1     -10.717  17.561  68.166  1.00  0.00    -0.381 OA 
ENDROOT
BRANCH   6  10
HETATM   10  C   UNL     1     -11.139  15.294  65.499  1.00  0.00    -0.330 C  
HETATM   11  C   UNL     1     -11.715  14.407  64.678  1.00  0.00    -0.438 C  
ENDBRANCH   6  10
BRANCH   7  12
HETATM   12  C   UNL     1     -10.005  19.629  66.300  1.00  0.00    -0.466 C  
HETATM   13  N   UNL     1      -9.842  20.419  67.386  1.00  0.00    -0.446 N  
HETATM   14  O   UNL     1     -10.562  20.029  65.284  1.00  0.00    -0.295 OA 
HETATM   15  H1  UNL     1     -10.215  21.366  67.323  1.00  0.00     0.000 HD 
HETATM   16  H2  UNL     1      -9.370  20.083  68.226  1.00  0.00     0.000 HD 
ENDBRANCH   7  12
TORSDOF 2
ENDMDL
MODEL       66
REMARK 921   NORMALIZED FREE ENERGY PREDICTED BY IDOCK:   -3.69 KCAL/MOL
REMARK 922        TOTAL FREE ENERGY PREDICTED BY IDOCK:   -4.53 KCAL/MOL
REMARK 923 INTER-LIGAND FREE ENERGY PREDICTED BY IDOCK:   -4.07 KCAL/MOL
REMARK 924 INTRA-LIGAND FREE ENERGY PREDICTED BY IDOCK:   -0.46 KCAL/MOL
REMARK 927      BINDING AFFINITY PREDICTED BY RF-SCORE:    0.00 PKD
ROOT
HETATM    1  C   UNL     1     -11.430   7.617  72.419  1.00  0.00    -0.392 C  
HETATM    2  C   UNL     1     -12.186   8.718  71.664  1.00  0.00    -0.399 C  
HETATM    3  C   UNL     1     -13.280   9.254  72.604  1.00  0.00    -0.333 C  
HETATM    4  C   UNL     1     -11.252   9.859  71.150  1.00  0.00    -0.404 C  
HETATM    5  C   UNL     1     -12.037  10.878  70.306  1.00  0.00    -0.355 C  
HETATM    6  C   UNL     1     -10.029   9.366  70.338  1.00  0.00    -0.306 C  
HETATM    7  N   UNL     1     -11.348  12.047  70.028  1.00  0.00    -0.507 N  
HETATM    8  H   UNL     1     -10.430  12.149  70.460  1.00  0.00     0.000 HD 
HETATM    9  O   UNL     1     -13.190  10.678  69.920  1.00  0.00    -0.030 OA 
ENDROOT
BRANCH   6  10
HETATM   10  C   UNL     1     -10.382   8.749  69.012  1.00  0.00    -0.227 C  
HETATM   11  C   UNL     1     -10.007   7.520  68.636  1.00  0.00    -0.178 C  
ENDBRANCH   6  10
BRANCH   7  12
HETATM   12  C   UNL     1     -11.766  13.079  69.234  1.00  0.00    -0.320 C  
HETATM   13  N   UNL     1     -11.959  12.800  67.925  1.00  0.00    -0.324 N  
HETATM   14  O   UNL     1     -11.965  14.197  69.696  1.00  0.00    -0.295 OA 
HETATM   15  H1  UNL     1     -12.271  13.570  67.334  1.00  0.00     0.000 HD 
HETATM   16  H2  UNL     1     -11.801  11.865  67.548  1.00  0.00     0.000 HD 
ENDBRANCH   7  12
TORSDOF 2
ENDMDL
MODEL       67
REMARK 921   NORMALIZED FREE ENERGY PREDICTED BY IDOCK:   -3.69 KCAL/MOL
REMARK 922        TOTAL FREE ENERGY PREDICTED BY IDOCK:   -4.52 KCAL/MOL
REMARK 923 INTER-LIGAND FREE ENERGY PREDICTED BY IDOCK:   -4.06 KCAL/MOL
REMARK 924 INTRA-LIGAND FREE ENERGY PREDICTED BY IDOCK:   -0.46 KCAL/MOL
REMARK 927      BINDING AFFINITY PREDICTED BY RF-SCORE:    0.00 PKD
ROOT
HETATM    1  C   UNL     1     -12.063  11.054  69.983  1.00  0.00    -0.441 C  
HETATM    2  C   UNL     1     -11.892  10.026  71.108  1.00  0.00    -0.481 C  
HETATM    3  C   UNL     1     -13.185  10.035  71.941  1.00  0.00    -0.557 C  
HETATM    4  C   UNL     1     -11.551   8.596  70.582  1.00  0.00    -0.225 C  
HETATM    5  C   UNL     1     -11.280   7.628  71.748  1.00  0.00    -0.247 C  
HETATM    6  C   UNL     1     -10.357   8.545  69.597  1.00  0.00    -0.218 C  
HETATM    7  N   UNL     1     -11.223   6.292  71.385  1.00  0.00    -0.283 N  
HETATM    8  H   UNL     1     -11.432   6.075  70.412  1.00  0.00     0.000 HD 
HETATM    9  O   UNL     1     -11.139   8.008  72.912  1.00  0.00    -0.392 OA 
ENDROOT
BRANCH   6  10
HETATM   10  C   UNL     1      -9.030   8.878  70.224  1.00  0.00    -0.201 C  
HETATM   11  C   UNL     1      -8.248   9.889  69.825  1.00  0.00    -0.191 C  
ENDBRANCH   6  10
BRANCH   7  12
HETATM   12  C   UNL     1     -10.915   5.233  72.194  1.00  0.00    -0.160 C  
HETATM   13  N   UNL     1     -11.689   5.060  73.289  1.00  0.00    -0.489 N  
HETATM   14  O   UNL     1      -9.988   4.476  71.927  1.00  0.00    -0.177 OA 
HETATM   15  H1  UNL     1     -11.459   4.270  73.892  1.00  0.00     0.000 HD 
HETATM   16  H2  UNL     1     -12.464   5.688  73.502  1.00  0.00     0.000 HD 
ENDBRANCH   7  12
TORSDOF 2
ENDMDL
MODEL       68
REMARK 921   NORMALIZED FREE ENERGY PREDICTED BY IDOCK:   -3.68 KCAL/MOL
REMARK 922        TOTAL FREE ENERGY PREDICTED BY IDOCK:   -4.52 KCAL/MOL
REMARK 923 INTER-LIGAND FREE ENERGY PREDICTED BY IDOCK:   -4.36 KCAL/MOL
REMARK 924 INTRA-LIGAND FREE ENERGY PREDICTED BY IDOCK:   -0.16 KCAL/MOL
REMARK 927      BINDING AFFINITY PREDICTED BY RF-SCORE:    0.00 PKD
ROOT
HETATM    1  C   UNL     1     -11.750  12.851  69.828  1.00  0.00    -0.351 C  
HETATM    2  C   UNL     1     -11.016  12.190  68.654  1.00  0.00    -0.284 C  
HETATM    3  C   UNL     1     -11.208  10.669  68.789  1.00  0.00    -0.337 C  
HETATM    4  C   UNL     1     -11.493  12.713  67.262  1.00  0.00    -0.402 C  
HETATM    5  C   UNL     1     -10.654  12.103  66.126  1.00  0.00    -0.255 C  
HETATM    6  C   UNL     1     -11.487  14.255  67.123  1.00  0.00    -0.377 C  
HETATM    7  N   UNL     1     -11.168  12.311  64.856  1.00  0.00    -0.311 N  
HETATM    8  H   UNL     1     -12.073  12.776  64.801  1.00  0.00     0.000 HD 
HETATM    9  O   UNL     1      -9.616  11.471  66.328  1.00  0.00    -0.205 OA 
ENDROOT
BRANCH   6  10
HETATM   10  C   UNL     1     -10.112  14.866  67.136  1.00  0.00    -0.240 C  
HETATM   11  C   UNL     1      -9.721  15.843  66.309  1.00  0.00    -0.332 C  
ENDBRANCH   6  10
BRANCH   7  12
HETATM   12  C   UNL     1     -10.591  11.958  63.668  1.00  0.00    -0.446 C  
HETATM   13  N   UNL     1     -11.283  11.097  62.888  1.00  0.00    -0.700 N  
HETATM   14  O   UNL     1      -9.504  12.412  63.327  1.00  0.00    -0.117 OA 
HETATM   15  H1  UNL     1     -10.853  10.833  62.002  1.00  0.00     0.000 HD 
HETATM   16  H2  UNL     1     -12.191  10.728  63.172  1.00  0.00     0.000 HD 
ENDBRANCH   7  12
TORSDOF 2
ENDMDL
MODEL       69
REMARK 921   NORMALIZED FREE ENERGY PREDICTED BY IDOCK:   -3.68 KCAL/MOL
REMARK 922        TOTAL FREE ENERGY PREDICTED BY IDOCK:   -4.51 KCAL/MOL
REMARK 923 INTER-LIGAND FREE ENERGY PREDICTED BY IDOCK:   -4.05 KCAL/MOL
REMARK 924 INTRA-LIGAND FREE ENERGY PREDICTED BY IDOCK:   -0.46 KCAL/MOL
REMARK 927      BINDING AFFINITY PREDICTED BY RF-SCORE:    0.00 PKD
ROOT
HETATM    1  C   UNL     1     -10.978   9.237  71.149  1.00  0.00    -0.409 C  
HETATM    2  C   UNL     1     -11.571  10.233  70.144  1.00  0.00    -0.376 C  
HETATM    3  C   UNL     1     -12.359  11.283  70.945  1.00  0.00    -0.490 C  
HETATM    4  C   UNL     1     -10.492  10.892  69.227  1.00  0.00    -0.230 C  
HETATM    5  C   UNL     1     -11.146  11.794  68.166  1.00  0.00    -0.243 C  
HETATM    6  C   UNL     1      -9.550   9.885  68.523  1.00  0.00    -0.159 C  
HETATM    7  N   UNL     1     -10.260  12.611  67.481  1.00  0.00    -0.213 N  
HETATM    8  H   UNL     1      -9.288  12.589  67.789  1.00  0.00     0.000 HD 
HETATM    9  O   UNL     1     -12.359  11.801  67.951  1.00  0.00    -0.399 OA 
ENDROOT
BRANCH   6  10
HETATM   10  C   UNL     1     -10.232   9.027  67.491  1.00  0.00    -0.302 C  
HETATM   11  C   UNL     1     -10.297   7.692  67.553  1.00  0.00    -0.326 C  
ENDBRANCH   6  10
BRANCH   7  12
HETATM   12  C   UNL     1     -10.550  13.444  66.437  1.00  0.00    -0.285 C  
HETATM   13  N   UNL     1     -11.531  14.352  66.637  1.00  0.00    -0.351 N  
HETATM   14  O   UNL     1      -9.938  13.372  65.376  1.00  0.00    -0.269 OA 
HETATM   15  H1  UNL     1     -11.747  14.973  65.858  1.00  0.00     0.000 HD 
HETATM   16  H2  UNL     1     -12.031  14.413  67.525  1.00  0.00     0.000 HD 
ENDBRANCH   7  12
TORSDOF 2
ENDMDL
MODEL       70
REMARK 921   NORMALIZED FREE ENERGY PREDICTED BY IDOCK:   -3.68 KCAL/MOL
REMARK 922        TOTAL FREE ENERGY PREDICTED BY IDOCK:   -4.51 KCAL/MOL
REMARK 923 INTER-LIGAND FREE ENERGY PREDICTED BY IDOCK:   -4.17 KCAL/MOL
REMARK 924 INTRA-LIGAND FREE ENERGY PREDICTED BY IDOCK:   -0.35 KCAL/MOL
REMARK 927      BINDING AFFINITY PREDICTED BY RF-SCORE:    0.00 PKD
ROOT
HETATM    1  C   UNL     1     -11.336  15.912  68.995  1.00  0.00    -0.371 C  
HETATM    2  C   UNL     1      -9.900  16.433  68.848  1.00  0.00    -0.260 C  
HETATM    3  C   UNL     1      -8.960  15.366  69.438  1.00  0.00    -0.258 C  
HETATM    4  C   UNL     1      -9.525  16.785  67.374  1.00  0.00    -0.236 C  
HETATM    5  C   UNL     1      -8.119  17.406  67.295  1.00  0.00    -0.201 C  
HETATM    6  C   UNL     1     -10.531  17.724  66.665  1.00  0.00    -0.300 C  
HETATM    7  N   UNL     1      -7.608  17.510  66.011  1.00  0.00    -0.273 N  
HETATM    8  H   UNL     1      -8.171  17.109  65.262  1.00  0.00     0.000 HD 
HETATM    9  O   UNL     1      -7.492  17.768  68.292  1.00  0.00    -0.228 OA 
ENDROOT
BRANCH   6  10
HETATM   10  C   UNL     1     -10.570  19.119  67.229  1.00  0.00    -0.573 C  
HETATM   11  C   UNL     1     -10.081  20.194  66.598  1.00  0.00    -0.584 C  
ENDBRANCH   6  10
BRANCH   7  12
HETATM   12  C   UNL     1      -6.429  18.095  65.641  1.00  0.00    -0.252 C  
HETATM   13  N   UNL     1      -5.328  17.742  66.343  1.00  0.00    -0.165 N  
HETATM   14  O   UNL     1      -6.377  18.891  64.710  1.00  0.00    -0.464 OA 
HETATM   15  H1  UNL     1      -4.449  18.179  66.067  1.00  0.00     0.000 HD 
HETATM   16  H2  UNL     1      -5.375  17.073  67.112  1.00  0.00     0.000 HD 
ENDBRANCH   7  12
TORSDOF 2
ENDMDL
MODEL       71
REMARK 921   NORMALIZED FREE ENERGY PREDICTED BY IDOCK:   -3.60 KCAL/MOL
REMARK 922        TOTAL FREE ENERGY PREDICTED BY IDOCK:   -4.43 KCAL/MOL
REMARK 923 INTER-LIGAND FREE ENERGY PREDICTED BY IDOCK:   -4.03 KCAL/MOL
REMARK 924 INTRA-LIGAND FREE ENERGY PREDICTED BY IDOCK:   -0.39 KCAL/MOL
REMARK 927      BINDING AFFINITY PREDICTED BY RF-SCORE:    0.00 PKD
ROOT
HETATM    1  C   UNL     1     -12.637  14.055  65.473  1.00  0.00    -0.543 C  
HETATM    2  C   UNL     1     -11.511  13.418  66.297  1.00  0.00    -0.354 C  
HETATM    3  C   UNL     1     -11.241  12.022  65.707  1.00  0.00    -0.383 C  
HETATM    4  C   UNL     1     -10.216  14.289  66.338  1.00  0.00    -0.295 C  
HETATM    5  C   UNL     1      -9.158  13.663  67.265  1.00  0.00    -0.228 C  
HETATM    6  C   UNL     1     -10.449  15.760  66.761  1.00  0.00    -0.305 C  
HETATM    7  N   UNL     1      -7.897  14.228  67.162  1.00  0.00    -0.350 N  
HETATM    8  H   UNL     1      -7.775  14.942  66.445  1.00  0.00     0.000 HD 
HETATM    9  O   UNL     1      -9.408  12.727  68.026  1.00  0.00    -0.200 OA 
ENDROOT
BRANCH   6  10
HETATM   10  C   UNL     1     -10.880  15.926  68.193  1.00  0.00    -0.317 C  
HETATM   11  C   UNL     1     -10.651  17.026  68.920  1.00  0.00    -0.328 C  
ENDBRANCH   6  10
BRANCH   7  12
HETATM   12  C   UNL     1      -6.798  13.929  67.919  1.00  0.00    -0.160 C  
HETATM   13  N   UNL     1      -6.962  13.951  69.262  1.00  0.00    -0.216 N  
HETATM   14  O   UNL     1      -5.725  13.646  67.400  1.00  0.00    -0.354 OA 
HETATM   15  H1  UNL     1      -6.142  13.729  69.826  1.00  0.00     0.000 HD 
HETATM   16  H2  UNL     1      -7.860  14.180  69.688  1.00  0.00     0.000 HD 
ENDBRANCH   7  12
TORSDOF 2
ENDMDL
MODEL       72
REMARK 921   NORMALIZED FREE ENERGY PREDICTED BY IDOCK:   -3.60 KCAL/MOL
REMARK 922        TOTAL FREE ENERGY PREDICTED BY IDOCK:   -4.42 KCAL/MOL
REMARK 923 INTER-LIGAND FREE ENERGY PREDICTED BY IDOCK:   -4.15 KCAL/MOL
REMARK 924 INTRA-LIGAND FREE ENERGY PREDICTED BY IDOCK:   -0.28 KCAL/MOL
REMARK 927      BINDING AFFINITY PREDICTED BY RF-SCORE:    0.00 PKD
ROOT
HETATM    1  C   UNL     1     -10.774  12.578  64.191  1.00  0.00    -0.423 C  
HETATM    2  C   UNL     1     -10.929  12.716  65.711  1.00  0.00    -0.313 C  
HETATM    3  C   UNL     1     -12.046  13.742  65.970  1.00  0.00    -0.470 C  
HETATM    4  C   UNL     1     -11.215  11.356  66.423  1.00  0.00    -0.250 C  
HETATM    5  C   UNL     1     -11.251  11.529  67.951  1.00  0.00    -0.279 C  
HETATM    6  C   UNL     1     -10.218  10.226  66.066  1.00  0.00    -0.298 C  
HETATM    7  N   UNL     1     -11.748  10.435  68.643  1.00  0.00    -0.518 N  
HETATM    8  H   UNL     1     -12.102   9.663  68.079  1.00  0.00     0.000 HD 
HETATM    9  O   UNL     1     -10.881  12.559  68.515  1.00  0.00    -0.227 OA 
ENDROOT
BRANCH   6  10
HETATM   10  C   UNL     1      -8.821  10.459  66.574  1.00  0.00    -0.150 C  
HETATM   11  C   UNL     1      -7.757  10.636  65.782  1.00  0.00    -0.130 C  
ENDBRANCH   6  10
BRANCH   7  12
HETATM   12  C   UNL     1     -11.813  10.281  69.999  1.00  0.00    -0.228 C  
HETATM   13  N   UNL     1     -13.044  10.336  70.558  1.00  0.00    -0.554 N  
HETATM   14  O   UNL     1     -10.804  10.091  70.668  1.00  0.00    -0.304 OA 
HETATM   15  H1  UNL     1     -13.092  10.221  71.570  1.00  0.00     0.000 HD 
HETATM   16  H2  UNL     1     -13.881  10.486  69.996  1.00  0.00     0.000 HD 
ENDBRANCH   7  12
TORSDOF 2
ENDMDL
MODEL       73
REMARK 921   NORMALIZED FREE ENERGY PREDICTED BY IDOCK:   -3.58 KCAL/MOL
REMARK 922        TOTAL FREE ENERGY PREDICTED BY IDOCK:   -4.40 KCAL/MOL
REMARK 923 INTER-LIGAND FREE ENERGY PREDICTED BY IDOCK:   -3.93 KCAL/MOL
REMARK 924 INTRA-LIGAND FREE ENERGY PREDICTED BY IDOCK:   -0.47 KCAL/MOL
REMARK 927      BINDING AFFINITY PREDICTED BY RF-SCORE:    0.00 PKD
ROOT
HETATM    1  C   UNL     1     -12.364  14.653  64.229  1.00  0.00    -0.375 C  
HETATM    2  C   UNL     1     -11.847  13.284  64.690  1.00  0.00    -0.420 C  
HETATM    3  C   UNL     1     -12.232  12.259  63.609  1.00  0.00    -0.665 C  
HETATM    4  C   UNL     1     -10.313  13.276  64.977  1.00  0.00    -0.355 C  
HETATM    5  C   UNL     1      -9.864  11.916  65.541  1.00  0.00    -0.232 C  
HETATM    6  C   UNL     1      -9.834  14.399  65.930  1.00  0.00    -0.336 C  
HETATM    7  N   UNL     1      -8.490  11.735  65.583  1.00  0.00    -0.323 N  
HETATM    8  H   UNL     1      -7.921  12.478  65.178  1.00  0.00     0.000 HD 
HETATM    9  O   UNL     1     -10.659  11.052  65.913  1.00  0.00    -0.252 OA 
ENDROOT
BRANCH   6  10
HETATM   10  C   UNL     1     -10.331  14.258  67.343  1.00  0.00    -0.259 C  
HETATM   11  C   UNL     1     -11.267  15.043  67.889  1.00  0.00    -0.330 C  
ENDBRANCH   6  10
BRANCH   7  12
HETATM   12  C   UNL     1      -7.817  10.669  66.110  1.00  0.00    -0.152 C  
HETATM   13  N   UNL     1      -8.064  10.375  67.407  1.00  0.00    -0.107 N  
HETATM   14  O   UNL     1      -7.038  10.009  65.432  1.00  0.00    -0.123 OA 
HETATM   15  H1  UNL     1      -7.561   9.579  67.800  1.00  0.00     0.000 HD 
HETATM   16  H2  UNL     1      -8.719  10.923  67.965  1.00  0.00     0.000 HD 
ENDBRANCH   7  12
TORSDOF 2
ENDMDL
MODEL       74
REMARK 921   NORMALIZED FREE ENERGY PREDICTED BY IDOCK:   -3.56 KCAL/MOL
REMARK 922        TOTAL FREE ENERGY PREDICTED BY IDOCK:   -4.38 KCAL/MOL
REMARK 923 INTER-LIGAND FREE ENERGY PREDICTED BY IDOCK:   -3.97 KCAL/MOL
REMARK 924 INTRA-LIGAND FREE ENERGY PREDICTED BY IDOCK:   -0.41 KCAL/MOL
REMARK 927      BINDING AFFINITY PREDICTED BY RF-SCORE:    0.00 PKD
ROOT
HETATM    1  C   UNL     1     -12.796  11.795  71.157  1.00  0.00    -0.365 C  
HETATM    2  C   UNL     1     -11.676  11.237  70.269  1.00  0.00    -0.415 C  
HETATM    3  C   UNL     1     -11.656   9.710  70.458  1.00  0.00    -0.341 C  
HETATM    4  C   UNL     1     -11.833  11.632  68.766  1.00  0.00    -0.387 C  
HETATM    5  C   UNL     1     -10.631  11.144  67.938  1.00  0.00    -0.198 C  
HETATM    6  C   UNL     1     -12.031  13.148  68.522  1.00  0.00    -0.324 C  
HETATM    7  N   UNL     1     -10.806  11.225  66.566  1.00  0.00    -0.277 N  
HETATM    8  H   UNL     1     -11.724  11.528  66.242  1.00  0.00     0.000 HD 
HETATM    9  O   UNL     1      -9.601  10.704  68.452  1.00  0.00    -0.156 OA 
ENDROOT
BRANCH   6  10
HETATM   10  C   UNL     1     -10.825  13.985  68.853  1.00  0.00    -0.278 C  
HETATM   11  C   UNL     1     -10.890  15.214  69.379  1.00  0.00    -0.265 C  
ENDBRANCH   6  10
BRANCH   7  12
HETATM   12  C   UNL     1      -9.880  10.944  65.601  1.00  0.00    -0.241 C  
HETATM   13  N   UNL     1      -8.826  11.786  65.505  1.00  0.00    -0.401 N  
HETATM   14  O   UNL     1     -10.000   9.967  64.869  1.00  0.00    -0.325 OA 
HETATM   15  H1  UNL     1      -8.136  11.575  64.785  1.00  0.00     0.000 HD 
HETATM   16  H2  UNL     1      -8.728  12.592  66.122  1.00  0.00     0.000 HD 
ENDBRANCH   7  12
TORSDOF 2
ENDMDL
MODEL       75
REMARK 921   NORMALIZED FREE ENERGY PREDICTED BY IDOCK:   -3.55 KCAL/MOL
REMARK 922        TOTAL FREE ENERGY PREDICTED BY IDOCK:   -4.37 KCAL/MOL
REMARK 923 INTER-LIGAND FREE ENERGY PREDICTED BY IDOCK:   -3.93 KCAL/MOL
REMARK 924 INTRA-LIGAND FREE ENERGY PREDICTED BY IDOCK:   -0.45 KCAL/MOL
REMARK 927      BINDING AFFINITY PREDICTED BY RF-SCORE:    0.00 PKD
ROOT
HETATM    1  C   UNL     1      -7.769  20.394  66.656  1.00  0.00    -0.280 C  
HETATM    2  C   UNL     1      -8.897  19.364  66.799  1.00  0.00    -0.363 C  
HETATM    3  C   UNL     1     -10.104  19.888  66.002  1.00  0.00    -0.589 C  
HETATM    4  C   UNL     1      -8.478  17.931  66.342  1.00  0.00    -0.263 C  
HETATM    5  C   UNL     1      -9.603  16.915  66.608  1.00  0.00    -0.267 C  
HETATM    6  C   UNL     1      -7.168  17.412  66.984  1.00  0.00    -0.214 C  
HETATM    7  N   UNL     1      -9.419  15.681  66.004  1.00  0.00    -0.338 N  
HETATM    8  H   UNL     1      -8.607  15.589  65.395  1.00  0.00     0.000 HD 
HETATM    9  O   UNL     1     -10.594  17.180  67.290  1.00  0.00    -0.325 OA 
ENDROOT
BRANCH   6  10
HETATM   10  C   UNL     1      -7.270  17.157  68.464  1.00  0.00    -0.220 C  
HETATM   11  C   UNL     1      -6.681  17.917  69.395  1.00  0.00    -0.164 C  
ENDBRANCH   6  10
BRANCH   7  12
HETATM   12  C   UNL     1     -10.209  14.574  66.139  1.00  0.00    -0.305 C  
HETATM   13  N   UNL     1     -11.544  14.764  66.036  1.00  0.00    -0.326 N  
HETATM   14  O   UNL     1      -9.724  13.465  66.333  1.00  0.00    -0.270 OA 
HETATM   15  H1  UNL     1     -12.133  13.938  66.136  1.00  0.00     0.000 HD 
HETATM   16  H2  UNL     1     -11.942  15.688  65.866  1.00  0.00     0.000 HD 
ENDBRANCH   7  12
TORSDOF 2
ENDMDL
MODEL       76
REMARK 921   NORMALIZED FREE ENERGY PREDICTED BY IDOCK:   -3.55 KCAL/MOL
REMARK 922        TOTAL FREE ENERGY PREDICTED BY IDOCK:   -4.37 KCAL/MOL
REMARK 923 INTER-LIGAND FREE ENERGY PREDICTED BY IDOCK:   -4.08 KCAL/MOL
REMARK 924 INTRA-LIGAND FREE ENERGY PREDICTED BY IDOCK:   -0.29 KCAL/MOL
REMARK 927      BINDING AFFINITY PREDICTED BY RF-SCORE:    0.00 PKD
ROOT
HETATM    1  C   UNL     1      -7.554  12.191  68.282  1.00  0.00    -0.132 C  
HETATM    2  C   UNL     1      -8.613  13.239  67.917  1.00  0.00    -0.188 C  
HETATM    3  C   UNL     1      -8.007  14.625  68.201  1.00  0.00    -0.136 C  
HETATM    4  C   UNL     1      -9.113  13.116  66.444  1.00  0.00    -0.069 C  
HETATM    5  C   UNL     1     -10.250  14.114  66.161  1.00  0.00    -0.304 C  
HETATM    6  C   UNL     1      -9.578  11.694  66.043  1.00  0.00    -0.249 C  
HETATM    7  N   UNL     1     -10.576  14.250  64.821  1.00  0.00    -0.504 N  
HETATM    8  H   UNL     1      -9.995  13.740  64.156  1.00  0.00     0.000 HD 
HETATM    9  O   UNL     1     -10.817  14.750  67.051  1.00  0.00    -0.301 OA 
ENDROOT
BRANCH   6  10
HETATM   10  C   UNL     1     -10.828  11.238  66.746  1.00  0.00    -0.334 C  
HETATM   11  C   UNL     1     -10.834  10.409  67.797  1.00  0.00    -0.351 C  
ENDBRANCH   6  10
BRANCH   7  12
HETATM   12  C   UNL     1     -11.594  14.995  64.294  1.00  0.00    -0.181 C  
HETATM   13  N   UNL     1     -11.304  16.274  63.964  1.00  0.00    -0.617 N  
HETATM   14  O   UNL     1     -12.710  14.517  64.122  1.00  0.00    -0.711 OA 
HETATM   15  H1  UNL     1     -12.063  16.829  63.571  1.00  0.00     0.000 HD 
HETATM   16  H2  UNL     1     -10.371  16.664  64.102  1.00  0.00     0.000 HD 
ENDBRANCH   7  12
TORSDOF 2
ENDMDL
MODEL       77
REMARK 921   NORMALIZED FREE ENERGY PREDICTED BY IDOCK:   -3.52 KCAL/MOL
REMARK 922        TOTAL FREE ENERGY PREDICTED BY IDOCK:   -4.33 KCAL/MOL
REMARK 923 INTER-LIGAND FREE ENERGY PREDICTED BY IDOCK:   -3.89 KCAL/MOL
REMARK 924 INTRA-LIGAND FREE ENERGY PREDICTED BY IDOCK:   -0.44 KCAL/MOL
REMARK 927      BINDING AFFINITY PREDICTED BY RF-SCORE:    0.00 PKD
ROOT
HETATM    1  C   UNL     1     -11.325  12.728  68.523  1.00  0.00    -0.326 C  
HETATM    2  C   UNL     1     -11.295  11.751  69.706  1.00  0.00    -0.245 C  
HETATM    3  C   UNL     1     -12.317  12.252  70.742  1.00  0.00    -0.383 C  
HETATM    4  C   UNL     1     -11.572  10.273  69.286  1.00  0.00    -0.186 C  
HETATM    5  C   UNL     1     -11.422   9.321  70.485  1.00  0.00    -0.248 C  
HETATM    6  C   UNL     1     -10.686   9.763  68.122  1.00  0.00    -0.280 C  
HETATM    7  N   UNL     1     -11.896   8.037  70.263  1.00  0.00    -0.462 N  
HETATM    8  H   UNL     1     -12.354   7.869  69.368  1.00  0.00     0.000 HD 
HETATM    9  O   UNL     1     -10.933   9.672  71.560  1.00  0.00    -0.348 OA 
ENDROOT
BRANCH   6  10
HETATM   10  C   UNL     1      -9.229   9.630  68.474  1.00  0.00    -0.137 C  
HETATM   11  C   UNL     1      -8.287  10.504  68.100  1.00  0.00    -0.119 C  
ENDBRANCH   6  10
BRANCH   7  12
HETATM   12  C   UNL     1     -11.813   6.972  71.115  1.00  0.00    -0.338 C  
HETATM   13  N   UNL     1     -12.589   7.017  72.222  1.00  0.00    -0.528 N  
HETATM   14  O   UNL     1     -11.078   6.020  70.877  1.00  0.00    -0.291 OA 
HETATM   15  H1  UNL     1     -12.527   6.223  72.858  1.00  0.00     0.000 HD 
HETATM   16  H2  UNL     1     -13.205   7.808  72.412  1.00  0.00     0.000 HD 
ENDBRANCH   7  12
TORSDOF 2
ENDMDL
MODEL       78
REMARK 921   NORMALIZED FREE ENERGY PREDICTED BY IDOCK:   -3.48 KCAL/MOL
REMARK 922        TOTAL FREE ENERGY PREDICTED BY IDOCK:   -4.29 KCAL/MOL
REMARK 923 INTER-LIGAND FREE ENERGY PREDICTED BY IDOCK:   -4.02 KCAL/MOL
REMARK 924 INTRA-LIGAND FREE ENERGY PREDICTED BY IDOCK:   -0.27 KCAL/MOL
REMARK 927      BINDING AFFINITY PREDICTED BY RF-SCORE:    0.00 PKD
ROOT
HETATM    1  C   UNL     1     -12.340  11.894  63.604  1.00  0.00    -0.591 C  
HETATM    2  C   UNL     1     -11.437  12.908  64.318  1.00  0.00    -0.427 C  
HETATM    3  C   UNL     1     -12.154  14.269  64.283  1.00  0.00    -0.467 C  
HETATM    4  C   UNL     1     -11.073  12.482  65.776  1.00  0.00    -0.343 C  
HETATM    5  C   UNL     1     -10.079  13.472  66.409  1.00  0.00    -0.294 C  
HETATM    6  C   UNL     1     -10.503  11.047  65.899  1.00  0.00    -0.300 C  
HETATM    7  N   UNL     1      -9.902  13.315  67.775  1.00  0.00    -0.218 N  
HETATM    8  H   UNL     1     -10.490  12.619  68.233  1.00  0.00     0.000 HD 
HETATM    9  O   UNL     1      -9.498  14.342  65.759  1.00  0.00    -0.228 OA 
ENDROOT
BRANCH   6  10
HETATM   10  C   UNL     1      -9.150  10.869  65.265  1.00  0.00    -0.217 C  
HETATM   11  C   UNL     1      -8.872   9.938  64.345  1.00  0.00    -0.245 C  
ENDBRANCH   6  10
BRANCH   7  12
HETATM   12  C   UNL     1      -9.024  13.994  68.573  1.00  0.00    -0.160 C  
HETATM   13  N   UNL     1      -9.554  14.900  69.426  1.00  0.00    -0.396 N  
HETATM   14  O   UNL     1      -7.819  13.779  68.520  1.00  0.00    -0.132 OA 
HETATM   15  H1  UNL     1      -8.899  15.406  70.021  1.00  0.00     0.000 HD 
HETATM   16  H2  UNL     1     -10.559  15.069  69.471  1.00  0.00     0.000 HD 
ENDBRANCH   7  12
TORSDOF 2
ENDMDL
MODEL       79
REMARK 921   NORMALIZED FREE ENERGY PREDICTED BY IDOCK:   -3.47 KCAL/MOL
REMARK 922        TOTAL FREE ENERGY PREDICTED BY IDOCK:   -4.28 KCAL/MOL
REMARK 923 INTER-LIGAND FREE ENERGY PREDICTED BY IDOCK:   -3.99 KCAL/MOL
REMARK 924 INTRA-LIGAND FREE ENERGY PREDICTED BY IDOCK:   -0.29 KCAL/MOL
REMARK 927      BINDING AFFINITY PREDICTED BY RF-SCORE:    0.00 PKD
ROOT
HETATM    1  C   UNL     1      -9.264   6.043  71.538  1.00  0.00    -0.151 C  
HETATM    2  C   UNL     1     -10.266   7.202  71.459  1.00  0.00    -0.210 C  
HETATM    3  C   UNL     1     -10.326   7.855  72.851  1.00  0.00    -0.413 C  
HETATM    4  C   UNL     1      -9.914   8.240  70.347  1.00  0.00    -0.196 C  
HETATM    5  C   UNL     1     -11.004   9.320  70.234  1.00  0.00    -0.247 C  
HETATM    6  C   UNL     1      -9.670   7.621  68.949  1.00  0.00    -0.156 C  
HETATM    7  N   UNL     1     -10.653  10.413  69.458  1.00  0.00    -0.232 N  
HETATM    8  H   UNL     1      -9.698  10.431  69.101  1.00  0.00     0.000 HD 
HETATM    9  O   UNL     1     -12.096   9.228  70.798  1.00  0.00    -0.263 OA 
ENDROOT
BRANCH   6  10
HETATM   10  C   UNL     1     -10.900   7.023  68.320  1.00  0.00    -0.198 C  
HETATM   11  C   UNL     1     -10.930   6.498  67.090  1.00  0.00    -0.480 C  
ENDBRANCH   6  10
BRANCH   7  12
HETATM   12  C   UNL     1     -11.450  11.471  69.118  1.00  0.00    -0.297 C  
HETATM   13  N   UNL     1     -11.540  12.477  70.018  1.00  0.00    -0.530 N  
HETATM   14  O   UNL     1     -12.043  11.504  68.046  1.00  0.00    -0.617 OA 
HETATM   15  H1  UNL     1     -12.135  13.265  69.764  1.00  0.00     0.000 HD 
HETATM   16  H2  UNL     1     -11.039  12.448  70.905  1.00  0.00     0.000 HD 
ENDBRANCH   7  12
TORSDOF 2
ENDMDL
MODEL       80
REMARK 921   NORMALIZED FREE ENERGY PREDICTED BY IDOCK:   -3.45 KCAL/MOL
REMARK 922        TOTAL FREE ENERGY PREDICTED BY IDOCK:   -4.26 KCAL/MOL
REMARK 923 INTER-LIGAND FREE ENERGY PREDICTED BY IDOCK:   -3.87 KCAL/MOL
REMARK 924 INTRA-LIGAND FREE ENERGY PREDICTED BY IDOCK:   -0.39 KCAL/MOL
REMARK 927      BINDING AFFINITY PREDICTED BY RF-SCORE:    0.00 PKD
ROOT
HETATM    1  C   UNL     1     -10.028   5.695  70.109  1.00  0.00    -0.270 C  
HETATM    2  C   UNL     1      -9.567   4.981  68.832  1.00  0.00    -0.213 C  
HETATM    3  C   UNL     1      -9.356   3.497  69.184  1.00  0.00    -0.242 C  
HETATM    4  C   UNL     1     -10.559   5.158  67.639  1.00  0.00    -0.062 C  
HETATM    5  C   UNL     1     -10.000   4.520  66.355  1.00  0.00    -0.245 C  
HETATM    6  C   UNL     1     -10.947   6.628  67.345  1.00  0.00    -0.434 C  
HETATM    7  N   UNL     1     -10.917   4.407  65.323  1.00  0.00    -0.846 N  
HETATM    8  H   UNL     1     -11.875   4.686  65.532  1.00  0.00     0.000 HD 
HETATM    9  O   UNL     1      -8.836   4.129  66.257  1.00  0.00    -0.113 OA 
ENDROOT
BRANCH   6  10
HETATM   10  C   UNL     1      -9.813   7.469  66.823  1.00  0.00    -0.295 C  
HETATM   11  C   UNL     1      -9.913   8.777  66.557  1.00  0.00    -0.360 C  
ENDBRANCH   6  10
BRANCH   7  12
HETATM   12  C   UNL     1     -10.675   3.961  64.053  1.00  0.00    -0.208 C  
HETATM   13  N   UNL     1      -9.639   4.530  63.397  1.00  0.00    -0.336 N  
HETATM   14  O   UNL     1     -11.361   3.081  63.546  1.00  0.00    -0.243 OA 
HETATM   15  H1  UNL     1      -9.459   4.198  62.450  1.00  0.00     0.000 HD 
HETATM   16  H2  UNL     1      -9.066   5.257  63.827  1.00  0.00     0.000 HD 
ENDBRANCH   7  12
TORSDOF 2
ENDMDL
MODEL       81
REMARK 921   NORMALIZED FREE ENERGY PREDICTED BY IDOCK:   -3.45 KCAL/MOL
REMARK 922        TOTAL FREE ENERGY PREDICTED BY IDOCK:   -4.25 KCAL/MOL
REMARK 923 INTER-LIGAND FREE ENERGY PREDICTED BY IDOCK:   -3.86 KCAL/MOL
REMARK 924 INTRA-LIGAND FREE ENERGY PREDICTED BY IDOCK:   -0.39 KCAL/MOL
REMARK 927      BINDING AFFINITY PREDICTED BY RF-SCORE:    0.00 PKD
ROOT
HETATM    1  C   UNL     1     -12.640  12.744  65.251  1.00  0.00    -0.460 C  
HETATM    2  C   UNL     1     -11.177  13.135  65.492  1.00  0.00    -0.305 C  
HETATM    3  C   UNL     1     -10.374  12.702  64.253  1.00  0.00    -0.399 C  
HETATM    4  C   UNL     1     -10.993  14.655  65.800  1.00  0.00    -0.330 C  
HETATM    5  C   UNL     1      -9.527  14.976  66.143  1.00  0.00    -0.313 C  
HETATM    6  C   UNL     1     -11.905  15.193  66.930  1.00  0.00    -0.006 C  
HETATM    7  N   UNL     1      -9.227  16.329  66.178  1.00  0.00    -0.322 N  
HETATM    8  H   UNL     1      -9.974  16.968  65.908  1.00  0.00     0.000 HD 
HETATM    9  O   UNL     1      -8.685  14.103  66.356  1.00  0.00    -0.051 OA 
ENDROOT
BRANCH   6  10
HETATM   10  C   UNL     1     -11.580  14.645  68.293  1.00  0.00    -0.353 C  
HETATM   11  C   UNL     1     -11.841  15.286  69.438  1.00  0.00    -0.367 C  
ENDBRANCH   6  10
BRANCH   7  12
HETATM   12  C   UNL     1      -8.037  16.898  66.536  1.00  0.00    -0.291 C  
HETATM   13  N   UNL     1      -7.499  16.494  67.709  1.00  0.00    -0.141 N  
HETATM   14  O   UNL     1      -7.485  17.725  65.819  1.00  0.00    -0.526 OA 
HETATM   15  H1  UNL     1      -6.611  16.919  67.975  1.00  0.00     0.000 HD 
HETATM   16  H2  UNL     1      -7.958  15.799  68.298  1.00  0.00     0.000 HD 
ENDBRANCH   7  12
TORSDOF 2
ENDMDL
MODEL       82
REMARK 921   NORMALIZED FREE ENERGY PREDICTED BY IDOCK:   -3.45 KCAL/MOL
REMARK 922        TOTAL FREE ENERGY PREDICTED BY IDOCK:   -4.25 KCAL/MOL
REMARK 923 INTER-LIGAND FREE ENERGY PREDICTED BY IDOCK:   -3.80 KCAL/MOL
REMARK 924 INTRA-LIGAND FREE ENERGY PREDICTED BY IDOCK:   -0.45 KCAL/MOL
REMARK 927      BINDING AFFINITY PREDICTED BY RF-SCORE:    0.00 PKD
ROOT
HETATM    1  C   UNL     1      -9.587  17.334  66.164  1.00  0.00    -0.224 C  
HETATM    2  C   UNL     1     -10.358  16.015  66.018  1.00  0.00    -0.366 C  
HETATM    3  C   UNL     1     -11.158  16.092  64.706  1.00  0.00    -0.378 C  
HETATM    4  C   UNL     1      -9.432  14.758  66.059  1.00  0.00    -0.299 C  
HETATM    5  C   UNL     1     -10.259  13.461  66.021  1.00  0.00    -0.300 C  
HETATM    6  C   UNL     1      -8.474  14.710  67.275  1.00  0.00    -0.234 C  
HETATM    7  N   UNL     1      -9.518  12.312  65.798  1.00  0.00    -0.409 N  
HETATM    8  H   UNL     1      -8.524  12.441  65.612  1.00  0.00     0.000 HD 
HETATM    9  O   UNL     1     -11.483  13.445  66.165  1.00  0.00    -0.311 OA 
ENDROOT
BRANCH   6  10
HETATM   10  C   UNL     1      -9.170  14.524  68.596  1.00  0.00    -0.192 C  
HETATM   11  C   UNL     1      -9.383  15.511  69.475  1.00  0.00    -0.276 C  
ENDBRANCH   6  10
BRANCH   7  12
HETATM   12  C   UNL     1      -9.976  11.024  65.800  1.00  0.00    -0.244 C  
HETATM   13  N   UNL     1     -10.501  10.568  66.960  1.00  0.00    -0.237 N  
HETATM   14  O   UNL     1      -9.922  10.327  64.793  1.00  0.00    -0.331 OA 
HETATM   15  H1  UNL     1     -10.843   9.607  66.961  1.00  0.00     0.000 HD 
HETATM   16  H2  UNL     1     -10.551  11.155  67.792  1.00  0.00     0.000 HD 
ENDBRANCH   7  12
TORSDOF 2
ENDMDL
MODEL       83
REMARK 921   NORMALIZED FREE ENERGY PREDICTED BY IDOCK:   -3.43 KCAL/MOL
REMARK 922        TOTAL FREE ENERGY PREDICTED BY IDOCK:   -4.24 KCAL/MOL
REMARK 923 INTER-LIGAND FREE ENERGY PREDICTED BY IDOCK:   -3.79 KCAL/MOL
REMARK 924 INTRA-LIGAND FREE ENERGY PREDICTED BY IDOCK:   -0.45 KCAL/MOL
REMARK 927      BINDING AFFINITY PREDICTED BY RF-SCORE:    0.00 PKD
ROOT
HETATM    1  C   UNL     1     -12.915  11.528  71.528  1.00  0.00    -0.485 C  
HETATM    2  C   UNL     1     -11.803  10.611  71.001  1.00  0.00    -0.396 C  
HETATM    3  C   UNL     1     -11.890   9.287  71.781  1.00  0.00    -0.454 C  
HETATM    4  C   UNL     1     -11.881  10.380  69.459  1.00  0.00    -0.218 C  
HETATM    5  C   UNL     1     -10.685   9.548  68.964  1.00  0.00    -0.202 C  
HETATM    6  C   UNL     1     -11.971  11.681  68.623  1.00  0.00    -0.311 C  
HETATM    7  N   UNL     1     -10.806   9.083  67.664  1.00  0.00    -0.481 N  
HETATM    8  H   UNL     1     -11.690   9.273  67.193  1.00  0.00     0.000 HD 
HETATM    9  O   UNL     1      -9.705   9.303  69.669  1.00  0.00    -0.167 OA 
ENDROOT
BRANCH   6  10
HETATM   10  C   UNL     1     -10.725  12.524  68.664  1.00  0.00    -0.263 C  
HETATM   11  C   UNL     1     -10.719  13.835  68.934  1.00  0.00    -0.249 C  
ENDBRANCH   6  10
BRANCH   7  12
HETATM   12  C   UNL     1      -9.867   8.398  66.945  1.00  0.00    -0.245 C  
HETATM   13  N   UNL     1      -8.703   9.040  66.698  1.00  0.00    -0.125 N  
HETATM   14  O   UNL     1     -10.073   7.253  66.556  1.00  0.00    -0.188 OA 
HETATM   15  H1  UNL     1      -8.003   8.528  66.162  1.00  0.00     0.000 HD 
HETATM   16  H2  UNL     1      -8.533   9.989  67.032  1.00  0.00     0.000 HD 
ENDBRANCH   7  12
TORSDOF 2
ENDMDL
MODEL       84
REMARK 921   NORMALIZED FREE ENERGY PREDICTED BY IDOCK:   -3.41 KCAL/MOL
REMARK 922        TOTAL FREE ENERGY PREDICTED BY IDOCK:   -4.21 KCAL/MOL
REMARK 923 INTER-LIGAND FREE ENERGY PREDICTED BY IDOCK:   -3.82 KCAL/MOL
REMARK 924 INTRA-LIGAND FREE ENERGY PREDICTED BY IDOCK:   -0.40 KCAL/MOL
REMARK 927      BINDING AFFINITY PREDICTED BY RF-SCORE:    0.00 PKD
ROOT
HETATM    1  C   UNL     1     -13.667   9.241  72.205  1.00  0.00    -0.527 C  
HETATM    2  C   UNL     1     -12.461   9.252  71.256  1.00  0.00    -0.389 C  
HETATM    3  C   UNL     1     -12.479  10.594  70.504  1.00  0.00    -0.445 C  
HETATM    4  C   UNL     1     -11.103   9.018  71.991  1.00  0.00    -0.371 C  
HETATM    5  C   UNL     1      -9.940   8.927  70.987  1.00  0.00    -0.256 C  
HETATM    6  C   UNL     1     -11.079   7.768  72.905  1.00  0.00    -0.457 C  
HETATM    7  N   UNL     1      -8.680   8.976  71.560  1.00  0.00    -0.153 N  
HETATM    8  H   UNL     1      -8.643   9.137  72.566  1.00  0.00     0.000 HD 
HETATM    9  O   UNL     1     -10.114   8.832  69.771  1.00  0.00    -0.186 OA 
ENDROOT
BRANCH   6  10
HETATM   10  C   UNL     1     -11.163   6.463  72.161  1.00  0.00    -0.319 C  
HETATM   11  C   UNL     1     -11.435   5.288  72.742  1.00  0.00    -0.317 C  
ENDBRANCH   6  10
BRANCH   7  12
HETATM   12  C   UNL     1      -7.480   8.833  70.921  1.00  0.00    -0.091 C  
HETATM   13  N   UNL     1      -7.358   7.775  70.087  1.00  0.00    -0.070 N  
HETATM   14  O   UNL     1      -6.567   9.633  71.093  1.00  0.00    -0.238 OA 
HETATM   15  H1  UNL     1      -6.463   7.668  69.610  1.00  0.00     0.000 HD 
HETATM   16  H2  UNL     1      -8.124   7.117  69.941  1.00  0.00     0.000 HD 
ENDBRANCH   7  12
TORSDOF 2
ENDMDL
MODEL       85
REMARK 921   NORMALIZED FREE ENERGY PREDICTED BY IDOCK:   -3.40 KCAL/MOL
REMARK 922        TOTAL FREE ENERGY PREDICTED BY IDOCK:   -4.20 KCAL/MOL
REMARK 923 INTER-LIGAND FREE ENERGY PREDICTED BY IDOCK:   -4.40 KCAL/MOL
REMARK 924 INTRA-LIGAND FREE ENERGY PREDICTED BY IDOCK:    0.20 KCAL/MOL
REMARK 927      BINDING AFFINITY PREDICTED BY RF-SCORE:    0.00 PKD
ROOT
HETATM    1  C   UNL     1     -11.979  13.452  68.113  1.00  0.00    -0.356 C  
HETATM    2  C   UNL     1     -11.936  12.972  66.656  1.00  0.00    -0.453 C  
HETATM    3  C   UNL     1     -12.426  14.134  65.774  1.00  0.00    -0.490 C  
HETATM    4  C   UNL     1     -10.524  12.468  66.220  1.00  0.00    -0.268 C  
HETATM    5  C   UNL     1     -10.559  11.896  64.792  1.00  0.00    -0.299 C  
HETATM    6  C   UNL     1      -9.899  11.417  67.170  1.00  0.00    -0.212 C  
HETATM    7  N   UNL     1      -9.311  11.664  64.235  1.00  0.00    -0.435 N  
HETATM    8  H   UNL     1      -8.505  11.956  64.786  1.00  0.00     0.000 HD 
HETATM    9  O   UNL     1     -11.609  11.674  64.187  1.00  0.00    -0.333 OA 
ENDROOT
BRANCH   6  10
HETATM   10  C   UNL     1     -10.619  10.095  67.180  1.00  0.00    -0.308 C  
HETATM   11  C   UNL     1     -10.075   8.945  66.764  1.00  0.00    -0.350 C  
ENDBRANCH   6  10
BRANCH   7  12
HETATM   12  C   UNL     1      -9.046  11.085  63.025  1.00  0.00    -0.291 C  
HETATM   13  N   UNL     1      -7.789  11.228  62.545  1.00  0.00    -0.445 N  
HETATM   14  O   UNL     1      -9.907  10.461  62.415  1.00  0.00    -0.161 OA 
HETATM   15  H1  UNL     1      -7.592  10.796  61.643  1.00  0.00     0.000 HD 
HETATM   16  H2  UNL     1      -7.075  11.742  63.061  1.00  0.00     0.000 HD 
ENDBRANCH   7  12
TORSDOF 2
ENDMDL
MODEL       86
REMARK 921   NORMALIZED FREE ENERGY PREDICTED BY IDOCK:   -3.39 KCAL/MOL
REMARK 922        TOTAL FREE ENERGY PREDICTED BY IDOCK:   -4.19 KCAL/MOL
REMARK 923 INTER-LIGAND FREE ENERGY PREDICTED BY IDOCK:   -3.78 KCAL/MOL
REMARK 924 INTRA-LIGAND FREE ENERGY PREDICTED BY IDOCK:   -0.42 KCAL/MOL
REMARK 927      BINDING AFFINITY PREDICTED BY RF-SCORE:    0.00 PKD
ROOT
HETATM    1  C   UNL     1      -7.488   6.721  70.997  1.00  0.00    -0.083 C  
HETATM    2  C   UNL     1      -9.019   6.752  71.084  1.00  0.00    -0.147 C  
HETATM    3  C   UNL     1      -9.444   5.692  72.116  1.00  0.00    -0.166 C  
HETATM    4  C   UNL     1      -9.584   8.164  71.437  1.00  0.00    -0.212 C  
HETATM    5  C   UNL     1     -11.122   8.169  71.403  1.00  0.00    -0.247 C  
HETATM    6  C   UNL     1      -9.055   9.307  70.536  1.00  0.00    -0.307 C  
HETATM    7  N   UNL     1     -11.706   9.301  71.948  1.00  0.00    -0.373 N  
HETATM    8  H   UNL     1     -11.075   9.978  72.377  1.00  0.00     0.000 HD 
HETATM    9  O   UNL     1     -11.782   7.237  70.940  1.00  0.00    -0.298 OA 
ENDROOT
BRANCH   6  10
HETATM   10  C   UNL     1      -9.522   9.227  69.107  1.00  0.00    -0.157 C  
HETATM   11  C   UNL     1      -8.745   8.844  68.087  1.00  0.00    -0.134 C  
ENDBRANCH   6  10
BRANCH   7  12
HETATM   12  C   UNL     1     -13.038   9.608  71.973  1.00  0.00    -0.445 C  
HETATM   13  N   UNL     1     -13.791   8.972  72.898  1.00  0.00    -0.923 N  
HETATM   14  O   UNL     1     -13.517  10.429  71.198  1.00  0.00    -0.287 OA 
HETATM   15  H1  UNL     1     -14.785   9.201  72.916  1.00  0.00     0.000 HD 
HETATM   16  H2  UNL     1     -13.386   8.296  73.546  1.00  0.00     0.000 HD 
ENDBRANCH   7  12
TORSDOF 2
ENDMDL
MODEL       87
REMARK 921   NORMALIZED FREE ENERGY PREDICTED BY IDOCK:   -3.36 KCAL/MOL
REMARK 922        TOTAL FREE ENERGY PREDICTED BY IDOCK:   -4.16 KCAL/MOL
REMARK 923 INTER-LIGAND FREE ENERGY PREDICTED BY IDOCK:   -3.81 KCAL/MOL
REMARK 924 INTRA-LIGAND FREE ENERGY PREDICTED BY IDOCK:   -0.35 KCAL/MOL
REMARK 927      BINDING AFFINITY PREDICTED BY RF-SCORE:    0.00 PKD
ROOT
HETATM    1  C   UNL     1     -10.361   9.046  67.189  1.00  0.00    -0.342 C  
HETATM    2  C   UNL     1      -9.916  10.477  67.515  1.00  0.00    -0.204 C  
HETATM    3  C   UNL     1      -9.046  10.967  66.344  1.00  0.00    -0.188 C  
HETATM    4  C   UNL     1     -11.113  11.442  67.789  1.00  0.00    -0.323 C  
HETATM    5  C   UNL     1     -10.615  12.833  68.218  1.00  0.00    -0.238 C  
HETATM    6  C   UNL     1     -12.125  10.922  68.840  1.00  0.00    -0.186 C  
HETATM    7  N   UNL     1     -11.593  13.815  68.233  1.00  0.00    -0.316 N  
HETATM    8  H   UNL     1     -12.516  13.544  67.896  1.00  0.00     0.000 HD 
HETATM    9  O   UNL     1      -9.440  13.060  68.512  1.00  0.00    -0.190 OA 
ENDROOT
BRANCH   6  10
HETATM   10  C   UNL     1     -11.571  10.844  70.237  1.00  0.00    -0.426 C  
HETATM   11  C   UNL     1     -12.217  10.285  71.268  1.00  0.00    -0.496 C  
ENDBRANCH   6  10
BRANCH   7  12
HETATM   12  C   UNL     1     -11.452  15.109  68.652  1.00  0.00    -0.325 C  
HETATM   13  N   UNL     1     -11.351  15.308  69.986  1.00  0.00    -0.267 N  
HETATM   14  O   UNL     1     -11.409  16.036  67.851  1.00  0.00    -0.314 OA 
HETATM   15  H1  UNL     1     -11.246  16.274  70.298  1.00  0.00     0.000 HD 
HETATM   16  H2  UNL     1     -11.379  14.532  70.647  1.00  0.00     0.000 HD 
ENDBRANCH   7  12
TORSDOF 2
ENDMDL
MODEL       88
REMARK 921   NORMALIZED FREE ENERGY PREDICTED BY IDOCK:   -3.36 KCAL/MOL
REMARK 922        TOTAL FREE ENERGY PREDICTED BY IDOCK:   -4.15 KCAL/MOL
REMARK 923 INTER-LIGAND FREE ENERGY PREDICTED BY IDOCK:   -3.70 KCAL/MOL
REMARK 924 INTRA-LIGAND FREE ENERGY PREDICTED BY IDOCK:   -0.46 KCAL/MOL
REMARK 927      BINDING AFFINITY PREDICTED BY RF-SCORE:    0.00 PKD
ROOT
HETATM    1  C   UNL     1     -10.753  16.355  67.500  1.00  0.00    -0.298 C  
HETATM    2  C   UNL     1      -9.957  15.092  67.856  1.00  0.00    -0.221 C  
HETATM    3  C   UNL     1      -9.009  15.456  69.012  1.00  0.00    -0.230 C  
HETATM    4  C   UNL     1     -10.868  13.876  68.214  1.00  0.00    -0.263 C  
HETATM    5  C   UNL     1     -10.029  12.609  68.453  1.00  0.00    -0.210 C  
HETATM    6  C   UNL     1     -11.961  13.565  67.162  1.00  0.00    -0.426 C  
HETATM    7  N   UNL     1     -10.727  11.555  69.021  1.00  0.00    -0.264 N  
HETATM    8  H   UNL     1     -11.694  11.740  69.287  1.00  0.00     0.000 HD 
HETATM    9  O   UNL     1      -8.830  12.539  68.176  1.00  0.00    -0.182 OA 
ENDROOT
BRANCH   6  10
HETATM   10  C   UNL     1     -11.424  13.067  65.848  1.00  0.00    -0.374 C  
HETATM   11  C   UNL     1     -11.733  13.606  64.662  1.00  0.00    -0.414 C  
ENDBRANCH   6  10
BRANCH   7  12
HETATM   12  C   UNL     1     -10.258  10.294  69.263  1.00  0.00    -0.227 C  
HETATM   13  N   UNL     1      -9.218  10.186  70.121  1.00  0.00    -0.369 N  
HETATM   14  O   UNL     1     -10.768   9.312  68.733  1.00  0.00    -0.217 OA 
HETATM   15  H1  UNL     1      -8.869   9.245  70.301  1.00  0.00     0.000 HD 
HETATM   16  H2  UNL     1      -8.804  11.005  70.566  1.00  0.00     0.000 HD 
ENDBRANCH   7  12
TORSDOF 2
ENDMDL
MODEL       89
REMARK 921   NORMALIZED FREE ENERGY PREDICTED BY IDOCK:   -3.34 KCAL/MOL
REMARK 922        TOTAL FREE ENERGY PREDICTED BY IDOCK:   -4.13 KCAL/MOL
REMARK 923 INTER-LIGAND FREE ENERGY PREDICTED BY IDOCK:   -3.67 KCAL/MOL
REMARK 924 INTRA-LIGAND FREE ENERGY PREDICTED BY IDOCK:   -0.46 KCAL/MOL
REMARK 927      BINDING AFFINITY PREDICTED BY RF-SCORE:    0.00 PKD
ROOT
HETATM    1  C   UNL     1     -10.619  16.089  65.238  1.00  0.00    -0.424 C  
HETATM    2  C   UNL     1      -9.973  15.873  66.613  1.00  0.00    -0.267 C  
HETATM    3  C   UNL     1      -9.768  14.359  66.793  1.00  0.00    -0.278 C  
HETATM    4  C   UNL     1      -8.640  16.665  66.793  1.00  0.00    -0.268 C  
HETATM    5  C   UNL     1      -8.090  16.505  68.222  1.00  0.00    -0.179 C  
HETATM    6  C   UNL     1      -8.742  18.173  66.458  1.00  0.00    -0.286 C  
HETATM    7  N   UNL     1      -6.792  16.958  68.393  1.00  0.00    -0.161 N  
HETATM    8  H   UNL     1      -6.309  17.282  67.556  1.00  0.00     0.000 HD 
HETATM    9  O   UNL     1      -8.745  16.003  69.136  1.00  0.00    -0.236 OA 
ENDROOT
BRANCH   6  10
HETATM   10  C   UNL     1      -9.601  18.957  67.413  1.00  0.00    -0.348 C  
HETATM   11  C   UNL     1     -10.656  19.690  67.039  1.00  0.00    -0.602 C  
ENDBRANCH   6  10
BRANCH   7  12
HETATM   12  C   UNL     1      -6.090  17.017  69.564  1.00  0.00    -0.233 C  
HETATM   13  N   UNL     1      -5.790  15.837  70.154  1.00  0.00    -0.161 N  
HETATM   14  O   UNL     1      -5.743  18.090  70.046  1.00  0.00    -0.233 OA 
HETATM   15  H1  UNL     1      -5.267  15.882  71.027  1.00  0.00     0.000 HD 
HETATM   16  H2  UNL     1      -6.074  14.947  69.744  1.00  0.00     0.000 HD 
ENDBRANCH   7  12
TORSDOF 2
ENDMDL
MODEL       90
REMARK 921   NORMALIZED FREE ENERGY PREDICTED BY IDOCK:   -3.31 KCAL/MOL
REMARK 922        TOTAL FREE ENERGY PREDICTED BY IDOCK:   -4.10 KCAL/MOL
REMARK 923 INTER-LIGAND FREE ENERGY PREDICTED BY IDOCK:   -4.07 KCAL/MOL
REMARK 924 INTRA-LIGAND FREE ENERGY PREDICTED BY IDOCK:   -0.02 KCAL/MOL
REMARK 927      BINDING AFFINITY PREDICTED BY RF-SCORE:    0.00 PKD
ROOT
HETATM    1  C   UNL     1     -10.689  11.389  67.992  1.00  0.00    -0.240 C  
HETATM    2  C   UNL     1     -10.720  12.427  66.863  1.00  0.00    -0.269 C  
HETATM    3  C   UNL     1     -12.023  12.210  66.073  1.00  0.00    -0.236 C  
HETATM    4  C   UNL     1     -10.593  13.895  67.379  1.00  0.00    -0.267 C  
HETATM    5  C   UNL     1     -10.518  14.889  66.206  1.00  0.00    -0.302 C  
HETATM    6  C   UNL     1      -9.391  14.138  68.324  1.00  0.00    -0.203 C  
HETATM    7  N   UNL     1     -10.661  16.219  66.568  1.00  0.00    -0.291 N  
HETATM    8  H   UNL     1     -10.870  16.404  67.549  1.00  0.00     0.000 HD 
HETATM    9  O   UNL     1     -10.357  14.532  65.038  1.00  0.00    -0.404 OA 
ENDROOT
BRANCH   6  10
HETATM   10  C   UNL     1      -8.049  14.017  67.653  1.00  0.00    -0.180 C  
HETATM   11  C   UNL     1      -7.148  13.072  67.949  1.00  0.00    -0.128 C  
ENDBRANCH   6  10
BRANCH   7  12
HETATM   12  C   UNL     1     -10.551  17.310  65.752  1.00  0.00    -0.194 C  
HETATM   13  N   UNL     1      -9.903  18.384  66.256  1.00  0.00    -0.346 N  
HETATM   14  O   UNL     1     -11.012  17.303  64.616  1.00  0.00    -1.013 OA 
HETATM   15  H1  UNL     1      -9.822  19.197  65.646  1.00  0.00     0.000 HD 
HETATM   16  H2  UNL     1      -9.514  18.381  67.199  1.00  0.00     0.000 HD 
ENDBRANCH   7  12
TORSDOF 2
ENDMDL
MODEL       91
REMARK 921   NORMALIZED FREE ENERGY PREDICTED BY IDOCK:   -3.28 KCAL/MOL
REMARK 922        TOTAL FREE ENERGY PREDICTED BY IDOCK:   -4.07 KCAL/MOL
REMARK 923 INTER-LIGAND FREE ENERGY PREDICTED BY IDOCK:   -3.63 KCAL/MOL
REMARK 924 INTRA-LIGAND FREE ENERGY PREDICTED BY IDOCK:   -0.43 KCAL/MOL
REMARK 927      BINDING AFFINITY PREDICTED BY RF-SCORE:    0.00 PKD
ROOT
HETATM    1  C   UNL     1      -9.817   9.514  65.973  1.00  0.00    -0.353 C  
HETATM    2  C   UNL     1     -10.177  10.079  67.353  1.00  0.00    -0.269 C  
HETATM    3  C   UNL     1     -11.064  11.317  67.126  1.00  0.00    -0.364 C  
HETATM    4  C   UNL     1     -10.870   9.032  68.280  1.00  0.00    -0.072 C  
HETATM    5  C   UNL     1     -11.111   9.612  69.685  1.00  0.00    -0.193 C  
HETATM    6  C   UNL     1     -10.107   7.691  68.412  1.00  0.00    -0.208 C  
HETATM    7  N   UNL     1     -11.943   8.848  70.488  1.00  0.00    -0.476 N  
HETATM    8  H   UNL     1     -12.366   8.028  70.055  1.00  0.00     0.000 HD 
HETATM    9  O   UNL     1     -10.615  10.674  70.063  1.00  0.00    -0.230 OA 
ENDROOT
BRANCH   6  10
HETATM   10  C   UNL     1      -8.793   7.802  69.137  1.00  0.00    -0.138 C  
HETATM   11  C   UNL     1      -7.647   7.275  68.691  1.00  0.00    -0.114 C  
ENDBRANCH   6  10
BRANCH   7  12
HETATM   12  C   UNL     1     -12.258   9.077  71.799  1.00  0.00    -0.364 C  
HETATM   13  N   UNL     1     -13.049  10.143  72.056  1.00  0.00    -0.451 N  
HETATM   14  O   UNL     1     -11.848   8.342  72.690  1.00  0.00    -0.401 OA 
HETATM   15  H1  UNL     1     -13.284  10.314  73.034  1.00  0.00     0.000 HD 
HETATM   16  H2  UNL     1     -13.394  10.747  71.310  1.00  0.00     0.000 HD 
ENDBRANCH   7  12
TORSDOF 2
ENDMDL
MODEL       92
REMARK 921   NORMALIZED FREE ENERGY PREDICTED BY IDOCK:   -3.28 KCAL/MOL
REMARK 922        TOTAL FREE ENERGY PREDICTED BY IDOCK:   -4.07 KCAL/MOL
REMARK 923 INTER-LIGAND FREE ENERGY PREDICTED BY IDOCK:   -3.66 KCAL/MOL
REMARK 924 INTRA-LIGAND FREE ENERGY PREDICTED BY IDOCK:   -0.40 KCAL/MOL
REMARK 927      BINDING AFFINITY PREDICTED BY RF-SCORE:    0.00 PKD
ROOT
HETATM    1  C   UNL     1     -12.092  14.267  69.500  1.00  0.00    -0.376 C  
HETATM    2  C   UNL     1     -11.998  13.177  68.425  1.00  0.00    -0.324 C  
HETATM    3  C   UNL     1     -11.686  13.874  67.089  1.00  0.00    -0.419 C  
HETATM    4  C   UNL     1     -10.946  12.074  68.763  1.00  0.00    -0.282 C  
HETATM    5  C   UNL     1     -10.968  10.949  67.713  1.00  0.00    -0.283 C  
HETATM    6  C   UNL     1     -11.102  11.452  70.172  1.00  0.00     0.064 C  
HETATM    7  N   UNL     1      -9.902  10.067  67.792  1.00  0.00    -0.153 N  
HETATM    8  H   UNL     1      -9.181  10.285  68.479  1.00  0.00     0.000 HD 
HETATM    9  O   UNL     1     -11.853  10.848  66.862  1.00  0.00    -0.128 OA 
ENDROOT
BRANCH   6  10
HETATM   10  C   UNL     1     -12.353  10.633  70.345  1.00  0.00    -0.428 C  
HETATM   11  C   UNL     1     -12.856  10.279  71.534  1.00  0.00    -0.557 C  
ENDBRANCH   6  10
BRANCH   7  12
HETATM   12  C   UNL     1      -9.713   8.936  67.047  1.00  0.00    -0.190 C  
HETATM   13  N   UNL     1      -9.672   9.093  65.705  1.00  0.00    -0.447 N  
HETATM   14  O   UNL     1      -9.578   7.840  67.578  1.00  0.00    -0.140 OA 
HETATM   15  H1  UNL     1      -9.532   8.249  65.149  1.00  0.00     0.000 HD 
HETATM   16  H2  UNL     1      -9.777  10.009  65.269  1.00  0.00     0.000 HD 
ENDBRANCH   7  12
TORSDOF 2
ENDMDL
MODEL       93
REMARK 921   NORMALIZED FREE ENERGY PREDICTED BY IDOCK:   -3.27 KCAL/MOL
REMARK 922        TOTAL FREE ENERGY PREDICTED BY IDOCK:   -4.05 KCAL/MOL
REMARK 923 INTER-LIGAND FREE ENERGY PREDICTED BY IDOCK:   -3.81 KCAL/MOL
REMARK 924 INTRA-LIGAND FREE ENERGY PREDICTED BY IDOCK:   -0.25 KCAL/MOL
REMARK 927      BINDING AFFINITY PREDICTED BY RF-SCORE:    0.00 PKD
ROOT
HETATM    1  C   UNL     1     -12.596  15.268  70.305  1.00  0.00    -0.388 C  
HETATM    2  C   UNL     1     -11.784  14.109  69.712  1.00  0.00    -0.370 C  
HETATM    3  C   UNL     1     -12.252  12.817  70.403  1.00  0.00    -0.371 C  
HETATM    4  C   UNL     1     -11.903  14.012  68.158  1.00  0.00    -0.402 C  
HETATM    5  C   UNL     1     -10.986  12.908  67.602  1.00  0.00    -0.247 C  
HETATM    6  C   UNL     1     -11.610  15.336  67.411  1.00  0.00    -0.196 C  
HETATM    7  N   UNL     1     -11.217  12.583  66.275  1.00  0.00    -0.299 N  
HETATM    8  H   UNL     1     -12.005  13.046  65.823  1.00  0.00     0.000 HD 
HETATM    9  O   UNL     1     -10.125  12.349  68.284  1.00  0.00    -0.217 OA 
ENDROOT
BRANCH   6  10
HETATM   10  C   UNL     1     -10.177  15.786  67.501  1.00  0.00    -0.265 C  
HETATM   11  C   UNL     1      -9.761  16.809  68.257  1.00  0.00    -0.252 C  
ENDBRANCH   6  10
BRANCH   7  12
HETATM   12  C   UNL     1     -10.501  11.707  65.507  1.00  0.00    -0.273 C  
HETATM   13  N   UNL     1      -9.262  11.388  65.943  1.00  0.00    -0.216 N  
HETATM   14  O   UNL     1     -10.971  11.230  64.480  1.00  0.00    -0.310 OA 
HETATM   15  H1  UNL     1      -8.728  10.735  65.370  1.00  0.00     0.000 HD 
HETATM   16  H2  UNL     1      -8.879  11.782  66.804  1.00  0.00     0.000 HD 
ENDBRANCH   7  12
TORSDOF 2
ENDMDL
MODEL       94
REMARK 921   NORMALIZED FREE ENERGY PREDICTED BY IDOCK:   -3.27 KCAL/MOL
REMARK 922        TOTAL FREE ENERGY PREDICTED BY IDOCK:   -4.05 KCAL/MOL
REMARK 923 INTER-LIGAND FREE ENERGY PREDICTED BY IDOCK:   -3.71 KCAL/MOL
REMARK 924 INTRA-LIGAND FREE ENERGY PREDICTED BY IDOCK:   -0.35 KCAL/MOL
REMARK 927      BINDING AFFINITY PREDICTED BY RF-SCORE:    0.00 PKD
ROOT
HETATM    1  C   UNL     1     -10.302  10.183  68.379  1.00  0.00    -0.210 C  
HETATM    2  C   UNL     1     -10.669   8.737  68.734  1.00  0.00    -0.111 C  
HETATM    3  C   UNL     1      -9.938   7.819  67.738  1.00  0.00    -0.220 C  
HETATM    4  C   UNL     1     -10.336   8.367  70.214  1.00  0.00    -0.212 C  
HETATM    5  C   UNL     1     -10.822   6.947  70.552  1.00  0.00    -0.253 C  
HETATM    6  C   UNL     1     -10.902   9.357  71.262  1.00  0.00    -0.431 C  
HETATM    7  N   UNL     1     -10.346   6.446  71.753  1.00  0.00    -0.201 N  
HETATM    8  H   UNL     1      -9.674   7.027  72.255  1.00  0.00     0.000 HD 
HETATM    9  O   UNL     1     -11.563   6.301  69.810  1.00  0.00    -0.436 OA 
ENDROOT
BRANCH   6  10
HETATM   10  C   UNL     1     -12.404   9.354  71.360  1.00  0.00    -0.439 C  
HETATM   11  C   UNL     1     -13.083   8.894  72.417  1.00  0.00    -0.476 C  
ENDBRANCH   6  10
BRANCH   7  12
HETATM   12  C   UNL     1     -10.679   5.256  72.338  1.00  0.00    -0.229 C  
HETATM   13  N   UNL     1     -10.113   4.144  71.819  1.00  0.00    -0.171 N  
HETATM   14  O   UNL     1     -11.447   5.209  73.293  1.00  0.00    -0.317 OA 
HETATM   15  H1  UNL     1     -10.363   3.256  72.255  1.00  0.00     0.000 HD 
HETATM   16  H2  UNL     1      -9.469   4.189  71.029  1.00  0.00     0.000 HD 
ENDBRANCH   7  12
TORSDOF 2
ENDMDL
MODEL       95
REMARK 921   NORMALIZED FREE ENERGY PREDICTED BY IDOCK:   -3.25 KCAL/MOL
REMARK 922        TOTAL FREE ENERGY PREDICTED BY IDOCK:   -4.03 KCAL/MOL
REMARK 923 INTER-LIGAND FREE ENERGY PREDICTED BY IDOCK:   -3.69 KCAL/MOL
REMARK 924 INTRA-LIGAND FREE ENERGY PREDICTED BY IDOCK:   -0.34 KCAL/MOL
REMARK 927      BINDING AFFINITY PREDICTED BY RF-SCORE:    0.00 PKD
ROOT
HETATM    1  C   UNL     1      -7.484   9.068  68.571  1.00  0.00    -0.085 C  
HETATM    2  C   UNL     1      -8.724   8.440  69.220  1.00  0.00    -0.138 C  
HETATM    3  C   UNL     1      -8.239   7.300  70.133  1.00  0.00    -0.134 C  
HETATM    4  C   UNL     1      -9.597   9.475  69.998  1.00  0.00    -0.272 C  
HETATM    5  C   UNL     1     -10.883   8.820  70.535  1.00  0.00    -0.233 C  
HETATM    6  C   UNL     1      -9.976  10.734  69.181  1.00  0.00    -0.206 C  
HETATM    7  N   UNL     1     -11.584   9.593  71.446  1.00  0.00    -0.385 N  
HETATM    8  H   UNL     1     -11.153  10.474  71.724  1.00  0.00     0.000 HD 
HETATM    9  O   UNL     1     -11.252   7.696  70.193  1.00  0.00    -0.254 OA 
ENDROOT
BRANCH   6  10
HETATM   10  C   UNL     1     -10.913  10.463  68.035  1.00  0.00    -0.347 C  
HETATM   11  C   UNL     1     -11.464  11.419  67.279  1.00  0.00    -0.301 C  
ENDBRANCH   6  10
BRANCH   7  12
HETATM   12  C   UNL     1     -12.793   9.300  72.014  1.00  0.00    -0.415 C  
HETATM   13  N   UNL     1     -12.993   8.016  72.390  1.00  0.00    -0.548 N  
HETATM   14  O   UNL     1     -13.645  10.165  72.180  1.00  0.00    -0.368 OA 
HETATM   15  H1  UNL     1     -13.895   7.798  72.813  1.00  0.00     0.000 HD 
HETATM   16  H2  UNL     1     -12.277   7.302  72.257  1.00  0.00     0.000 HD 
ENDBRANCH   7  12
TORSDOF 2
ENDMDL
MODEL       96
REMARK 921   NORMALIZED FREE ENERGY PREDICTED BY IDOCK:   -3.24 KCAL/MOL
REMARK 922        TOTAL FREE ENERGY PREDICTED BY IDOCK:   -4.02 KCAL/MOL
REMARK 923 INTER-LIGAND FREE ENERGY PREDICTED BY IDOCK:   -3.63 KCAL/MOL
REMARK 924 INTRA-LIGAND FREE ENERGY PREDICTED BY IDOCK:   -0.39 KCAL/MOL
REMARK 927      BINDING AFFINITY PREDICTED BY RF-SCORE:    0.00 PKD
ROOT
HETATM    1  C   UNL     1     -10.227  14.825  65.156  1.00  0.00    -0.410 C  
HETATM    2  C   UNL     1     -11.184  14.948  66.349  1.00  0.00    -0.331 C  
HETATM    3  C   UNL     1     -12.214  13.810  66.232  1.00  0.00    -0.489 C  
HETATM    4  C   UNL     1     -10.450  14.925  67.727  1.00  0.00    -0.255 C  
HETATM    5  C   UNL     1     -11.437  15.162  68.883  1.00  0.00    -0.320 C  
HETATM    6  C   UNL     1      -9.282  15.936  67.845  1.00  0.00    -0.198 C  
HETATM    7  N   UNL     1     -10.920  14.906  70.143  1.00  0.00    -0.407 N  
HETATM    8  H   UNL     1      -9.975  14.523  70.178  1.00  0.00     0.000 HD 
HETATM    9  O   UNL     1     -12.597  15.536  68.704  1.00  0.00     0.254 OA 
ENDROOT
BRANCH   6  10
HETATM   10  C   UNL     1      -9.716  17.377  67.843  1.00  0.00    -0.272 C  
HETATM   11  C   UNL     1      -9.610  18.191  68.900  1.00  0.00    -0.247 C  
ENDBRANCH   6  10
BRANCH   7  12
HETATM   12  C   UNL     1     -11.540  15.111  71.344  1.00  0.00    -0.373 C  
HETATM   13  N   UNL     1     -11.752  16.396  71.707  1.00  0.00    -0.628 N  
HETATM   14  O   UNL     1     -11.894  14.171  72.046  1.00  0.00     0.042 OA 
HETATM   15  H1  UNL     1     -12.215  16.549  72.602  1.00  0.00     0.000 HD 
HETATM   16  H2  UNL     1     -11.463  17.175  71.114  1.00  0.00     0.000 HD 
ENDBRANCH   7  12
TORSDOF 2
ENDMDL
MODEL       97
REMARK 921   NORMALIZED FREE ENERGY PREDICTED BY IDOCK:   -3.22 KCAL/MOL
REMARK 922        TOTAL FREE ENERGY PREDICTED BY IDOCK:   -4.00 KCAL/MOL
REMARK 923 INTER-LIGAND FREE ENERGY PREDICTED BY IDOCK:   -3.54 KCAL/MOL
REMARK 924 INTRA-LIGAND FREE ENERGY PREDICTED BY IDOCK:   -0.46 KCAL/MOL
REMARK 927      BINDING AFFINITY PREDICTED BY RF-SCORE:    0.00 PKD
ROOT
HETATM    1  C   UNL     1      -9.171   9.192  70.865  1.00  0.00    -0.326 C  
HETATM    2  C   UNL     1      -9.540   8.874  69.410  1.00  0.00    -0.163 C  
HETATM    3  C   UNL     1      -8.708   9.805  68.510  1.00  0.00    -0.120 C  
HETATM    4  C   UNL     1      -9.331   7.372  69.041  1.00  0.00    -0.145 C  
HETATM    5  C   UNL     1      -9.818   7.082  67.610  1.00  0.00    -0.147 C  
HETATM    6  C   UNL     1     -10.005   6.375  70.015  1.00  0.00    -0.200 C  
HETATM    7  N   UNL     1      -9.440   5.845  67.113  1.00  0.00    -0.115 N  
HETATM    8  H   UNL     1      -8.826   5.285  67.704  1.00  0.00     0.000 HD 
HETATM    9  O   UNL     1     -10.480   7.888  66.954  1.00  0.00    -0.325 OA 
ENDROOT
BRANCH   6  10
HETATM   10  C   UNL     1     -11.509   6.409  69.984  1.00  0.00    -0.496 C  
HETATM   11  C   UNL     1     -12.266   6.897  70.974  1.00  0.00    -0.427 C  
ENDBRANCH   6  10
BRANCH   7  12
HETATM   12  C   UNL     1      -9.801   5.295  65.915  1.00  0.00    -0.088 C  
HETATM   13  N   UNL     1     -11.109   4.992  65.755  1.00  0.00    -0.836 N  
HETATM   14  O   UNL     1      -8.976   5.099  65.029  1.00  0.00    -0.156 OA 
HETATM   15  H1  UNL     1     -11.379   4.582  64.861  1.00  0.00     0.000 HD 
HETATM   16  H2  UNL     1     -11.793   5.165  66.492  1.00  0.00     0.000 HD 
ENDBRANCH   7  12
TORSDOF 2
ENDMDL
MODEL       98
REMARK 921   NORMALIZED FREE ENERGY PREDICTED BY IDOCK:   -3.21 KCAL/MOL
REMARK 922        TOTAL FREE ENERGY PREDICTED BY IDOCK:   -3.99 KCAL/MOL
REMARK 923 INTER-LIGAND FREE ENERGY PREDICTED BY IDOCK:   -3.59 KCAL/MOL
REMARK 924 INTRA-LIGAND FREE ENERGY PREDICTED BY IDOCK:   -0.40 KCAL/MOL
REMARK 927      BINDING AFFINITY PREDICTED BY RF-SCORE:    0.00 PKD
ROOT
HETATM    1  C   UNL     1      -7.550   7.855  66.763  1.00  0.00    -0.098 C  
HETATM    2  C   UNL     1      -8.154   7.715  68.166  1.00  0.00    -0.124 C  
HETATM    3  C   UNL     1      -7.207   8.426  69.149  1.00  0.00    -0.065 C  
HETATM    4  C   UNL     1      -9.611   8.268  68.263  1.00  0.00    -0.158 C  
HETATM    5  C   UNL     1     -10.211   8.004  69.655  1.00  0.00    -0.208 C  
HETATM    6  C   UNL     1     -10.576   7.716  67.185  1.00  0.00    -0.410 C  
HETATM    7  N   UNL     1     -11.393   8.680  69.910  1.00  0.00    -0.452 N  
HETATM    8  H   UNL     1     -11.709   9.331  69.192  1.00  0.00     0.000 HD 
HETATM    9  O   UNL     1      -9.678   7.262  70.482  1.00  0.00    -0.176 OA 
ENDROOT
BRANCH   6  10
HETATM   10  C   UNL     1     -10.880   6.249  67.327  1.00  0.00    -0.457 C  
HETATM   11  C   UNL     1     -10.524   5.322  66.430  1.00  0.00    -0.347 C  
ENDBRANCH   6  10
BRANCH   7  12
HETATM   12  C   UNL     1     -12.181   8.568  71.021  1.00  0.00    -0.168 C  
HETATM   13  N   UNL     1     -12.960   7.466  71.105  1.00  0.00    -0.559 N  
HETATM   14  O   UNL     1     -12.170   9.423  71.900  1.00  0.00    -0.365 OA 
HETATM   15  H1  UNL     1     -13.548   7.382  71.934  1.00  0.00     0.000 HD 
HETATM   16  H2  UNL     1     -12.960   6.753  70.375  1.00  0.00     0.000 HD 
ENDBRANCH   7  12
TORSDOF 2
ENDMDL
MODEL       99
REMARK 921   NORMALIZED FREE ENERGY PREDICTED BY IDOCK:   -3.19 KCAL/MOL
REMARK 922        TOTAL FREE ENERGY PREDICTED BY IDOCK:   -3.97 KCAL/MOL
REMARK 923 INTER-LIGAND FREE ENERGY PREDICTED BY IDOCK:   -3.50 KCAL/MOL
REMARK 924 INTRA-LIGAND FREE ENERGY PREDICTED BY IDOCK:   -0.47 KCAL/MOL
REMARK 927      BINDING AFFINITY PREDICTED BY RF-SCORE:    0.00 PKD
ROOT
HETATM    1  C   UNL     1      -7.905  14.259  68.865  1.00  0.00    -0.097 C  
HETATM    2  C   UNL     1      -7.655  15.772  68.861  1.00  0.00    -0.181 C  
HETATM    3  C   UNL     1      -6.195  15.999  69.292  1.00  0.00    -0.151 C  
HETATM    4  C   UNL     1      -7.962  16.439  67.483  1.00  0.00    -0.172 C  
HETATM    5  C   UNL     1      -7.803  17.968  67.561  1.00  0.00    -0.214 C  
HETATM    6  C   UNL     1      -9.362  16.106  66.910  1.00  0.00    -0.245 C  
HETATM    7  N   UNL     1      -7.806  18.610  66.333  1.00  0.00    -0.275 N  
HETATM    8  H   UNL     1      -7.840  18.014  65.507  1.00  0.00     0.000 HD 
HETATM    9  O   UNL     1      -7.670  18.572  68.626  1.00  0.00    -0.301 OA 
ENDROOT
BRANCH   6  10
HETATM   10  C   UNL     1     -10.502  16.687  67.702  1.00  0.00    -0.320 C  
HETATM   11  C   UNL     1     -11.391  15.951  68.380  1.00  0.00    -0.361 C  
ENDBRANCH   6  10
BRANCH   7  12
HETATM   12  C   UNL     1      -7.767  19.958  66.110  1.00  0.00    -0.325 C  
HETATM   13  N   UNL     1      -8.622  20.718  66.832  1.00  0.00    -0.572 N  
HETATM   14  O   UNL     1      -6.986  20.449  65.303  1.00  0.00    -0.289 OA 
HETATM   15  H1  UNL     1      -8.594  21.724  66.665  1.00  0.00     0.000 HD 
HETATM   16  H2  UNL     1      -9.265  20.306  67.508  1.00  0.00     0.000 HD 
ENDBRANCH   7  12
TORSDOF 2
ENDMDL
MODEL      100
REMARK 921   NORMALIZED FREE ENERGY PREDICTED BY IDOCK:   -3.17 KCAL/MOL
REMARK 922        TOTAL FREE ENERGY PREDICTED BY IDOCK:   -3.95 KCAL/MOL
REMARK 923 INTER-LIGAND FREE ENERGY PREDICTED BY IDOCK:   -3.65 KCAL/MOL
REMARK 924 INTRA-LIGAND FREE ENERGY PREDICTED BY IDOCK:   -0.30 KCAL/MOL
REMARK 927      BINDING AFFINITY PREDICTED BY RF-SCORE:    0.00 PKD
ROOT
HETATM    1  C   UNL     1     -10.345   3.864  72.013  1.00  0.00    -0.101 C  
HETATM    2  C   UNL     1      -9.824   5.025  71.157  1.00  0.00    -0.254 C  
HETATM    3  C   UNL     1      -9.421   4.445  69.790  1.00  0.00    -0.254 C  
HETATM    4  C   UNL     1     -10.855   6.189  71.012  1.00  0.00    -0.338 C  
HETATM    5  C   UNL     1     -10.247   7.373  70.240  1.00  0.00    -0.200 C  
HETATM    6  C   UNL     1     -11.432   6.703  72.354  1.00  0.00    -0.300 C  
HETATM    7  N   UNL     1     -11.164   8.335  69.846  1.00  0.00    -0.448 N  
HETATM    8  H   UNL     1     -12.145   8.134  70.038  1.00  0.00     0.000 HD 
HETATM    9  O   UNL     1      -9.045   7.455  69.982  1.00  0.00    -0.148 OA 
ENDROOT
BRANCH   6  10
HETATM   10  C   UNL     1     -10.424   7.401  73.226  1.00  0.00    -0.424 C  
HETATM   11  C   UNL     1      -9.914   6.876  74.347  1.00  0.00    -0.237 C  
ENDBRANCH   6  10
BRANCH   7  12
HETATM   12  C   UNL     1     -10.894   9.523  69.227  1.00  0.00    -0.191 C  
HETATM   13  N   UNL     1     -11.062   9.562  67.886  1.00  0.00    -0.515 N  
HETATM   14  O   UNL     1     -10.528  10.505  69.865  1.00  0.00    -0.241 OA 
HETATM   15  H1  UNL     1     -10.860  10.449  67.425  1.00  0.00     0.000 HD 
HETATM   16  H2  UNL     1     -11.374   8.745  67.361  1.00  0.00     0.000 HD 
ENDBRANCH   7  12
TORSDOF 2
ENDMDL
MODEL      101
REMARK 921   NORMALIZED FREE ENERGY PREDICTED BY IDOCK:   -3.16 KCAL/MOL
REMARK 922        TOTAL FREE ENERGY PREDICTED BY IDOCK:   -3.93 KCAL/MOL
REMARK 923 INTER-LIGAND FREE ENERGY PREDICTED BY IDOCK:   -3.55 KCAL/MOL
REMARK 924 INTRA-LIGAND FREE ENERGY PREDICTED BY IDOCK:   -0.38 KCAL/MOL
REMARK 927      BINDING AFFINITY PREDICTED BY RF-SCORE:    0.00 PKD
ROOT
HETATM    1  C   UNL     1     -10.466  12.353  63.398  1.00  0.00    -0.353 C  
HETATM    2  C   UNL     1     -11.439  12.882  64.460  1.00  0.00    -0.389 C  
HETATM    3  C   UNL     1     -12.616  11.893  64.539  1.00  0.00    -0.049 C  
HETATM    4  C   UNL     1     -10.767  13.095  65.853  1.00  0.00    -0.287 C  
HETATM    5  C   UNL     1     -11.752  13.729  66.850  1.00  0.00    -0.395 C  
HETATM    6  C   UNL     1      -9.472  13.944  65.814  1.00  0.00    -0.016 C  
HETATM    7  N   UNL     1     -11.324  13.718  68.168  1.00  0.00    -0.268 N  
HETATM    8  H   UNL     1     -10.445  13.236  68.357  1.00  0.00     0.000 HD 
HETATM    9  O   UNL     1     -12.839  14.197  66.509  1.00  0.00    -0.164 OA 
ENDROOT
BRANCH   6  10
HETATM   10  C   UNL     1      -9.695  15.386  65.446  1.00  0.00    -0.250 C  
HETATM   11  C   UNL     1      -8.934  16.396  65.885  1.00  0.00    -0.194 C  
ENDBRANCH   6  10
BRANCH   7  12
HETATM   12  C   UNL     1     -11.952  14.284  69.242  1.00  0.00    -0.335 C  
HETATM   13  N   UNL     1     -12.046  15.633  69.250  1.00  0.00    -0.539 N  
HETATM   14  O   UNL     1     -12.416  13.596  70.144  1.00  0.00    -0.308 OA 
HETATM   15  H1  UNL     1     -12.514  16.055  70.051  1.00  0.00     0.000 HD 
HETATM   16  H2  UNL     1     -11.665  16.201  68.492  1.00  0.00     0.000 HD 
ENDBRANCH   7  12
TORSDOF 2
ENDMDL
MODEL      102
REMARK 921   NORMALIZED FREE ENERGY PREDICTED BY IDOCK:   -3.15 KCAL/MOL
REMARK 922        TOTAL FREE ENERGY PREDICTED BY IDOCK:   -3.92 KCAL/MOL
REMARK 923 INTER-LIGAND FREE ENERGY PREDICTED BY IDOCK:   -3.57 KCAL/MOL
REMARK 924 INTRA-LIGAND FREE ENERGY PREDICTED BY IDOCK:   -0.35 KCAL/MOL
REMARK 927      BINDING AFFINITY PREDICTED BY RF-SCORE:    0.00 PKD
ROOT
HETATM    1  C   UNL     1     -12.919  10.109  71.768  1.00  0.00    -0.567 C  
HETATM    2  C   UNL     1     -11.503  10.034  71.180  1.00  0.00    -0.432 C  
HETATM    3  C   UNL     1     -10.867   8.724  71.677  1.00  0.00    -0.399 C  
HETATM    4  C   UNL     1     -11.483  10.134  69.622  1.00  0.00    -0.256 C  
HETATM    5  C   UNL     1     -10.039  10.167  69.090  1.00  0.00    -0.213 C  
HETATM    6  C   UNL     1     -12.259  11.345  69.050  1.00  0.00    -0.200 C  
HETATM    7  N   UNL     1      -9.928   9.997  67.719  1.00  0.00    -0.163 N  
HETATM    8  H   UNL     1     -10.790   9.800  67.213  1.00  0.00     0.000 HD 
HETATM    9  O   UNL     1      -9.061  10.317  69.823  1.00  0.00    -0.175 OA 
ENDROOT
BRANCH   6  10
HETATM   10  C   UNL     1     -11.639  12.679  69.371  1.00  0.00    -0.369 C  
HETATM   11  C   UNL     1     -12.034  13.837  68.829  1.00  0.00    -0.400 C  
ENDBRANCH   6  10
BRANCH   7  12
HETATM   12  C   UNL     1      -8.784  10.067  66.973  1.00  0.00    -0.132 C  
HETATM   13  N   UNL     1      -7.937   9.017  67.059  1.00  0.00    -0.101 N  
HETATM   14  O   UNL     1      -8.551  11.033  66.254  1.00  0.00    -0.159 OA 
HETATM   15  H1  UNL     1      -7.084   9.070  66.502  1.00  0.00     0.000 HD 
HETATM   16  H2  UNL     1      -8.140   8.212  67.653  1.00  0.00     0.000 HD 
ENDBRANCH   7  12
TORSDOF 2
ENDMDL
MODEL      103
REMARK 921   NORMALIZED FREE ENERGY PREDICTED BY IDOCK:   -3.15 KCAL/MOL
REMARK 922        TOTAL FREE ENERGY PREDICTED BY IDOCK:   -3.92 KCAL/MOL
REMARK 923 INTER-LIGAND FREE ENERGY PREDICTED BY IDOCK:   -3.50 KCAL/MOL
REMARK 924 INTRA-LIGAND FREE ENERGY PREDICTED BY IDOCK:   -0.42 KCAL/MOL
REMARK 927      BINDING AFFINITY PREDICTED BY RF-SCORE:    0.00 PKD
ROOT
HETATM    1  C   UNL     1      -8.548  10.783  68.265  1.00  0.00    -0.135 C  
HETATM    2  C   UNL     1      -9.789  10.622  69.152  1.00  0.00    -0.217 C  
HETATM    3  C   UNL     1     -10.933  11.412  68.491  1.00  0.00    -0.267 C  
HETATM    4  C   UNL     1     -10.179   9.130  69.393  1.00  0.00    -0.212 C  
HETATM    5  C   UNL     1     -11.358   9.018  70.375  1.00  0.00    -0.210 C  
HETATM    6  C   UNL     1      -9.016   8.239  69.897  1.00  0.00    -0.139 C  
HETATM    7  N   UNL     1     -11.930   7.758  70.447  1.00  0.00    -0.480 N  
HETATM    8  H   UNL     1     -11.568   7.056  69.802  1.00  0.00     0.000 HD 
HETATM    9  O   UNL     1     -11.770   9.974  71.034  1.00  0.00    -0.334 OA 
ENDROOT
BRANCH   6  10
HETATM   10  C   UNL     1      -8.543   8.577  71.285  1.00  0.00    -0.219 C  
HETATM   11  C   UNL     1      -7.270   8.472  71.686  1.00  0.00    -0.110 C  
ENDBRANCH   6  10
BRANCH   7  12
HETATM   12  C   UNL     1     -12.927   7.355  71.290  1.00  0.00    -0.310 C  
HETATM   13  N   UNL     1     -14.045   8.115  71.317  1.00  0.00    -0.626 N  
HETATM   14  O   UNL     1     -12.812   6.346  71.977  1.00  0.00    -0.242 OA 
HETATM   15  H1  UNL     1     -14.789   7.815  71.946  1.00  0.00     0.000 HD 
HETATM   16  H2  UNL     1     -14.139   8.949  70.737  1.00  0.00     0.000 HD 
ENDBRANCH   7  12
TORSDOF 2
ENDMDL
MODEL      104
REMARK 921   NORMALIZED FREE ENERGY PREDICTED BY IDOCK:   -3.14 KCAL/MOL
REMARK 922        TOTAL FREE ENERGY PREDICTED BY IDOCK:   -3.92 KCAL/MOL
REMARK 923 INTER-LIGAND FREE ENERGY PREDICTED BY IDOCK:   -3.46 KCAL/MOL
REMARK 924 INTRA-LIGAND FREE ENERGY PREDICTED BY IDOCK:   -0.46 KCAL/MOL
REMARK 927      BINDING AFFINITY PREDICTED BY RF-SCORE:    0.00 PKD
ROOT
HETATM    1  C   UNL     1      -8.156  12.912  67.251  1.00  0.00    -0.164 C  
HETATM    2  C   UNL     1      -7.951  14.360  67.714  1.00  0.00    -0.166 C  
HETATM    3  C   UNL     1      -6.434  14.622  67.749  1.00  0.00    -0.182 C  
HETATM    4  C   UNL     1      -8.698  15.399  66.820  1.00  0.00    -0.304 C  
HETATM    5  C   UNL     1      -8.553  16.822  67.388  1.00  0.00    -0.193 C  
HETATM    6  C   UNL     1     -10.200  15.093  66.604  1.00  0.00    -0.270 C  
HETATM    7  N   UNL     1      -8.963  17.829  66.528  1.00  0.00    -0.266 N  
HETATM    8  H   UNL     1      -9.249  17.541  65.593  1.00  0.00     0.000 HD 
HETATM    9  O   UNL     1      -8.097  17.050  68.509  1.00  0.00    -0.231 OA 
ENDROOT
BRANCH   6  10
HETATM   10  C   UNL     1     -11.037  15.221  67.848  1.00  0.00    -0.321 C  
HETATM   11  C   UNL     1     -11.857  14.264  68.299  1.00  0.00    -0.370 C  
ENDBRANCH   6  10
BRANCH   7  12
HETATM   12  C   UNL     1      -9.025  19.167  66.800  1.00  0.00    -0.311 C  
HETATM   13  N   UNL     1      -9.831  19.544  67.819  1.00  0.00    -0.344 N  
HETATM   14  O   UNL     1      -8.371  19.980  66.156  1.00  0.00    -0.337 OA 
HETATM   15  H1  UNL     1      -9.878  20.542  68.021  1.00  0.00     0.000 HD 
HETATM   16  H2  UNL     1     -10.367  18.862  68.357  1.00  0.00     0.000 HD 
ENDBRANCH   7  12
TORSDOF 2
ENDMDL
MODEL      105
REMARK 921   NORMALIZED FREE ENERGY PREDICTED BY IDOCK:   -3.14 KCAL/MOL
REMARK 922        TOTAL FREE ENERGY PREDICTED BY IDOCK:   -3.91 KCAL/MOL
REMARK 923 INTER-LIGAND FREE ENERGY PREDICTED BY IDOCK:   -3.49 KCAL/MOL
REMARK 924 INTRA-LIGAND FREE ENERGY PREDICTED BY IDOCK:   -0.42 KCAL/MOL
REMARK 927      BINDING AFFINITY PREDICTED BY RF-SCORE:    0.00 PKD
ROOT
HETATM    1  C   UNL     1      -5.675  14.997  67.865  1.00  0.00    -0.144 C  
HETATM    2  C   UNL     1      -7.068  14.385  67.672  1.00  0.00    -0.202 C  
HETATM    3  C   UNL     1      -6.893  12.858  67.587  1.00  0.00    -0.149 C  
HETATM    4  C   UNL     1      -8.075  14.791  68.794  1.00  0.00    -0.158 C  
HETATM    5  C   UNL     1      -9.483  14.245  68.497  1.00  0.00    -0.206 C  
HETATM    6  C   UNL     1      -8.169  16.316  69.047  1.00  0.00    -0.238 C  
HETATM    7  N   UNL     1     -10.372  14.338  69.557  1.00  0.00    -0.436 N  
HETATM    8  H   UNL     1      -9.995  14.688  70.438  1.00  0.00     0.000 HD 
HETATM    9  O   UNL     1      -9.793  13.752  67.412  1.00  0.00    -0.230 OA 
ENDROOT
BRANCH   6  10
HETATM   10  C   UNL     1      -8.774  17.090  67.908  1.00  0.00    -0.216 C  
HETATM   11  C   UNL     1      -8.300  18.260  67.464  1.00  0.00    -0.247 C  
ENDBRANCH   6  10
BRANCH   7  12
HETATM   12  C   UNL     1     -11.699  14.012  69.547  1.00  0.00    -0.313 C  
HETATM   13  N   UNL     1     -12.405  14.370  68.451  1.00  0.00    -0.599 N  
HETATM   14  O   UNL     1     -12.215  13.415  70.486  1.00  0.00    -0.350 OA 
HETATM   15  H1  UNL     1     -13.395  14.127  68.444  1.00  0.00     0.000 HD 
HETATM   16  H2  UNL     1     -11.969  14.860  67.669  1.00  0.00     0.000 HD 
ENDBRANCH   7  12
TORSDOF 2
ENDMDL
MODEL      106
REMARK 921   NORMALIZED FREE ENERGY PREDICTED BY IDOCK:   -3.05 KCAL/MOL
REMARK 922        TOTAL FREE ENERGY PREDICTED BY IDOCK:   -3.81 KCAL/MOL
REMARK 923 INTER-LIGAND FREE ENERGY PREDICTED BY IDOCK:   -3.42 KCAL/MOL
REMARK 924 INTRA-LIGAND FREE ENERGY PREDICTED BY IDOCK:   -0.39 KCAL/MOL
REMARK 927      BINDING AFFINITY PREDICTED BY RF-SCORE:    0.00 PKD
ROOT
HETATM    1  C   UNL     1      -7.683   6.353  68.132  1.00  0.00    -0.104 C  
HETATM    2  C   UNL     1      -9.079   6.143  68.730  1.00  0.00    -0.126 C  
HETATM    3  C   UNL     1      -9.078   4.774  69.435  1.00  0.00    -0.152 C  
HETATM    4  C   UNL     1      -9.510   7.291  69.697  1.00  0.00    -0.155 C  
HETATM    5  C   UNL     1     -10.956   7.091  70.183  1.00  0.00    -0.272 C  
HETATM    6  C   UNL     1      -9.369   8.713  69.101  1.00  0.00    -0.153 C  
HETATM    7  N   UNL     1     -11.329   7.915  71.233  1.00  0.00    -0.256 N  
HETATM    8  H   UNL     1     -10.602   8.513  71.623  1.00  0.00     0.000 HD 
HETATM    9  O   UNL     1     -11.717   6.259  69.688  1.00  0.00    -0.382 OA 
ENDROOT
BRANCH   6  10
HETATM   10  C   UNL     1     -10.319   9.001  67.970  1.00  0.00    -0.275 C  
HETATM   11  C   UNL     1     -11.057  10.114  67.878  1.00  0.00    -0.303 C  
ENDBRANCH   6  10
BRANCH   7  12
HETATM   12  C   UNL     1     -12.569   8.012  71.802  1.00  0.00    -0.325 C  
HETATM   13  N   UNL     1     -13.179   6.850  72.129  1.00  0.00    -0.548 N  
HETATM   14  O   UNL     1     -13.090   9.101  72.011  1.00  0.00    -0.363 OA 
HETATM   15  H1  UNL     1     -14.104   6.923  72.553  1.00  0.00     0.000 HD 
HETATM   16  H2  UNL     1     -12.737   5.947  71.960  1.00  0.00     0.000 HD 
ENDBRANCH   7  12
TORSDOF 2
ENDMDL
MODEL      107
REMARK 921   NORMALIZED FREE ENERGY PREDICTED BY IDOCK:   -3.01 KCAL/MOL
REMARK 922        TOTAL FREE ENERGY PREDICTED BY IDOCK:   -3.76 KCAL/MOL
REMARK 923 INTER-LIGAND FREE ENERGY PREDICTED BY IDOCK:   -3.38 KCAL/MOL
REMARK 924 INTRA-LIGAND FREE ENERGY PREDICTED BY IDOCK:   -0.38 KCAL/MOL
REMARK 927      BINDING AFFINITY PREDICTED BY RF-SCORE:    0.00 PKD
ROOT
HETATM    1  C   UNL     1     -10.347  13.569  65.417  1.00  0.00    -0.329 C  
HETATM    2  C   UNL     1     -10.436  12.732  66.700  1.00  0.00    -0.270 C  
HETATM    3  C   UNL     1     -11.694  13.188  67.461  1.00  0.00    -0.414 C  
HETATM    4  C   UNL     1     -10.450  11.195  66.426  1.00  0.00    -0.311 C  
HETATM    5  C   UNL     1     -10.429  10.399  67.743  1.00  0.00    -0.226 C  
HETATM    6  C   UNL     1      -9.300  10.697  65.517  1.00  0.00    -0.245 C  
HETATM    7  N   UNL     1     -10.696   9.047  67.603  1.00  0.00    -0.445 N  
HETATM    8  H   UNL     1     -10.946   8.727  66.668  1.00  0.00     0.000 HD 
HETATM    9  O   UNL     1     -10.206  10.923  68.836  1.00  0.00    -0.185 OA 
ENDROOT
BRANCH   6  10
HETATM   10  C   UNL     1      -7.935  10.804  66.142  1.00  0.00    -0.157 C  
HETATM   11  C   UNL     1      -6.917   9.983  65.859  1.00  0.00    -0.113 C  
ENDBRANCH   6  10
BRANCH   7  12
HETATM   12  C   UNL     1     -10.658   8.095  68.584  1.00  0.00    -0.109 C  
HETATM   13  N   UNL     1     -11.377   8.346  69.701  1.00  0.00    -0.430 N  
HETATM   14  O   UNL     1     -10.011   7.063  68.446  1.00  0.00    -0.146 OA 
HETATM   15  H1  UNL     1     -11.349   7.636  70.433  1.00  0.00     0.000 HD 
HETATM   16  H2  UNL     1     -11.921   9.203  69.807  1.00  0.00     0.000 HD 
ENDBRANCH   7  12
TORSDOF 2
ENDMDL
MODEL      108
REMARK 921   NORMALIZED FREE ENERGY PREDICTED BY IDOCK:   -2.97 KCAL/MOL
REMARK 922        TOTAL FREE ENERGY PREDICTED BY IDOCK:   -3.72 KCAL/MOL
REMARK 923 INTER-LIGAND FREE ENERGY PREDICTED BY IDOCK:   -3.57 KCAL/MOL
REMARK 924 INTRA-LIGAND FREE ENERGY PREDICTED BY IDOCK:   -0.14 KCAL/MOL
REMARK 927      BINDING AFFINITY PREDICTED BY RF-SCORE:    0.00 PKD
ROOT
HETATM    1  C   UNL     1      -8.804   8.413  65.112  1.00  0.00    -0.075 C  
HETATM    2  C   UNL     1      -9.341   9.581  65.949  1.00  0.00    -0.285 C  
HETATM    3  C   UNL     1     -10.142  10.495  65.003  1.00  0.00    -0.390 C  
HETATM    4  C   UNL     1     -10.198   9.117  67.169  1.00  0.00    -0.329 C  
HETATM    5  C   UNL     1     -10.620  10.316  68.036  1.00  0.00    -0.231 C  
HETATM    6  C   UNL     1      -9.510   8.061  68.068  1.00  0.00    -0.157 C  
HETATM    7  N   UNL     1     -11.587  10.027  68.986  1.00  0.00    -0.489 N  
HETATM    8  H   UNL     1     -11.971   9.083  68.972  1.00  0.00     0.000 HD 
HETATM    9  O   UNL     1     -10.147  11.444  67.891  1.00  0.00    -0.176 OA 
ENDROOT
BRANCH   6  10
HETATM   10  C   UNL     1      -8.312   8.580  68.816  1.00  0.00    -0.122 C  
HETATM   11  C   UNL     1      -7.162   7.907  68.945  1.00  0.00    -0.076 C  
ENDBRANCH   6  10
BRANCH   7  12
HETATM   12  C   UNL     1     -12.080  10.872  69.940  1.00  0.00    -0.354 C  
HETATM   13  N   UNL     1     -11.478  12.078  70.054  1.00  0.00    -0.522 N  
HETATM   14  O   UNL     1     -13.029  10.551  70.647  1.00  0.00    -0.366 OA 
HETATM   15  H1  UNL     1     -11.846  12.708  70.766  1.00  0.00     0.000 HD 
HETATM   16  H2  UNL     1     -10.694  12.343  69.458  1.00  0.00     0.000 HD 
ENDBRANCH   7  12
TORSDOF 2
ENDMDL
MODEL      109
REMARK 921   NORMALIZED FREE ENERGY PREDICTED BY IDOCK:   -2.96 KCAL/MOL
REMARK 922        TOTAL FREE ENERGY PREDICTED BY IDOCK:   -3.71 KCAL/MOL
REMARK 923 INTER-LIGAND FREE ENERGY PREDICTED BY IDOCK:   -3.24 KCAL/MOL
REMARK 924 INTRA-LIGAND FREE ENERGY PREDICTED BY IDOCK:   -0.47 KCAL/MOL
REMARK 927      BINDING AFFINITY PREDICTED BY RF-SCORE:    0.00 PKD
ROOT
HETATM    1  C   UNL     1      -6.998   6.997  68.958  1.00  0.00    -0.078 C  
HETATM    2  C   UNL     1      -7.859   8.120  69.551  1.00  0.00    -0.104 C  
HETATM    3  C   UNL     1      -6.965   9.366  69.682  1.00  0.00    -0.058 C  
HETATM    4  C   UNL     1      -9.143   8.413  68.713  1.00  0.00    -0.143 C  
HETATM    5  C   UNL     1     -10.027   9.465  69.406  1.00  0.00    -0.183 C  
HETATM    6  C   UNL     1     -10.000   7.162  68.399  1.00  0.00    -0.166 C  
HETATM    7  N   UNL     1     -11.048   9.969  68.616  1.00  0.00    -0.408 N  
HETATM    8  H   UNL     1     -11.073   9.653  67.647  1.00  0.00     0.000 HD 
HETATM    9  O   UNL     1      -9.835   9.840  70.564  1.00  0.00    -0.260 OA 
ENDROOT
BRANCH   6  10
HETATM   10  C   UNL     1     -10.653   6.547  69.608  1.00  0.00    -0.291 C  
HETATM   11  C   UNL     1     -10.404   5.306  70.041  1.00  0.00    -0.365 C  
ENDBRANCH   6  10
BRANCH   7  12
HETATM   12  C   UNL     1     -12.027  10.844  68.998  1.00  0.00    -0.251 C  
HETATM   13  N   UNL     1     -12.724  10.527  70.112  1.00  0.00    -0.508 N  
HETATM   14  O   UNL     1     -12.249  11.868  68.362  1.00  0.00    -0.425 OA 
HETATM   15  H1  UNL     1     -13.455  11.180  70.397  1.00  0.00     0.000 HD 
HETATM   16  H2  UNL     1     -12.530   9.678  70.643  1.00  0.00     0.000 HD 
ENDBRANCH   7  12
TORSDOF 2
ENDMDL
MODEL      110
REMARK 921   NORMALIZED FREE ENERGY PREDICTED BY IDOCK:   -2.94 KCAL/MOL
REMARK 922        TOTAL FREE ENERGY PREDICTED BY IDOCK:   -3.69 KCAL/MOL
REMARK 923 INTER-LIGAND FREE ENERGY PREDICTED BY IDOCK:   -3.50 KCAL/MOL
REMARK 924 INTRA-LIGAND FREE ENERGY PREDICTED BY IDOCK:   -0.20 KCAL/MOL
REMARK 927      BINDING AFFINITY PREDICTED BY RF-SCORE:    0.00 PKD
ROOT
HETATM    1  C   UNL     1     -11.169  13.534  66.205  1.00  0.00    -0.310 C  
HETATM    2  C   UNL     1     -11.081  12.106  66.759  1.00  0.00    -0.349 C  
HETATM    3  C   UNL     1     -10.503  11.215  65.645  1.00  0.00    -0.308 C  
HETATM    4  C   UNL     1     -10.241  12.010  68.072  1.00  0.00    -0.203 C  
HETATM    5  C   UNL     1     -10.274  10.583  68.646  1.00  0.00    -0.183 C  
HETATM    6  C   UNL     1     -10.666  13.009  69.176  1.00  0.00    -0.064 C  
HETATM    7  N   UNL     1      -9.356  10.349  69.658  1.00  0.00    -0.399 N  
HETATM    8  H   UNL     1      -8.711  11.108  69.872  1.00  0.00     0.000 HD 
HETATM    9  O   UNL     1     -11.043   9.714  68.232  1.00  0.00    -0.168 OA 
ENDROOT
BRANCH   6  10
HETATM   10  C   UNL     1     -12.027  12.737  69.757  1.00  0.00    -0.362 C  
HETATM   11  C   UNL     1     -12.455  13.234  70.924  1.00  0.00    -0.424 C  
ENDBRANCH   6  10
BRANCH   7  12
HETATM   12  C   UNL     1      -9.225   9.208  70.400  1.00  0.00    -0.233 C  
HETATM   13  N   UNL     1      -9.638   8.057  69.824  1.00  0.00    -0.171 N  
HETATM   14  O   UNL     1      -8.744   9.234  71.528  1.00  0.00    -0.323 OA 
HETATM   15  H1  UNL     1      -9.540   7.206  70.378  1.00  0.00     0.000 HD 
HETATM   16  H2  UNL     1     -10.030   8.040  68.882  1.00  0.00     0.000 HD 
ENDBRANCH   7  12
TORSDOF 2
ENDMDL
MODEL      111
REMARK 921   NORMALIZED FREE ENERGY PREDICTED BY IDOCK:   -2.92 KCAL/MOL
REMARK 922        TOTAL FREE ENERGY PREDICTED BY IDOCK:   -3.67 KCAL/MOL
REMARK 923 INTER-LIGAND FREE ENERGY PREDICTED BY IDOCK:   -3.57 KCAL/MOL
REMARK 924 INTRA-LIGAND FREE ENERGY PREDICTED BY IDOCK:   -0.10 KCAL/MOL
REMARK 927      BINDING AFFINITY PREDICTED BY RF-SCORE:    0.00 PKD
ROOT
HETATM    1  C   UNL     1     -10.748  15.856  69.900  1.00  0.00    -0.334 C  
HETATM    2  C   UNL     1     -11.227  15.398  68.516  1.00  0.00    -0.321 C  
HETATM    3  C   UNL     1     -11.054  16.585  67.552  1.00  0.00    -0.078 C  
HETATM    4  C   UNL     1     -10.486  14.122  68.004  1.00  0.00    -0.240 C  
HETATM    5  C   UNL     1     -11.076  13.639  66.668  1.00  0.00    -0.306 C  
HETATM    6  C   UNL     1     -10.476  12.943  69.008  1.00  0.00    -0.022 C  
HETATM    7  N   UNL     1     -10.320  12.675  66.020  1.00  0.00    -0.264 N  
HETATM    8  H   UNL     1      -9.426  12.435  66.447  1.00  0.00     0.000 HD 
HETATM    9  O   UNL     1     -12.128  14.081  66.204  1.00  0.00    -0.402 OA 
ENDROOT
BRANCH   6  10
HETATM   10  C   UNL     1     -11.831  12.335  69.252  1.00  0.00    -0.363 C  
HETATM   11  C   UNL     1     -12.092  11.026  69.152  1.00  0.00    -0.333 C  
ENDBRANCH   6  10
BRANCH   7  12
HETATM   12  C   UNL     1     -10.645  12.012  64.869  1.00  0.00    -0.291 C  
HETATM   13  N   UNL     1     -11.810  12.359  64.276  1.00  0.00    -0.371 N  
HETATM   14  O   UNL     1      -9.907  11.154  64.399  1.00  0.00    -0.244 OA 
HETATM   15  H1  UNL     1     -12.052  11.864  63.418  1.00  0.00     0.000 HD 
HETATM   16  H2  UNL     1     -12.417  13.079  64.668  1.00  0.00     0.000 HD 
ENDBRANCH   7  12
TORSDOF 2
ENDMDL
MODEL      112
REMARK 921   NORMALIZED FREE ENERGY PREDICTED BY IDOCK:   -2.92 KCAL/MOL
REMARK 922        TOTAL FREE ENERGY PREDICTED BY IDOCK:   -3.67 KCAL/MOL
REMARK 923 INTER-LIGAND FREE ENERGY PREDICTED BY IDOCK:   -3.28 KCAL/MOL
REMARK 924 INTRA-LIGAND FREE ENERGY PREDICTED BY IDOCK:   -0.38 KCAL/MOL
REMARK 927      BINDING AFFINITY PREDICTED BY RF-SCORE:    0.00 PKD
ROOT
HETATM    1  C   UNL     1      -8.327   3.195  73.319  1.00  0.00    -0.074 C  
HETATM    2  C   UNL     1      -9.064   4.102  72.326  1.00  0.00    -0.148 C  
HETATM    3  C   UNL     1      -9.780   3.191  71.314  1.00  0.00    -0.215 C  
HETATM    4  C   UNL     1     -10.055   5.090  73.019  1.00  0.00    -0.202 C  
HETATM    5  C   UNL     1     -10.684   6.050  71.995  1.00  0.00    -0.235 C  
HETATM    6  C   UNL     1      -9.431   5.917  74.170  1.00  0.00    -0.150 C  
HETATM    7  N   UNL     1     -11.757   6.784  72.478  1.00  0.00    -0.463 N  
HETATM    8  H   UNL     1     -12.065   6.569  73.425  1.00  0.00     0.000 HD 
HETATM    9  O   UNL     1     -10.278   6.151  70.837  1.00  0.00    -0.190 OA 
ENDROOT
BRANCH   6  10
HETATM   10  C   UNL     1      -8.397   6.913  73.719  1.00  0.00    -0.147 C  
HETATM   11  C   UNL     1      -7.892   7.873  74.503  1.00  0.00    -0.270 C  
ENDBRANCH   6  10
BRANCH   7  12
HETATM   12  C   UNL     1     -12.444   7.765  71.819  1.00  0.00    -0.320 C  
HETATM   13  N   UNL     1     -13.026   7.418  70.649  1.00  0.00    -0.496 N  
HETATM   14  O   UNL     1     -12.534   8.898  72.279  1.00  0.00    -0.372 OA 
HETATM   15  H1  UNL     1     -13.539   8.150  70.158  1.00  0.00     0.000 HD 
HETATM   16  H2  UNL     1     -12.956   6.471  70.276  1.00  0.00     0.000 HD 
ENDBRANCH   7  12
TORSDOF 2
ENDMDL
MODEL      113
REMARK 921   NORMALIZED FREE ENERGY PREDICTED BY IDOCK:   -2.88 KCAL/MOL
REMARK 922        TOTAL FREE ENERGY PREDICTED BY IDOCK:   -3.63 KCAL/MOL
REMARK 923 INTER-LIGAND FREE ENERGY PREDICTED BY IDOCK:   -3.27 KCAL/MOL
REMARK 924 INTRA-LIGAND FREE ENERGY PREDICTED BY IDOCK:   -0.36 KCAL/MOL
REMARK 927      BINDING AFFINITY PREDICTED BY RF-SCORE:    0.00 PKD
ROOT
HETATM    1  C   UNL     1     -12.102  13.880  67.320  1.00  0.00    -0.403 C  
HETATM    2  C   UNL     1     -10.746  14.083  68.009  1.00  0.00    -0.253 C  
HETATM    3  C   UNL     1     -10.243  12.697  68.452  1.00  0.00    -0.233 C  
HETATM    4  C   UNL     1      -9.705  14.816  67.107  1.00  0.00    -0.234 C  
HETATM    5  C   UNL     1      -8.403  15.094  67.878  1.00  0.00    -0.149 C  
HETATM    6  C   UNL     1     -10.217  16.140  66.488  1.00  0.00    -0.304 C  
HETATM    7  N   UNL     1      -7.343  15.507  67.087  1.00  0.00    -0.211 N  
HETATM    8  H   UNL     1      -7.503  15.519  66.081  1.00  0.00     0.000 HD 
HETATM    9  O   UNL     1      -8.306  14.948  69.098  1.00  0.00    -0.176 OA 
ENDROOT
BRANCH   6  10
HETATM   10  C   UNL     1     -10.457  17.235  67.493  1.00  0.00    -0.356 C  
HETATM   11  C   UNL     1     -10.014  18.490  67.351  1.00  0.00    -0.351 C  
ENDBRANCH   6  10
BRANCH   7  12
HETATM   12  C   UNL     1      -6.105  15.901  67.513  1.00  0.00    -0.145 C  
HETATM   13  N   UNL     1      -6.010  17.142  68.042  1.00  0.00    -0.121 N  
HETATM   14  O   UNL     1      -5.134  15.157  67.426  1.00  0.00    -0.333 OA 
HETATM   15  H1  UNL     1      -5.086  17.436  68.359  1.00  0.00     0.000 HD 
HETATM   16  H2  UNL     1      -6.822  17.755  68.119  1.00  0.00     0.000 HD 
ENDBRANCH   7  12
TORSDOF 2
ENDMDL
MODEL      114
REMARK 921   NORMALIZED FREE ENERGY PREDICTED BY IDOCK:   -2.88 KCAL/MOL
REMARK 922        TOTAL FREE ENERGY PREDICTED BY IDOCK:   -3.62 KCAL/MOL
REMARK 923 INTER-LIGAND FREE ENERGY PREDICTED BY IDOCK:   -3.15 KCAL/MOL
REMARK 924 INTRA-LIGAND FREE ENERGY PREDICTED BY IDOCK:   -0.47 KCAL/MOL
REMARK 927      BINDING AFFINITY PREDICTED BY RF-SCORE:    0.00 PKD
ROOT
HETATM    1  C   UNL     1      -8.588   7.527  69.255  1.00  0.00    -0.136 C  
HETATM    2  C   UNL     1      -8.202   8.474  68.111  1.00  0.00    -0.120 C  
HETATM    3  C   UNL     1      -6.865   7.978  67.533  1.00  0.00    -0.070 C  
HETATM    4  C   UNL     1      -9.305   8.583  67.011  1.00  0.00    -0.204 C  
HETATM    5  C   UNL     1      -8.920   9.626  65.946  1.00  0.00    -0.167 C  
HETATM    6  C   UNL     1     -10.717   8.912  67.552  1.00  0.00    -0.223 C  
HETATM    7  N   UNL     1      -9.711   9.604  64.808  1.00  0.00    -0.431 N  
HETATM    8  H   UNL     1     -10.413   8.866  64.755  1.00  0.00     0.000 HD 
HETATM    9  O   UNL     1      -7.979  10.407  66.086  1.00  0.00    -0.126 OA 
ENDROOT
BRANCH   6  10
HETATM   10  C   UNL     1     -10.843  10.293  68.138  1.00  0.00    -0.312 C  
HETATM   11  C   UNL     1     -11.144  10.537  69.419  1.00  0.00    -0.310 C  
ENDBRANCH   6  10
BRANCH   7  12
HETATM   12  C   UNL     1      -9.651  10.466  63.748  1.00  0.00    -0.310 C  
HETATM   13  N   UNL     1      -9.758  11.784  64.031  1.00  0.00    -0.447 N  
HETATM   14  O   UNL     1      -9.497  10.057  62.603  1.00  0.00    -0.292 OA 
HETATM   15  H1  UNL     1      -9.713  12.426  63.240  1.00  0.00     0.000 HD 
HETATM   16  H2  UNL     1      -9.878  12.119  64.987  1.00  0.00     0.000 HD 
ENDBRANCH   7  12
TORSDOF 2
ENDMDL
MODEL      115
REMARK 921   NORMALIZED FREE ENERGY PREDICTED BY IDOCK:   -2.86 KCAL/MOL
REMARK 922        TOTAL FREE ENERGY PREDICTED BY IDOCK:   -3.60 KCAL/MOL
REMARK 923 INTER-LIGAND FREE ENERGY PREDICTED BY IDOCK:   -3.19 KCAL/MOL
REMARK 924 INTRA-LIGAND FREE ENERGY PREDICTED BY IDOCK:   -0.41 KCAL/MOL
REMARK 927      BINDING AFFINITY PREDICTED BY RF-SCORE:    0.00 PKD
ROOT
HETATM    1  C   UNL     1      -7.012  10.025  65.260  1.00  0.00    -0.132 C  
HETATM    2  C   UNL     1      -7.586  10.698  66.513  1.00  0.00    -0.134 C  
HETATM    3  C   UNL     1      -6.660  11.874  66.870  1.00  0.00    -0.083 C  
HETATM    4  C   UNL     1      -9.067  11.160  66.335  1.00  0.00    -0.198 C  
HETATM    5  C   UNL     1      -9.631  11.725  67.650  1.00  0.00    -0.183 C  
HETATM    6  C   UNL     1     -10.020  10.059  65.809  1.00  0.00    -0.346 C  
HETATM    7  N   UNL     1     -10.841  12.388  67.519  1.00  0.00    -0.230 N  
HETATM    8  H   UNL     1     -11.200  12.498  66.571  1.00  0.00     0.000 HD 
HETATM    9  O   UNL     1      -9.049  11.611  68.730  1.00  0.00    -0.133 OA 
ENDROOT
BRANCH   6  10
HETATM   10  C   UNL     1     -10.250   8.931  66.779  1.00  0.00    -0.348 C  
HETATM   11  C   UNL     1      -9.754   7.698  66.621  1.00  0.00    -0.283 C  
ENDBRANCH   6  10
BRANCH   7  12
HETATM   12  C   UNL     1     -11.606  12.910  68.525  1.00  0.00    -0.323 C  
HETATM   13  N   UNL     1     -11.577  12.260  69.710  1.00  0.00    -0.462 N  
HETATM   14  O   UNL     1     -12.273  13.925  68.357  1.00  0.00    -0.339 OA 
HETATM   15  H1  UNL     1     -12.148  12.649  70.460  1.00  0.00     0.000 HD 
HETATM   16  H2  UNL     1     -11.014  11.420  69.847  1.00  0.00     0.000 HD 
ENDBRANCH   7  12
TORSDOF 2
ENDMDL
MODEL      116
REMARK 921   NORMALIZED FREE ENERGY PREDICTED BY IDOCK:   -2.84 KCAL/MOL
REMARK 922        TOTAL FREE ENERGY PREDICTED BY IDOCK:   -3.58 KCAL/MOL
REMARK 923 INTER-LIGAND FREE ENERGY PREDICTED BY IDOCK:   -3.50 KCAL/MOL
REMARK 924 INTRA-LIGAND FREE ENERGY PREDICTED BY IDOCK:   -0.08 KCAL/MOL
REMARK 927      BINDING AFFINITY PREDICTED BY RF-SCORE:    0.00 PKD
ROOT
HETATM    1  C   UNL     1      -9.735  10.953  66.890  1.00  0.00    -0.210 C  
HETATM    2  C   UNL     1      -9.111  12.308  67.247  1.00  0.00    -0.184 C  
HETATM    3  C   UNL     1      -7.583  12.148  67.159  1.00  0.00    -0.132 C  
HETATM    4  C   UNL     1      -9.625  13.474  66.346  1.00  0.00    -0.268 C  
HETATM    5  C   UNL     1      -9.056  14.826  66.814  1.00  0.00    -0.267 C  
HETATM    6  C   UNL     1     -11.167  13.580  66.256  1.00  0.00    -0.310 C  
HETATM    7  N   UNL     1      -9.252  15.871  65.926  1.00  0.00    -0.332 N  
HETATM    8  H   UNL     1      -9.683  15.635  65.033  1.00  0.00     0.000 HD 
HETATM    9  O   UNL     1      -8.463  14.965  67.885  1.00  0.00    -0.143 OA 
ENDROOT
BRANCH   6  10
HETATM   10  C   UNL     1     -11.831  13.980  67.546  1.00  0.00    -0.442 C  
HETATM   11  C   UNL     1     -11.781  13.253  68.668  1.00  0.00    -0.376 C  
ENDBRANCH   6  10
BRANCH   7  12
HETATM   12  C   UNL     1      -8.930  17.186  66.120  1.00  0.00    -0.182 C  
HETATM   13  N   UNL     1      -7.616  17.501  66.083  1.00  0.00    -0.297 N  
HETATM   14  O   UNL     1      -9.797  18.033  66.306  1.00  0.00    -0.359 OA 
HETATM   15  H1  UNL     1      -7.376  18.482  66.228  1.00  0.00     0.000 HD 
HETATM   16  H2  UNL     1      -6.900  16.793  65.919  1.00  0.00     0.000 HD 
ENDBRANCH   7  12
TORSDOF 2
ENDMDL
MODEL      117
REMARK 921   NORMALIZED FREE ENERGY PREDICTED BY IDOCK:   -2.84 KCAL/MOL
REMARK 922        TOTAL FREE ENERGY PREDICTED BY IDOCK:   -3.58 KCAL/MOL
REMARK 923 INTER-LIGAND FREE ENERGY PREDICTED BY IDOCK:   -3.12 KCAL/MOL
REMARK 924 INTRA-LIGAND FREE ENERGY PREDICTED BY IDOCK:   -0.46 KCAL/MOL
REMARK 927      BINDING AFFINITY PREDICTED BY RF-SCORE:    0.00 PKD
ROOT
HETATM    1  C   UNL     1     -10.883   7.919  72.905  1.00  0.00    -0.451 C  
HETATM    2  C   UNL     1      -9.667   8.543  72.209  1.00  0.00    -0.380 C  
HETATM    3  C   UNL     1      -8.416   7.807  72.721  1.00  0.00    -0.196 C  
HETATM    4  C   UNL     1      -9.766   8.501  70.651  1.00  0.00    -0.207 C  
HETATM    5  C   UNL     1      -8.579   9.234  70.002  1.00  0.00    -0.182 C  
HETATM    6  C   UNL     1     -11.087   9.073  70.080  1.00  0.00    -0.197 C  
HETATM    7  N   UNL     1      -8.452   9.028  68.637  1.00  0.00    -0.127 N  
HETATM    8  H   UNL     1      -9.101   8.365  68.215  1.00  0.00     0.000 HD 
HETATM    9  O   UNL     1      -7.798   9.938  70.644  1.00  0.00    -0.278 OA 
ENDROOT
BRANCH   6  10
HETATM   10  C   UNL     1     -11.249  10.556  70.278  1.00  0.00    -0.391 C  
HETATM   11  C   UNL     1     -12.262  11.113  70.951  1.00  0.00    -0.468 C  
ENDBRANCH   6  10
BRANCH   7  12
HETATM   12  C   UNL     1      -7.549   9.618  67.798  1.00  0.00    -0.087 C  
HETATM   13  N   UNL     1      -7.389  10.955  67.920  1.00  0.00    -0.087 N  
HETATM   14  O   UNL     1      -6.911   8.959  66.984  1.00  0.00    -0.073 OA 
HETATM   15  H1  UNL     1      -6.715  11.395  67.293  1.00  0.00     0.000 HD 
HETATM   16  H2  UNL     1      -7.916  11.497  68.604  1.00  0.00     0.000 HD 
ENDBRANCH   7  12
TORSDOF 2
ENDMDL
MODEL      118
REMARK 921   NORMALIZED FREE ENERGY PREDICTED BY IDOCK:   -2.84 KCAL/MOL
REMARK 922        TOTAL FREE ENERGY PREDICTED BY IDOCK:   -3.57 KCAL/MOL
REMARK 923 INTER-LIGAND FREE ENERGY PREDICTED BY IDOCK:   -3.49 KCAL/MOL
REMARK 924 INTRA-LIGAND FREE ENERGY PREDICTED BY IDOCK:   -0.08 KCAL/MOL
REMARK 927      BINDING AFFINITY PREDICTED BY RF-SCORE:    0.00 PKD
ROOT
HETATM    1  C   UNL     1      -6.512  18.960  68.213  1.00  0.00    -0.242 C  
HETATM    2  C   UNL     1      -7.382  18.432  67.065  1.00  0.00    -0.223 C  
HETATM    3  C   UNL     1      -6.506  18.393  65.801  1.00  0.00    -0.305 C  
HETATM    4  C   UNL     1      -8.018  17.039  67.372  1.00  0.00    -0.197 C  
HETATM    5  C   UNL     1      -8.968  16.604  66.242  1.00  0.00    -0.305 C  
HETATM    6  C   UNL     1      -8.773  16.965  68.722  1.00  0.00    -0.248 C  
HETATM    7  N   UNL     1      -9.373  15.281  66.308  1.00  0.00    -0.290 N  
HETATM    8  H   UNL     1      -8.955  14.713  67.045  1.00  0.00     0.000 HD 
HETATM    9  O   UNL     1      -9.329  17.366  65.344  1.00  0.00    -0.118 OA 
ENDROOT
BRANCH   6  10
HETATM   10  C   UNL     1     -10.023  17.801  68.772  1.00  0.00    -0.367 C  
HETATM   11  C   UNL     1     -10.029  19.126  68.967  1.00  0.00    -0.422 C  
ENDBRANCH   6  10
BRANCH   7  12
HETATM   12  C   UNL     1     -10.274  14.655  65.492  1.00  0.00    -0.370 C  
HETATM   13  N   UNL     1     -11.504  14.428  66.006  1.00  0.00    -0.343 N  
HETATM   14  O   UNL     1      -9.978  14.329  64.348  1.00  0.00    -0.062 OA 
HETATM   15  H1  UNL     1     -12.176  13.961  65.398  1.00  0.00     0.000 HD 
HETATM   16  H2  UNL     1     -11.748  14.709  66.956  1.00  0.00     0.000 HD 
ENDBRANCH   7  12
TORSDOF 2
ENDMDL
MODEL      119
REMARK 921   NORMALIZED FREE ENERGY PREDICTED BY IDOCK:   -2.79 KCAL/MOL
REMARK 922        TOTAL FREE ENERGY PREDICTED BY IDOCK:   -3.53 KCAL/MOL
REMARK 923 INTER-LIGAND FREE ENERGY PREDICTED BY IDOCK:   -3.22 KCAL/MOL
REMARK 924 INTRA-LIGAND FREE ENERGY PREDICTED BY IDOCK:   -0.30 KCAL/MOL
REMARK 927      BINDING AFFINITY PREDICTED BY RF-SCORE:    0.00 PKD
ROOT
HETATM    1  C   UNL     1      -7.295   8.595  66.102  1.00  0.00    -0.085 C  
HETATM    2  C   UNL     1      -7.400  10.083  66.460  1.00  0.00    -0.101 C  
HETATM    3  C   UNL     1      -6.115  10.768  65.962  1.00  0.00    -0.133 C  
HETATM    4  C   UNL     1      -8.681  10.762  65.880  1.00  0.00    -0.189 C  
HETATM    5  C   UNL     1      -8.798  12.220  66.357  1.00  0.00    -0.071 C  
HETATM    6  C   UNL     1     -10.000  10.018  66.202  1.00  0.00    -0.322 C  
HETATM    7  N   UNL     1      -9.756  12.969  65.692  1.00  0.00    -0.457 N  
HETATM    8  H   UNL     1     -10.234  12.511  64.917  1.00  0.00     0.000 HD 
HETATM    9  O   UNL     1      -8.088  12.690  67.248  1.00  0.00    -0.176 OA 
ENDROOT
BRANCH   6  10
HETATM   10  C   UNL     1     -10.374  10.037  67.660  1.00  0.00    -0.272 C  
HETATM   11  C   UNL     1     -11.370  10.774  68.167  1.00  0.00    -0.377 C  
ENDBRANCH   6  10
BRANCH   7  12
HETATM   12  C   UNL     1     -10.130  14.255  65.966  1.00  0.00    -0.318 C  
HETATM   13  N   UNL     1      -9.145  15.113  66.316  1.00  0.00    -0.385 N  
HETATM   14  O   UNL     1     -11.301  14.609  65.884  1.00  0.00    -0.334 OA 
HETATM   15  H1  UNL     1      -9.424  16.072  66.520  1.00  0.00     0.000 HD 
HETATM   16  H2  UNL     1      -8.171  14.815  66.374  1.00  0.00     0.000 HD 
ENDBRANCH   7  12
TORSDOF 2
ENDMDL
MODEL      120
REMARK 921   NORMALIZED FREE ENERGY PREDICTED BY IDOCK:   -2.79 KCAL/MOL
REMARK 922        TOTAL FREE ENERGY PREDICTED BY IDOCK:   -3.52 KCAL/MOL
REMARK 923 INTER-LIGAND FREE ENERGY PREDICTED BY IDOCK:   -3.11 KCAL/MOL
REMARK 924 INTRA-LIGAND FREE ENERGY PREDICTED BY IDOCK:   -0.41 KCAL/MOL
REMARK 927      BINDING AFFINITY PREDICTED BY RF-SCORE:    0.00 PKD
ROOT
HETATM    1  C   UNL     1      -9.783   7.205  73.120  1.00  0.00    -0.232 C  
HETATM    2  C   UNL     1     -10.459   7.847  71.902  1.00  0.00    -0.284 C  
HETATM    3  C   UNL     1     -11.891   8.229  72.318  1.00  0.00    -0.451 C  
HETATM    4  C   UNL     1      -9.672   9.074  71.342  1.00  0.00    -0.369 C  
HETATM    5  C   UNL     1     -10.329   9.612  70.059  1.00  0.00    -0.257 C  
HETATM    6  C   UNL     1      -8.174   8.799  71.064  1.00  0.00    -0.194 C  
HETATM    7  N   UNL     1      -9.851  10.844  69.641  1.00  0.00    -0.419 N  
HETATM    8  H   UNL     1      -9.174  11.300  70.251  1.00  0.00     0.000 HD 
HETATM    9  O   UNL     1     -11.217   9.005  69.458  1.00  0.00    -0.098 OA 
ENDROOT
BRANCH   6  10
HETATM   10  C   UNL     1      -7.926   7.835  69.935  1.00  0.00    -0.110 C  
HETATM   11  C   UNL     1      -6.837   7.063  69.836  1.00  0.00    -0.053 C  
ENDBRANCH   6  10
BRANCH   7  12
HETATM   12  C   UNL     1     -10.191  11.513  68.498  1.00  0.00    -0.213 C  
HETATM   13  N   UNL     1     -10.175  10.799  67.349  1.00  0.00    -0.195 N  
HETATM   14  O   UNL     1     -10.503  12.698  68.522  1.00  0.00    -0.235 OA 
HETATM   15  H1  UNL     1     -10.428  11.299  66.496  1.00  0.00     0.000 HD 
HETATM   16  H2  UNL     1      -9.922   9.811  67.336  1.00  0.00     0.000 HD 
ENDBRANCH   7  12
TORSDOF 2
ENDMDL
MODEL      121
REMARK 921   NORMALIZED FREE ENERGY PREDICTED BY IDOCK:   -2.77 KCAL/MOL
REMARK 922        TOTAL FREE ENERGY PREDICTED BY IDOCK:   -3.50 KCAL/MOL
REMARK 923 INTER-LIGAND FREE ENERGY PREDICTED BY IDOCK:   -3.09 KCAL/MOL
REMARK 924 INTRA-LIGAND FREE ENERGY PREDICTED BY IDOCK:   -0.40 KCAL/MOL
REMARK 927      BINDING AFFINITY PREDICTED BY RF-SCORE:    0.00 PKD
ROOT
HETATM    1  C   UNL     1     -10.011  14.837  65.804  1.00  0.00    -0.375 C  
HETATM    2  C   UNL     1     -10.565  13.947  66.924  1.00  0.00    -0.280 C  
HETATM    3  C   UNL     1     -12.075  13.781  66.676  1.00  0.00    -0.471 C  
HETATM    4  C   UNL     1      -9.839  12.568  67.025  1.00  0.00    -0.217 C  
HETATM    5  C   UNL     1     -10.353  11.760  68.230  1.00  0.00    -0.206 C  
HETATM    6  C   UNL     1      -8.295  12.664  67.104  1.00  0.00    -0.172 C  
HETATM    7  N   UNL     1      -9.952  10.434  68.246  1.00  0.00    -0.148 N  
HETATM    8  H   UNL     1      -9.425  10.108  67.437  1.00  0.00     0.000 HD 
HETATM    9  O   UNL     1     -11.073  12.248  69.102  1.00  0.00    -0.238 OA 
ENDROOT
BRANCH   6  10
HETATM   10  C   UNL     1      -7.783  13.284  68.376  1.00  0.00    -0.138 C  
HETATM   11  C   UNL     1      -6.821  12.746  69.135  1.00  0.00    -0.054 C  
ENDBRANCH   6  10
BRANCH   7  12
HETATM   12  C   UNL     1     -10.189   9.516  69.231  1.00  0.00    -0.203 C  
HETATM   13  N   UNL     1     -10.037   9.940  70.506  1.00  0.00    -0.371 N  
HETATM   14  O   UNL     1     -10.532   8.369  68.964  1.00  0.00    -0.222 OA 
HETATM   15  H1  UNL     1     -10.213   9.254  71.241  1.00  0.00     0.000 HD 
HETATM   16  H2  UNL     1      -9.759  10.897  70.723  1.00  0.00     0.000 HD 
ENDBRANCH   7  12
TORSDOF 2
ENDMDL
MODEL      122
REMARK 921   NORMALIZED FREE ENERGY PREDICTED BY IDOCK:   -2.76 KCAL/MOL
REMARK 922        TOTAL FREE ENERGY PREDICTED BY IDOCK:   -3.48 KCAL/MOL
REMARK 923 INTER-LIGAND FREE ENERGY PREDICTED BY IDOCK:   -3.13 KCAL/MOL
REMARK 924 INTRA-LIGAND FREE ENERGY PREDICTED BY IDOCK:   -0.35 KCAL/MOL
REMARK 927      BINDING AFFINITY PREDICTED BY RF-SCORE:    0.00 PKD
ROOT
HETATM    1  C   UNL     1      -6.518  17.908  69.233  1.00  0.00    -0.248 C  
HETATM    2  C   UNL     1      -7.142  16.628  68.662  1.00  0.00    -0.183 C  
HETATM    3  C   UNL     1      -6.383  15.435  69.269  1.00  0.00    -0.128 C  
HETATM    4  C   UNL     1      -8.679  16.529  68.920  1.00  0.00    -0.247 C  
HETATM    5  C   UNL     1      -9.276  15.288  68.234  1.00  0.00    -0.189 C  
HETATM    6  C   UNL     1      -9.481  17.780  68.485  1.00  0.00    -0.304 C  
HETATM    7  N   UNL     1     -10.572  14.985  68.619  1.00  0.00    -0.231 N  
HETATM    8  H   UNL     1     -10.973  15.560  69.359  1.00  0.00     0.000 HD 
HETATM    9  O   UNL     1      -8.649  14.609  67.419  1.00  0.00    -0.174 OA 
ENDROOT
BRANCH   6  10
HETATM   10  C   UNL     1      -9.514  18.001  66.997  1.00  0.00    -0.273 C  
HETATM   11  C   UNL     1     -10.568  17.714  66.222  1.00  0.00    -0.215 C  
ENDBRANCH   6  10
BRANCH   7  12
HETATM   12  C   UNL     1     -11.370  13.997  68.113  1.00  0.00    -0.292 C  
HETATM   13  N   UNL     1     -11.513  13.960  66.769  1.00  0.00    -0.336 N  
HETATM   14  O   UNL     1     -11.918  13.182  68.847  1.00  0.00    -0.309 OA 
HETATM   15  H1  UNL     1     -12.109  13.223  66.392  1.00  0.00     0.000 HD 
HETATM   16  H2  UNL     1     -11.048  14.636  66.162  1.00  0.00     0.000 HD 
ENDBRANCH   7  12
TORSDOF 2
ENDMDL
MODEL      123
REMARK 921   NORMALIZED FREE ENERGY PREDICTED BY IDOCK:   -2.74 KCAL/MOL
REMARK 922        TOTAL FREE ENERGY PREDICTED BY IDOCK:   -3.46 KCAL/MOL
REMARK 923 INTER-LIGAND FREE ENERGY PREDICTED BY IDOCK:   -3.06 KCAL/MOL
REMARK 924 INTRA-LIGAND FREE ENERGY PREDICTED BY IDOCK:   -0.41 KCAL/MOL
REMARK 927      BINDING AFFINITY PREDICTED BY RF-SCORE:    0.00 PKD
ROOT
HETATM    1  C   UNL     1      -7.994   9.998  69.714  1.00  0.00    -0.190 C  
HETATM    2  C   UNL     1      -9.242   9.540  70.479  1.00  0.00    -0.284 C  
HETATM    3  C   UNL     1     -10.461   9.826  69.585  1.00  0.00    -0.263 C  
HETATM    4  C   UNL     1      -9.179   8.041  70.912  1.00  0.00    -0.163 C  
HETATM    5  C   UNL     1     -10.399   7.662  71.769  1.00  0.00    -0.197 C  
HETATM    6  C   UNL     1      -7.887   7.649  71.670  1.00  0.00    -0.089 C  
HETATM    7  N   UNL     1     -10.553   6.300  71.979  1.00  0.00    -0.211 N  
HETATM    8  H   UNL     1      -9.897   5.688  71.496  1.00  0.00     0.000 HD 
HETATM    9  O   UNL     1     -11.183   8.497  72.222  1.00  0.00    -0.342 OA 
ENDROOT
BRANCH   6  10
HETATM   10  C   UNL     1      -7.758   8.283  73.029  1.00  0.00    -0.180 C  
HETATM   11  C   UNL     1      -6.591   8.477  73.656  1.00  0.00    -0.102 C  
ENDBRANCH   6  10
BRANCH   7  12
HETATM   12  C   UNL     1     -11.491   5.691  72.766  1.00  0.00    -0.274 C  
HETATM   13  N   UNL     1     -12.785   5.992  72.513  1.00  0.00    -0.441 N  
HETATM   14  O   UNL     1     -11.167   4.904  73.649  1.00  0.00    -0.321 OA 
HETATM   15  H1  UNL     1     -13.484   5.537  73.100  1.00  0.00     0.000 HD 
HETATM   16  H2  UNL     1     -13.048   6.641  71.771  1.00  0.00     0.000 HD 
ENDBRANCH   7  12
TORSDOF 2
ENDMDL
MODEL      124
REMARK 921   NORMALIZED FREE ENERGY PREDICTED BY IDOCK:   -2.74 KCAL/MOL
REMARK 922        TOTAL FREE ENERGY PREDICTED BY IDOCK:   -3.46 KCAL/MOL
REMARK 923 INTER-LIGAND FREE ENERGY PREDICTED BY IDOCK:   -3.00 KCAL/MOL
REMARK 924 INTRA-LIGAND FREE ENERGY PREDICTED BY IDOCK:   -0.46 KCAL/MOL
REMARK 927      BINDING AFFINITY PREDICTED BY RF-SCORE:    0.00 PKD
ROOT
HETATM    1  C   UNL     1     -10.352   8.040  66.835  1.00  0.00    -0.408 C  
HETATM    2  C   UNL     1      -9.909   7.967  68.302  1.00  0.00    -0.190 C  
HETATM    3  C   UNL     1      -9.954   9.397  68.868  1.00  0.00    -0.188 C  
HETATM    4  C   UNL     1     -10.769   6.980  69.152  1.00  0.00    -0.240 C  
HETATM    5  C   UNL     1     -10.218   6.858  70.583  1.00  0.00    -0.195 C  
HETATM    6  C   UNL     1     -10.906   5.563  68.542  1.00  0.00    -0.072 C  
HETATM    7  N   UNL     1     -11.061   6.209  71.472  1.00  0.00    -0.276 N  
HETATM    8  H   UNL     1     -11.978   5.942  71.116  1.00  0.00     0.000 HD 
HETATM    9  O   UNL     1      -9.123   7.313  70.918  1.00  0.00    -0.150 OA 
ENDROOT
BRANCH   6  10
HETATM   10  C   UNL     1      -9.621   4.780  68.516  1.00  0.00    -0.218 C  
HETATM   11  C   UNL     1      -8.943   4.493  67.399  1.00  0.00    -0.124 C  
ENDBRANCH   6  10
BRANCH   7  12
HETATM   12  C   UNL     1     -10.793   5.888  72.773  1.00  0.00    -0.252 C  
HETATM   13  N   UNL     1     -10.722   6.914  73.650  1.00  0.00    -0.509 N  
HETATM   14  O   UNL     1     -10.637   4.723  73.122  1.00  0.00    -0.182 OA 
HETATM   15  H1  UNL     1     -10.522   6.674  74.621  1.00  0.00     0.000 HD 
HETATM   16  H2  UNL     1     -10.861   7.881  73.356  1.00  0.00     0.000 HD 
ENDBRANCH   7  12
TORSDOF 2
ENDMDL
MODEL      125
REMARK 921   NORMALIZED FREE ENERGY PREDICTED BY IDOCK:   -2.74 KCAL/MOL
REMARK 922        TOTAL FREE ENERGY PREDICTED BY IDOCK:   -3.46 KCAL/MOL
REMARK 923 INTER-LIGAND FREE ENERGY PREDICTED BY IDOCK:   -3.03 KCAL/MOL
REMARK 924 INTRA-LIGAND FREE ENERGY PREDICTED BY IDOCK:   -0.43 KCAL/MOL
REMARK 927      BINDING AFFINITY PREDICTED BY RF-SCORE:    0.00 PKD
ROOT
HETATM    1  C   UNL     1      -7.215  11.969  67.089  1.00  0.00    -0.131 C  
HETATM    2  C   UNL     1      -7.640  13.213  67.880  1.00  0.00    -0.147 C  
HETATM    3  C   UNL     1      -6.359  13.973  68.266  1.00  0.00    -0.114 C  
HETATM    4  C   UNL     1      -8.640  14.122  67.098  1.00  0.00    -0.230 C  
HETATM    5  C   UNL     1      -9.122  15.293  67.972  1.00  0.00    -0.176 C  
HETATM    6  C   UNL     1      -9.873  13.375  66.531  1.00  0.00    -0.286 C  
HETATM    7  N   UNL     1      -9.805  16.283  67.282  1.00  0.00    -0.239 N  
HETATM    8  H   UNL     1      -9.860  16.177  66.270  1.00  0.00     0.000 HD 
HETATM    9  O   UNL     1      -8.907  15.355  69.183  1.00  0.00    -0.215 OA 
ENDROOT
BRANCH   6  10
HETATM   10  C   UNL     1     -10.814  12.857  67.586  1.00  0.00    -0.252 C  
HETATM   11  C   UNL     1     -11.366  11.638  67.561  1.00  0.00    -0.364 C  
ENDBRANCH   6  10
BRANCH   7  12
HETATM   12  C   UNL     1     -10.413  17.385  67.815  1.00  0.00    -0.376 C  
HETATM   13  N   UNL     1     -11.166  17.190  68.921  1.00  0.00    -0.164 N  
HETATM   14  O   UNL     1     -10.269  18.496  67.315  1.00  0.00    -0.334 OA 
HETATM   15  H1  UNL     1     -11.619  18.012  69.318  1.00  0.00     0.000 HD 
HETATM   16  H2  UNL     1     -11.275  16.265  69.338  1.00  0.00     0.000 HD 
ENDBRANCH   7  12
TORSDOF 2
ENDMDL
MODEL      126
REMARK 921   NORMALIZED FREE ENERGY PREDICTED BY IDOCK:   -2.71 KCAL/MOL
REMARK 922        TOTAL FREE ENERGY PREDICTED BY IDOCK:   -3.43 KCAL/MOL
REMARK 923 INTER-LIGAND FREE ENERGY PREDICTED BY IDOCK:   -2.97 KCAL/MOL
REMARK 924 INTRA-LIGAND FREE ENERGY PREDICTED BY IDOCK:   -0.46 KCAL/MOL
REMARK 927      BINDING AFFINITY PREDICTED BY RF-SCORE:    0.00 PKD
ROOT
HETATM    1  C   UNL     1      -8.676  14.287  68.293  1.00  0.00    -0.179 C  
HETATM    2  C   UNL     1      -8.462  12.937  67.596  1.00  0.00    -0.183 C  
HETATM    3  C   UNL     1      -6.954  12.634  67.633  1.00  0.00    -0.140 C  
HETATM    4  C   UNL     1      -9.301  11.782  68.229  1.00  0.00    -0.193 C  
HETATM    5  C   UNL     1      -9.138  10.478  67.429  1.00  0.00    -0.139 C  
HETATM    6  C   UNL     1     -10.810  12.096  68.379  1.00  0.00    -0.255 C  
HETATM    7  N   UNL     1      -9.637   9.349  68.060  1.00  0.00    -0.137 N  
HETATM    8  H   UNL     1      -9.994   9.477  69.006  1.00  0.00     0.000 HD 
HETATM    9  O   UNL     1      -8.595  10.436  66.324  1.00  0.00    -0.135 OA 
ENDROOT
BRANCH   6  10
HETATM   10  C   UNL     1     -11.543  12.219  67.070  1.00  0.00    -0.418 C  
HETATM   11  C   UNL     1     -11.989  13.377  66.569  1.00  0.00    -0.452 C  
ENDBRANCH   6  10
BRANCH   7  12
HETATM   12  C   UNL     1      -9.703   8.083  67.549  1.00  0.00    -0.161 C  
HETATM   13  N   UNL     1     -10.184   7.960  66.291  1.00  0.00    -0.448 N  
HETATM   14  O   UNL     1      -9.332   7.113  68.200  1.00  0.00    -0.131 OA 
HETATM   15  H1  UNL     1     -10.234   7.015  65.910  1.00  0.00     0.000 HD 
HETATM   16  H2  UNL     1     -10.484   8.771  65.750  1.00  0.00     0.000 HD 
ENDBRANCH   7  12
TORSDOF 2
ENDMDL
MODEL      127
REMARK 921   NORMALIZED FREE ENERGY PREDICTED BY IDOCK:   -2.70 KCAL/MOL
REMARK 922        TOTAL FREE ENERGY PREDICTED BY IDOCK:   -3.42 KCAL/MOL
REMARK 923 INTER-LIGAND FREE ENERGY PREDICTED BY IDOCK:   -3.01 KCAL/MOL
REMARK 924 INTRA-LIGAND FREE ENERGY PREDICTED BY IDOCK:   -0.41 KCAL/MOL
REMARK 927      BINDING AFFINITY PREDICTED BY RF-SCORE:    0.00 PKD
ROOT
HETATM    1  C   UNL     1      -8.769   6.429  73.043  1.00  0.00    -0.124 C  
HETATM    2  C   UNL     1      -8.692   6.777  71.551  1.00  0.00    -0.127 C  
HETATM    3  C   UNL     1      -7.213   6.690  71.133  1.00  0.00    -0.078 C  
HETATM    4  C   UNL     1      -9.599   5.867  70.664  1.00  0.00    -0.208 C  
HETATM    5  C   UNL     1      -9.574   6.325  69.195  1.00  0.00    -0.135 C  
HETATM    6  C   UNL     1     -11.071   5.776  71.138  1.00  0.00    -0.257 C  
HETATM    7  N   UNL     1     -10.141   5.429  68.303  1.00  0.00    -0.167 N  
HETATM    8  H   UNL     1     -10.451   4.538  68.688  1.00  0.00     0.000 HD 
HETATM    9  O   UNL     1      -9.077   7.395  68.838  1.00  0.00    -0.137 OA 
ENDROOT
BRANCH   6  10
HETATM   10  C   UNL     1     -11.839   7.063  71.004  1.00  0.00    -0.395 C  
HETATM   11  C   UNL     1     -12.963   7.336  71.677  1.00  0.00    -0.417 C  
ENDBRANCH   6  10
BRANCH   7  12
HETATM   12  C   UNL     1     -10.330   5.613  66.962  1.00  0.00    -0.254 C  
HETATM   13  N   UNL     1     -10.926   6.767  66.584  1.00  0.00    -0.520 N  
HETATM   14  O   UNL     1      -9.964   4.774  66.146  1.00  0.00    -0.193 OA 
HETATM   15  H1  UNL     1     -11.066   6.904  65.584  1.00  0.00     0.000 HD 
HETATM   16  H2  UNL     1     -11.220   7.466  67.267  1.00  0.00     0.000 HD 
ENDBRANCH   7  12
TORSDOF 2
ENDMDL
MODEL      128
REMARK 921   NORMALIZED FREE ENERGY PREDICTED BY IDOCK:   -2.66 KCAL/MOL
REMARK 922        TOTAL FREE ENERGY PREDICTED BY IDOCK:   -3.37 KCAL/MOL
REMARK 923 INTER-LIGAND FREE ENERGY PREDICTED BY IDOCK:   -2.96 KCAL/MOL
REMARK 924 INTRA-LIGAND FREE ENERGY PREDICTED BY IDOCK:   -0.41 KCAL/MOL
REMARK 927      BINDING AFFINITY PREDICTED BY RF-SCORE:    0.00 PKD
ROOT
HETATM    1  C   UNL     1     -11.070  11.428  68.764  1.00  0.00    -0.290 C  
HETATM    2  C   UNL     1     -10.457  10.022  68.787  1.00  0.00    -0.229 C  
HETATM    3  C   UNL     1     -11.045   9.282  70.002  1.00  0.00    -0.228 C  
HETATM    4  C   UNL     1     -10.690   9.232  67.460  1.00  0.00    -0.272 C  
HETATM    5  C   UNL     1      -9.964   7.875  67.490  1.00  0.00    -0.192 C  
HETATM    6  C   UNL     1     -10.275   9.998  66.180  1.00  0.00    -0.283 C  
HETATM    7  N   UNL     1     -10.322   7.009  66.470  1.00  0.00    -0.482 N  
HETATM    8  H   UNL     1     -11.070   7.319  65.851  1.00  0.00     0.000 HD 
HETATM    9  O   UNL     1      -9.141   7.578  68.357  1.00  0.00    -0.134 OA 
ENDROOT
BRANCH   6  10
HETATM   10  C   UNL     1      -8.793  10.223  66.053  1.00  0.00    -0.166 C  
HETATM   11  C   UNL     1      -8.102  10.032  64.923  1.00  0.00    -0.154 C  
ENDBRANCH   6  10
BRANCH   7  12
HETATM   12  C   UNL     1      -9.779   5.782  66.205  1.00  0.00    -0.117 C  
HETATM   13  N   UNL     1      -8.431   5.719  66.122  1.00  0.00    -0.125 N  
HETATM   14  O   UNL     1     -10.486   4.791  66.061  1.00  0.00    -0.287 OA 
HETATM   15  H1  UNL     1      -8.026   4.804  65.925  1.00  0.00     0.000 HD 
HETATM   16  H2  UNL     1      -7.847   6.546  66.251  1.00  0.00     0.000 HD 
ENDBRANCH   7  12
TORSDOF 2
ENDMDL
MODEL      129
REMARK 921   NORMALIZED FREE ENERGY PREDICTED BY IDOCK:   -2.65 KCAL/MOL
REMARK 922        TOTAL FREE ENERGY PREDICTED BY IDOCK:   -3.36 KCAL/MOL
REMARK 923 INTER-LIGAND FREE ENERGY PREDICTED BY IDOCK:   -3.12 KCAL/MOL
REMARK 924 INTRA-LIGAND FREE ENERGY PREDICTED BY IDOCK:   -0.24 KCAL/MOL
REMARK 927      BINDING AFFINITY PREDICTED BY RF-SCORE:    0.00 PKD
ROOT
HETATM    1  C   UNL     1     -11.751   8.806  71.304  1.00  0.00    -0.356 C  
HETATM    2  C   UNL     1     -11.492   9.729  70.107  1.00  0.00    -0.272 C  
HETATM    3  C   UNL     1     -11.813  11.166  70.556  1.00  0.00    -0.448 C  
HETATM    4  C   UNL     1     -10.040   9.609  69.545  1.00  0.00    -0.223 C  
HETATM    5  C   UNL     1      -9.864  10.469  68.281  1.00  0.00    -0.149 C  
HETATM    6  C   UNL     1      -9.594   8.159  69.234  1.00  0.00    -0.164 C  
HETATM    7  N   UNL     1      -8.551  10.622  67.867  1.00  0.00    -0.123 N  
HETATM    8  H   UNL     1      -7.834  10.217  68.469  1.00  0.00     0.000 HD 
HETATM    9  O   UNL     1     -10.812  10.992  67.692  1.00  0.00    -0.219 OA 
ENDROOT
BRANCH   6  10
HETATM   10  C   UNL     1     -10.335   7.522  68.089  1.00  0.00    -0.244 C  
HETATM   11  C   UNL     1      -9.748   7.094  66.965  1.00  0.00    -0.222 C  
ENDBRANCH   6  10
BRANCH   7  12
HETATM   12  C   UNL     1      -8.113  11.258  66.739  1.00  0.00    -0.159 C  
HETATM   13  N   UNL     1      -7.630  12.511  66.896  1.00  0.00    -0.384 N  
HETATM   14  O   UNL     1      -8.149  10.708  65.644  1.00  0.00    -0.160 OA 
HETATM   15  H1  UNL     1      -7.304  12.985  66.054  1.00  0.00     0.000 HD 
HETATM   16  H2  UNL     1      -7.594  12.961  67.811  1.00  0.00     0.000 HD 
ENDBRANCH   7  12
TORSDOF 2
ENDMDL
MODEL      130
REMARK 921   NORMALIZED FREE ENERGY PREDICTED BY IDOCK:   -2.64 KCAL/MOL
REMARK 922        TOTAL FREE ENERGY PREDICTED BY IDOCK:   -3.36 KCAL/MOL
REMARK 923 INTER-LIGAND FREE ENERGY PREDICTED BY IDOCK:   -3.29 KCAL/MOL
REMARK 924 INTRA-LIGAND FREE ENERGY PREDICTED BY IDOCK:   -0.06 KCAL/MOL
REMARK 927      BINDING AFFINITY PREDICTED BY RF-SCORE:    0.00 PKD
ROOT
HETATM    1  C   UNL     1      -7.912  17.954  68.559  1.00  0.00    -0.302 C  
HETATM    2  C   UNL     1      -8.461  17.019  67.474  1.00  0.00    -0.208 C  
HETATM    3  C   UNL     1      -7.715  17.342  66.167  1.00  0.00    -0.317 C  
HETATM    4  C   UNL     1      -8.342  15.509  67.851  1.00  0.00    -0.148 C  
HETATM    5  C   UNL     1      -9.005  14.619  66.785  1.00  0.00    -0.257 C  
HETATM    6  C   UNL     1      -8.925  15.150  69.240  1.00  0.00    -0.202 C  
HETATM    7  N   UNL     1      -8.725  13.268  66.908  1.00  0.00    -0.365 N  
HETATM    8  H   UNL     1      -8.062  13.004  67.636  1.00  0.00     0.000 HD 
HETATM    9  O   UNL     1      -9.716  15.072  65.886  1.00  0.00    -0.306 OA 
ENDROOT
BRANCH   6  10
HETATM   10  C   UNL     1     -10.420  15.290  69.333  1.00  0.00    -0.253 C  
HETATM   11  C   UNL     1     -11.043  16.415  69.705  1.00  0.00    -0.306 C  
ENDBRANCH   6  10
BRANCH   7  12
HETATM   12  C   UNL     1      -9.244  12.249  66.158  1.00  0.00    -0.132 C  
HETATM   13  N   UNL     1     -10.158  12.589  65.221  1.00  0.00    -0.329 N  
HETATM   14  O   UNL     1      -8.884  11.089  66.324  1.00  0.00    -0.168 OA 
HETATM   15  H1  UNL     1     -10.545  11.829  64.662  1.00  0.00     0.000 HD 
HETATM   16  H2  UNL     1     -10.447  13.557  65.081  1.00  0.00     0.000 HD 
ENDBRANCH   7  12
TORSDOF 2
ENDMDL
MODEL      131
REMARK 921   NORMALIZED FREE ENERGY PREDICTED BY IDOCK:   -2.61 KCAL/MOL
REMARK 922        TOTAL FREE ENERGY PREDICTED BY IDOCK:   -3.32 KCAL/MOL
REMARK 923 INTER-LIGAND FREE ENERGY PREDICTED BY IDOCK:   -2.92 KCAL/MOL
REMARK 924 INTRA-LIGAND FREE ENERGY PREDICTED BY IDOCK:   -0.40 KCAL/MOL
REMARK 927      BINDING AFFINITY PREDICTED BY RF-SCORE:    0.00 PKD
ROOT
HETATM    1  C   UNL     1     -11.133   7.353  70.623  1.00  0.00    -0.285 C  
HETATM    2  C   UNL     1     -10.164   6.311  70.050  1.00  0.00    -0.237 C  
HETATM    3  C   UNL     1     -10.049   5.173  71.080  1.00  0.00    -0.297 C  
HETATM    4  C   UNL     1     -10.594   5.781  68.646  1.00  0.00    -0.305 C  
HETATM    5  C   UNL     1      -9.536   4.826  68.067  1.00  0.00    -0.151 C  
HETATM    6  C   UNL     1     -10.893   6.891  67.609  1.00  0.00    -0.333 C  
HETATM    7  N   UNL     1      -9.950   4.116  66.952  1.00  0.00    -0.284 N  
HETATM    8  H   UNL     1     -10.922   4.239  66.669  1.00  0.00     0.000 HD 
HETATM    9  O   UNL     1      -8.416   4.691  68.562  1.00  0.00    -0.089 OA 
ENDROOT
BRANCH   6  10
HETATM   10  C   UNL     1      -9.683   7.682  67.191  1.00  0.00    -0.239 C  
HETATM   11  C   UNL     1      -9.742   8.859  66.557  1.00  0.00    -0.322 C  
ENDBRANCH   6  10
BRANCH   7  12
HETATM   12  C   UNL     1      -9.195   3.268  66.189  1.00  0.00    -0.149 C  
HETATM   13  N   UNL     1      -8.576   2.256  66.838  1.00  0.00    -0.102 N  
HETATM   14  O   UNL     1      -9.098   3.418  64.976  1.00  0.00    -0.130 OA 
HETATM   15  H1  UNL     1      -8.013   1.625  66.269  1.00  0.00     0.000 HD 
HETATM   16  H2  UNL     1      -8.667   2.131  67.846  1.00  0.00     0.000 HD 
ENDBRANCH   7  12
TORSDOF 2
ENDMDL
MODEL      132
REMARK 921   NORMALIZED FREE ENERGY PREDICTED BY IDOCK:   -2.58 KCAL/MOL
REMARK 922        TOTAL FREE ENERGY PREDICTED BY IDOCK:   -3.28 KCAL/MOL
REMARK 923 INTER-LIGAND FREE ENERGY PREDICTED BY IDOCK:   -3.00 KCAL/MOL
REMARK 924 INTRA-LIGAND FREE ENERGY PREDICTED BY IDOCK:   -0.28 KCAL/MOL
REMARK 927      BINDING AFFINITY PREDICTED BY RF-SCORE:    0.00 PKD
ROOT
HETATM    1  C   UNL     1      -7.091   5.888  70.328  1.00  0.00    -0.074 C  
HETATM    2  C   UNL     1      -8.598   5.925  70.044  1.00  0.00    -0.130 C  
HETATM    3  C   UNL     1      -9.130   4.489  70.195  1.00  0.00    -0.160 C  
HETATM    4  C   UNL     1      -9.369   6.928  70.959  1.00  0.00    -0.156 C  
HETATM    5  C   UNL     1     -10.853   7.010  70.562  1.00  0.00    -0.251 C  
HETATM    6  C   UNL     1      -8.773   8.357  70.984  1.00  0.00    -0.185 C  
HETATM    7  N   UNL     1     -11.657   7.674  71.474  1.00  0.00    -0.266 N  
HETATM    8  H   UNL     1     -11.210   7.977  72.339  1.00  0.00     0.000 HD 
HETATM    9  O   UNL     1     -11.295   6.514  69.524  1.00  0.00    -0.362 OA 
ENDROOT
BRANCH   6  10
HETATM   10  C   UNL     1      -8.900   9.096  69.679  1.00  0.00    -0.152 C  
HETATM   11  C   UNL     1      -7.858   9.557  68.977  1.00  0.00    -0.077 C  
ENDBRANCH   6  10
BRANCH   7  12
HETATM   12  C   UNL     1     -12.985   7.967  71.339  1.00  0.00    -0.252 C  
HETATM   13  N   UNL     1     -13.295   9.236  70.987  1.00  0.00    -0.564 N  
HETATM   14  O   UNL     1     -13.847   7.114  71.518  1.00  0.00    -0.376 OA 
HETATM   15  H1  UNL     1     -14.286   9.454  70.886  1.00  0.00     0.000 HD 
HETATM   16  H2  UNL     1     -12.573   9.940  70.831  1.00  0.00     0.000 HD 
ENDBRANCH   7  12
TORSDOF 2
ENDMDL
MODEL      133
REMARK 921   NORMALIZED FREE ENERGY PREDICTED BY IDOCK:   -2.57 KCAL/MOL
REMARK 922        TOTAL FREE ENERGY PREDICTED BY IDOCK:   -3.27 KCAL/MOL
REMARK 923 INTER-LIGAND FREE ENERGY PREDICTED BY IDOCK:   -2.84 KCAL/MOL
REMARK 924 INTRA-LIGAND FREE ENERGY PREDICTED BY IDOCK:   -0.43 KCAL/MOL
REMARK 927      BINDING AFFINITY PREDICTED BY RF-SCORE:    0.00 PKD
ROOT
HETATM    1  C   UNL     1     -11.485  10.974  68.974  1.00  0.00    -0.368 C  
HETATM    2  C   UNL     1     -10.982   9.547  68.724  1.00  0.00    -0.116 C  
HETATM    3  C   UNL     1     -10.437   9.496  67.285  1.00  0.00    -0.328 C  
HETATM    4  C   UNL     1      -9.916   9.082  69.765  1.00  0.00    -0.204 C  
HETATM    5  C   UNL     1      -9.526   7.611  69.538  1.00  0.00    -0.152 C  
HETATM    6  C   UNL     1     -10.341   9.270  71.242  1.00  0.00    -0.397 C  
HETATM    7  N   UNL     1      -8.409   7.196  70.247  1.00  0.00    -0.134 N  
HETATM    8  H   UNL     1      -7.920   7.910  70.784  1.00  0.00     0.000 HD 
HETATM    9  O   UNL     1     -10.147   6.865  68.779  1.00  0.00    -0.156 OA 
ENDROOT
BRANCH   6  10
HETATM   10  C   UNL     1     -11.477   8.382  71.670  1.00  0.00    -0.349 C  
HETATM   11  C   UNL     1     -11.412   7.530  72.700  1.00  0.00    -0.369 C  
ENDBRANCH   6  10
BRANCH   7  12
HETATM   12  C   UNL     1      -7.894   5.931  70.302  1.00  0.00    -0.101 C  
HETATM   13  N   UNL     1      -8.724   4.955  70.736  1.00  0.00    -0.119 N  
HETATM   14  O   UNL     1      -6.740   5.698  69.961  1.00  0.00    -0.044 OA 
HETATM   15  H1  UNL     1      -8.339   4.012  70.778  1.00  0.00     0.000 HD 
HETATM   16  H2  UNL     1      -9.686   5.154  71.010  1.00  0.00     0.000 HD 
ENDBRANCH   7  12
TORSDOF 2
ENDMDL
MODEL      134
REMARK 921   NORMALIZED FREE ENERGY PREDICTED BY IDOCK:   -2.55 KCAL/MOL
REMARK 922        TOTAL FREE ENERGY PREDICTED BY IDOCK:   -3.26 KCAL/MOL
REMARK 923 INTER-LIGAND FREE ENERGY PREDICTED BY IDOCK:   -2.84 KCAL/MOL
REMARK 924 INTRA-LIGAND FREE ENERGY PREDICTED BY IDOCK:   -0.42 KCAL/MOL
REMARK 927      BINDING AFFINITY PREDICTED BY RF-SCORE:    0.00 PKD
ROOT
HETATM    1  C   UNL     1      -9.513   4.016  67.118  1.00  0.00    -0.224 C  
HETATM    2  C   UNL     1      -9.787   5.033  68.234  1.00  0.00    -0.211 C  
HETATM    3  C   UNL     1      -9.752   4.272  69.570  1.00  0.00    -0.272 C  
HETATM    4  C   UNL     1      -8.788   6.234  68.225  1.00  0.00    -0.114 C  
HETATM    5  C   UNL     1      -9.171   7.279  69.288  1.00  0.00    -0.144 C  
HETATM    6  C   UNL     1      -8.649   6.939  66.853  1.00  0.00    -0.116 C  
HETATM    7  N   UNL     1      -8.203   8.243  69.522  1.00  0.00    -0.117 N  
HETATM    8  H   UNL     1      -7.319   8.129  69.028  1.00  0.00     0.000 HD 
HETATM    9  O   UNL     1     -10.244   7.253  69.893  1.00  0.00    -0.197 OA 
ENDROOT
BRANCH   6  10
HETATM   10  C   UNL     1      -9.887   7.670  66.410  1.00  0.00    -0.174 C  
HETATM   11  C   UNL     1      -9.944   8.993  66.214  1.00  0.00    -0.352 C  
ENDBRANCH   6  10
BRANCH   7  12
HETATM   12  C   UNL     1      -8.308   9.330  70.343  1.00  0.00    -0.199 C  
HETATM   13  N   UNL     1      -9.250  10.246  70.022  1.00  0.00    -0.384 N  
HETATM   14  O   UNL     1      -7.588   9.458  71.327  1.00  0.00    -0.333 OA 
HETATM   15  H1  UNL     1      -9.328  11.057  70.635  1.00  0.00     0.000 HD 
HETATM   16  H2  UNL     1      -9.853  10.131  69.207  1.00  0.00     0.000 HD 
ENDBRANCH   7  12
TORSDOF 2
ENDMDL
MODEL      135
REMARK 921   NORMALIZED FREE ENERGY PREDICTED BY IDOCK:   -2.53 KCAL/MOL
REMARK 922        TOTAL FREE ENERGY PREDICTED BY IDOCK:   -3.23 KCAL/MOL
REMARK 923 INTER-LIGAND FREE ENERGY PREDICTED BY IDOCK:   -2.95 KCAL/MOL
REMARK 924 INTRA-LIGAND FREE ENERGY PREDICTED BY IDOCK:   -0.28 KCAL/MOL
REMARK 927      BINDING AFFINITY PREDICTED BY RF-SCORE:    0.00 PKD
ROOT
HETATM    1  C   UNL     1     -11.113  13.071  65.559  1.00  0.00    -0.300 C  
HETATM    2  C   UNL     1     -10.779  11.574  65.571  1.00  0.00    -0.328 C  
HETATM    3  C   UNL     1     -10.498  11.153  64.117  1.00  0.00    -0.442 C  
HETATM    4  C   UNL     1      -9.589  11.220  66.517  1.00  0.00    -0.215 C  
HETATM    5  C   UNL     1      -9.366   9.699  66.580  1.00  0.00    -0.165 C  
HETATM    6  C   UNL     1      -9.734  11.768  67.958  1.00  0.00    -0.185 C  
HETATM    7  N   UNL     1      -8.181   9.315  67.187  1.00  0.00    -0.116 N  
HETATM    8  H   UNL     1      -7.549  10.065  67.465  1.00  0.00     0.000 HD 
HETATM    9  O   UNL     1     -10.168   8.887  66.116  1.00  0.00    -0.259 OA 
ENDROOT
BRANCH   6  10
HETATM   10  C   UNL     1     -10.847  11.133  68.746  1.00  0.00    -0.256 C  
HETATM   11  C   UNL     1     -11.909  11.802  69.212  1.00  0.00    -0.389 C  
ENDBRANCH   6  10
BRANCH   7  12
HETATM   12  C   UNL     1      -7.769   8.039  67.454  1.00  0.00    -0.102 C  
HETATM   13  N   UNL     1      -7.892   7.615  68.732  1.00  0.00    -0.118 N  
HETATM   14  O   UNL     1      -7.322   7.317  66.570  1.00  0.00    -0.077 OA 
HETATM   15  H1  UNL     1      -7.584   6.664  68.931  1.00  0.00     0.000 HD 
HETATM   16  H2  UNL     1      -8.273   8.218  69.462  1.00  0.00     0.000 HD 
ENDBRANCH   7  12
TORSDOF 2
ENDMDL
MODEL      136
REMARK 921   NORMALIZED FREE ENERGY PREDICTED BY IDOCK:   -2.52 KCAL/MOL
REMARK 922        TOTAL FREE ENERGY PREDICTED BY IDOCK:   -3.22 KCAL/MOL
REMARK 923 INTER-LIGAND FREE ENERGY PREDICTED BY IDOCK:   -3.07 KCAL/MOL
REMARK 924 INTRA-LIGAND FREE ENERGY PREDICTED BY IDOCK:   -0.15 KCAL/MOL
REMARK 927      BINDING AFFINITY PREDICTED BY RF-SCORE:    0.00 PKD
ROOT
HETATM    1  C   UNL     1     -11.190  15.977  69.553  1.00  0.00    -0.348 C  
HETATM    2  C   UNL     1     -10.947  14.500  69.218  1.00  0.00    -0.282 C  
HETATM    3  C   UNL     1     -12.279  13.757  69.418  1.00  0.00    -0.325 C  
HETATM    4  C   UNL     1     -10.375  14.286  67.781  1.00  0.00    -0.238 C  
HETATM    5  C   UNL     1     -10.044  12.804  67.533  1.00  0.00    -0.213 C  
HETATM    6  C   UNL     1      -9.126  15.142  67.456  1.00  0.00    -0.187 C  
HETATM    7  N   UNL     1      -9.776  12.487  66.210  1.00  0.00    -0.252 N  
HETATM    8  H   UNL     1      -9.890  13.238  65.530  1.00  0.00     0.000 HD 
HETATM    9  O   UNL     1     -10.032  11.963  68.433  1.00  0.00    -0.197 OA 
ENDROOT
BRANCH   6  10
HETATM   10  C   UNL     1      -7.902  14.765  68.247  1.00  0.00    -0.125 C  
HETATM   11  C   UNL     1      -6.833  14.154  67.722  1.00  0.00    -0.188 C  
ENDBRANCH   6  10
BRANCH   7  12
HETATM   12  C   UNL     1      -9.373  11.276  65.720  1.00  0.00    -0.223 C  
HETATM   13  N   UNL     1     -10.213  10.660  64.858  1.00  0.00    -0.331 N  
HETATM   14  O   UNL     1      -8.298  10.785  66.043  1.00  0.00    -0.156 OA 
HETATM   15  H1  UNL     1      -9.913   9.757  64.493  1.00  0.00     0.000 HD 
HETATM   16  H2  UNL     1     -11.104  11.078  64.587  1.00  0.00     0.000 HD 
ENDBRANCH   7  12
TORSDOF 2
ENDMDL
MODEL      137
REMARK 921   NORMALIZED FREE ENERGY PREDICTED BY IDOCK:   -2.52 KCAL/MOL
REMARK 922        TOTAL FREE ENERGY PREDICTED BY IDOCK:   -3.22 KCAL/MOL
REMARK 923 INTER-LIGAND FREE ENERGY PREDICTED BY IDOCK:   -3.41 KCAL/MOL
REMARK 924 INTRA-LIGAND FREE ENERGY PREDICTED BY IDOCK:    0.20 KCAL/MOL
REMARK 927      BINDING AFFINITY PREDICTED BY RF-SCORE:    0.00 PKD
ROOT
HETATM    1  C   UNL     1      -8.075   6.609  73.237  1.00  0.00    -0.111 C  
HETATM    2  C   UNL     1      -9.449   7.010  72.684  1.00  0.00    -0.163 C  
HETATM    3  C   UNL     1     -10.475   6.821  73.815  1.00  0.00    -0.383 C  
HETATM    4  C   UNL     1      -9.476   8.464  72.113  1.00  0.00    -0.360 C  
HETATM    5  C   UNL     1     -10.839   8.779  71.471  1.00  0.00    -0.304 C  
HETATM    6  C   UNL     1      -8.354   8.770  71.092  1.00  0.00    -0.219 C  
HETATM    7  N   UNL     1     -11.037  10.118  71.172  1.00  0.00    -0.275 N  
HETATM    8  H   UNL     1     -10.305  10.764  71.465  1.00  0.00     0.000 HD 
HETATM    9  O   UNL     1     -11.690   7.916  71.253  1.00  0.00    -0.278 OA 
ENDROOT
BRANCH   6  10
HETATM   10  C   UNL     1      -8.482   8.016  69.796  1.00  0.00    -0.127 C  
HETATM   11  C   UNL     1      -8.236   6.706  69.667  1.00  0.00    -0.127 C  
ENDBRANCH   6  10
BRANCH   7  12
HETATM   12  C   UNL     1     -12.110  10.665  70.525  1.00  0.00    -0.355 C  
HETATM   13  N   UNL     1     -11.840  11.569  69.556  1.00  0.00    -0.326 N  
HETATM   14  O   UNL     1     -13.258  10.340  70.807  1.00  0.00    -0.385 OA 
HETATM   15  H1  UNL     1     -12.640  11.977  69.074  1.00  0.00     0.000 HD 
HETATM   16  H2  UNL     1     -10.882  11.830  69.320  1.00  0.00     0.000 HD 
ENDBRANCH   7  12
TORSDOF 2
ENDMDL
MODEL      138
REMARK 921   NORMALIZED FREE ENERGY PREDICTED BY IDOCK:   -2.47 KCAL/MOL
REMARK 922        TOTAL FREE ENERGY PREDICTED BY IDOCK:   -3.17 KCAL/MOL
REMARK 923 INTER-LIGAND FREE ENERGY PREDICTED BY IDOCK:   -2.78 KCAL/MOL
REMARK 924 INTRA-LIGAND FREE ENERGY PREDICTED BY IDOCK:   -0.39 KCAL/MOL
REMARK 927      BINDING AFFINITY PREDICTED BY RF-SCORE:    0.00 PKD
ROOT
HETATM    1  C   UNL     1      -8.882   8.664  71.697  1.00  0.00    -0.292 C  
HETATM    2  C   UNL     1      -9.789   8.956  70.494  1.00  0.00    -0.242 C  
HETATM    3  C   UNL     1     -11.080   9.596  71.035  1.00  0.00    -0.438 C  
HETATM    4  C   UNL     1      -9.104   9.853  69.415  1.00  0.00    -0.216 C  
HETATM    5  C   UNL     1     -10.010  10.024  68.183  1.00  0.00    -0.153 C  
HETATM    6  C   UNL     1      -7.715   9.350  68.954  1.00  0.00    -0.076 C  
HETATM    7  N   UNL     1      -9.595  11.004  67.295  1.00  0.00    -0.164 N  
HETATM    8  H   UNL     1      -8.784  11.556  67.573  1.00  0.00     0.000 HD 
HETATM    9  O   UNL     1     -11.029   9.355  68.006  1.00  0.00    -0.183 OA 
ENDROOT
BRANCH   6  10
HETATM   10  C   UNL     1      -7.756   8.058  68.182  1.00  0.00    -0.118 C  
HETATM   11  C   UNL     1      -7.526   6.856  68.724  1.00  0.00    -0.099 C  
ENDBRANCH   6  10
BRANCH   7  12
HETATM   12  C   UNL     1     -10.156  11.309  66.087  1.00  0.00    -0.236 C  
HETATM   13  N   UNL     1      -9.955  10.426  65.083  1.00  0.00    -0.306 N  
HETATM   14  O   UNL     1     -10.816  12.330  65.931  1.00  0.00    -0.255 OA 
HETATM   15  H1  UNL     1     -10.373  10.654  64.181  1.00  0.00     0.000 HD 
HETATM   16  H2  UNL     1      -9.411   9.574  65.220  1.00  0.00     0.000 HD 
ENDBRANCH   7  12
TORSDOF 2
ENDMDL
MODEL      139
REMARK 921   NORMALIZED FREE ENERGY PREDICTED BY IDOCK:   -2.46 KCAL/MOL
REMARK 922        TOTAL FREE ENERGY PREDICTED BY IDOCK:   -3.15 KCAL/MOL
REMARK 923 INTER-LIGAND FREE ENERGY PREDICTED BY IDOCK:   -2.92 KCAL/MOL
REMARK 924 INTRA-LIGAND FREE ENERGY PREDICTED BY IDOCK:   -0.23 KCAL/MOL
REMARK 927      BINDING AFFINITY PREDICTED BY RF-SCORE:    0.00 PKD
ROOT
HETATM    1  C   UNL     1     -11.010   8.642  71.395  1.00  0.00    -0.341 C  
HETATM    2  C   UNL     1     -11.411   7.290  72.000  1.00  0.00    -0.295 C  
HETATM    3  C   UNL     1     -12.764   6.893  71.383  1.00  0.00    -0.384 C  
HETATM    4  C   UNL     1     -10.331   6.182  71.790  1.00  0.00    -0.250 C  
HETATM    5  C   UNL     1     -10.728   4.880  72.508  1.00  0.00    -0.196 C  
HETATM    6  C   UNL     1      -8.904   6.589  72.235  1.00  0.00    -0.134 C  
HETATM    7  N   UNL     1      -9.961   3.778  72.165  1.00  0.00    -0.167 N  
HETATM    8  H   UNL     1      -9.267   3.916  71.432  1.00  0.00     0.000 HD 
HETATM    9  O   UNL     1     -11.660   4.819  73.311  1.00  0.00    -0.333 OA 
ENDROOT
BRANCH   6  10
HETATM   10  C   UNL     1      -8.755   6.773  73.721  1.00  0.00    -0.158 C  
HETATM   11  C   UNL     1      -8.447   7.938  74.302  1.00  0.00    -0.278 C  
ENDBRANCH   6  10
BRANCH   7  12
HETATM   12  C   UNL     1     -10.036   2.525  72.707  1.00  0.00    -0.148 C  
HETATM   13  N   UNL     1     -10.374   1.519  71.867  1.00  0.00    -0.145 N  
HETATM   14  O   UNL     1      -9.797   2.328  73.893  1.00  0.00    -0.088 OA 
HETATM   15  H1  UNL     1     -10.430   0.585  72.271  1.00  0.00     0.000 HD 
HETATM   16  H2  UNL     1     -10.563   1.688  70.879  1.00  0.00     0.000 HD 
ENDBRANCH   7  12
TORSDOF 2
ENDMDL
MODEL      140
REMARK 921   NORMALIZED FREE ENERGY PREDICTED BY IDOCK:   -2.45 KCAL/MOL
REMARK 922        TOTAL FREE ENERGY PREDICTED BY IDOCK:   -3.14 KCAL/MOL
REMARK 923 INTER-LIGAND FREE ENERGY PREDICTED BY IDOCK:   -2.85 KCAL/MOL
REMARK 924 INTRA-LIGAND FREE ENERGY PREDICTED BY IDOCK:   -0.29 KCAL/MOL
REMARK 927      BINDING AFFINITY PREDICTED BY RF-SCORE:    0.00 PKD
ROOT
HETATM    1  C   UNL     1     -11.145  16.725  67.449  1.00  0.00     0.019 C  
HETATM    2  C   UNL     1      -9.653  16.907  67.142  1.00  0.00    -0.245 C  
HETATM    3  C   UNL     1      -9.224  15.745  66.229  1.00  0.00    -0.368 C  
HETATM    4  C   UNL     1      -9.325  18.295  66.505  1.00  0.00    -0.306 C  
HETATM    5  C   UNL     1      -7.808  18.473  66.319  1.00  0.00    -0.254 C  
HETATM    6  C   UNL     1      -9.883  19.506  67.292  1.00  0.00    -0.468 C  
HETATM    7  N   UNL     1      -7.449  19.557  65.533  1.00  0.00    -0.180 N  
HETATM    8  H   UNL     1      -8.210  20.080  65.102  1.00  0.00     0.000 HD 
HETATM    9  O   UNL     1      -6.980  17.709  66.816  1.00  0.00    -0.169 OA 
ENDROOT
BRANCH   6  10
HETATM   10  C   UNL     1      -9.237  19.715  68.635  1.00  0.00    -0.362 C  
HETATM   11  C   UNL     1      -9.846  19.476  69.802  1.00  0.00     0.158 C  
ENDBRANCH   6  10
BRANCH   7  12
HETATM   12  C   UNL     1      -6.181  19.999  65.273  1.00  0.00    -0.246 C  
HETATM   13  N   UNL     1      -5.684  19.732  64.044  1.00  0.00    -0.252 N  
HETATM   14  O   UNL     1      -5.537  20.616  66.114  1.00  0.00    -0.176 OA 
HETATM   15  H1  UNL     1      -4.739  20.061  63.850  1.00  0.00     0.000 HD 
HETATM   16  H2  UNL     1      -6.228  19.225  63.345  1.00  0.00     0.000 HD 
ENDBRANCH   7  12
TORSDOF 2
ENDMDL
MODEL      141
REMARK 921   NORMALIZED FREE ENERGY PREDICTED BY IDOCK:   -2.40 KCAL/MOL
REMARK 922        TOTAL FREE ENERGY PREDICTED BY IDOCK:   -3.08 KCAL/MOL
REMARK 923 INTER-LIGAND FREE ENERGY PREDICTED BY IDOCK:   -2.63 KCAL/MOL
REMARK 924 INTRA-LIGAND FREE ENERGY PREDICTED BY IDOCK:   -0.46 KCAL/MOL
REMARK 927      BINDING AFFINITY PREDICTED BY RF-SCORE:    0.00 PKD
ROOT
HETATM    1  C   UNL     1     -12.315  10.721  69.684  1.00  0.00    -0.262 C  
HETATM    2  C   UNL     1     -11.067  10.040  70.261  1.00  0.00    -0.381 C  
HETATM    3  C   UNL     1     -11.430   9.533  71.669  1.00  0.00    -0.433 C  
HETATM    4  C   UNL     1     -10.522   8.892  69.354  1.00  0.00    -0.228 C  
HETATM    5  C   UNL     1      -9.212   8.317  69.919  1.00  0.00    -0.154 C  
HETATM    6  C   UNL     1     -10.300   9.297  67.876  1.00  0.00    -0.279 C  
HETATM    7  N   UNL     1      -8.798   7.135  69.324  1.00  0.00    -0.136 N  
HETATM    8  H   UNL     1      -9.427   6.730  68.631  1.00  0.00     0.000 HD 
HETATM    9  O   UNL     1      -8.587   8.854  70.835  1.00  0.00    -0.163 OA 
ENDROOT
BRANCH   6  10
HETATM   10  C   UNL     1      -9.190  10.293  67.674  1.00  0.00    -0.154 C  
HETATM   11  C   UNL     1      -9.345  11.470  67.055  1.00  0.00    -0.185 C  
ENDBRANCH   6  10
BRANCH   7  12
HETATM   12  C   UNL     1      -7.637   6.455  69.566  1.00  0.00    -0.095 C  
HETATM   13  N   UNL     1      -7.413   6.072  70.843  1.00  0.00    -0.089 N  
HETATM   14  O   UNL     1      -6.849   6.199  68.663  1.00  0.00    -0.065 OA 
HETATM   15  H1  UNL     1      -6.547   5.565  71.024  1.00  0.00     0.000 HD 
HETATM   16  H2  UNL     1      -8.077   6.280  71.589  1.00  0.00     0.000 HD 
ENDBRANCH   7  12
TORSDOF 2
ENDMDL
MODEL      142
REMARK 921   NORMALIZED FREE ENERGY PREDICTED BY IDOCK:   -2.39 KCAL/MOL
REMARK 922        TOTAL FREE ENERGY PREDICTED BY IDOCK:   -3.07 KCAL/MOL
REMARK 923 INTER-LIGAND FREE ENERGY PREDICTED BY IDOCK:   -2.68 KCAL/MOL
REMARK 924 INTRA-LIGAND FREE ENERGY PREDICTED BY IDOCK:   -0.39 KCAL/MOL
REMARK 927      BINDING AFFINITY PREDICTED BY RF-SCORE:    0.00 PKD
ROOT
HETATM    1  C   UNL     1     -11.259   6.184  69.032  1.00  0.00    -0.375 C  
HETATM    2  C   UNL     1      -9.914   6.357  69.749  1.00  0.00    -0.196 C  
HETATM    3  C   UNL     1      -8.985   7.140  68.804  1.00  0.00    -0.128 C  
HETATM    4  C   UNL     1     -10.048   7.055  71.139  1.00  0.00    -0.197 C  
HETATM    5  C   UNL     1      -8.692   7.105  71.865  1.00  0.00    -0.120 C  
HETATM    6  C   UNL     1     -11.099   6.413  72.078  1.00  0.00    -0.306 C  
HETATM    7  N   UNL     1      -8.667   7.926  72.981  1.00  0.00    -0.179 N  
HETATM    8  H   UNL     1      -9.512   8.464  73.170  1.00  0.00     0.000 HD 
HETATM    9  O   UNL     1      -7.705   6.477  71.479  1.00  0.00    -0.096 OA 
ENDROOT
BRANCH   6  10
HETATM   10  C   UNL     1     -10.736   5.031  72.551  1.00  0.00    -0.271 C  
HETATM   11  C   UNL     1     -11.543   4.257  73.287  1.00  0.00    -0.177 C  
ENDBRANCH   6  10
BRANCH   7  12
HETATM   12  C   UNL     1      -7.630   8.092  73.857  1.00  0.00    -0.172 C  
HETATM   13  N   UNL     1      -7.135   6.972  74.431  1.00  0.00    -0.096 N  
HETATM   14  O   UNL     1      -7.170   9.203  74.096  1.00  0.00    -0.362 OA 
HETATM   15  H1  UNL     1      -6.361   7.096  75.084  1.00  0.00     0.000 HD 
HETATM   16  H2  UNL     1      -7.516   6.049  74.222  1.00  0.00     0.000 HD 
ENDBRANCH   7  12
TORSDOF 2
ENDMDL
MODEL      143
REMARK 921   NORMALIZED FREE ENERGY PREDICTED BY IDOCK:   -2.37 KCAL/MOL
REMARK 922        TOTAL FREE ENERGY PREDICTED BY IDOCK:   -3.05 KCAL/MOL
REMARK 923 INTER-LIGAND FREE ENERGY PREDICTED BY IDOCK:   -2.90 KCAL/MOL
REMARK 924 INTRA-LIGAND FREE ENERGY PREDICTED BY IDOCK:   -0.15 KCAL/MOL
REMARK 927      BINDING AFFINITY PREDICTED BY RF-SCORE:    0.00 PKD
ROOT
HETATM    1  C   UNL     1     -10.091   6.505  67.190  1.00  0.00    -0.223 C  
HETATM    2  C   UNL     1      -9.232   6.950  68.381  1.00  0.00    -0.124 C  
HETATM    3  C   UNL     1      -8.703   8.360  68.066  1.00  0.00    -0.139 C  
HETATM    4  C   UNL     1     -10.002   6.910  69.739  1.00  0.00    -0.187 C  
HETATM    5  C   UNL     1      -9.070   7.256  70.913  1.00  0.00    -0.151 C  
HETATM    6  C   UNL     1     -10.706   5.562  70.034  1.00  0.00    -0.356 C  
HETATM    7  N   UNL     1      -9.720   7.493  72.114  1.00  0.00    -0.160 N  
HETATM    8  H   UNL     1     -10.739   7.485  72.089  1.00  0.00     0.000 HD 
HETATM    9  O   UNL     1      -7.846   7.330  70.794  1.00  0.00    -0.091 OA 
ENDROOT
BRANCH   6  10
HETATM   10  C   UNL     1      -9.761   4.416  70.275  1.00  0.00    -0.281 C  
HETATM   11  C   UNL     1      -9.505   3.458  69.377  1.00  0.00    -0.221 C  
ENDBRANCH   6  10
BRANCH   7  12
HETATM   12  C   UNL     1      -9.141   7.735  73.328  1.00  0.00    -0.244 C  
HETATM   13  N   UNL     1      -9.479   6.903  74.339  1.00  0.00    -0.330 N  
HETATM   14  O   UNL     1      -8.347   8.656  73.483  1.00  0.00    -0.393 OA 
HETATM   15  H1  UNL     1      -9.047   7.084  75.245  1.00  0.00     0.000 HD 
HETATM   16  H2  UNL     1     -10.134   6.133  74.203  1.00  0.00     0.000 HD 
ENDBRANCH   7  12
TORSDOF 2
ENDMDL
MODEL      144
REMARK 921   NORMALIZED FREE ENERGY PREDICTED BY IDOCK:   -2.30 KCAL/MOL
REMARK 922        TOTAL FREE ENERGY PREDICTED BY IDOCK:   -2.97 KCAL/MOL
REMARK 923 INTER-LIGAND FREE ENERGY PREDICTED BY IDOCK:   -2.72 KCAL/MOL
REMARK 924 INTRA-LIGAND FREE ENERGY PREDICTED BY IDOCK:   -0.25 KCAL/MOL
REMARK 927      BINDING AFFINITY PREDICTED BY RF-SCORE:    0.00 PKD
ROOT
HETATM    1  C   UNL     1      -9.260   2.379  70.171  1.00  0.00    -0.193 C  
HETATM    2  C   UNL     1      -9.133   3.879  69.871  1.00  0.00    -0.190 C  
HETATM    3  C   UNL     1      -9.301   4.061  68.353  1.00  0.00    -0.218 C  
HETATM    4  C   UNL     1     -10.148   4.751  70.676  1.00  0.00    -0.288 C  
HETATM    5  C   UNL     1      -9.907   6.250  70.426  1.00  0.00    -0.176 C  
HETATM    6  C   UNL     1     -10.148   4.488  72.202  1.00  0.00    -0.260 C  
HETATM    7  N   UNL     1     -10.914   7.080  70.893  1.00  0.00    -0.245 N  
HETATM    8  H   UNL     1     -11.736   6.623  71.286  1.00  0.00     0.000 HD 
HETATM    9  O   UNL     1      -8.908   6.679  69.846  1.00  0.00    -0.142 OA 
ENDROOT
BRANCH   6  10
HETATM   10  C   UNL     1      -8.882   4.912  72.897  1.00  0.00    -0.117 C  
HETATM   11  C   UNL     1      -8.841   5.802  73.896  1.00  0.00    -0.126 C  
ENDBRANCH   6  10
BRANCH   7  12
HETATM   12  C   UNL     1     -10.923   8.447  70.883  1.00  0.00    -0.243 C  
HETATM   13  N   UNL     1     -10.593   9.066  72.040  1.00  0.00    -0.325 N  
HETATM   14  O   UNL     1     -11.206   9.075  69.869  1.00  0.00    -0.195 OA 
HETATM   15  H1  UNL     1     -10.600  10.085  72.032  1.00  0.00     0.000 HD 
HETATM   16  H2  UNL     1     -10.349   8.538  72.878  1.00  0.00     0.000 HD 
ENDBRANCH   7  12
TORSDOF 2
ENDMDL
MODEL      145
REMARK 921   NORMALIZED FREE ENERGY PREDICTED BY IDOCK:   -2.28 KCAL/MOL
REMARK 922        TOTAL FREE ENERGY PREDICTED BY IDOCK:   -2.96 KCAL/MOL
REMARK 923 INTER-LIGAND FREE ENERGY PREDICTED BY IDOCK:   -2.55 KCAL/MOL
REMARK 924 INTRA-LIGAND FREE ENERGY PREDICTED BY IDOCK:   -0.40 KCAL/MOL
REMARK 927      BINDING AFFINITY PREDICTED BY RF-SCORE:    0.00 PKD
ROOT
HETATM    1  C   UNL     1     -10.918   4.507  73.904  1.00  0.00    -0.326 C  
HETATM    2  C   UNL     1      -9.763   4.739  72.922  1.00  0.00    -0.167 C  
HETATM    3  C   UNL     1      -9.100   3.375  72.660  1.00  0.00    -0.119 C  
HETATM    4  C   UNL     1     -10.218   5.426  71.595  1.00  0.00    -0.268 C  
HETATM    5  C   UNL     1      -9.011   5.737  70.692  1.00  0.00    -0.140 C  
HETATM    6  C   UNL     1     -11.044   6.720  71.796  1.00  0.00    -0.275 C  
HETATM    7  N   UNL     1      -9.341   6.109  69.399  1.00  0.00    -0.138 N  
HETATM    8  H   UNL     1     -10.330   6.072  69.152  1.00  0.00     0.000 HD 
HETATM    9  O   UNL     1      -7.846   5.649  71.082  1.00  0.00    -0.104 OA 
ENDROOT
BRANCH   6  10
HETATM   10  C   UNL     1     -10.261   7.862  72.386  1.00  0.00    -0.327 C  
HETATM   11  C   UNL     1     -10.082   9.039  71.776  1.00  0.00    -0.373 C  
ENDBRANCH   6  10
BRANCH   7  12
HETATM   12  C   UNL     1      -8.483   6.519  68.417  1.00  0.00    -0.120 C  
HETATM   13  N   UNL     1      -7.433   5.710  68.150  1.00  0.00    -0.073 N  
HETATM   14  O   UNL     1      -8.668   7.566  67.806  1.00  0.00    -0.123 OA 
HETATM   15  H1  UNL     1      -6.793   6.016  67.418  1.00  0.00     0.000 HD 
HETATM   16  H2  UNL     1      -7.288   4.836  68.656  1.00  0.00     0.000 HD 
ENDBRANCH   7  12
TORSDOF 2
ENDMDL
MODEL      146
REMARK 921   NORMALIZED FREE ENERGY PREDICTED BY IDOCK:   -2.28 KCAL/MOL
REMARK 922        TOTAL FREE ENERGY PREDICTED BY IDOCK:   -2.96 KCAL/MOL
REMARK 923 INTER-LIGAND FREE ENERGY PREDICTED BY IDOCK:   -2.61 KCAL/MOL
REMARK 924 INTRA-LIGAND FREE ENERGY PREDICTED BY IDOCK:   -0.34 KCAL/MOL
REMARK 927      BINDING AFFINITY PREDICTED BY RF-SCORE:    0.00 PKD
ROOT
HETATM    1  C   UNL     1      -7.797   7.513  64.306  1.00  0.00    -0.133 C  
HETATM    2  C   UNL     1      -8.359   8.929  64.485  1.00  0.00    -0.178 C  
HETATM    3  C   UNL     1      -8.832   9.416  63.104  1.00  0.00    -0.207 C  
HETATM    4  C   UNL     1      -9.500   9.003  65.548  1.00  0.00    -0.220 C  
HETATM    5  C   UNL     1      -9.953  10.457  65.772  1.00  0.00    -0.270 C  
HETATM    6  C   UNL     1      -9.142   8.370  66.915  1.00  0.00    -0.179 C  
HETATM    7  N   UNL     1     -11.124  10.589  66.502  1.00  0.00     0.012 N  
HETATM    8  H   UNL     1     -11.603   9.725  66.754  1.00  0.00     0.000 HD 
HETATM    9  O   UNL     1      -9.333  11.425  65.329  1.00  0.00    -0.217 OA 
ENDROOT
BRANCH   6  10
HETATM   10  C   UNL     1      -8.076   9.113  67.675  1.00  0.00    -0.104 C  
HETATM   11  C   UNL     1      -7.607   8.733  68.869  1.00  0.00    -0.091 C  
ENDBRANCH   6  10
BRANCH   7  12
HETATM   12  C   UNL     1     -11.705  11.754  66.919  1.00  0.00    -0.139 C  
HETATM   13  N   UNL     1     -11.685  12.789  66.049  1.00  0.00    -0.396 N  
HETATM   14  O   UNL     1     -12.227  11.845  68.025  1.00  0.00    -0.491 OA 
HETATM   15  H1  UNL     1     -12.119  13.658  66.360  1.00  0.00     0.000 HD 
HETATM   16  H2  UNL     1     -11.257  12.705  65.127  1.00  0.00     0.000 HD 
ENDBRANCH   7  12
TORSDOF 2
ENDMDL
MODEL      147
REMARK 921   NORMALIZED FREE ENERGY PREDICTED BY IDOCK:   -2.25 KCAL/MOL
REMARK 922        TOTAL FREE ENERGY PREDICTED BY IDOCK:   -2.92 KCAL/MOL
REMARK 923 INTER-LIGAND FREE ENERGY PREDICTED BY IDOCK:   -2.66 KCAL/MOL
REMARK 924 INTRA-LIGAND FREE ENERGY PREDICTED BY IDOCK:   -0.26 KCAL/MOL
REMARK 927      BINDING AFFINITY PREDICTED BY RF-SCORE:    0.00 PKD
ROOT
HETATM    1  C   UNL     1     -10.161   8.497  67.185  1.00  0.00    -0.355 C  
HETATM    2  C   UNL     1      -9.838   8.957  68.612  1.00  0.00    -0.179 C  
HETATM    3  C   UNL     1     -10.717  10.185  68.911  1.00  0.00    -0.249 C  
HETATM    4  C   UNL     1     -10.034   7.832  69.677  1.00  0.00    -0.190 C  
HETATM    5  C   UNL     1      -9.592   8.307  71.072  1.00  0.00    -0.160 C  
HETATM    6  C   UNL     1      -9.309   6.505  69.343  1.00  0.00    -0.143 C  
HETATM    7  N   UNL     1      -9.967   7.470  72.111  1.00  0.00    -0.173 N  
HETATM    8  H   UNL     1     -10.550   6.671  71.864  1.00  0.00     0.000 HD 
HETATM    9  O   UNL     1      -8.968   9.354  71.254  1.00  0.00    -0.282 OA 
ENDROOT
BRANCH   6  10
HETATM   10  C   UNL     1      -7.808   6.598  69.386  1.00  0.00    -0.113 C  
HETATM   11  C   UNL     1      -6.987   5.598  69.046  1.00  0.00    -0.063 C  
ENDBRANCH   6  10
BRANCH   7  12
HETATM   12  C   UNL     1      -9.638   7.601  73.431  1.00  0.00    -0.288 C  
HETATM   13  N   UNL     1      -8.485   8.249  73.709  1.00  0.00    -0.237 N  
HETATM   14  O   UNL     1     -10.364   7.158  74.315  1.00  0.00    -0.230 OA 
HETATM   15  H1  UNL     1      -8.240   8.346  74.694  1.00  0.00     0.000 HD 
HETATM   16  H2  UNL     1      -7.889   8.623  72.970  1.00  0.00     0.000 HD 
ENDBRANCH   7  12
TORSDOF 2
ENDMDL
MODEL      148
REMARK 921   NORMALIZED FREE ENERGY PREDICTED BY IDOCK:   -2.24 KCAL/MOL
REMARK 922        TOTAL FREE ENERGY PREDICTED BY IDOCK:   -2.90 KCAL/MOL
REMARK 923 INTER-LIGAND FREE ENERGY PREDICTED BY IDOCK:   -2.66 KCAL/MOL
REMARK 924 INTRA-LIGAND FREE ENERGY PREDICTED BY IDOCK:   -0.24 KCAL/MOL
REMARK 927      BINDING AFFINITY PREDICTED BY RF-SCORE:    0.00 PKD
ROOT
HETATM    1  C   UNL     1     -10.611   8.642  69.915  1.00  0.00    -0.227 C  
HETATM    2  C   UNL     1      -9.695   7.674  69.154  1.00  0.00    -0.164 C  
HETATM    3  C   UNL     1      -9.530   6.415  70.025  1.00  0.00    -0.165 C  
HETATM    4  C   UNL     1     -10.224   7.326  67.727  1.00  0.00    -0.247 C  
HETATM    5  C   UNL     1      -9.220   6.443  66.965  1.00  0.00    -0.129 C  
HETATM    6  C   UNL     1     -10.575   8.558  66.858  1.00  0.00    -0.279 C  
HETATM    7  N   UNL     1      -9.716   5.881  65.800  1.00  0.00    -0.370 N  
HETATM    8  H   UNL     1     -10.702   6.044  65.600  1.00  0.00     0.000 HD 
HETATM    9  O   UNL     1      -8.072   6.242  67.364  1.00  0.00    -0.108 OA 
ENDROOT
BRANCH   6  10
HETATM   10  C   UNL     1      -9.383   9.388  66.462  1.00  0.00    -0.222 C  
HETATM   11  C   UNL     1      -9.447  10.688  66.151  1.00  0.00    -0.218 C  
ENDBRANCH   6  10
BRANCH   7  12
HETATM   12  C   UNL     1      -9.025   5.131  64.890  1.00  0.00    -0.082 C  
HETATM   13  N   UNL     1      -8.567   5.776  63.793  1.00  0.00    -0.334 N  
HETATM   14  O   UNL     1      -8.824   3.935  65.071  1.00  0.00    -0.119 OA 
HETATM   15  H1  UNL     1      -8.051   5.216  63.114  1.00  0.00     0.000 HD 
HETATM   16  H2  UNL     1      -8.730   6.773  63.651  1.00  0.00     0.000 HD 
ENDBRANCH   7  12
TORSDOF 2
ENDMDL
MODEL      149
REMARK 921   NORMALIZED FREE ENERGY PREDICTED BY IDOCK:   -2.23 KCAL/MOL
REMARK 922        TOTAL FREE ENERGY PREDICTED BY IDOCK:   -2.90 KCAL/MOL
REMARK 923 INTER-LIGAND FREE ENERGY PREDICTED BY IDOCK:   -2.50 KCAL/MOL
REMARK 924 INTRA-LIGAND FREE ENERGY PREDICTED BY IDOCK:   -0.40 KCAL/MOL
REMARK 927      BINDING AFFINITY PREDICTED BY RF-SCORE:    0.00 PKD
ROOT
HETATM    1  C   UNL     1      -8.243   3.614  74.563  1.00  0.00    -0.085 C  
HETATM    2  C   UNL     1      -9.097   3.879  73.317  1.00  0.00    -0.115 C  
HETATM    3  C   UNL     1     -10.499   3.305  73.588  1.00  0.00    -0.255 C  
HETATM    4  C   UNL     1      -9.154   5.390  72.926  1.00  0.00    -0.126 C  
HETATM    5  C   UNL     1      -9.927   5.591  71.611  1.00  0.00    -0.182 C  
HETATM    6  C   UNL     1      -7.769   6.072  72.806  1.00  0.00    -0.102 C  
HETATM    7  N   UNL     1     -10.245   6.910  71.326  1.00  0.00    -0.198 N  
HETATM    8  H   UNL     1     -10.003   7.600  72.036  1.00  0.00     0.000 HD 
HETATM    9  O   UNL     1     -10.250   4.656  70.876  1.00  0.00    -0.211 OA 
ENDROOT
BRANCH   6  10
HETATM   10  C   UNL     1      -6.937   5.571  71.657  1.00  0.00    -0.068 C  
HETATM   11  C   UNL     1      -6.479   6.352  70.670  1.00  0.00    -0.044 C  
ENDBRANCH   6  10
BRANCH   7  12
HETATM   12  C   UNL     1     -10.847   7.384  70.194  1.00  0.00    -0.256 C  
HETATM   13  N   UNL     1     -11.990   6.770  69.811  1.00  0.00    -0.647 N  
HETATM   14  O   UNL     1     -10.375   8.327  69.569  1.00  0.00    -0.210 OA 
HETATM   15  H1  UNL     1     -12.439   7.124  68.967  1.00  0.00     0.000 HD 
HETATM   16  H2  UNL     1     -12.383   5.991  70.340  1.00  0.00     0.000 HD 
ENDBRANCH   7  12
TORSDOF 2
ENDMDL
MODEL      150
REMARK 921   NORMALIZED FREE ENERGY PREDICTED BY IDOCK:   -2.20 KCAL/MOL
REMARK 922        TOTAL FREE ENERGY PREDICTED BY IDOCK:   -2.87 KCAL/MOL
REMARK 923 INTER-LIGAND FREE ENERGY PREDICTED BY IDOCK:   -2.56 KCAL/MOL
REMARK 924 INTRA-LIGAND FREE ENERGY PREDICTED BY IDOCK:   -0.30 KCAL/MOL
REMARK 927      BINDING AFFINITY PREDICTED BY RF-SCORE:    0.00 PKD
ROOT
HETATM    1  C   UNL     1      -9.226   6.542  70.583  1.00  0.00    -0.163 C  
HETATM    2  C   UNL     1      -8.519   7.867  70.268  1.00  0.00    -0.128 C  
HETATM    3  C   UNL     1      -7.100   7.527  69.780  1.00  0.00    -0.068 C  
HETATM    4  C   UNL     1      -9.294   8.742  69.232  1.00  0.00    -0.149 C  
HETATM    5  C   UNL     1      -8.605  10.103  69.033  1.00  0.00    -0.156 C  
HETATM    6  C   UNL     1     -10.784   8.976  69.582  1.00  0.00    -0.228 C  
HETATM    7  N   UNL     1      -9.075  10.833  67.953  1.00  0.00    -0.147 N  
HETATM    8  H   UNL     1      -9.769  10.377  67.362  1.00  0.00     0.000 HD 
HETATM    9  O   UNL     1      -7.700  10.507  69.765  1.00  0.00    -0.149 OA 
ENDROOT
BRANCH   6  10
HETATM   10  C   UNL     1     -11.000   9.828  70.804  1.00  0.00    -0.406 C  
HETATM   11  C   UNL     1     -11.995   9.640  71.679  1.00  0.00    -0.470 C  
ENDBRANCH   6  10
BRANCH   7  12
HETATM   12  C   UNL     1      -8.707  12.101  67.595  1.00  0.00    -0.172 C  
HETATM   13  N   UNL     1      -7.434  12.464  67.869  1.00  0.00    -0.108 N  
HETATM   14  O   UNL     1      -9.495  12.861  67.044  1.00  0.00    -0.220 OA 
HETATM   15  H1  UNL     1      -7.160  13.409  67.602  1.00  0.00     0.000 HD 
HETATM   16  H2  UNL     1      -6.779  11.824  68.321  1.00  0.00     0.000 HD 
ENDBRANCH   7  12
TORSDOF 2
ENDMDL
MODEL      151
REMARK 921   NORMALIZED FREE ENERGY PREDICTED BY IDOCK:   -2.16 KCAL/MOL
REMARK 922        TOTAL FREE ENERGY PREDICTED BY IDOCK:   -2.82 KCAL/MOL
REMARK 923 INTER-LIGAND FREE ENERGY PREDICTED BY IDOCK:   -2.73 KCAL/MOL
REMARK 924 INTRA-LIGAND FREE ENERGY PREDICTED BY IDOCK:   -0.09 KCAL/MOL
REMARK 927      BINDING AFFINITY PREDICTED BY RF-SCORE:    0.00 PKD
ROOT
HETATM    1  C   UNL     1     -11.976  10.554  70.673  1.00  0.00    -0.455 C  
HETATM    2  C   UNL     1     -11.435  10.306  69.259  1.00  0.00    -0.223 C  
HETATM    3  C   UNL     1     -11.448  11.654  68.517  1.00  0.00    -0.358 C  
HETATM    4  C   UNL     1     -10.016   9.655  69.253  1.00  0.00    -0.197 C  
HETATM    5  C   UNL     1      -9.565   9.325  67.819  1.00  0.00    -0.142 C  
HETATM    6  C   UNL     1      -9.893   8.382  70.126  1.00  0.00    -0.183 C  
HETATM    7  N   UNL     1      -8.227   8.985  67.701  1.00  0.00    -0.109 N  
HETATM    8  H   UNL     1      -7.663   9.054  68.547  1.00  0.00     0.000 HD 
HETATM    9  O   UNL     1     -10.328   9.372  66.853  1.00  0.00    -0.242 OA 
ENDROOT
BRANCH   6  10
HETATM   10  C   UNL     1     -10.683   7.208  69.613  1.00  0.00    -0.256 C  
HETATM   11  C   UNL     1     -10.239   5.946  69.625  1.00  0.00    -0.281 C  
ENDBRANCH   6  10
BRANCH   7  12
HETATM   12  C   UNL     1      -7.583   8.566  66.570  1.00  0.00    -0.088 C  
HETATM   13  N   UNL     1      -8.317   8.514  65.436  1.00  0.00    -0.148 N  
HETATM   14  O   UNL     1      -6.394   8.264  66.589  1.00  0.00    -0.053 OA 
HETATM   15  H1  UNL     1      -7.836   8.202  64.593  1.00  0.00     0.000 HD 
HETATM   16  H2  UNL     1      -9.303   8.775  65.424  1.00  0.00     0.000 HD 
ENDBRANCH   7  12
TORSDOF 2
ENDMDL
MODEL      152
REMARK 921   NORMALIZED FREE ENERGY PREDICTED BY IDOCK:   -2.07 KCAL/MOL
REMARK 922        TOTAL FREE ENERGY PREDICTED BY IDOCK:   -2.72 KCAL/MOL
REMARK 923 INTER-LIGAND FREE ENERGY PREDICTED BY IDOCK:   -2.31 KCAL/MOL
REMARK 924 INTRA-LIGAND FREE ENERGY PREDICTED BY IDOCK:   -0.41 KCAL/MOL
REMARK 927      BINDING AFFINITY PREDICTED BY RF-SCORE:    0.00 PKD
ROOT
HETATM    1  C   UNL     1      -6.184   4.206  74.297  1.00  0.00    -0.037 C  
HETATM    2  C   UNL     1      -7.492   4.399  73.520  1.00  0.00    -0.078 C  
HETATM    3  C   UNL     1      -8.363   3.154  73.766  1.00  0.00    -0.074 C  
HETATM    4  C   UNL     1      -8.241   5.715  73.901  1.00  0.00    -0.110 C  
HETATM    5  C   UNL     1      -9.485   5.919  73.018  1.00  0.00    -0.150 C  
HETATM    6  C   UNL     1      -7.364   6.990  73.839  1.00  0.00    -0.098 C  
HETATM    7  N   UNL     1     -10.342   6.917  73.453  1.00  0.00    -0.274 N  
HETATM    8  H   UNL     1     -10.108   7.364  74.339  1.00  0.00     0.000 HD 
HETATM    9  O   UNL     1      -9.708   5.241  72.013  1.00  0.00    -0.154 OA 
ENDROOT
BRANCH   6  10
HETATM   10  C   UNL     1      -6.932   7.370  72.448  1.00  0.00    -0.063 C  
HETATM   11  C   UNL     1      -7.223   8.540  71.869  1.00  0.00    -0.113 C  
ENDBRANCH   6  10
BRANCH   7  12
HETATM   12  C   UNL     1     -11.468   7.366  72.821  1.00  0.00    -0.265 C  
HETATM   13  N   UNL     1     -12.413   6.442  72.534  1.00  0.00    -0.522 N  
HETATM   14  O   UNL     1     -11.612   8.551  72.542  1.00  0.00    -0.372 OA 
HETATM   15  H1  UNL     1     -13.253   6.778  72.062  1.00  0.00     0.000 HD 
HETATM   16  H2  UNL     1     -12.292   5.459  72.776  1.00  0.00     0.000 HD 
ENDBRANCH   7  12
TORSDOF 2
ENDMDL
MODEL      153
REMARK 921   NORMALIZED FREE ENERGY PREDICTED BY IDOCK:   -2.04 KCAL/MOL
REMARK 922        TOTAL FREE ENERGY PREDICTED BY IDOCK:   -2.68 KCAL/MOL
REMARK 923 INTER-LIGAND FREE ENERGY PREDICTED BY IDOCK:   -2.58 KCAL/MOL
REMARK 924 INTRA-LIGAND FREE ENERGY PREDICTED BY IDOCK:   -0.11 KCAL/MOL
REMARK 927      BINDING AFFINITY PREDICTED BY RF-SCORE:    0.00 PKD
ROOT
HETATM    1  C   UNL     1      -6.238   6.074  71.023  1.00  0.00    -0.039 C  
HETATM    2  C   UNL     1      -7.620   5.996  71.684  1.00  0.00    -0.100 C  
HETATM    3  C   UNL     1      -7.421   6.218  73.194  1.00  0.00    -0.092 C  
HETATM    4  C   UNL     1      -8.644   7.008  71.079  1.00  0.00    -0.134 C  
HETATM    5  C   UNL     1     -10.040   6.816  71.697  1.00  0.00    -0.183 C  
HETATM    6  C   UNL     1      -8.762   6.953  69.536  1.00  0.00    -0.133 C  
HETATM    7  N   UNL     1     -10.941   7.830  71.409  1.00  0.00    -0.233 N  
HETATM    8  H   UNL     1     -10.578   8.626  70.886  1.00  0.00     0.000 HD 
HETATM    9  O   UNL     1     -10.332   5.848  72.400  1.00  0.00    -0.188 OA 
ENDROOT
BRANCH   6  10
HETATM   10  C   UNL     1      -9.367   5.678  69.014  1.00  0.00    -0.150 C  
HETATM   11  C   UNL     1      -9.722   5.488  67.737  1.00  0.00    -0.150 C  
ENDBRANCH   6  10
BRANCH   7  12
HETATM   12  C   UNL     1     -12.263   7.876  71.752  1.00  0.00    -0.310 C  
HETATM   13  N   UNL     1     -12.801   6.741  72.253  1.00  0.00    -0.539 N  
HETATM   14  O   UNL     1     -12.920   8.903  71.620  1.00  0.00    -0.326 OA 
HETATM   15  H1  UNL     1     -13.788   6.775  72.509  1.00  0.00     0.000 HD 
HETATM   16  H2  UNL     1     -12.248   5.892  72.369  1.00  0.00     0.000 HD 
ENDBRANCH   7  12
TORSDOF 2
ENDMDL
MODEL      154
REMARK 921   NORMALIZED FREE ENERGY PREDICTED BY IDOCK:   -2.02 KCAL/MOL
REMARK 922        TOTAL FREE ENERGY PREDICTED BY IDOCK:   -2.66 KCAL/MOL
REMARK 923 INTER-LIGAND FREE ENERGY PREDICTED BY IDOCK:   -2.20 KCAL/MOL
REMARK 924 INTRA-LIGAND FREE ENERGY PREDICTED BY IDOCK:   -0.46 KCAL/MOL
REMARK 927      BINDING AFFINITY PREDICTED BY RF-SCORE:    0.00 PKD
ROOT
HETATM    1  C   UNL     1      -9.923  10.802  65.608  1.00  0.00    -0.317 C  
HETATM    2  C   UNL     1      -9.710   9.958  66.872  1.00  0.00    -0.236 C  
HETATM    3  C   UNL     1     -10.934  10.172  67.780  1.00  0.00    -0.338 C  
HETATM    4  C   UNL     1      -9.474   8.446  66.565  1.00  0.00    -0.284 C  
HETATM    5  C   UNL     1      -9.156   7.664  67.851  1.00  0.00    -0.134 C  
HETATM    6  C   UNL     1      -8.364   8.172  65.521  1.00  0.00    -0.160 C  
HETATM    7  N   UNL     1      -9.185   6.286  67.709  1.00  0.00    -0.117 N  
HETATM    8  H   UNL     1      -9.479   5.928  66.801  1.00  0.00     0.000 HD 
HETATM    9  O   UNL     1      -8.909   8.216  68.924  1.00  0.00    -0.140 OA 
ENDROOT
BRANCH   6  10
HETATM   10  C   UNL     1      -6.979   8.527  65.991  1.00  0.00    -0.068 C  
HETATM   11  C   UNL     1      -6.180   9.402  65.368  1.00  0.00    -0.065 C  
ENDBRANCH   6  10
BRANCH   7  12
HETATM   12  C   UNL     1      -8.862   5.355  68.656  1.00  0.00    -0.103 C  
HETATM   13  N   UNL     1      -7.691   5.533  69.309  1.00  0.00    -0.085 N  
HETATM   14  O   UNL     1      -9.606   4.413  68.904  1.00  0.00    -0.154 OA 
HETATM   15  H1  UNL     1      -7.450   4.838  70.016  1.00  0.00     0.000 HD 
HETATM   16  H2  UNL     1      -7.079   6.323  69.105  1.00  0.00     0.000 HD 
ENDBRANCH   7  12
TORSDOF 2
ENDMDL
MODEL      155
REMARK 921   NORMALIZED FREE ENERGY PREDICTED BY IDOCK:   -2.02 KCAL/MOL
REMARK 922        TOTAL FREE ENERGY PREDICTED BY IDOCK:   -2.66 KCAL/MOL
REMARK 923 INTER-LIGAND FREE ENERGY PREDICTED BY IDOCK:   -2.21 KCAL/MOL
REMARK 924 INTRA-LIGAND FREE ENERGY PREDICTED BY IDOCK:   -0.44 KCAL/MOL
REMARK 927      BINDING AFFINITY PREDICTED BY RF-SCORE:    0.00 PKD
ROOT
HETATM    1  C   UNL     1      -7.316  14.193  67.505  1.00  0.00    -0.193 C  
HETATM    2  C   UNL     1      -8.364  13.078  67.620  1.00  0.00    -0.181 C  
HETATM    3  C   UNL     1      -9.566  13.484  66.749  1.00  0.00    -0.268 C  
HETATM    4  C   UNL     1      -7.808  11.674  67.224  1.00  0.00    -0.157 C  
HETATM    5  C   UNL     1      -8.861  10.576  67.462  1.00  0.00    -0.131 C  
HETATM    6  C   UNL     1      -6.496  11.279  67.944  1.00  0.00    -0.058 C  
HETATM    7  N   UNL     1      -8.547   9.348  66.902  1.00  0.00    -0.127 N  
HETATM    8  H   UNL     1      -7.700   9.308  66.337  1.00  0.00     0.000 HD 
HETATM    9  O   UNL     1      -9.903  10.776  68.087  1.00  0.00    -0.152 OA 
ENDROOT
BRANCH   6  10
HETATM   10  C   UNL     1      -6.653  11.051  69.423  1.00  0.00    -0.104 C  
HETATM   11  C   UNL     1      -5.806  11.523  70.346  1.00  0.00    -0.155 C  
ENDBRANCH   6  10
BRANCH   7  12
HETATM   12  C   UNL     1      -9.252   8.183  67.028  1.00  0.00    -0.153 C  
HETATM   13  N   UNL     1     -10.528   8.194  66.579  1.00  0.00    -0.414 N  
HETATM   14  O   UNL     1      -8.743   7.180  67.515  1.00  0.00    -0.121 OA 
HETATM   15  H1  UNL     1     -11.054   7.325  66.674  1.00  0.00     0.000 HD 
HETATM   16  H2  UNL     1     -10.944   9.030  66.167  1.00  0.00     0.000 HD 
ENDBRANCH   7  12
TORSDOF 2
ENDMDL
MODEL      156
REMARK 921   NORMALIZED FREE ENERGY PREDICTED BY IDOCK:   -1.99 KCAL/MOL
REMARK 922        TOTAL FREE ENERGY PREDICTED BY IDOCK:   -2.63 KCAL/MOL
REMARK 923 INTER-LIGAND FREE ENERGY PREDICTED BY IDOCK:   -2.26 KCAL/MOL
REMARK 924 INTRA-LIGAND FREE ENERGY PREDICTED BY IDOCK:   -0.36 KCAL/MOL
REMARK 927      BINDING AFFINITY PREDICTED BY RF-SCORE:    0.00 PKD
ROOT
HETATM    1  C   UNL     1      -8.786   7.120  69.224  1.00  0.00    -0.136 C  
HETATM    2  C   UNL     1      -8.621   5.947  68.249  1.00  0.00    -0.113 C  
HETATM    3  C   UNL     1      -8.749   4.648  69.064  1.00  0.00    -0.108 C  
HETATM    4  C   UNL     1      -9.636   5.990  67.063  1.00  0.00    -0.148 C  
HETATM    5  C   UNL     1      -9.358   4.859  66.057  1.00  0.00    -0.156 C  
HETATM    6  C   UNL     1      -9.678   7.340  66.306  1.00  0.00    -0.068 C  
HETATM    7  N   UNL     1     -10.358   4.667  65.117  1.00  0.00    -0.441 N  
HETATM    8  H   UNL     1     -11.198   5.234  65.223  1.00  0.00     0.000 HD 
HETATM    9  O   UNL     1      -8.336   4.171  66.091  1.00  0.00    -0.108 OA 
ENDROOT
BRANCH   6  10
HETATM   10  C   UNL     1      -8.421   7.652  65.540  1.00  0.00    -0.132 C  
HETATM   11  C   UNL     1      -7.379   8.319  66.052  1.00  0.00    -0.080 C  
ENDBRANCH   6  10
BRANCH   7  12
HETATM   12  C   UNL     1     -10.338   3.798  64.062  1.00  0.00    -0.250 C  
HETATM   13  N   UNL     1     -10.395   2.480  64.358  1.00  0.00    -0.366 N  
HETATM   14  O   UNL     1     -10.282   4.201  62.905  1.00  0.00    -0.158 OA 
HETATM   15  H1  UNL     1     -10.380   1.832  63.571  1.00  0.00     0.000 HD 
HETATM   16  H2  UNL     1     -10.449   2.150  65.322  1.00  0.00     0.000 HD 
ENDBRANCH   7  12
TORSDOF 2
ENDMDL
MODEL      157
REMARK 921   NORMALIZED FREE ENERGY PREDICTED BY IDOCK:   -1.98 KCAL/MOL
REMARK 922        TOTAL FREE ENERGY PREDICTED BY IDOCK:   -2.61 KCAL/MOL
REMARK 923 INTER-LIGAND FREE ENERGY PREDICTED BY IDOCK:   -2.57 KCAL/MOL
REMARK 924 INTRA-LIGAND FREE ENERGY PREDICTED BY IDOCK:   -0.04 KCAL/MOL
REMARK 927      BINDING AFFINITY PREDICTED BY RF-SCORE:    0.00 PKD
ROOT
HETATM    1  C   UNL     1      -7.468   8.273  70.678  1.00  0.00    -0.062 C  
HETATM    2  C   UNL     1      -7.463   7.658  69.273  1.00  0.00    -0.094 C  
HETATM    3  C   UNL     1      -6.238   6.732  69.180  1.00  0.00    -0.027 C  
HETATM    4  C   UNL     1      -8.787   6.904  68.931  1.00  0.00    -0.129 C  
HETATM    5  C   UNL     1      -8.777   6.402  67.476  1.00  0.00    -0.113 C  
HETATM    6  C   UNL     1     -10.074   7.731  69.170  1.00  0.00    -0.196 C  
HETATM    7  N   UNL     1      -9.792   5.509  67.169  1.00  0.00    -0.140 N  
HETATM    8  H   UNL     1     -10.394   5.221  67.939  1.00  0.00     0.000 HD 
HETATM    9  O   UNL     1      -7.929   6.753  66.655  1.00  0.00    -0.105 OA 
ENDROOT
BRANCH   6  10
HETATM   10  C   UNL     1     -10.232   8.902  68.238  1.00  0.00    -0.239 C  
HETATM   11  C   UNL     1     -10.398  10.165  68.646  1.00  0.00    -0.208 C  
ENDBRANCH   6  10
BRANCH   7  12
HETATM   12  C   UNL     1     -10.072   4.974  65.942  1.00  0.00    -0.168 C  
HETATM   13  N   UNL     1     -11.373   4.946  65.574  1.00  0.00    -0.942 N  
HETATM   14  O   UNL     1      -9.182   4.553  65.212  1.00  0.00    -0.144 OA 
HETATM   15  H1  UNL     1     -11.582   4.547  64.660  1.00  0.00     0.000 HD 
HETATM   16  H2  UNL     1     -12.109   5.306  66.182  1.00  0.00     0.000 HD 
ENDBRANCH   7  12
TORSDOF 2
ENDMDL
MODEL      158
REMARK 921   NORMALIZED FREE ENERGY PREDICTED BY IDOCK:   -1.97 KCAL/MOL
REMARK 922        TOTAL FREE ENERGY PREDICTED BY IDOCK:   -2.61 KCAL/MOL
REMARK 923 INTER-LIGAND FREE ENERGY PREDICTED BY IDOCK:   -2.14 KCAL/MOL
REMARK 924 INTRA-LIGAND FREE ENERGY PREDICTED BY IDOCK:   -0.47 KCAL/MOL
REMARK 927      BINDING AFFINITY PREDICTED BY RF-SCORE:    0.00 PKD
ROOT
HETATM    1  C   UNL     1      -9.882  10.446  67.970  1.00  0.00    -0.170 C  
HETATM    2  C   UNL     1      -9.393   8.998  67.841  1.00  0.00    -0.155 C  
HETATM    3  C   UNL     1     -10.332   8.118  68.686  1.00  0.00    -0.224 C  
HETATM    4  C   UNL     1      -9.316   8.508  66.361  1.00  0.00    -0.273 C  
HETATM    5  C   UNL     1      -8.717   7.093  66.278  1.00  0.00    -0.146 C  
HETATM    6  C   UNL     1      -8.524   9.447  65.418  1.00  0.00    -0.159 C  
HETATM    7  N   UNL     1      -8.847   6.484  65.040  1.00  0.00    -0.352 N  
HETATM    8  H   UNL     1      -9.380   6.994  64.336  1.00  0.00     0.000 HD 
HETATM    9  O   UNL     1      -8.177   6.539  67.237  1.00  0.00    -0.112 OA 
ENDROOT
BRANCH   6  10
HETATM   10  C   UNL     1      -7.050   9.511  65.713  1.00  0.00    -0.096 C  
HETATM   11  C   UNL     1      -6.409  10.627  66.080  1.00  0.00    -0.132 C  
ENDBRANCH   6  10
BRANCH   7  12
HETATM   12  C   UNL     1      -8.337   5.274  64.661  1.00  0.00    -0.141 C  
HETATM   13  N   UNL     1      -8.737   4.196  65.373  1.00  0.00    -0.118 N  
HETATM   14  O   UNL     1      -7.564   5.177  63.714  1.00  0.00    -0.062 OA 
HETATM   15  H1  UNL     1      -8.357   3.293  65.090  1.00  0.00     0.000 HD 
HETATM   16  H2  UNL     1      -9.387   4.282  66.154  1.00  0.00     0.000 HD 
ENDBRANCH   7  12
TORSDOF 2
ENDMDL
MODEL      159
REMARK 921   NORMALIZED FREE ENERGY PREDICTED BY IDOCK:   -1.93 KCAL/MOL
REMARK 922        TOTAL FREE ENERGY PREDICTED BY IDOCK:   -2.56 KCAL/MOL
REMARK 923 INTER-LIGAND FREE ENERGY PREDICTED BY IDOCK:   -2.36 KCAL/MOL
REMARK 924 INTRA-LIGAND FREE ENERGY PREDICTED BY IDOCK:   -0.20 KCAL/MOL
REMARK 927      BINDING AFFINITY PREDICTED BY RF-SCORE:    0.00 PKD
ROOT
HETATM    1  C   UNL     1      -9.954  10.468  66.166  1.00  0.00    -0.286 C  
HETATM    2  C   UNL     1      -9.811  10.389  67.691  1.00  0.00    -0.197 C  
HETATM    3  C   UNL     1     -10.912  11.273  68.303  1.00  0.00    -0.275 C  
HETATM    4  C   UNL     1      -9.872   8.927  68.236  1.00  0.00    -0.187 C  
HETATM    5  C   UNL     1      -9.614   8.891  69.753  1.00  0.00    -0.171 C  
HETATM    6  C   UNL     1      -8.903   7.943  67.536  1.00  0.00    -0.128 C  
HETATM    7  N   UNL     1      -9.901   7.677  70.357  1.00  0.00    -0.183 N  
HETATM    8  H   UNL     1     -10.315   6.960  69.763  1.00  0.00     0.000 HD 
HETATM    9  O   UNL     1      -9.199   9.866  70.382  1.00  0.00    -0.180 OA 
ENDROOT
BRANCH   6  10
HETATM   10  C   UNL     1      -7.448   8.223  67.801  1.00  0.00    -0.094 C  
HETATM   11  C   UNL     1      -6.647   8.878  66.952  1.00  0.00    -0.061 C  
ENDBRANCH   6  10
BRANCH   7  12
HETATM   12  C   UNL     1      -9.687   7.339  71.664  1.00  0.00    -0.154 C  
HETATM   13  N   UNL     1      -9.545   8.359  72.540  1.00  0.00    -0.290 N  
HETATM   14  O   UNL     1      -9.639   6.167  72.019  1.00  0.00    -0.154 OA 
HETATM   15  H1  UNL     1      -9.385   8.106  73.515  1.00  0.00     0.000 HD 
HETATM   16  H2  UNL     1      -9.594   9.333  72.241  1.00  0.00     0.000 HD 
ENDBRANCH   7  12
TORSDOF 2
ENDMDL
MODEL      160
REMARK 921   NORMALIZED FREE ENERGY PREDICTED BY IDOCK:   -1.92 KCAL/MOL
REMARK 922        TOTAL FREE ENERGY PREDICTED BY IDOCK:   -2.55 KCAL/MOL
REMARK 923 INTER-LIGAND FREE ENERGY PREDICTED BY IDOCK:   -2.34 KCAL/MOL
REMARK 924 INTRA-LIGAND FREE ENERGY PREDICTED BY IDOCK:   -0.21 KCAL/MOL
REMARK 927      BINDING AFFINITY PREDICTED BY RF-SCORE:    0.00 PKD
ROOT
HETATM    1  C   UNL     1     -10.151  15.922  69.709  1.00  0.00    -0.247 C  
HETATM    2  C   UNL     1      -9.138  15.136  68.866  1.00  0.00    -0.206 C  
HETATM    3  C   UNL     1      -7.787  15.188  69.601  1.00  0.00    -0.125 C  
HETATM    4  C   UNL     1      -9.587  13.667  68.583  1.00  0.00    -0.100 C  
HETATM    5  C   UNL     1      -8.595  12.957  67.644  1.00  0.00    -0.182 C  
HETATM    6  C   UNL     1     -11.015  13.538  67.999  1.00  0.00    -0.271 C  
HETATM    7  N   UNL     1      -8.776  11.587  67.547  1.00  0.00    -0.142 N  
HETATM    8  H   UNL     1      -9.490  11.178  68.149  1.00  0.00     0.000 HD 
HETATM    9  O   UNL     1      -7.704  13.555  67.039  1.00  0.00    -0.040 OA 
ENDROOT
BRANCH   6  10
HETATM   10  C   UNL     1     -11.161  14.092  66.607  1.00  0.00    -0.330 C  
HETATM   11  C   UNL     1     -11.323  13.336  65.515  1.00  0.00    -0.315 C  
ENDBRANCH   6  10
BRANCH   7  12
HETATM   12  C   UNL     1      -8.101  10.725  66.728  1.00  0.00    -0.137 C  
HETATM   13  N   UNL     1      -7.082  10.031  67.285  1.00  0.00    -0.084 N  
HETATM   14  O   UNL     1      -8.415  10.585  65.552  1.00  0.00    -0.165 OA 
HETATM   15  H1  UNL     1      -6.578   9.388  66.674  1.00  0.00     0.000 HD 
HETATM   16  H2  UNL     1      -6.830  10.145  68.267  1.00  0.00     0.000 HD 
ENDBRANCH   7  12
TORSDOF 2
ENDMDL
MODEL      161
REMARK 921   NORMALIZED FREE ENERGY PREDICTED BY IDOCK:   -1.88 KCAL/MOL
REMARK 922        TOTAL FREE ENERGY PREDICTED BY IDOCK:   -2.50 KCAL/MOL
REMARK 923 INTER-LIGAND FREE ENERGY PREDICTED BY IDOCK:   -2.04 KCAL/MOL
REMARK 924 INTRA-LIGAND FREE ENERGY PREDICTED BY IDOCK:   -0.46 KCAL/MOL
REMARK 927      BINDING AFFINITY PREDICTED BY RF-SCORE:    0.00 PKD
ROOT
HETATM    1  C   UNL     1      -6.465   5.933  65.983  1.00  0.00    -0.043 C  
HETATM    2  C   UNL     1      -7.004   5.959  67.419  1.00  0.00    -0.069 C  
HETATM    3  C   UNL     1      -6.048   6.827  68.255  1.00  0.00    -0.029 C  
HETATM    4  C   UNL     1      -8.478   6.468  67.510  1.00  0.00    -0.120 C  
HETATM    5  C   UNL     1      -9.008   6.370  68.951  1.00  0.00    -0.123 C  
HETATM    6  C   UNL     1      -9.463   5.745  66.559  1.00  0.00    -0.168 C  
HETATM    7  N   UNL     1     -10.206   7.032  69.169  1.00  0.00    -0.181 N  
HETATM    8  H   UNL     1     -10.578   7.571  68.387  1.00  0.00     0.000 HD 
HETATM    9  O   UNL     1      -8.412   5.764  69.842  1.00  0.00    -0.119 OA 
ENDROOT
BRANCH   6  10
HETATM   10  C   UNL     1      -9.701   4.300  66.906  1.00  0.00    -0.239 C  
HETATM   11  C   UNL     1      -9.350   3.275  66.119  1.00  0.00    -0.130 C  
ENDBRANCH   6  10
BRANCH   7  12
HETATM   12  C   UNL     1     -10.943   7.041  70.321  1.00  0.00    -0.271 C  
HETATM   13  N   UNL     1     -11.107   5.853  70.946  1.00  0.00    -0.271 N  
HETATM   14  O   UNL     1     -11.419   8.080  70.764  1.00  0.00    -0.279 OA 
HETATM   15  H1  UNL     1     -11.657   5.860  71.805  1.00  0.00     0.000 HD 
HETATM   16  H2  UNL     1     -10.701   4.993  70.576  1.00  0.00     0.000 HD 
ENDBRANCH   7  12
TORSDOF 2
ENDMDL
MODEL      162
REMARK 921   NORMALIZED FREE ENERGY PREDICTED BY IDOCK:   -1.85 KCAL/MOL
REMARK 922        TOTAL FREE ENERGY PREDICTED BY IDOCK:   -2.46 KCAL/MOL
REMARK 923 INTER-LIGAND FREE ENERGY PREDICTED BY IDOCK:   -2.05 KCAL/MOL
REMARK 924 INTRA-LIGAND FREE ENERGY PREDICTED BY IDOCK:   -0.42 KCAL/MOL
REMARK 927      BINDING AFFINITY PREDICTED BY RF-SCORE:    0.00 PKD
ROOT
HETATM    1  C   UNL     1     -10.649  10.197  67.222  1.00  0.00    -0.321 C  
HETATM    2  C   UNL     1     -10.070   9.053  66.381  1.00  0.00    -0.351 C  
HETATM    3  C   UNL     1      -9.526   9.667  65.079  1.00  0.00    -0.312 C  
HETATM    4  C   UNL     1      -8.977   8.232  67.136  1.00  0.00    -0.154 C  
HETATM    5  C   UNL     1      -8.508   7.032  66.294  1.00  0.00    -0.134 C  
HETATM    6  C   UNL     1      -9.408   7.730  68.535  1.00  0.00    -0.147 C  
HETATM    7  N   UNL     1      -7.369   6.404  66.773  1.00  0.00    -0.077 N  
HETATM    8  H   UNL     1      -6.918   6.832  67.580  1.00  0.00     0.000 HD 
HETATM    9  O   UNL     1      -9.090   6.666  65.272  1.00  0.00     0.143 OA 
ENDROOT
BRANCH   6  10
HETATM   10  C   UNL     1     -10.494   6.688  68.505  1.00  0.00    -0.246 C  
HETATM   11  C   UNL     1     -10.421   5.514  69.144  1.00  0.00    -0.315 C  
ENDBRANCH   6  10
BRANCH   7  12
HETATM   12  C   UNL     1      -6.786   5.271  66.278  1.00  0.00    -0.057 C  
HETATM   13  N   UNL     1      -6.384   5.308  64.987  1.00  0.00    -0.034 N  
HETATM   14  O   UNL     1      -6.629   4.277  66.978  1.00  0.00    -0.044 OA 
HETATM   15  H1  UNL     1      -5.949   4.463  64.618  1.00  0.00     0.000 HD 
HETATM   16  H2  UNL     1      -6.510   6.141  64.411  1.00  0.00     0.000 HD 
ENDBRANCH   7  12
TORSDOF 2
ENDMDL
MODEL      163
REMARK 921   NORMALIZED FREE ENERGY PREDICTED BY IDOCK:   -1.81 KCAL/MOL
REMARK 922        TOTAL FREE ENERGY PREDICTED BY IDOCK:   -2.43 KCAL/MOL
REMARK 923 INTER-LIGAND FREE ENERGY PREDICTED BY IDOCK:   -2.24 KCAL/MOL
REMARK 924 INTRA-LIGAND FREE ENERGY PREDICTED BY IDOCK:   -0.18 KCAL/MOL
REMARK 927      BINDING AFFINITY PREDICTED BY RF-SCORE:    0.00 PKD
ROOT
HETATM    1  C   UNL     1      -7.462   6.293  63.565  1.00  0.00    -0.080 C  
HETATM    2  C   UNL     1      -7.708   6.553  65.057  1.00  0.00    -0.103 C  
HETATM    3  C   UNL     1      -7.648   8.075  65.275  1.00  0.00    -0.085 C  
HETATM    4  C   UNL     1      -9.052   5.947  65.570  1.00  0.00    -0.006 C  
HETATM    5  C   UNL     1      -9.199   6.137  67.090  1.00  0.00    -0.118 C  
HETATM    6  C   UNL     1      -9.250   4.450  65.228  1.00  0.00    -0.155 C  
HETATM    7  N   UNL     1     -10.464   5.861  67.585  1.00  0.00    -0.213 N  
HETATM    8  H   UNL     1     -11.182   5.632  66.898  1.00  0.00     0.000 HD 
HETATM    9  O   UNL     1      -8.273   6.517  67.808  1.00  0.00    -0.114 OA 
ENDROOT
BRANCH   6  10
HETATM   10  C   UNL     1      -8.298   3.527  65.941  1.00  0.00    -0.106 C  
HETATM   11  C   UNL     1      -8.517   2.219  66.117  1.00  0.00    -0.101 C  
ENDBRANCH   6  10
BRANCH   7  12
HETATM   12  C   UNL     1     -10.853   5.863  68.896  1.00  0.00    -0.303 C  
HETATM   13  N   UNL     1     -11.713   6.837  69.273  1.00  0.00    -0.605 N  
HETATM   14  O   UNL     1     -10.446   5.015  69.682  1.00  0.00    -0.255 OA 
HETATM   15  H1  UNL     1     -12.002   6.838  70.251  1.00  0.00     0.000 HD 
HETATM   16  H2  UNL     1     -12.054   7.535  68.612  1.00  0.00     0.000 HD 
ENDBRANCH   7  12
TORSDOF 2
ENDMDL
MODEL      164
REMARK 921   NORMALIZED FREE ENERGY PREDICTED BY IDOCK:   -1.76 KCAL/MOL
REMARK 922        TOTAL FREE ENERGY PREDICTED BY IDOCK:   -2.37 KCAL/MOL
REMARK 923 INTER-LIGAND FREE ENERGY PREDICTED BY IDOCK:   -2.19 KCAL/MOL
REMARK 924 INTRA-LIGAND FREE ENERGY PREDICTED BY IDOCK:   -0.18 KCAL/MOL
REMARK 927      BINDING AFFINITY PREDICTED BY RF-SCORE:    0.00 PKD
ROOT
HETATM    1  C   UNL     1      -6.103   7.699  68.910  1.00  0.00    -0.035 C  
HETATM    2  C   UNL     1      -6.842   9.033  69.073  1.00  0.00    -0.055 C  
HETATM    3  C   UNL     1      -5.866  10.023  69.732  1.00  0.00    -0.043 C  
HETATM    4  C   UNL     1      -7.408   9.586  67.726  1.00  0.00    -0.083 C  
HETATM    5  C   UNL     1      -8.233  10.864  67.957  1.00  0.00    -0.121 C  
HETATM    6  C   UNL     1      -8.262   8.572  66.927  1.00  0.00    -0.106 C  
HETATM    7  N   UNL     1      -8.554  11.559  66.802  1.00  0.00    -0.166 N  
HETATM    8  H   UNL     1      -8.160  11.202  65.932  1.00  0.00     0.000 HD 
HETATM    9  O   UNL     1      -8.570  11.248  69.079  1.00  0.00    -0.098 OA 
ENDROOT
BRANCH   6  10
HETATM   10  C   UNL     1      -9.565   8.211  67.590  1.00  0.00    -0.186 C  
HETATM   11  C   UNL     1     -10.414   7.292  67.117  1.00  0.00    -0.394 C  
ENDBRANCH   6  10
BRANCH   7  12
HETATM   12  C   UNL     1      -9.344  12.670  66.703  1.00  0.00    -0.236 C  
HETATM   13  N   UNL     1      -8.730  13.822  66.348  1.00  0.00    -0.427 N  
HETATM   14  O   UNL     1     -10.550  12.616  66.917  1.00  0.00    -0.238 OA 
HETATM   15  H1  UNL     1      -9.319  14.651  66.275  1.00  0.00     0.000 HD 
HETATM   16  H2  UNL     1      -7.727  13.859  66.164  1.00  0.00     0.000 HD 
ENDBRANCH   7  12
TORSDOF 2
ENDMDL
MODEL      165
REMARK 921   NORMALIZED FREE ENERGY PREDICTED BY IDOCK:   -1.69 KCAL/MOL
REMARK 922        TOTAL FREE ENERGY PREDICTED BY IDOCK:   -2.29 KCAL/MOL
REMARK 923 INTER-LIGAND FREE ENERGY PREDICTED BY IDOCK:   -1.88 KCAL/MOL
REMARK 924 INTRA-LIGAND FREE ENERGY PREDICTED BY IDOCK:   -0.40 KCAL/MOL
REMARK 927      BINDING AFFINITY PREDICTED BY RF-SCORE:    0.00 PKD
ROOT
HETATM    1  C   UNL     1     -10.655  12.507  66.941  1.00  0.00    -0.255 C  
HETATM    2  C   UNL     1      -9.876  13.696  67.518  1.00  0.00    -0.227 C  
HETATM    3  C   UNL     1      -8.999  13.159  68.663  1.00  0.00     0.048 C  
HETATM    4  C   UNL     1      -9.029  14.450  66.444  1.00  0.00    -0.122 C  
HETATM    5  C   UNL     1      -8.356  15.696  67.047  1.00  0.00    -0.228 C  
HETATM    6  C   UNL     1      -9.823  14.867  65.182  1.00  0.00    -0.165 C  
HETATM    7  N   UNL     1      -7.390  16.275  66.240  1.00  0.00     0.049 N  
HETATM    8  H   UNL     1      -7.171  15.788  65.371  1.00  0.00     0.000 HD 
HETATM    9  O   UNL     1      -8.642  16.136  68.162  1.00  0.00    -0.172 OA 
ENDROOT
BRANCH   6  10
HETATM   10  C   UNL     1     -10.864  15.923  65.433  1.00  0.00    -0.361 C  
HETATM   11  C   UNL     1     -11.096  16.954  64.612  1.00  0.00     0.200 C  
ENDBRANCH   6  10
BRANCH   7  12
HETATM   12  C   UNL     1      -6.699  17.429  66.484  1.00  0.00    -0.249 C  
HETATM   13  N   UNL     1      -5.885  17.434  67.564  1.00  0.00    -0.128 N  
HETATM   14  O   UNL     1      -6.809  18.404  65.749  1.00  0.00    -0.275 OA 
HETATM   15  H1  UNL     1      -5.370  18.295  67.745  1.00  0.00     0.000 HD 
HETATM   16  H2  UNL     1      -5.791  16.617  68.167  1.00  0.00     0.000 HD 
ENDBRANCH   7  12
TORSDOF 2
ENDMDL
MODEL      166
REMARK 921   NORMALIZED FREE ENERGY PREDICTED BY IDOCK:   -1.66 KCAL/MOL
REMARK 922        TOTAL FREE ENERGY PREDICTED BY IDOCK:   -2.26 KCAL/MOL
REMARK 923 INTER-LIGAND FREE ENERGY PREDICTED BY IDOCK:   -3.38 KCAL/MOL
REMARK 924 INTRA-LIGAND FREE ENERGY PREDICTED BY IDOCK:    1.11 KCAL/MOL
REMARK 927      BINDING AFFINITY PREDICTED BY RF-SCORE:    0.00 PKD
ROOT
HETATM    1  C   UNL     1     -10.253   8.168  69.107  1.00  0.00    -0.219 C  
HETATM    2  C   UNL     1      -9.629   8.284  67.710  1.00  0.00    -0.178 C  
HETATM    3  C   UNL     1      -9.719   6.897  67.049  1.00  0.00    -0.210 C  
HETATM    4  C   UNL     1     -10.298   9.389  66.832  1.00  0.00    -0.308 C  
HETATM    5  C   UNL     1      -9.568   9.542  65.486  1.00  0.00    -0.279 C  
HETATM    6  C   UNL     1     -10.394  10.776  67.514  1.00  0.00    -0.244 C  
HETATM    7  N   UNL     1     -10.241  10.312  64.551  1.00  0.00    -0.338 N  
HETATM    8  H   UNL     1     -11.171  10.637  64.813  1.00  0.00     0.000 HD 
HETATM    9  O   UNL     1      -8.480   9.013  65.253  1.00  0.00    -0.146 OA 
ENDROOT
BRANCH   6  10
HETATM   10  C   UNL     1      -9.063  11.441  67.742  1.00  0.00    -0.158 C  
HETATM   11  C   UNL     1      -7.909  10.996  67.231  1.00  0.00    -0.122 C  
ENDBRANCH   6  10
BRANCH   7  12
HETATM   12  C   UNL     1      -9.792  10.681  63.313  1.00  0.00    -0.312 C  
HETATM   13  N   UNL     1      -9.869   9.750  62.336  1.00  0.00    -0.591 N  
HETATM   14  O   UNL     1      -9.352  11.806  63.105  1.00  0.00    -0.271 OA 
HETATM   15  H1  UNL     1      -9.534  10.026  61.413  1.00  0.00     0.000 HD 
HETATM   16  H2  UNL     1     -10.244   8.818  62.513  1.00  0.00     0.000 HD 
ENDBRANCH   7  12
TORSDOF 2
ENDMDL
MODEL      167
REMARK 921   NORMALIZED FREE ENERGY PREDICTED BY IDOCK:   -1.62 KCAL/MOL
REMARK 922        TOTAL FREE ENERGY PREDICTED BY IDOCK:   -2.21 KCAL/MOL
REMARK 923 INTER-LIGAND FREE ENERGY PREDICTED BY IDOCK:   -2.20 KCAL/MOL
REMARK 924 INTRA-LIGAND FREE ENERGY PREDICTED BY IDOCK:   -0.02 KCAL/MOL
REMARK 927      BINDING AFFINITY PREDICTED BY RF-SCORE:    0.00 PKD
ROOT
HETATM    1  C   UNL     1     -10.922  14.259  67.830  1.00  0.00    -0.275 C  
HETATM    2  C   UNL     1     -10.293  15.472  67.131  1.00  0.00    -0.272 C  
HETATM    3  C   UNL     1     -11.434  16.442  66.777  1.00  0.00     0.621 C  
HETATM    4  C   UNL     1      -9.187  16.165  67.988  1.00  0.00    -0.195 C  
HETATM    5  C   UNL     1      -8.512  17.303  67.202  1.00  0.00    -0.205 C  
HETATM    6  C   UNL     1      -8.097  15.204  68.522  1.00  0.00    -0.145 C  
HETATM    7  N   UNL     1      -7.705  18.130  67.967  1.00  0.00    -0.248 N  
HETATM    8  H   UNL     1      -7.693  17.953  68.971  1.00  0.00     0.000 HD 
HETATM    9  O   UNL     1      -8.684  17.474  65.995  1.00  0.00    -0.497 OA 
ENDROOT
BRANCH   6  10
HETATM   10  C   UNL     1      -7.219  14.617  67.451  1.00  0.00    -0.182 C  
HETATM   11  C   UNL     1      -6.452  13.534  67.623  1.00  0.00    -0.169 C  
ENDBRANCH   6  10
BRANCH   7  12
HETATM   12  C   UNL     1      -6.924  19.159  67.520  1.00  0.00    -0.208 C  
HETATM   13  N   UNL     1      -5.649  19.194  67.969  1.00  0.00    -0.191 N  
HETATM   14  O   UNL     1      -7.361  19.999  66.741  1.00  0.00    -0.231 OA 
HETATM   15  H1  UNL     1      -5.066  19.961  67.635  1.00  0.00     0.000 HD 
HETATM   16  H2  UNL     1      -5.287  18.487  68.610  1.00  0.00     0.000 HD 
ENDBRANCH   7  12
TORSDOF 2
ENDMDL
MODEL      168
REMARK 921   NORMALIZED FREE ENERGY PREDICTED BY IDOCK:   -1.61 KCAL/MOL
REMARK 922        TOTAL FREE ENERGY PREDICTED BY IDOCK:   -2.20 KCAL/MOL
REMARK 923 INTER-LIGAND FREE ENERGY PREDICTED BY IDOCK:   -1.75 KCAL/MOL
REMARK 924 INTRA-LIGAND FREE ENERGY PREDICTED BY IDOCK:   -0.45 KCAL/MOL
REMARK 927      BINDING AFFINITY PREDICTED BY RF-SCORE:    0.00 PKD
ROOT
HETATM    1  C   UNL     1     -10.265  10.009  68.673  1.00  0.00    -0.198 C  
HETATM    2  C   UNL     1      -9.377   8.782  68.918  1.00  0.00    -0.145 C  
HETATM    3  C   UNL     1      -9.677   8.273  70.339  1.00  0.00    -0.175 C  
HETATM    4  C   UNL     1      -9.573   7.662  67.848  1.00  0.00    -0.164 C  
HETATM    5  C   UNL     1      -8.585   6.504  68.072  1.00  0.00    -0.118 C  
HETATM    6  C   UNL     1      -9.454   8.151  66.383  1.00  0.00    -0.285 C  
HETATM    7  N   UNL     1      -8.858   5.364  67.333  1.00  0.00    -0.107 N  
HETATM    8  H   UNL     1      -9.711   5.376  66.775  1.00  0.00     0.000 HD 
HETATM    9  O   UNL     1      -7.637   6.578  68.855  1.00  0.00    -0.096 OA 
ENDROOT
BRANCH   6  10
HETATM   10  C   UNL     1      -8.069   8.595  65.996  1.00  0.00    -0.109 C  
HETATM   11  C   UNL     1      -7.698   9.876  65.890  1.00  0.00    -0.110 C  
ENDBRANCH   6  10
BRANCH   7  12
HETATM   12  C   UNL     1      -8.104   4.225  67.270  1.00  0.00    -0.100 C  
HETATM   13  N   UNL     1      -7.778   3.647  68.449  1.00  0.00    -0.060 N  
HETATM   14  O   UNL     1      -7.753   3.752  66.195  1.00  0.00    -0.087 OA 
HETATM   15  H1  UNL     1      -7.216   2.797  68.402  1.00  0.00     0.000 HD 
HETATM   16  H2  UNL     1      -8.080   4.041  69.340  1.00  0.00     0.000 HD 
ENDBRANCH   7  12
TORSDOF 2
ENDMDL
MODEL      169
REMARK 921   NORMALIZED FREE ENERGY PREDICTED BY IDOCK:   -1.57 KCAL/MOL
REMARK 922        TOTAL FREE ENERGY PREDICTED BY IDOCK:   -2.16 KCAL/MOL
REMARK 923 INTER-LIGAND FREE ENERGY PREDICTED BY IDOCK:   -2.16 KCAL/MOL
REMARK 924 INTRA-LIGAND FREE ENERGY PREDICTED BY IDOCK:    0.01 KCAL/MOL
REMARK 927      BINDING AFFINITY PREDICTED BY RF-SCORE:    0.00 PKD
ROOT
HETATM    1  C   UNL     1      -6.174   5.274  68.029  1.00  0.00    -0.034 C  
HETATM    2  C   UNL     1      -6.928   6.170  69.021  1.00  0.00    -0.068 C  
HETATM    3  C   UNL     1      -5.974   7.306  69.432  1.00  0.00    -0.030 C  
HETATM    4  C   UNL     1      -8.272   6.720  68.448  1.00  0.00    -0.119 C  
HETATM    5  C   UNL     1      -9.042   7.518  69.515  1.00  0.00    -0.143 C  
HETATM    6  C   UNL     1      -9.207   5.635  67.858  1.00  0.00    -0.108 C  
HETATM    7  N   UNL     1     -10.111   8.251  69.025  1.00  0.00    -0.197 N  
HETATM    8  H   UNL     1     -10.240   8.248  68.014  1.00  0.00     0.000 HD 
HETATM    9  O   UNL     1      -8.726   7.518  70.706  1.00  0.00    -0.137 OA 
ENDROOT
BRANCH   6  10
HETATM   10  C   UNL     1      -9.768   4.686  68.883  1.00  0.00    -0.236 C  
HETATM   11  C   UNL     1      -9.477   3.381  68.931  1.00  0.00    -0.201 C  
ENDBRANCH   6  10
BRANCH   7  12
HETATM   12  C   UNL     1     -11.012   8.977  69.753  1.00  0.00    -0.166 C  
HETATM   13  N   UNL     1     -11.528  10.077  69.159  1.00  0.00    -0.462 N  
HETATM   14  O   UNL     1     -11.339   8.636  70.884  1.00  0.00    -0.263 OA 
HETATM   15  H1  UNL     1     -12.199  10.619  69.702  1.00  0.00     0.000 HD 
HETATM   16  H2  UNL     1     -11.258  10.352  68.214  1.00  0.00     0.000 HD 
ENDBRANCH   7  12
TORSDOF 2
ENDMDL
MODEL      170
REMARK 921   NORMALIZED FREE ENERGY PREDICTED BY IDOCK:   -1.48 KCAL/MOL
REMARK 922        TOTAL FREE ENERGY PREDICTED BY IDOCK:   -2.05 KCAL/MOL
REMARK 923 INTER-LIGAND FREE ENERGY PREDICTED BY IDOCK:   -1.66 KCAL/MOL
REMARK 924 INTRA-LIGAND FREE ENERGY PREDICTED BY IDOCK:   -0.39 KCAL/MOL
REMARK 927      BINDING AFFINITY PREDICTED BY RF-SCORE:    0.00 PKD
ROOT
HETATM    1  C   UNL     1      -8.138   7.231  69.624  1.00  0.00    -0.129 C  
HETATM    2  C   UNL     1      -7.467   6.801  68.313  1.00  0.00    -0.099 C  
HETATM    3  C   UNL     1      -6.588   5.577  68.625  1.00  0.00    -0.048 C  
HETATM    4  C   UNL     1      -8.490   6.504  67.171  1.00  0.00    -0.112 C  
HETATM    5  C   UNL     1      -7.767   6.186  65.851  1.00  0.00    -0.093 C  
HETATM    6  C   UNL     1      -9.517   7.636  66.924  1.00  0.00    -0.222 C  
HETATM    7  N   UNL     1      -8.583   5.664  64.859  1.00  0.00    -0.261 N  
HETATM    8  H   UNL     1      -9.551   5.478  65.118  1.00  0.00     0.000 HD 
HETATM    9  O   UNL     1      -6.559   6.366  65.691  1.00  0.00    -0.044 OA 
ENDROOT
BRANCH   6  10
HETATM   10  C   UNL     1      -8.916   8.898  66.368  1.00  0.00    -0.193 C  
HETATM   11  C   UNL     1      -9.172   9.370  65.141  1.00  0.00    -0.287 C  
ENDBRANCH   6  10
BRANCH   7  12
HETATM   12  C   UNL     1      -8.228   5.373  63.572  1.00  0.00    -0.121 C  
HETATM   13  N   UNL     1      -7.310   4.395  63.400  1.00  0.00    -0.053 N  
HETATM   14  O   UNL     1      -8.730   5.966  62.623  1.00  0.00    -0.000 OA 
HETATM   15  H1  UNL     1      -7.045   4.178  62.440  1.00  0.00     0.000 HD 
HETATM   16  H2  UNL     1      -6.901   3.899  64.193  1.00  0.00     0.000 HD 
ENDBRANCH   7  12
TORSDOF 2
ENDMDL
MODEL      171
REMARK 921   NORMALIZED FREE ENERGY PREDICTED BY IDOCK:   -1.40 KCAL/MOL
REMARK 922        TOTAL FREE ENERGY PREDICTED BY IDOCK:   -1.97 KCAL/MOL
REMARK 923 INTER-LIGAND FREE ENERGY PREDICTED BY IDOCK:   -1.59 KCAL/MOL
REMARK 924 INTRA-LIGAND FREE ENERGY PREDICTED BY IDOCK:   -0.37 KCAL/MOL
REMARK 927      BINDING AFFINITY PREDICTED BY RF-SCORE:    0.00 PKD
ROOT
HETATM    1  C   UNL     1      -7.866   9.833  69.102  1.00  0.00    -0.095 C  
HETATM    2  C   UNL     1      -7.424   8.763  70.109  1.00  0.00    -0.056 C  
HETATM    3  C   UNL     1      -6.412   9.420  71.065  1.00  0.00    -0.086 C  
HETATM    4  C   UNL     1      -8.619   8.121  70.882  1.00  0.00    -0.144 C  
HETATM    5  C   UNL     1      -8.136   6.981  71.796  1.00  0.00    -0.099 C  
HETATM    6  C   UNL     1      -9.757   7.593  69.975  1.00  0.00    -0.172 C  
HETATM    7  N   UNL     1      -9.083   6.530  72.702  1.00  0.00    -0.132 N  
HETATM    8  H   UNL     1      -9.969   7.035  72.725  1.00  0.00     0.000 HD 
HETATM    9  O   UNL     1      -6.997   6.515  71.738  1.00  0.00    -0.072 OA 
ENDROOT
BRANCH   6  10
HETATM   10  C   UNL     1      -9.369   6.408  69.132  1.00  0.00    -0.132 C  
HETATM   11  C   UNL     1     -10.227   5.720  68.370  1.00  0.00    -0.242 C  
ENDBRANCH   6  10
BRANCH   7  12
HETATM   12  C   UNL     1      -8.957   5.480  73.569  1.00  0.00    -0.125 C  
HETATM   13  N   UNL     1      -7.858   5.471  74.357  1.00  0.00    -0.101 N  
HETATM   14  O   UNL     1      -9.809   4.600  73.631  1.00  0.00    -0.136 OA 
HETATM   15  H1  UNL     1      -7.764   4.687  75.003  1.00  0.00     0.000 HD 
HETATM   16  H2  UNL     1      -7.157   6.210  74.306  1.00  0.00     0.000 HD 
ENDBRANCH   7  12
TORSDOF 2
ENDMDL
MODEL      172
REMARK 921   NORMALIZED FREE ENERGY PREDICTED BY IDOCK:   -1.24 KCAL/MOL
REMARK 922        TOTAL FREE ENERGY PREDICTED BY IDOCK:   -1.79 KCAL/MOL
REMARK 923 INTER-LIGAND FREE ENERGY PREDICTED BY IDOCK:   -1.40 KCAL/MOL
REMARK 924 INTRA-LIGAND FREE ENERGY PREDICTED BY IDOCK:   -0.38 KCAL/MOL
REMARK 927      BINDING AFFINITY PREDICTED BY RF-SCORE:    0.00 PKD
ROOT
HETATM    1  C   UNL     1     -11.847  16.268  72.818  1.00  0.00    -0.565 C  
HETATM    2  C   UNL     1     -11.966  15.822  71.355  1.00  0.00    -0.499 C  
HETATM    3  C   UNL     1     -11.156  16.815  70.503  1.00  0.00     0.195 C  
HETATM    4  C   UNL     1     -11.503  14.349  71.126  1.00  0.00     0.008 C  
HETATM    5  C   UNL     1     -11.746  13.914  69.670  1.00  0.00    -0.311 C  
HETATM    6  C   UNL     1     -12.160  13.317  72.077  1.00  0.00     0.903 C  
HETATM    7  N   UNL     1     -11.136  12.721  69.317  1.00  0.00    -0.425 N  
HETATM    8  H   UNL     1     -10.537  12.289  70.020  1.00  0.00     0.000 HD 
HETATM    9  O   UNL     1     -12.417  14.577  68.878  1.00  0.00    -0.118 OA 
ENDROOT
BRANCH   6  10
HETATM   10  C   UNL     1     -13.636  13.129  71.852  1.00  0.00    -0.453 C  
HETATM   11  C   UNL     1     -14.399  12.291  72.563  1.00  0.00     0.845 C  
ENDBRANCH   6  10
BRANCH   7  12
HETATM   12  C   UNL     1     -11.251  12.060  68.125  1.00  0.00    -0.260 C  
HETATM   13  N   UNL     1     -10.935  12.757  67.010  1.00  0.00    -0.257 N  
HETATM   14  O   UNL     1     -11.613  10.889  68.079  1.00  0.00    -0.464 OA 
HETATM   15  H1  UNL     1     -11.021  12.264  66.122  1.00  0.00     0.000 HD 
HETATM   16  H2  UNL     1     -10.626  13.728  67.056  1.00  0.00     0.000 HD 
ENDBRANCH   7  12
TORSDOF 2
ENDMDL
MODEL      173
REMARK 921   NORMALIZED FREE ENERGY PREDICTED BY IDOCK:   -1.08 KCAL/MOL
REMARK 922        TOTAL FREE ENERGY PREDICTED BY IDOCK:   -1.61 KCAL/MOL
REMARK 923 INTER-LIGAND FREE ENERGY PREDICTED BY IDOCK:   -1.70 KCAL/MOL
REMARK 924 INTRA-LIGAND FREE ENERGY PREDICTED BY IDOCK:    0.09 KCAL/MOL
REMARK 927      BINDING AFFINITY PREDICTED BY RF-SCORE:    0.00 PKD
ROOT
HETATM    1  C   UNL     1      -7.015  13.678  68.567  1.00  0.00    -0.104 C  
HETATM    2  C   UNL     1      -7.557  15.082  68.866  1.00  0.00    -0.144 C  
HETATM    3  C   UNL     1      -8.468  14.971  70.102  1.00  0.00     0.627 C  
HETATM    4  C   UNL     1      -6.429  16.142  69.071  1.00  0.00    -0.154 C  
HETATM    5  C   UNL     1      -7.021  17.550  69.257  1.00  0.00    -0.172 C  
HETATM    6  C   UNL     1      -5.377  16.183  67.935  1.00  0.00    -0.136 C  
HETATM    7  N   UNL     1      -6.114  18.502  69.696  1.00  0.00    -0.267 N  
HETATM    8  H   UNL     1      -5.177  18.170  69.918  1.00  0.00     0.000 HD 
HETATM    9  O   UNL     1      -8.206  17.809  69.045  1.00  0.00    -0.184 OA 
ENDROOT
BRANCH   6  10
HETATM   10  C   UNL     1      -5.914  16.675  66.619  1.00  0.00     0.022 C  
HETATM   11  C   UNL     1      -6.171  17.961  66.351  1.00  0.00    -0.239 C  
ENDBRANCH   6  10
BRANCH   7  12
HETATM   12  C   UNL     1      -6.343  19.840  69.862  1.00  0.00    -0.342 C  
HETATM   13  N   UNL     1      -6.918  20.492  68.827  1.00  0.00    -0.079 N  
HETATM   14  O   UNL     1      -6.048  20.411  70.906  1.00  0.00    -0.533 OA 
HETATM   15  H1  UNL     1      -7.088  21.489  68.951  1.00  0.00     0.000 HD 
HETATM   16  H2  UNL     1      -7.170  20.009  67.964  1.00  0.00     0.000 HD 
ENDBRANCH   7  12
TORSDOF 2
ENDMDL
MODEL      174
REMARK 921   NORMALIZED FREE ENERGY PREDICTED BY IDOCK:   -1.01 KCAL/MOL
REMARK 922        TOTAL FREE ENERGY PREDICTED BY IDOCK:   -1.54 KCAL/MOL
REMARK 923 INTER-LIGAND FREE ENERGY PREDICTED BY IDOCK:   -1.12 KCAL/MOL
REMARK 924 INTRA-LIGAND FREE ENERGY PREDICTED BY IDOCK:   -0.41 KCAL/MOL
REMARK 927      BINDING AFFINITY PREDICTED BY RF-SCORE:    0.00 PKD
ROOT
HETATM    1  C   UNL     1      -6.480   5.828  63.080  1.00  0.00    -0.028 C  
HETATM    2  C   UNL     1      -6.226   7.049  63.973  1.00  0.00    -0.036 C  
HETATM    3  C   UNL     1      -5.128   7.892  63.301  1.00  0.00    -0.042 C  
HETATM    4  C   UNL     1      -7.515   7.887  64.245  1.00  0.00    -0.103 C  
HETATM    5  C   UNL     1      -7.232   9.033  65.233  1.00  0.00    -0.088 C  
HETATM    6  C   UNL     1      -8.717   7.059  64.763  1.00  0.00     0.330 C  
HETATM    7  N   UNL     1      -8.247   9.971  65.331  1.00  0.00    -0.142 N  
HETATM    8  H   UNL     1      -9.038   9.855  64.699  1.00  0.00     0.000 HD 
HETATM    9  O   UNL     1      -6.184   9.117  65.874  1.00  0.00    -0.058 OA 
ENDROOT
BRANCH   6  10
HETATM   10  C   UNL     1      -8.521   6.491  66.143  1.00  0.00    -0.137 C  
HETATM   11  C   UNL     1      -8.760   5.215  66.466  1.00  0.00    -0.111 C  
ENDBRANCH   6  10
BRANCH   7  12
HETATM   12  C   UNL     1      -8.300  11.037  66.185  1.00  0.00    -0.163 C  
HETATM   13  N   UNL     1      -7.156  11.739  66.354  1.00  0.00    -0.372 N  
HETATM   14  O   UNL     1      -9.340  11.343  66.758  1.00  0.00    -0.173 OA 
HETATM   15  H1  UNL     1      -7.196  12.534  66.992  1.00  0.00     0.000 HD 
HETATM   16  H2  UNL     1      -6.296  11.485  65.869  1.00  0.00     0.000 HD 
ENDBRANCH   7  12
TORSDOF 2
ENDMDL
MODEL      175
REMARK 921   NORMALIZED FREE ENERGY PREDICTED BY IDOCK:   -1.01 KCAL/MOL
REMARK 922        TOTAL FREE ENERGY PREDICTED BY IDOCK:   -1.53 KCAL/MOL
REMARK 923 INTER-LIGAND FREE ENERGY PREDICTED BY IDOCK:   -1.23 KCAL/MOL
REMARK 924 INTRA-LIGAND FREE ENERGY PREDICTED BY IDOCK:   -0.30 KCAL/MOL
REMARK 927      BINDING AFFINITY PREDICTED BY RF-SCORE:    0.00 PKD
ROOT
HETATM    1  C   UNL     1      -6.549   5.712  63.255  1.00  0.00    -0.032 C  
HETATM    2  C   UNL     1      -6.670   5.232  64.707  1.00  0.00    -0.048 C  
HETATM    3  C   UNL     1      -6.393   6.442  65.617  1.00  0.00    -0.038 C  
HETATM    4  C   UNL     1      -8.050   4.574  65.021  1.00  0.00    -0.100 C  
HETATM    5  C   UNL     1      -8.082   4.011  66.453  1.00  0.00    -0.098 C  
HETATM    6  C   UNL     1      -8.467   3.459  64.031  1.00  0.00    -0.090 C  
HETATM    7  N   UNL     1      -9.341   3.643  66.899  1.00  0.00    -0.186 N  
HETATM    8  H   UNL     1     -10.122   3.842  66.275  1.00  0.00     0.000 HD 
HETATM    9  O   UNL     1      -7.072   3.908  67.152  1.00  0.00    -0.061 OA 
ENDROOT
BRANCH   6  10
HETATM   10  C   UNL     1      -7.607   2.226  64.101  1.00  0.00    -0.060 C  
HETATM   11  C   UNL     1      -6.914   1.738  63.065  1.00  0.00    -0.027 C  
ENDBRANCH   6  10
BRANCH   7  12
HETATM   12  C   UNL     1      -9.648   3.040  68.087  1.00  0.00    -0.065 C  
HETATM   13  N   UNL     1      -9.680   1.688  68.092  1.00  0.00    -0.347 N  
HETATM   14  O   UNL     1      -9.872   3.698  69.097  1.00  0.00    -0.082 OA 
HETATM   15  H1  UNL     1      -9.910   1.238  68.978  1.00  0.00     0.000 HD 
HETATM   16  H2  UNL     1      -9.485   1.144  67.250  1.00  0.00     0.000 HD 
ENDBRANCH   7  12
TORSDOF 2
ENDMDL
MODEL      176
REMARK 921   NORMALIZED FREE ENERGY PREDICTED BY IDOCK:   -0.25 KCAL/MOL
REMARK 922        TOTAL FREE ENERGY PREDICTED BY IDOCK:   -0.68 KCAL/MOL
REMARK 923 INTER-LIGAND FREE ENERGY PREDICTED BY IDOCK:   -0.58 KCAL/MOL
REMARK 924 INTRA-LIGAND FREE ENERGY PREDICTED BY IDOCK:   -0.10 KCAL/MOL
REMARK 927      BINDING AFFINITY PREDICTED BY RF-SCORE:    0.00 PKD
ROOT
HETATM    1  C   UNL     1      -6.219  19.314  69.463  1.00  0.00    -0.323 C  
HETATM    2  C   UNL     1      -7.066  19.680  68.238  1.00  0.00    -0.337 C  
HETATM    3  C   UNL     1      -6.099  19.930  67.067  1.00  0.00    -0.192 C  
HETATM    4  C   UNL     1      -8.133  18.596  67.886  1.00  0.00    -0.283 C  
HETATM    5  C   UNL     1      -9.028  19.057  66.722  1.00  0.00    -0.313 C  
HETATM    6  C   UNL     1      -9.031  18.173  69.075  1.00  0.00    -0.038 C  
HETATM    7  N   UNL     1      -9.827  18.063  66.181  1.00  0.00    -0.288 N  
HETATM    8  H   UNL     1      -9.696  17.122  66.551  1.00  0.00     0.000 HD 
HETATM    9  O   UNL     1      -9.025  20.213  66.296  1.00  0.00    -0.320 OA 
ENDROOT
BRANCH   6  10
HETATM   10  C   UNL     1      -9.958  19.256  69.558  1.00  0.00    -0.032 C  
HETATM   11  C   UNL     1      -9.592  20.236  70.393  1.00  0.00     1.144 C  
ENDBRANCH   6  10
BRANCH   7  12
HETATM   12  C   UNL     1     -10.772  18.208  65.204  1.00  0.00     0.682 C  
HETATM   13  N   UNL     1     -11.252  19.457  65.004  1.00  0.00     0.804 N  
HETATM   14  O   UNL     1     -11.153  17.252  64.539  1.00  0.00    -1.082 OA 
HETATM   15  H1  UNL     1     -11.957  19.565  64.275  1.00  0.00     0.000 HD 
HETATM   16  H2  UNL     1     -10.925  20.251  65.555  1.00  0.00     0.000 HD 
ENDBRANCH   7  12
TORSDOF 2
ENDMDL
MODEL      177
REMARK 921   NORMALIZED FREE ENERGY PREDICTED BY IDOCK:    1.71 KCAL/MOL
REMARK 922        TOTAL FREE ENERGY PREDICTED BY IDOCK:    1.51 KCAL/MOL
REMARK 923 INTER-LIGAND FREE ENERGY PREDICTED BY IDOCK:    0.81 KCAL/MOL
REMARK 924 INTRA-LIGAND FREE ENERGY PREDICTED BY IDOCK:    0.70 KCAL/MOL
REMARK 927      BINDING AFFINITY PREDICTED BY RF-SCORE:    0.00 PKD
ROOT
HETATM    1  C   UNL     1      -8.199  12.956  69.780  1.00  0.00     2.022 C  
HETATM    2  C   UNL     1      -7.381  12.564  68.543  1.00  0.00    -0.115 C  
HETATM    3  C   UNL     1      -5.898  12.815  68.871  1.00  0.00    -0.071 C  
HETATM    4  C   UNL     1      -7.631  11.092  68.086  1.00  0.00    -0.095 C  
HETATM    5  C   UNL     1      -6.876  10.782  66.781  1.00  0.00    -0.115 C  
HETATM    6  C   UNL     1      -9.125  10.725  67.903  1.00  0.00    -0.150 C  
HETATM    7  N   UNL     1      -6.836   9.438  66.445  1.00  0.00    -0.082 N  
HETATM    8  H   UNL     1      -7.241   8.788  67.118  1.00  0.00     0.000 HD 
HETATM    9  O   UNL     1      -6.340  11.655  66.097  1.00  0.00     0.034 OA 
ENDROOT
BRANCH   6  10
HETATM   10  C   UNL     1      -9.795  11.436  66.759  1.00  0.00    -0.232 C  
HETATM   11  C   UNL     1      -9.306  11.474  65.514  1.00  0.00    -0.203 C  
ENDBRANCH   6  10
BRANCH   7  12
HETATM   12  C   UNL     1      -6.312   8.891  65.307  1.00  0.00    -0.063 C  
HETATM   13  N   UNL     1      -6.826   9.321  64.133  1.00  0.00    -0.089 N  
HETATM   14  O   UNL     1      -5.412   8.059  65.356  1.00  0.00    -0.032 OA 
HETATM   15  H1  UNL     1      -6.435   8.913  63.284  1.00  0.00     0.000 HD 
HETATM   16  H2  UNL     1      -7.569  10.020  64.097  1.00  0.00     0.000 HD 
ENDBRANCH   7  12
TORSDOF 2
ENDMDL
MODEL      178
REMARK 921   NORMALIZED FREE ENERGY PREDICTED BY IDOCK:    6.87 KCAL/MOL
REMARK 922        TOTAL FREE ENERGY PREDICTED BY IDOCK:    7.27 KCAL/MOL
REMARK 923 INTER-LIGAND FREE ENERGY PREDICTED BY IDOCK:    7.05 KCAL/MOL
REMARK 924 INTRA-LIGAND FREE ENERGY PREDICTED BY IDOCK:    0.22 KCAL/MOL
REMARK 927      BINDING AFFINITY PREDICTED BY RF-SCORE:    0.00 PKD
ROOT
HETATM    1  C   UNL     1     -12.369  18.026  67.805  1.00  0.00     4.134 C  
HETATM    2  C   UNL     1     -11.212  17.134  68.273  1.00  0.00     0.028 C  
HETATM    3  C   UNL     1     -11.118  15.951  67.293  1.00  0.00    -0.172 C  
HETATM    4  C   UNL     1      -9.857  17.901  68.388  1.00  0.00    -0.355 C  
HETATM    5  C   UNL     1      -8.756  16.994  68.965  1.00  0.00    -0.128 C  
HETATM    6  C   UNL     1      -9.928  19.202  69.224  1.00  0.00    -0.230 C  
HETATM    7  N   UNL     1      -7.474  17.509  68.863  1.00  0.00    -0.257 N  
HETATM    8  H   UNL     1      -7.376  18.390  68.361  1.00  0.00     0.000 HD 
HETATM    9  O   UNL     1      -8.993  15.893  69.466  1.00  0.00    -0.249 OA 
ENDROOT
BRANCH   6  10
HETATM   10  C   UNL     1     -10.186  18.976  70.689  1.00  0.00     1.803 C  
HETATM   11  C   UNL     1     -10.273  19.959  71.593  1.00  0.00     2.996 C  
ENDBRANCH   6  10
BRANCH   7  12
HETATM   12  C   UNL     1      -6.326  16.961  69.364  1.00  0.00    -0.231 C  
HETATM   13  N   UNL     1      -5.160  17.503  68.944  1.00  0.00    -0.151 N  
HETATM   14  O   UNL     1      -6.359  16.032  70.164  1.00  0.00    -0.139 OA 
HETATM   15  H1  UNL     1      -4.304  17.094  69.318  1.00  0.00     0.000 HD 
HETATM   16  H2  UNL     1      -5.138  18.281  68.285  1.00  0.00     0.000 HD 
ENDBRANCH   7  12
TORSDOF 2
ENDMDL
MODEL      179
REMARK 921   NORMALIZED FREE ENERGY PREDICTED BY IDOCK:   12.01 KCAL/MOL
REMARK 922        TOTAL FREE ENERGY PREDICTED BY IDOCK:   13.01 KCAL/MOL
REMARK 923 INTER-LIGAND FREE ENERGY PREDICTED BY IDOCK:   12.81 KCAL/MOL
REMARK 924 INTRA-LIGAND FREE ENERGY PREDICTED BY IDOCK:    0.21 KCAL/MOL
REMARK 927      BINDING AFFINITY PREDICTED BY RF-SCORE:    0.00 PKD
ROOT
HETATM    1  C   UNL     1      -8.637  10.383  69.617  1.00  0.00    -0.060 C  
HETATM    2  C   UNL     1      -9.808  11.349  69.397  1.00  0.00     0.270 C  
HETATM    3  C   UNL     1      -9.400  12.709  69.991  1.00  0.00     3.428 C  
HETATM    4  C   UNL     1     -10.224  11.473  67.897  1.00  0.00    -0.200 C  
HETATM    5  C   UNL     1     -11.468  12.365  67.741  1.00  0.00    -0.324 C  
HETATM    6  C   UNL     1     -10.481  10.119  67.192  1.00  0.00    -0.305 C  
HETATM    7  N   UNL     1     -11.751  12.734  66.435  1.00  0.00    -0.384 N  
HETATM    8  H   UNL     1     -11.080  12.445  65.724  1.00  0.00     0.000 HD 
HETATM    9  O   UNL     1     -12.151  12.732  68.698  1.00  0.00    -0.273 OA 
ENDROOT
BRANCH   6  10
HETATM   10  C   UNL     1     -11.690   9.382  67.702  1.00  0.00     2.046 C  
HETATM   11  C   UNL     1     -12.147   8.241  67.174  1.00  0.00     5.680 C  
ENDBRANCH   6  10
BRANCH   7  12
HETATM   12  C   UNL     1     -12.834  13.445  65.998  1.00  0.00     0.008 C  
HETATM   13  N   UNL     1     -12.761  13.958  64.749  1.00  0.00    -0.685 N  
HETATM   14  O   UNL     1     -13.824  13.596  66.706  1.00  0.00     3.606 OA 
HETATM   15  H1  UNL     1     -13.569  14.488  64.424  1.00  0.00     0.000 HD 
HETATM   16  H2  UNL     1     -11.938  13.822  64.162  1.00  0.00     0.000 HD 
ENDBRANCH   7  12
TORSDOF 2
ENDMDL
MODEL      180
REMARK 921   NORMALIZED FREE ENERGY PREDICTED BY IDOCK:   22.18 KCAL/MOL
REMARK 922        TOTAL FREE ENERGY PREDICTED BY IDOCK:   24.37 KCAL/MOL
REMARK 923 INTER-LIGAND FREE ENERGY PREDICTED BY IDOCK:   23.76 KCAL/MOL
REMARK 924 INTRA-LIGAND FREE ENERGY PREDICTED BY IDOCK:    0.61 KCAL/MOL
REMARK 927      BINDING AFFINITY PREDICTED BY RF-SCORE:    0.00 PKD
ROOT
HETATM    1  C   UNL     1      -7.113  18.511  70.618  1.00  0.00     2.055 C  
HETATM    2  C   UNL     1      -7.259  19.183  69.247  1.00  0.00    -0.283 C  
HETATM    3  C   UNL     1      -5.881  19.747  68.860  1.00  0.00    -0.268 C  
HETATM    4  C   UNL     1      -7.819  18.220  68.152  1.00  0.00    -0.299 C  
HETATM    5  C   UNL     1      -8.052  18.967  66.827  1.00  0.00    -0.269 C  
HETATM    6  C   UNL     1      -9.122  17.486  68.553  1.00  0.00    -0.277 C  
HETATM    7  N   UNL     1      -8.302  18.145  65.739  1.00  0.00     0.155 N  
HETATM    8  H   UNL     1      -8.238  17.141  65.903  1.00  0.00     0.000 HD 
HETATM    9  O   UNL     1      -8.007  20.195  66.735  1.00  0.00    -0.294 OA 
ENDROOT
BRANCH   6  10
HETATM   10  C   UNL     1     -10.317  18.389  68.693  1.00  0.00    -0.286 C  
HETATM   11  C   UNL     1     -11.042  18.836  67.661  1.00  0.00    -0.067 C  
ENDBRANCH   6  10
BRANCH   7  12
HETATM   12  C   UNL     1      -8.626  18.536  64.470  1.00  0.00     6.318 C  
HETATM   13  N   UNL     1      -9.265  17.628  63.698  1.00  0.00    13.126 N  
HETATM   14  O   UNL     1      -8.356  19.660  64.062  1.00  0.00     4.153 OA 
HETATM   15  H1  UNL     1      -9.506  17.921  62.752  1.00  0.00     0.000 HD 
HETATM   16  H2  UNL     1      -9.495  16.697  64.046  1.00  0.00     0.000 HD 
ENDBRANCH   7  12
TORSDOF 2
ENDMDL
