MODEL        1
REMARK 921   NORMALIZED FREE ENERGY PREDICTED BY IDOCK:   -7.06 KCAL/MOL
REMARK 922        TOTAL FREE ENERGY PREDICTED BY IDOCK:  -11.56 KCAL/MOL
REMARK 923 INTER-LIGAND FREE ENERGY PREDICTED BY IDOCK:  -10.36 KCAL/MOL
REMARK 924 INTRA-LIGAND FREE ENERGY PREDICTED BY IDOCK:   -1.20 KCAL/MOL
REMARK 927      BINDING AFFINITY PREDICTED BY RF-SCORE:    0.00 PKD
ROOT
HETATM    1  O   UNL     1     -11.428  16.465  63.765  1.00  0.00    -1.590 OA 
HETATM    2  H   UNL     1     -11.854  17.312  63.835  1.00  0.00     0.000 HD 
HETATM    3  C   UNL     1     -11.285  15.892  65.071  1.00  0.00    -0.290 C  
ENDROOT
BRANCH   3   4
HETATM    4  C   UNL     1     -10.592  14.513  64.957  1.00  0.00    -0.437 C  
BRANCH   4   5
HETATM    5  N   UNL     1     -11.552  13.400  65.123  1.00  0.00    -0.301 NA 
HETATM    6  H   UNL     1     -11.115  12.492  64.967  1.00  0.00     0.000 HD 
BRANCH   5   7
HETATM    7  C   UNL     1     -12.196  13.481  66.439  1.00  0.00    -0.400 C  
BRANCH   7   8
HETATM    8  C   UNL     1     -11.679  12.361  67.346  1.00  0.00    -0.417 C  
BRANCH   8   9
HETATM    9  C   UNL     1     -11.726  12.790  68.815  1.00  0.00    -0.363 C  
BRANCH   9  10
HETATM   10  C   UNL     1     -11.867  14.308  68.959  1.00  0.00    -0.370 C  
BRANCH  10  11
HETATM   11  C   UNL     1     -12.164  14.688  70.390  1.00  0.00    -0.391 A  
HETATM   12  C   UNL     1     -12.999  13.885  71.181  1.00  0.00    -0.388 A  
HETATM   13  C   UNL     1     -13.318  14.263  72.487  1.00  0.00    -0.595 A  
HETATM   14  C   UNL     1     -12.803  15.449  73.001  1.00  0.00    -0.463 A  
HETATM   15  O   UNL     1     -13.103  15.865  74.264  1.00  0.00    -0.860 OA 
HETATM   16  C   UNL     1     -11.968  16.252  72.236  1.00  0.00    -0.605 A  
HETATM   17  H   UNL     1     -12.752  16.675  74.615  1.00  0.00     0.000 HD 
HETATM   18  C   UNL     1     -11.650  15.874  70.930  1.00  0.00    -0.456 A  
ENDBRANCH  10  11
ENDBRANCH   9  10
ENDBRANCH   8   9
ENDBRANCH   7   8
ENDBRANCH   5   7
ENDBRANCH   4   5
ENDBRANCH   3   4
BRANCH   3  19
HETATM   19  C   UNL     1     -10.499  16.831  65.964  1.00  0.00    -0.300 A  
HETATM   20  C   UNL     1     -10.658  18.225  65.881  1.00  0.00    -0.274 A  
HETATM   21  H   UNL     1      -7.602  18.986  68.988  1.00  0.00     0.000 HD 
HETATM   22  C   UNL     1      -9.563  16.308  66.877  1.00  0.00    -0.244 A  
HETATM   23  H   UNL     1      -9.499  20.992  67.197  1.00  0.00     0.000 HD 
HETATM   24  C   UNL     1      -9.898  19.060  66.692  1.00  0.00    -0.355 A  
HETATM   25  C   UNL     1      -8.803  17.152  67.690  1.00  0.00    -0.218 A  
HETATM   26  O   UNL     1     -10.018  20.421  66.642  1.00  0.00    -0.444 OA 
HETATM   27  C   UNL     1      -8.976  18.523  67.588  1.00  0.00    -0.271 A  
HETATM   28  O   UNL     1      -8.230  19.352  68.377  1.00  0.00    -0.325 OA 
ENDBRANCH   3  19
TORSDOF 8
ENDMDL
MODEL        2
REMARK 921   NORMALIZED FREE ENERGY PREDICTED BY IDOCK:   -6.85 KCAL/MOL
REMARK 922        TOTAL FREE ENERGY PREDICTED BY IDOCK:  -11.25 KCAL/MOL
REMARK 923 INTER-LIGAND FREE ENERGY PREDICTED BY IDOCK:   -9.87 KCAL/MOL
REMARK 924 INTRA-LIGAND FREE ENERGY PREDICTED BY IDOCK:   -1.39 KCAL/MOL
REMARK 927      BINDING AFFINITY PREDICTED BY RF-SCORE:    0.00 PKD
ROOT
HETATM    1  O   UNL     1     -13.387   9.630  70.475  1.00  0.00    -0.577 OA 
HETATM    2  H   UNL     1     -14.177   9.877  70.944  1.00  0.00     0.000 HD 
HETATM    3  C   UNL     1     -12.257  10.288  71.062  1.00  0.00    -0.384 C  
ENDROOT
BRANCH   3   4
HETATM    4  C   UNL     1     -10.972   9.886  70.300  1.00  0.00    -0.309 C  
BRANCH   4   5
HETATM    5  N   UNL     1     -11.237   8.836  69.291  1.00  0.00    -0.419 NA 
HETATM    6  H   UNL     1     -12.214   8.829  68.994  1.00  0.00     0.000 HD 
BRANCH   5   7
HETATM    7  C   UNL     1     -10.320   8.985  68.155  1.00  0.00    -0.214 C  
BRANCH   7   8
HETATM    8  C   UNL     1      -9.668  10.370  68.185  1.00  0.00    -0.165 C  
BRANCH   8   9
HETATM    9  C   UNL     1      -9.939  11.122  66.880  1.00  0.00    -0.230 C  
BRANCH   9  10
HETATM   10  C   UNL     1     -11.398  11.572  66.775  1.00  0.00    -0.309 C  
BRANCH  10  11
HETATM   11  C   UNL     1     -11.513  12.846  65.974  1.00  0.00    -0.384 A  
HETATM   12  C   UNL     1     -12.199  12.858  64.750  1.00  0.00    -0.499 A  
HETATM   13  C   UNL     1     -12.261  14.022  63.981  1.00  0.00    -0.395 A  
HETATM   14  C   UNL     1     -11.632  15.177  64.437  1.00  0.00    -0.271 A  
HETATM   15  O   UNL     1     -11.651  16.330  63.710  1.00  0.00    -1.539 OA 
HETATM   16  C   UNL     1     -10.956  15.187  65.650  1.00  0.00    -0.359 A  
HETATM   17  H   UNL     1     -11.222  17.118  64.021  1.00  0.00     0.000 HD 
HETATM   18  C   UNL     1     -10.894  14.022  66.417  1.00  0.00    -0.299 A  
ENDBRANCH  10  11
ENDBRANCH   9  10
ENDBRANCH   8   9
ENDBRANCH   7   8
ENDBRANCH   5   7
ENDBRANCH   4   5
ENDBRANCH   3   4
BRANCH   3  19
HETATM   19  C   UNL     1     -12.464  11.789  71.040  1.00  0.00    -0.411 A  
HETATM   20  C   UNL     1     -13.214  12.440  72.035  1.00  0.00    -0.514 A  
HETATM   21  H   UNL     1     -12.709  16.405  70.140  1.00  0.00     0.000 HD 
HETATM   22  C   UNL     1     -11.926  12.553  69.986  1.00  0.00    -0.372 A  
HETATM   23  H   UNL     1     -14.271  15.426  72.866  1.00  0.00     0.000 HD 
HETATM   24  C   UNL     1     -13.411  13.814  71.967  1.00  0.00    -0.470 A  
HETATM   25  C   UNL     1     -12.128  13.934  69.925  1.00  0.00    -0.406 A  
HETATM   26  O   UNL     1     -14.137  14.487  72.912  1.00  0.00    -0.476 OA 
HETATM   27  C   UNL     1     -12.872  14.552  70.916  1.00  0.00    -0.360 A  
HETATM   28  O   UNL     1     -13.077  15.901  70.856  1.00  0.00    -0.505 OA 
ENDBRANCH   3  19
TORSDOF 8
ENDMDL
MODEL        3
REMARK 921   NORMALIZED FREE ENERGY PREDICTED BY IDOCK:   -6.82 KCAL/MOL
REMARK 922        TOTAL FREE ENERGY PREDICTED BY IDOCK:  -11.21 KCAL/MOL
REMARK 923 INTER-LIGAND FREE ENERGY PREDICTED BY IDOCK:  -10.18 KCAL/MOL
REMARK 924 INTRA-LIGAND FREE ENERGY PREDICTED BY IDOCK:   -1.03 KCAL/MOL
REMARK 927      BINDING AFFINITY PREDICTED BY RF-SCORE:    0.00 PKD
ROOT
HETATM    1  O   UNL     1     -12.500  13.972  63.216  1.00  0.00    -1.139 OA 
HETATM    2  H   UNL     1     -13.213  14.540  63.487  1.00  0.00     0.000 HD 
HETATM    3  C   UNL     1     -11.986  13.273  64.356  1.00  0.00    -0.406 C  
ENDROOT
BRANCH   3   4
HETATM    4  C   UNL     1     -10.826  12.348  63.915  1.00  0.00    -0.420 C  
BRANCH   4   5
HETATM    5  N   UNL     1     -10.864  11.046  64.616  1.00  0.00    -0.251 NA 
HETATM    6  H   UNL     1     -10.827  10.261  63.965  1.00  0.00     0.000 HD 
BRANCH   5   7
HETATM    7  C   UNL     1      -9.793  10.981  65.617  1.00  0.00    -0.239 C  
BRANCH   7   8
HETATM    8  C   UNL     1     -10.157   9.975  66.712  1.00  0.00    -0.286 C  
BRANCH   8   9
HETATM    9  C   UNL     1     -11.080  10.617  67.750  1.00  0.00    -0.385 C  
BRANCH   9  10
HETATM   10  C   UNL     1     -10.381  10.792  69.101  1.00  0.00    -0.238 C  
BRANCH  10  11
HETATM   11  C   UNL     1     -11.270  10.335  70.231  1.00  0.00    -0.395 A  
HETATM   12  C   UNL     1     -11.144   9.041  70.758  1.00  0.00    -0.328 A  
HETATM   13  C   UNL     1     -12.001   8.597  71.767  1.00  0.00    -0.402 A  
HETATM   14  C   UNL     1     -12.990   9.450  72.248  1.00  0.00    -0.400 A  
HETATM   15  O   UNL     1     -13.860   9.052  73.219  1.00  0.00    -1.159 OA 
HETATM   16  C   UNL     1     -13.126  10.737  71.745  1.00  0.00    -0.573 A  
HETATM   17  H   UNL     1     -14.535   9.634  73.547  1.00  0.00     0.000 HD 
HETATM   18  C   UNL     1     -12.268  11.179  70.736  1.00  0.00    -0.484 A  
ENDBRANCH  10  11
ENDBRANCH   9  10
ENDBRANCH   8   9
ENDBRANCH   7   8
ENDBRANCH   5   7
ENDBRANCH   4   5
ENDBRANCH   3   4
BRANCH   3  19
HETATM   19  C   UNL     1     -11.530  14.264  65.408  1.00  0.00    -0.332 A  
HETATM   20  C   UNL     1     -10.728  15.369  65.075  1.00  0.00    -0.460 A  
HETATM   21  H   UNL     1     -10.476  16.739  69.273  1.00  0.00     0.000 HD 
HETATM   22  C   UNL     1     -11.884  14.063  66.757  1.00  0.00    -0.450 A  
HETATM   23  H   UNL     1      -9.226  17.924  66.469  1.00  0.00     0.000 HD 
HETATM   24  C   UNL     1     -10.301  16.241  66.069  1.00  0.00    -0.349 A  
HETATM   25  C   UNL     1     -11.451  14.944  67.751  1.00  0.00    -0.353 A  
HETATM   26  O   UNL     1      -9.518  17.327  65.790  1.00  0.00    -0.527 OA 
HETATM   27  C   UNL     1     -10.660  16.026  67.398  1.00  0.00    -0.316 A  
HETATM   28  O   UNL     1     -10.230  16.885  68.368  1.00  0.00    -0.284 OA 
ENDBRANCH   3  19
TORSDOF 8
ENDMDL
MODEL        4
REMARK 921   NORMALIZED FREE ENERGY PREDICTED BY IDOCK:   -6.67 KCAL/MOL
REMARK 922        TOTAL FREE ENERGY PREDICTED BY IDOCK:  -10.99 KCAL/MOL
REMARK 923 INTER-LIGAND FREE ENERGY PREDICTED BY IDOCK:   -9.96 KCAL/MOL
REMARK 924 INTRA-LIGAND FREE ENERGY PREDICTED BY IDOCK:   -1.03 KCAL/MOL
REMARK 927      BINDING AFFINITY PREDICTED BY RF-SCORE:    0.00 PKD
ROOT
HETATM    1  O   UNL     1      -8.967  13.383  68.714  1.00  0.00    -0.379 OA 
HETATM    2  H   UNL     1      -8.836  14.319  68.610  1.00  0.00     0.000 HD 
HETATM    3  C   UNL     1      -8.921  12.748  67.429  1.00  0.00    -0.195 C  
ENDROOT
BRANCH   3   4
HETATM    4  C   UNL     1      -9.133  11.224  67.599  1.00  0.00    -0.149 C  
BRANCH   4   5
HETATM    5  N   UNL     1      -9.165  10.829  69.024  1.00  0.00    -0.279 NA 
HETATM    6  H   UNL     1      -9.213  11.638  69.644  1.00  0.00     0.000 HD 
BRANCH   5   7
HETATM    7  C   UNL     1     -10.266   9.889  69.262  1.00  0.00    -0.209 C  
BRANCH   7   8
HETATM    8  C   UNL     1     -11.011  10.265  70.545  1.00  0.00    -0.343 C  
BRANCH   8   9
HETATM    9  C   UNL     1     -12.279  11.058  70.222  1.00  0.00    -0.447 C  
BRANCH   9  10
HETATM   10  C   UNL     1     -11.957  12.485  69.769  1.00  0.00    -0.359 C  
BRANCH  10  11
HETATM   11  C   UNL     1     -12.503  13.497  70.747  1.00  0.00    -0.428 A  
HETATM   12  C   UNL     1     -12.084  14.835  70.696  1.00  0.00    -0.374 A  
HETATM   13  C   UNL     1     -12.547  15.761  71.633  1.00  0.00    -0.521 A  
HETATM   14  C   UNL     1     -13.428  15.346  72.626  1.00  0.00    -0.529 A  
HETATM   15  O   UNL     1     -13.891  16.212  73.572  1.00  0.00    -0.868 OA 
HETATM   16  C   UNL     1     -13.861  14.028  72.689  1.00  0.00    -0.516 A  
HETATM   17  H   UNL     1     -14.492  15.929  74.251  1.00  0.00     0.000 HD 
HETATM   18  C   UNL     1     -13.397  13.103  71.752  1.00  0.00    -0.477 A  
ENDBRANCH  10  11
ENDBRANCH   9  10
ENDBRANCH   8   9
ENDBRANCH   7   8
ENDBRANCH   5   7
ENDBRANCH   4   5
ENDBRANCH   3   4
BRANCH   3  19
HETATM   19  C   UNL     1      -9.969  13.352  66.516  1.00  0.00    -0.286 A  
HETATM   20  C   UNL     1     -11.089  12.614  66.098  1.00  0.00    -0.327 A  
HETATM   21  H   UNL     1     -12.630  15.932  63.612  1.00  0.00     0.000 HD 
HETATM   22  C   UNL     1      -9.808  14.669  66.043  1.00  0.00    -0.347 A  
HETATM   23  H   UNL     1     -13.751  12.897  64.210  1.00  0.00     0.000 HD 
HETATM   24  C   UNL     1     -12.015  13.188  65.234  1.00  0.00    -0.398 A  
HETATM   25  C   UNL     1     -10.742  15.239  65.176  1.00  0.00    -0.455 A  
HETATM   26  O   UNL     1     -13.118  12.505  64.800  1.00  0.00    -0.853 OA 
HETATM   27  C   UNL     1     -11.838  14.491  64.777  1.00  0.00    -0.441 A  
HETATM   28  O   UNL     1     -12.750  15.043  63.923  1.00  0.00    -0.775 OA 
ENDBRANCH   3  19
TORSDOF 8
ENDMDL
MODEL        5
REMARK 921   NORMALIZED FREE ENERGY PREDICTED BY IDOCK:   -6.66 KCAL/MOL
REMARK 922        TOTAL FREE ENERGY PREDICTED BY IDOCK:  -10.98 KCAL/MOL
REMARK 923 INTER-LIGAND FREE ENERGY PREDICTED BY IDOCK:  -10.13 KCAL/MOL
REMARK 924 INTRA-LIGAND FREE ENERGY PREDICTED BY IDOCK:   -0.85 KCAL/MOL
REMARK 927      BINDING AFFINITY PREDICTED BY RF-SCORE:    0.00 PKD
ROOT
HETATM    1  O   UNL     1     -12.477  13.847  62.923  1.00  0.00    -1.034 OA 
HETATM    2  H   UNL     1     -13.185  14.436  63.160  1.00  0.00     0.000 HD 
HETATM    3  C   UNL     1     -12.083  13.086  64.071  1.00  0.00    -0.450 C  
ENDROOT
BRANCH   3   4
HETATM    4  C   UNL     1     -10.932  12.127  63.684  1.00  0.00    -0.461 C  
BRANCH   4   5
HETATM    5  N   UNL     1      -9.954  11.969  64.784  1.00  0.00    -0.345 NA 
HETATM    6  H   UNL     1     -10.039  12.711  65.479  1.00  0.00     0.000 HD 
BRANCH   5   7
HETATM    7  C   UNL     1     -10.082  10.637  65.384  1.00  0.00    -0.291 C  
BRANCH   7   8
HETATM    8  C   UNL     1      -9.586  10.663  66.832  1.00  0.00    -0.200 C  
BRANCH   8   9
HETATM    9  C   UNL     1     -10.755  10.504  67.807  1.00  0.00    -0.319 C  
BRANCH   9  10
HETATM   10  C   UNL     1     -10.374  10.936  69.226  1.00  0.00    -0.211 C  
BRANCH  10  11
HETATM   11  C   UNL     1     -11.380  10.431  70.232  1.00  0.00    -0.406 A  
HETATM   12  C   UNL     1     -12.317  11.304  70.802  1.00  0.00    -0.495 A  
HETATM   13  C   UNL     1     -13.213  10.850  71.773  1.00  0.00    -0.513 A  
HETATM   14  C   UNL     1     -13.167   9.519  72.175  1.00  0.00    -0.451 A  
HETATM   15  O   UNL     1     -14.010   9.037  73.133  1.00  0.00    -1.130 OA 
HETATM   16  C   UNL     1     -12.252   8.637  71.616  1.00  0.00    -0.388 A  
HETATM   17  H   UNL     1     -13.979   8.129  73.408  1.00  0.00     0.000 HD 
HETATM   18  C   UNL     1     -11.357   9.092  70.646  1.00  0.00    -0.323 A  
ENDBRANCH  10  11
ENDBRANCH   9  10
ENDBRANCH   8   9
ENDBRANCH   7   8
ENDBRANCH   5   7
ENDBRANCH   4   5
ENDBRANCH   3   4
BRANCH   3  19
HETATM   19  C   UNL     1     -11.670  14.018  65.193  1.00  0.00    -0.353 A  
HETATM   20  C   UNL     1     -10.882  15.155  64.947  1.00  0.00    -0.437 A  
HETATM   21  H   UNL     1     -10.752  16.267  69.227  1.00  0.00     0.000 HD 
HETATM   22  C   UNL     1     -12.051  13.728  66.517  1.00  0.00    -0.483 A  
HETATM   23  H   UNL     1      -9.461  17.644  66.532  1.00  0.00     0.000 HD 
HETATM   24  C   UNL     1     -10.495  15.972  66.003  1.00  0.00    -0.345 A  
HETATM   25  C   UNL     1     -11.659  14.553  67.574  1.00  0.00    -0.403 A  
HETATM   26  O   UNL     1      -9.726  17.086  65.810  1.00  0.00    -0.522 OA 
HETATM   27  C   UNL     1     -10.880  15.668  67.307  1.00  0.00    -0.298 A  
HETATM   28  O   UNL     1     -10.489  16.473  68.338  1.00  0.00    -0.274 OA 
ENDBRANCH   3  19
TORSDOF 8
ENDMDL
MODEL        6
REMARK 921   NORMALIZED FREE ENERGY PREDICTED BY IDOCK:   -6.66 KCAL/MOL
REMARK 922        TOTAL FREE ENERGY PREDICTED BY IDOCK:  -10.97 KCAL/MOL
REMARK 923 INTER-LIGAND FREE ENERGY PREDICTED BY IDOCK:   -9.56 KCAL/MOL
REMARK 924 INTRA-LIGAND FREE ENERGY PREDICTED BY IDOCK:   -1.42 KCAL/MOL
REMARK 927      BINDING AFFINITY PREDICTED BY RF-SCORE:    0.00 PKD
ROOT
HETATM    1  O   UNL     1      -8.653  16.963  65.725  1.00  0.00    -0.505 OA 
HETATM    2  H   UNL     1      -8.620  16.822  64.785  1.00  0.00     0.000 HD 
HETATM    3  C   UNL     1      -8.677  15.697  66.397  1.00  0.00    -0.318 C  
ENDROOT
BRANCH   3   4
HETATM    4  C   UNL     1      -8.730  15.926  67.927  1.00  0.00    -0.168 C  
BRANCH   4   5
HETATM    5  N   UNL     1      -9.132  17.311  68.261  1.00  0.00    -0.254 NA 
HETATM    6  H   UNL     1      -8.953  17.957  67.492  1.00  0.00     0.000 HD 
BRANCH   5   7
HETATM    7  C   UNL     1     -10.535  17.339  68.689  1.00  0.00    -0.356 C  
BRANCH   7   8
HETATM    8  C   UNL     1     -10.762  16.327  69.815  1.00  0.00    -0.345 C  
BRANCH   8   9
HETATM    9  C   UNL     1     -12.034  15.515  69.564  1.00  0.00    -0.372 C  
BRANCH   9  10
HETATM   10  C   UNL     1     -12.574  14.892  70.853  1.00  0.00    -0.403 C  
BRANCH  10  11
HETATM   11  C   UNL     1     -12.535  13.384  70.782  1.00  0.00    -0.418 A  
HETATM   12  C   UNL     1     -13.105  12.609  71.802  1.00  0.00    -0.461 A  
HETATM   13  C   UNL     1     -13.023  11.215  71.765  1.00  0.00    -0.526 A  
HETATM   14  C   UNL     1     -12.366  10.597  70.706  1.00  0.00    -0.376 A  
HETATM   15  O   UNL     1     -12.246   9.240  70.639  1.00  0.00    -0.465 OA 
HETATM   16  C   UNL     1     -11.803  11.347  69.682  1.00  0.00    -0.431 A  
HETATM   17  H   UNL     1     -11.797   8.818  69.916  1.00  0.00     0.000 HD 
HETATM   18  C   UNL     1     -11.885  12.741  69.721  1.00  0.00    -0.380 A  
ENDBRANCH  10  11
ENDBRANCH   9  10
ENDBRANCH   8   9
ENDBRANCH   7   8
ENDBRANCH   5   7
ENDBRANCH   4   5
ENDBRANCH   3   4
BRANCH   3  19
HETATM   19  C   UNL     1      -9.861  14.880  65.921  1.00  0.00    -0.362 A  
HETATM   20  C   UNL     1     -10.798  15.408  65.016  1.00  0.00    -0.462 A  
HETATM   21  H   UNL     1     -13.264  11.736  65.080  1.00  0.00     0.000 HD 
HETATM   22  C   UNL     1     -10.054  13.576  66.416  1.00  0.00    -0.294 A  
HETATM   23  H   UNL     1     -13.574  14.595  63.480  1.00  0.00     0.000 HD 
HETATM   24  C   UNL     1     -11.890  14.643  64.624  1.00  0.00    -0.452 A  
HETATM   25  C   UNL     1     -11.154  12.813  66.017  1.00  0.00    -0.315 A  
HETATM   26  O   UNL     1     -12.828  15.117  63.748  1.00  0.00    -0.636 OA 
HETATM   27  C   UNL     1     -12.065  13.355  65.125  1.00  0.00    -0.409 A  
HETATM   28  O   UNL     1     -13.145  12.614  64.738  1.00  0.00    -0.852 OA 
ENDBRANCH   3  19
TORSDOF 8
ENDMDL
MODEL        7
REMARK 921   NORMALIZED FREE ENERGY PREDICTED BY IDOCK:   -6.64 KCAL/MOL
REMARK 922        TOTAL FREE ENERGY PREDICTED BY IDOCK:  -10.94 KCAL/MOL
REMARK 923 INTER-LIGAND FREE ENERGY PREDICTED BY IDOCK:   -9.35 KCAL/MOL
REMARK 924 INTRA-LIGAND FREE ENERGY PREDICTED BY IDOCK:   -1.59 KCAL/MOL
REMARK 927      BINDING AFFINITY PREDICTED BY RF-SCORE:    0.00 PKD
ROOT
HETATM    1  O   UNL     1     -11.747  16.324  63.674  1.00  0.00    -1.447 OA 
HETATM    2  H   UNL     1     -11.718  15.612  63.045  1.00  0.00     0.000 HD 
HETATM    3  C   UNL     1     -10.743  16.119  64.676  1.00  0.00     0.002 C  
ENDROOT
BRANCH   3   4
HETATM    4  C   UNL     1     -10.790  17.278  65.699  1.00  0.00    -0.029 C  
BRANCH   4   5
HETATM    5  N   UNL     1      -9.435  17.757  66.050  1.00  0.00    -0.527 NA 
HETATM    6  H   UNL     1      -9.344  18.767  65.932  1.00  0.00     0.000 HD 
BRANCH   5   7
HETATM    7  C   UNL     1      -9.086  17.330  67.410  1.00  0.00    -0.226 C  
BRANCH   7   8
HETATM    8  C   UNL     1     -10.197  17.724  68.386  1.00  0.00    -0.384 C  
BRANCH   8   9
HETATM    9  C   UNL     1     -10.524  16.564  69.329  1.00  0.00    -0.326 C  
BRANCH   9  10
HETATM   10  C   UNL     1     -11.757  15.784  68.865  1.00  0.00    -0.404 C  
BRANCH  10  11
HETATM   11  C   UNL     1     -12.274  14.887  69.964  1.00  0.00    -0.381 A  
HETATM   12  C   UNL     1     -12.022  13.507  69.934  1.00  0.00    -0.416 A  
HETATM   13  C   UNL     1     -12.544  12.669  70.921  1.00  0.00    -0.338 A  
HETATM   14  C   UNL     1     -13.323  13.212  71.938  1.00  0.00    -0.455 A  
HETATM   15  O   UNL     1     -13.868  12.427  72.911  1.00  0.00    -0.527 OA 
HETATM   16  C   UNL     1     -13.576  14.576  71.989  1.00  0.00    -0.509 A  
HETATM   17  H   UNL     1     -14.400  12.798  73.605  1.00  0.00     0.000 HD 
HETATM   18  C   UNL     1     -13.054  15.414  71.002  1.00  0.00    -0.565 A  
ENDBRANCH  10  11
ENDBRANCH   9  10
ENDBRANCH   8   9
ENDBRANCH   7   8
ENDBRANCH   5   7
ENDBRANCH   4   5
ENDBRANCH   3   4
BRANCH   3  19
HETATM   19  C   UNL     1     -10.954  14.779  65.351  1.00  0.00    -0.365 A  
HETATM   20  C   UNL     1      -9.922  14.150  66.070  1.00  0.00    -0.340 A  
HETATM   21  H   UNL     1     -12.416  10.619  67.005  1.00  0.00     0.000 HD 
HETATM   22  C   UNL     1     -12.195  14.124  65.234  1.00  0.00    -0.440 A  
HETATM   23  H   UNL     1      -9.310  11.408  67.753  1.00  0.00     0.000 HD 
HETATM   24  C   UNL     1     -10.139  12.906  66.651  1.00  0.00    -0.245 A  
HETATM   25  C   UNL     1     -12.407  12.875  65.821  1.00  0.00    -0.437 A  
HETATM   26  O   UNL     1      -9.162  12.258  67.356  1.00  0.00    -0.172 OA 
HETATM   27  C   UNL     1     -11.374  12.275  66.523  1.00  0.00    -0.351 A  
HETATM   28  O   UNL     1     -11.574  11.049  67.092  1.00  0.00    -0.469 OA 
ENDBRANCH   3  19
TORSDOF 8
ENDMDL
MODEL        8
REMARK 921   NORMALIZED FREE ENERGY PREDICTED BY IDOCK:   -6.63 KCAL/MOL
REMARK 922        TOTAL FREE ENERGY PREDICTED BY IDOCK:  -10.94 KCAL/MOL
REMARK 923 INTER-LIGAND FREE ENERGY PREDICTED BY IDOCK:  -10.21 KCAL/MOL
REMARK 924 INTRA-LIGAND FREE ENERGY PREDICTED BY IDOCK:   -0.73 KCAL/MOL
REMARK 927      BINDING AFFINITY PREDICTED BY RF-SCORE:    0.00 PKD
ROOT
HETATM    1  O   UNL     1      -9.409  14.783  68.583  1.00  0.00    -0.189 OA 
HETATM    2  H   UNL     1      -9.007  14.019  68.185  1.00  0.00     0.000 HD 
HETATM    3  C   UNL     1     -10.836  14.665  68.509  1.00  0.00    -0.250 C  
ENDROOT
BRANCH   3   4
HETATM    4  C   UNL     1     -11.491  15.908  69.158  1.00  0.00    -0.377 C  
BRANCH   4   5
HETATM    5  N   UNL     1     -12.825  15.598  69.717  1.00  0.00    -0.575 NA 
HETATM    6  H   UNL     1     -13.273  14.823  69.228  1.00  0.00     0.000 HD 
BRANCH   5   7
HETATM    7  C   UNL     1     -12.722  15.351  71.160  1.00  0.00    -0.439 C  
BRANCH   7   8
HETATM    8  C   UNL     1     -13.899  14.494  71.632  1.00  0.00    -0.513 C  
BRANCH   8   9
HETATM    9  C   UNL     1     -13.413  13.126  72.114  1.00  0.00    -0.653 C  
BRANCH   9  10
HETATM   10  C   UNL     1     -12.719  12.342  70.997  1.00  0.00    -0.315 C  
BRANCH  10  11
HETATM   11  C   UNL     1     -12.649  10.872  71.333  1.00  0.00    -0.508 A  
HETATM   12  C   UNL     1     -11.480  10.139  71.079  1.00  0.00    -0.436 A  
HETATM   13  C   UNL     1     -11.432   8.768  71.339  1.00  0.00    -0.366 A  
HETATM   14  C   UNL     1     -12.557   8.128  71.850  1.00  0.00    -0.335 A  
HETATM   15  O   UNL     1     -12.559   6.788  72.101  1.00  0.00    -0.511 OA 
HETATM   16  C   UNL     1     -13.720   8.838  72.116  1.00  0.00    -0.498 A  
HETATM   17  H   UNL     1     -13.327   6.351  72.450  1.00  0.00     0.000 HD 
HETATM   18  C   UNL     1     -13.768  10.209  71.855  1.00  0.00    -0.201 A  
ENDBRANCH  10  11
ENDBRANCH   9  10
ENDBRANCH   8   9
ENDBRANCH   7   8
ENDBRANCH   5   7
ENDBRANCH   4   5
ENDBRANCH   3   4
BRANCH   3  19
HETATM   19  C   UNL     1     -11.267  14.505  67.065  1.00  0.00    -0.342 A  
HETATM   20  C   UNL     1     -11.129  15.553  66.139  1.00  0.00    -0.177 A  
HETATM   21  H   UNL     1     -12.965  13.207  62.869  1.00  0.00     0.000 HD 
HETATM   22  C   UNL     1     -11.853  13.296  66.641  1.00  0.00    -0.447 A  
HETATM   23  H   UNL     1     -11.748  16.262  63.002  1.00  0.00     0.000 HD 
HETATM   24  C   UNL     1     -11.564  15.384  64.830  1.00  0.00    -0.286 A  
HETATM   25  C   UNL     1     -12.287  13.133  65.324  1.00  0.00    -0.532 A  
HETATM   26  O   UNL     1     -11.451  16.377  63.897  1.00  0.00    -1.063 OA 
HETATM   27  C   UNL     1     -12.142  14.181  64.429  1.00  0.00    -0.463 A  
HETATM   28  O   UNL     1     -12.572  14.027  63.142  1.00  0.00    -0.733 OA 
ENDBRANCH   3  19
TORSDOF 8
ENDMDL
MODEL        9
REMARK 921   NORMALIZED FREE ENERGY PREDICTED BY IDOCK:   -6.61 KCAL/MOL
REMARK 922        TOTAL FREE ENERGY PREDICTED BY IDOCK:  -10.90 KCAL/MOL
REMARK 923 INTER-LIGAND FREE ENERGY PREDICTED BY IDOCK:   -9.73 KCAL/MOL
REMARK 924 INTRA-LIGAND FREE ENERGY PREDICTED BY IDOCK:   -1.18 KCAL/MOL
REMARK 927      BINDING AFFINITY PREDICTED BY RF-SCORE:    0.00 PKD
ROOT
HETATM    1  O   UNL     1     -11.830  10.392  68.275  1.00  0.00    -0.747 OA 
HETATM    2  H   UNL     1     -11.816   9.850  69.056  1.00  0.00     0.000 HD 
HETATM    3  C   UNL     1     -11.244  11.667  68.567  1.00  0.00    -0.256 C  
ENDROOT
BRANCH   3   4
HETATM    4  C   UNL     1     -11.267  12.549  67.296  1.00  0.00    -0.295 C  
BRANCH   4   5
HETATM    5  N   UNL     1     -12.012  11.904  66.192  1.00  0.00    -0.484 NA 
HETATM    6  H   UNL     1     -12.818  11.378  66.531  1.00  0.00     0.000 HD 
BRANCH   5   7
HETATM    7  C   UNL     1     -12.392  12.904  65.188  1.00  0.00    -0.493 C  
BRANCH   7   8
HETATM    8  C   UNL     1     -12.315  14.309  65.791  1.00  0.00    -0.420 C  
BRANCH   8   9
HETATM    9  C   UNL     1     -11.537  15.250  64.869  1.00  0.00    -0.289 C  
BRANCH   9  10
HETATM   10  C   UNL     1     -10.162  15.602  65.444  1.00  0.00    -0.401 C  
BRANCH  10  11
HETATM   11  C   UNL     1     -10.270  16.718  66.454  1.00  0.00    -0.329 A  
HETATM   12  C   UNL     1     -10.435  18.046  66.034  1.00  0.00    -0.317 A  
HETATM   13  C   UNL     1     -10.481  19.085  66.965  1.00  0.00    -0.514 A  
HETATM   14  C   UNL     1     -10.357  18.795  68.320  1.00  0.00    -0.338 A  
HETATM   15  O   UNL     1     -10.377  19.781  69.262  1.00  0.00    -0.636 OA 
HETATM   16  C   UNL     1     -10.200  17.486  68.757  1.00  0.00    -0.373 A  
HETATM   17  H   UNL     1     -10.292  19.583  70.187  1.00  0.00     0.000 HD 
HETATM   18  C   UNL     1     -10.154  16.448  67.825  1.00  0.00    -0.262 A  
ENDBRANCH  10  11
ENDBRANCH   9  10
ENDBRANCH   8   9
ENDBRANCH   7   8
ENDBRANCH   5   7
ENDBRANCH   4   5
ENDBRANCH   3   4
BRANCH   3  19
HETATM   19  C   UNL     1     -11.989  12.328  69.709  1.00  0.00    -0.365 A  
HETATM   20  C   UNL     1     -12.160  13.722  69.763  1.00  0.00    -0.400 A  
HETATM   21  H   UNL     1     -14.291  13.540  73.635  1.00  0.00     0.000 HD 
HETATM   22  C   UNL     1     -12.495  11.541  70.762  1.00  0.00    -0.444 A  
HETATM   23  H   UNL     1     -13.458  16.045  71.671  1.00  0.00     0.000 HD 
HETATM   24  C   UNL     1     -12.821  14.299  70.841  1.00  0.00    -0.347 A  
HETATM   25  C   UNL     1     -13.158  12.128  71.843  1.00  0.00    -0.475 A  
HETATM   26  O   UNL     1     -13.007  15.651  70.935  1.00  0.00    -0.482 OA 
HETATM   27  C   UNL     1     -13.313  13.504  71.874  1.00  0.00    -0.443 A  
HETATM   28  O   UNL     1     -13.955  14.082  72.932  1.00  0.00    -0.617 OA 
ENDBRANCH   3  19
TORSDOF 8
ENDMDL
MODEL       10
REMARK 921   NORMALIZED FREE ENERGY PREDICTED BY IDOCK:   -6.55 KCAL/MOL
REMARK 922        TOTAL FREE ENERGY PREDICTED BY IDOCK:  -10.81 KCAL/MOL
REMARK 923 INTER-LIGAND FREE ENERGY PREDICTED BY IDOCK:   -9.50 KCAL/MOL
REMARK 924 INTRA-LIGAND FREE ENERGY PREDICTED BY IDOCK:   -1.32 KCAL/MOL
REMARK 927      BINDING AFFINITY PREDICTED BY RF-SCORE:    0.00 PKD
ROOT
HETATM    1  O   UNL     1      -9.728  13.163  68.805  1.00  0.00    -0.402 OA 
HETATM    2  H   UNL     1      -9.014  13.164  68.178  1.00  0.00     0.000 HD 
HETATM    3  C   UNL     1     -10.727  12.221  68.392  1.00  0.00    -0.234 C  
ENDROOT
BRANCH   3   4
HETATM    4  C   UNL     1     -11.889  12.219  69.414  1.00  0.00    -0.310 C  
BRANCH   4   5
HETATM    5  N   UNL     1     -11.669  13.202  70.498  1.00  0.00    -0.525 NA 
HETATM    6  H   UNL     1     -10.852  13.787  70.324  1.00  0.00     0.000 HD 
BRANCH   5   7
HETATM    7  C   UNL     1     -12.882  14.002  70.706  1.00  0.00    -0.285 C  
BRANCH   7   8
HETATM    8  C   UNL     1     -12.529  15.491  70.742  1.00  0.00    -0.491 C  
BRANCH   8   9
HETATM    9  C   UNL     1     -11.997  15.953  69.383  1.00  0.00    -0.268 C  
BRANCH   9  10
HETATM   10  C   UNL     1     -10.586  16.536  69.495  1.00  0.00    -0.321 C  
BRANCH  10  11
HETATM   11  C   UNL     1     -10.358  17.600  68.449  1.00  0.00    -0.375 A  
HETATM   12  C   UNL     1     -10.020  18.909  68.826  1.00  0.00    -0.466 A  
HETATM   13  C   UNL     1      -9.862  19.907  67.862  1.00  0.00    -0.529 A  
HETATM   14  C   UNL     1     -10.045  19.596  66.518  1.00  0.00    -0.461 A  
HETATM   15  O   UNL     1      -9.919  20.544  65.546  1.00  0.00    -0.533 OA 
HETATM   16  C   UNL     1     -10.372  18.305  66.125  1.00  0.00    -0.414 A  
HETATM   17  H   UNL     1     -10.045  20.331  64.629  1.00  0.00     0.000 HD 
HETATM   18  C   UNL     1     -10.531  17.308  67.089  1.00  0.00    -0.297 A  
ENDBRANCH  10  11
ENDBRANCH   9  10
ENDBRANCH   8   9
ENDBRANCH   7   8
ENDBRANCH   5   7
ENDBRANCH   4   5
ENDBRANCH   3   4
BRANCH   3  19
HETATM   19  C   UNL     1     -11.217  12.564  67.000  1.00  0.00    -0.353 A  
HETATM   20  C   UNL     1     -10.794  11.838  65.874  1.00  0.00    -0.339 A  
HETATM   21  H   UNL     1     -13.114  14.370  63.086  1.00  0.00     0.000 HD 
HETATM   22  C   UNL     1     -12.090  13.655  66.816  1.00  0.00    -0.445 A  
HETATM   23  H   UNL     1     -11.153  11.769  62.620  1.00  0.00     0.000 HD 
HETATM   24  C   UNL     1     -11.238  12.199  64.608  1.00  0.00    -0.323 A  
HETATM   25  C   UNL     1     -12.533  14.012  65.541  1.00  0.00    -0.533 A  
HETATM   26  O   UNL     1     -10.849  11.522  63.485  1.00  0.00    -0.392 OA 
HETATM   27  C   UNL     1     -12.100  13.282  64.446  1.00  0.00    -0.415 A  
HETATM   28  O   UNL     1     -12.526  13.632  63.197  1.00  0.00    -0.786 OA 
ENDBRANCH   3  19
TORSDOF 8
ENDMDL
MODEL       11
REMARK 921   NORMALIZED FREE ENERGY PREDICTED BY IDOCK:   -6.53 KCAL/MOL
REMARK 922        TOTAL FREE ENERGY PREDICTED BY IDOCK:  -10.79 KCAL/MOL
REMARK 923 INTER-LIGAND FREE ENERGY PREDICTED BY IDOCK:   -9.57 KCAL/MOL
REMARK 924 INTRA-LIGAND FREE ENERGY PREDICTED BY IDOCK:   -1.22 KCAL/MOL
REMARK 927      BINDING AFFINITY PREDICTED BY RF-SCORE:    0.00 PKD
ROOT
HETATM    1  O   UNL     1      -9.804  12.740  64.039  1.00  0.00    -0.630 OA 
HETATM    2  H   UNL     1      -9.428  13.335  63.400  1.00  0.00     0.000 HD 
HETATM    3  C   UNL     1     -10.939  13.357  64.658  1.00  0.00    -0.377 C  
ENDROOT
BRANCH   3   4
HETATM    4  C   UNL     1     -11.550  12.388  65.698  1.00  0.00    -0.392 C  
BRANCH   4   5
HETATM    5  N   UNL     1     -10.647  11.253  65.989  1.00  0.00    -0.264 NA 
HETATM    6  H   UNL     1      -9.714  11.398  65.602  1.00  0.00     0.000 HD 
BRANCH   5   7
HETATM    7  C   UNL     1     -10.608  10.996  67.433  1.00  0.00    -0.237 C  
BRANCH   7   8
HETATM    8  C   UNL     1     -11.841  11.604  68.108  1.00  0.00    -0.315 C  
BRANCH   8   9
HETATM    9  C   UNL     1     -11.445  12.359  69.378  1.00  0.00    -0.336 C  
BRANCH   9  10
HETATM   10  C   UNL     1     -11.820  13.841  69.300  1.00  0.00    -0.392 C  
BRANCH  10  11
HETATM   11  C   UNL     1     -12.136  14.391  70.669  1.00  0.00    -0.404 A  
HETATM   12  C   UNL     1     -12.915  13.651  71.571  1.00  0.00    -0.443 A  
HETATM   13  C   UNL     1     -13.254  14.180  72.819  1.00  0.00    -0.604 A  
HETATM   14  C   UNL     1     -12.814  15.455  73.162  1.00  0.00    -0.493 A  
HETATM   15  O   UNL     1     -13.137  16.018  74.362  1.00  0.00    -0.895 OA 
HETATM   16  C   UNL     1     -12.036  16.199  72.286  1.00  0.00    -0.637 A  
HETATM   17  H   UNL     1     -12.838  16.888  74.596  1.00  0.00     0.000 HD 
HETATM   18  C   UNL     1     -11.698  15.669  71.040  1.00  0.00    -0.444 A  
ENDBRANCH  10  11
ENDBRANCH   9  10
ENDBRANCH   8   9
ENDBRANCH   7   8
ENDBRANCH   5   7
ENDBRANCH   4   5
ENDBRANCH   3   4
BRANCH   3  19
HETATM   19  C   UNL     1     -10.529  14.667  65.300  1.00  0.00    -0.420 A  
HETATM   20  C   UNL     1     -11.028  15.897  64.838  1.00  0.00    -0.427 A  
HETATM   21  H   UNL     1      -8.652  18.217  67.760  1.00  0.00     0.000 HD 
HETATM   22  C   UNL     1      -9.603  14.666  66.361  1.00  0.00    -0.323 A  
HETATM   23  H   UNL     1     -10.777  19.112  65.412  1.00  0.00     0.000 HD 
HETATM   24  C   UNL     1     -10.607  17.083  65.428  1.00  0.00    -0.134 A  
HETATM   25  C   UNL     1      -9.185  15.861  66.951  1.00  0.00    -0.247 A  
HETATM   26  O   UNL     1     -11.064  18.302  65.008  1.00  0.00    -0.614 OA 
HETATM   27  C   UNL     1      -9.689  17.061  66.476  1.00  0.00    -0.282 A  
HETATM   28  O   UNL     1      -9.277  18.232  67.045  1.00  0.00    -0.262 OA 
ENDBRANCH   3  19
TORSDOF 8
ENDMDL
MODEL       12
REMARK 921   NORMALIZED FREE ENERGY PREDICTED BY IDOCK:   -6.51 KCAL/MOL
REMARK 922        TOTAL FREE ENERGY PREDICTED BY IDOCK:  -10.76 KCAL/MOL
REMARK 923 INTER-LIGAND FREE ENERGY PREDICTED BY IDOCK:   -9.47 KCAL/MOL
REMARK 924 INTRA-LIGAND FREE ENERGY PREDICTED BY IDOCK:   -1.29 KCAL/MOL
REMARK 927      BINDING AFFINITY PREDICTED BY RF-SCORE:    0.00 PKD
ROOT
HETATM    1  O   UNL     1     -13.095  13.584  64.971  1.00  0.00    -0.736 OA 
HETATM    2  H   UNL     1     -13.865  13.527  65.526  1.00  0.00     0.000 HD 
HETATM    3  C   UNL     1     -11.941  13.168  65.711  1.00  0.00    -0.423 C  
ENDROOT
BRANCH   3   4
HETATM    4  C   UNL     1     -10.688  13.260  64.808  1.00  0.00    -0.378 C  
BRANCH   4   5
HETATM    5  N   UNL     1      -9.802  12.087  64.976  1.00  0.00    -0.366 NA 
HETATM    6  H   UNL     1      -8.930  12.331  65.447  1.00  0.00     0.000 HD 
BRANCH   5   7
HETATM    7  C   UNL     1     -10.517  11.009  65.669  1.00  0.00    -0.230 C  
BRANCH   7   8
HETATM    8  C   UNL     1      -9.827  10.690  66.998  1.00  0.00    -0.222 C  
BRANCH   8   9
HETATM    9  C   UNL     1     -10.829  10.119  68.004  1.00  0.00    -0.320 C  
BRANCH   9  10
HETATM   10  C   UNL     1     -10.235  10.035  69.412  1.00  0.00    -0.239 C  
BRANCH  10  11
HETATM   11  C   UNL     1     -11.312   9.774  70.437  1.00  0.00    -0.362 A  
HETATM   12  C   UNL     1     -12.231  10.779  70.775  1.00  0.00    -0.480 A  
HETATM   13  C   UNL     1     -13.194  10.557  71.762  1.00  0.00    -0.522 A  
HETATM   14  C   UNL     1     -13.236   9.329  72.414  1.00  0.00    -0.426 A  
HETATM   15  O   UNL     1     -14.147   9.076  73.396  1.00  0.00    -1.231 OA 
HETATM   16  C   UNL     1     -12.340   8.319  72.087  1.00  0.00    -0.410 A  
HETATM   17  H   UNL     1     -14.175   8.238  73.841  1.00  0.00     0.000 HD 
HETATM   18  C   UNL     1     -11.377   8.542  71.101  1.00  0.00    -0.319 A  
ENDBRANCH  10  11
ENDBRANCH   9  10
ENDBRANCH   8   9
ENDBRANCH   7   8
ENDBRANCH   5   7
ENDBRANCH   4   5
ENDBRANCH   3   4
BRANCH   3  19
HETATM   19  C   UNL     1     -11.788  14.022  66.954  1.00  0.00    -0.458 A  
HETATM   20  C   UNL     1     -11.275  15.329  66.886  1.00  0.00    -0.256 A  
HETATM   21  H   UNL     1     -11.535  15.901  71.265  1.00  0.00     0.000 HD 
HETATM   22  C   UNL     1     -12.132  13.492  68.213  1.00  0.00    -0.295 A  
HETATM   23  H   UNL     1     -10.514  17.857  68.824  1.00  0.00     0.000 HD 
HETATM   24  C   UNL     1     -11.118  16.074  68.049  1.00  0.00    -0.334 A  
HETATM   25  C   UNL     1     -11.973  14.246  69.377  1.00  0.00    -0.381 A  
HETATM   26  O   UNL     1     -10.621  17.347  68.029  1.00  0.00    -0.371 OA 
HETATM   27  C   UNL     1     -11.463  15.532  69.285  1.00  0.00    -0.340 A  
HETATM   28  O   UNL     1     -11.299  16.270  70.422  1.00  0.00    -0.371 OA 
ENDBRANCH   3  19
TORSDOF 8
ENDMDL
MODEL       13
REMARK 921   NORMALIZED FREE ENERGY PREDICTED BY IDOCK:   -6.49 KCAL/MOL
REMARK 922        TOTAL FREE ENERGY PREDICTED BY IDOCK:  -10.73 KCAL/MOL
REMARK 923 INTER-LIGAND FREE ENERGY PREDICTED BY IDOCK:   -9.60 KCAL/MOL
REMARK 924 INTRA-LIGAND FREE ENERGY PREDICTED BY IDOCK:   -1.13 KCAL/MOL
REMARK 927      BINDING AFFINITY PREDICTED BY RF-SCORE:    0.00 PKD
ROOT
HETATM    1  O   UNL     1     -12.361  11.368  63.180  1.00  0.00    -0.895 OA 
HETATM    2  H   UNL     1     -13.167  11.793  63.451  1.00  0.00     0.000 HD 
HETATM    3  C   UNL     1     -11.383  11.490  64.221  1.00  0.00    -0.242 C  
ENDROOT
BRANCH   3   4
HETATM    4  C   UNL     1     -10.071  10.800  63.781  1.00  0.00    -0.327 C  
BRANCH   4   5
HETATM    5  N   UNL     1      -9.854   9.522  64.496  1.00  0.00    -0.325 NA 
HETATM    6  H   UNL     1      -9.158   8.938  64.032  1.00  0.00     0.000 HD 
BRANCH   5   7
HETATM    7  C   UNL     1      -9.509   9.782  65.898  1.00  0.00    -0.226 C  
BRANCH   7   8
HETATM    8  C   UNL     1     -10.480   9.045  66.823  1.00  0.00    -0.270 C  
BRANCH   8   9
HETATM    9  C   UNL     1     -10.592   9.761  68.171  1.00  0.00    -0.276 C  
BRANCH   9  10
HETATM   10  C   UNL     1     -11.297  11.113  68.039  1.00  0.00    -0.380 C  
BRANCH  10  11
HETATM   11  C   UNL     1     -11.839  11.571  69.371  1.00  0.00    -0.417 A  
HETATM   12  C   UNL     1     -12.372  10.644  70.280  1.00  0.00    -0.406 A  
HETATM   13  C   UNL     1     -12.923  11.072  71.490  1.00  0.00    -0.553 A  
HETATM   14  C   UNL     1     -12.942  12.430  71.790  1.00  0.00    -0.316 A  
HETATM   15  O   UNL     1     -13.487  12.893  72.951  1.00  0.00    -0.626 OA 
HETATM   16  C   UNL     1     -12.412  13.362  70.908  1.00  0.00    -0.439 A  
HETATM   17  H   UNL     1     -13.501  13.820  73.156  1.00  0.00     0.000 HD 
HETATM   18  C   UNL     1     -11.863  12.934  69.698  1.00  0.00    -0.387 A  
ENDBRANCH  10  11
ENDBRANCH   9  10
ENDBRANCH   8   9
ENDBRANCH   7   8
ENDBRANCH   5   7
ENDBRANCH   4   5
ENDBRANCH   3   4
BRANCH   3  19
HETATM   19  C   UNL     1     -11.154  12.953  64.547  1.00  0.00    -0.373 A  
HETATM   20  C   UNL     1     -11.997  13.957  64.039  1.00  0.00    -0.425 A  
HETATM   21  H   UNL     1      -9.657  17.196  65.937  1.00  0.00     0.000 HD 
HETATM   22  C   UNL     1     -10.056  13.327  65.345  1.00  0.00    -0.267 A  
HETATM   23  H   UNL     1     -12.356  17.212  64.056  1.00  0.00     0.000 HD 
HETATM   24  C   UNL     1     -11.740  15.291  64.331  1.00  0.00    -0.285 A  
HETATM   25  C   UNL     1      -9.804  14.670  65.635  1.00  0.00    -0.354 A  
HETATM   26  O   UNL     1     -12.532  16.300  63.856  1.00  0.00    -0.774 OA 
HETATM   27  C   UNL     1     -10.648  15.642  65.122  1.00  0.00    -0.424 A  
HETATM   28  O   UNL     1     -10.400  16.957  65.397  1.00  0.00    -0.609 OA 
ENDBRANCH   3  19
TORSDOF 8
ENDMDL
MODEL       14
REMARK 921   NORMALIZED FREE ENERGY PREDICTED BY IDOCK:   -6.44 KCAL/MOL
REMARK 922        TOTAL FREE ENERGY PREDICTED BY IDOCK:  -10.65 KCAL/MOL
REMARK 923 INTER-LIGAND FREE ENERGY PREDICTED BY IDOCK:   -9.66 KCAL/MOL
REMARK 924 INTRA-LIGAND FREE ENERGY PREDICTED BY IDOCK:   -1.00 KCAL/MOL
REMARK 927      BINDING AFFINITY PREDICTED BY RF-SCORE:    0.00 PKD
ROOT
HETATM    1  O   UNL     1      -8.070  11.117  65.741  1.00  0.00    -0.330 OA 
HETATM    2  H   UNL     1      -7.648  11.813  65.249  1.00  0.00     0.000 HD 
HETATM    3  C   UNL     1      -9.214  10.646  65.018  1.00  0.00    -0.211 C  
ENDROOT
BRANCH   3   4
HETATM    4  C   UNL     1      -9.900   9.513  65.819  1.00  0.00    -0.293 C  
BRANCH   4   5
HETATM    5  N   UNL     1      -9.603   9.605  67.265  1.00  0.00    -0.159 NA 
HETATM    6  H   UNL     1      -8.810  10.218  67.455  1.00  0.00     0.000 HD 
BRANCH   5   7
HETATM    7  C   UNL     1     -10.804  10.017  68.001  1.00  0.00    -0.260 C  
BRANCH   7   8
HETATM    8  C   UNL     1     -10.440  11.063  69.057  1.00  0.00    -0.242 C  
BRANCH   8   9
HETATM    9  C   UNL     1     -11.700  11.716  69.629  1.00  0.00    -0.418 C  
BRANCH   9  10
HETATM   10  C   UNL     1     -11.724  13.225  69.376  1.00  0.00    -0.383 C  
BRANCH  10  11
HETATM   11  C   UNL     1     -12.154  13.974  70.614  1.00  0.00    -0.424 A  
HETATM   12  C   UNL     1     -11.569  15.205  70.941  1.00  0.00    -0.380 A  
HETATM   13  C   UNL     1     -11.927  15.873  72.114  1.00  0.00    -0.612 A  
HETATM   14  C   UNL     1     -12.871  15.305  72.963  1.00  0.00    -0.469 A  
HETATM   15  O   UNL     1     -13.237  15.913  74.128  1.00  0.00    -0.837 OA 
HETATM   16  C   UNL     1     -13.468  14.090  72.652  1.00  0.00    -0.650 A  
HETATM   17  H   UNL     1     -13.881  15.525  74.707  1.00  0.00     0.000 HD 
HETATM   18  C   UNL     1     -13.109  13.423  71.480  1.00  0.00    -0.427 A  
ENDBRANCH  10  11
ENDBRANCH   9  10
ENDBRANCH   8   9
ENDBRANCH   7   8
ENDBRANCH   5   7
ENDBRANCH   4   5
ENDBRANCH   3   4
BRANCH   3  19
HETATM   19  C   UNL     1     -10.170  11.794  64.758  1.00  0.00    -0.324 A  
HETATM   20  C   UNL     1     -10.176  12.940  65.572  1.00  0.00    -0.299 A  
HETATM   21  H   UNL     1     -13.515  14.786  63.333  1.00  0.00     0.000 HD 
HETATM   22  C   UNL     1     -11.098  11.704  63.703  1.00  0.00    -0.506 A  
HETATM   23  H   UNL     1     -11.753  15.789  65.924  1.00  0.00     0.000 HD 
HETATM   24  C   UNL     1     -11.087  13.960  65.325  1.00  0.00    -0.318 A  
HETATM   25  C   UNL     1     -12.011  12.734  63.461  1.00  0.00    -0.633 A  
HETATM   26  O   UNL     1     -11.130  15.091  66.093  1.00  0.00    -0.336 OA 
HETATM   27  C   UNL     1     -11.999  13.853  64.277  1.00  0.00    -0.444 A  
HETATM   28  O   UNL     1     -12.894  14.859  64.048  1.00  0.00    -0.701 OA 
ENDBRANCH   3  19
TORSDOF 8
ENDMDL
MODEL       15
REMARK 921   NORMALIZED FREE ENERGY PREDICTED BY IDOCK:   -6.43 KCAL/MOL
REMARK 922        TOTAL FREE ENERGY PREDICTED BY IDOCK:  -10.64 KCAL/MOL
REMARK 923 INTER-LIGAND FREE ENERGY PREDICTED BY IDOCK:   -9.37 KCAL/MOL
REMARK 924 INTRA-LIGAND FREE ENERGY PREDICTED BY IDOCK:   -1.27 KCAL/MOL
REMARK 927      BINDING AFFINITY PREDICTED BY RF-SCORE:    0.00 PKD
ROOT
HETATM    1  O   UNL     1     -13.798  13.037  72.892  1.00  0.00    -0.658 OA 
HETATM    2  H   UNL     1     -14.388  12.310  73.053  1.00  0.00     0.000 HD 
HETATM    3  C   UNL     1     -13.387  13.026  71.519  1.00  0.00    -0.199 C  
ENDROOT
BRANCH   3   4
HETATM    4  C   UNL     1     -12.426  14.210  71.258  1.00  0.00    -0.370 C  
BRANCH   4   5
HETATM    5  N   UNL     1     -13.042  15.236  70.387  1.00  0.00    -0.676 NA 
HETATM    6  H   UNL     1     -13.521  15.957  70.926  1.00  0.00     0.000 HD 
BRANCH   5   7
HETATM    7  C   UNL     1     -12.034  15.803  69.485  1.00  0.00    -0.310 C  
BRANCH   7   8
HETATM    8  C   UNL     1     -10.780  14.924  69.479  1.00  0.00    -0.256 C  
BRANCH   8   9
HETATM    9  C   UNL     1     -10.532  14.346  68.085  1.00  0.00    -0.237 C  
BRANCH   9  10
HETATM   10  C   UNL     1     -11.842  14.064  67.344  1.00  0.00    -0.445 C  
BRANCH  10  11
HETATM   11  C   UNL     1     -11.602  13.190  66.137  1.00  0.00    -0.396 A  
HETATM   12  C   UNL     1     -10.426  12.433  66.029  1.00  0.00    -0.281 A  
HETATM   13  C   UNL     1     -10.179  11.666  64.889  1.00  0.00    -0.315 A  
HETATM   14  C   UNL     1     -11.108  11.659  63.854  1.00  0.00    -0.401 A  
HETATM   15  O   UNL     1     -10.898  10.939  62.715  1.00  0.00    -0.750 OA 
HETATM   16  C   UNL     1     -12.282  12.395  63.946  1.00  0.00    -0.603 A  
HETATM   17  H   UNL     1     -11.533  10.934  62.008  1.00  0.00     0.000 HD 
HETATM   18  C   UNL     1     -12.529  13.162  65.086  1.00  0.00    -0.539 A  
ENDBRANCH  10  11
ENDBRANCH   9  10
ENDBRANCH   8   9
ENDBRANCH   7   8
ENDBRANCH   5   7
ENDBRANCH   4   5
ENDBRANCH   3   4
BRANCH   3  19
HETATM   19  C   UNL     1     -12.730  11.700  71.188  1.00  0.00    -0.426 A  
HETATM   20  C   UNL     1     -12.988  10.545  71.946  1.00  0.00    -0.553 A  
HETATM   21  H   UNL     1     -10.194   8.082  69.559  1.00  0.00     0.000 HD 
HETATM   22  C   UNL     1     -11.815  11.622  70.120  1.00  0.00    -0.428 A  
HETATM   23  H   UNL     1     -12.124   7.392  72.134  1.00  0.00     0.000 HD 
HETATM   24  C   UNL     1     -12.344   9.353  71.635  1.00  0.00    -0.385 A  
HETATM   25  C   UNL     1     -11.172  10.421  69.812  1.00  0.00    -0.353 A  
HETATM   26  O   UNL     1     -12.563   8.207  72.347  1.00  0.00    -0.302 OA 
HETATM   27  C   UNL     1     -11.441   9.296  70.575  1.00  0.00    -0.248 A  
HETATM   28  O   UNL     1     -10.810   8.121  70.282  1.00  0.00    -0.240 OA 
ENDBRANCH   3  19
TORSDOF 8
ENDMDL
MODEL       16
REMARK 921   NORMALIZED FREE ENERGY PREDICTED BY IDOCK:   -6.42 KCAL/MOL
REMARK 922        TOTAL FREE ENERGY PREDICTED BY IDOCK:  -10.62 KCAL/MOL
REMARK 923 INTER-LIGAND FREE ENERGY PREDICTED BY IDOCK:   -9.44 KCAL/MOL
REMARK 924 INTRA-LIGAND FREE ENERGY PREDICTED BY IDOCK:   -1.18 KCAL/MOL
REMARK 927      BINDING AFFINITY PREDICTED BY RF-SCORE:    0.00 PKD
ROOT
HETATM    1  O   UNL     1     -10.582  10.715  66.171  1.00  0.00    -0.219 OA 
HETATM    2  H   UNL     1     -11.482  10.733  65.865  1.00  0.00     0.000 HD 
HETATM    3  C   UNL     1     -10.330  11.868  66.984  1.00  0.00    -0.212 C  
ENDROOT
BRANCH   3   4
HETATM    4  C   UNL     1      -8.866  11.838  67.483  1.00  0.00    -0.162 C  
BRANCH   4   5
HETATM    5  N   UNL     1      -8.785  11.561  68.935  1.00  0.00    -0.368 NA 
HETATM    6  H   UNL     1      -9.563  11.978  69.447  1.00  0.00     0.000 HD 
BRANCH   5   7
HETATM    7  C   UNL     1      -8.687  10.116  69.168  1.00  0.00    -0.170 C  
BRANCH   7   8
HETATM    8  C   UNL     1      -9.617   9.703  70.312  1.00  0.00    -0.307 C  
BRANCH   8   9
HETATM    9  C   UNL     1     -11.075  10.001  69.956  1.00  0.00    -0.350 C  
BRANCH   9  10
HETATM   10  C   UNL     1     -11.904  10.343  71.197  1.00  0.00    -0.432 C  
BRANCH  10  11
HETATM   11  C   UNL     1     -12.415  11.762  71.129  1.00  0.00    -0.390 A  
HETATM   12  C   UNL     1     -12.024  12.611  70.083  1.00  0.00    -0.375 A  
HETATM   13  C   UNL     1     -12.452  13.939  70.048  1.00  0.00    -0.325 A  
HETATM   14  C   UNL     1     -13.271  14.421  71.064  1.00  0.00    -0.333 A  
HETATM   15  O   UNL     1     -13.697  15.716  71.079  1.00  0.00    -0.749 OA 
HETATM   16  C   UNL     1     -13.675  13.595  72.104  1.00  0.00    -0.649 A  
HETATM   17  H   UNL     1     -14.255  16.045  71.773  1.00  0.00     0.000 HD 
HETATM   18  C   UNL     1     -13.246  12.266  72.139  1.00  0.00    -0.466 A  
ENDBRANCH  10  11
ENDBRANCH   9  10
ENDBRANCH   8   9
ENDBRANCH   7   8
ENDBRANCH   5   7
ENDBRANCH   4   5
ENDBRANCH   3   4
BRANCH   3  19
HETATM   19  C   UNL     1     -10.618  13.130  66.195  1.00  0.00    -0.288 A  
HETATM   20  C   UNL     1      -9.802  14.268  66.312  1.00  0.00    -0.323 A  
HETATM   21  H   UNL     1     -12.292  16.617  63.510  1.00  0.00     0.000 HD 
HETATM   22  C   UNL     1     -11.743  13.184  65.350  1.00  0.00    -0.383 A  
HETATM   23  H   UNL     1      -9.559  17.338  65.196  1.00  0.00     0.000 HD 
HETATM   24  C   UNL     1     -10.112  15.420  65.598  1.00  0.00    -0.376 A  
HETATM   25  C   UNL     1     -12.049  14.345  64.636  1.00  0.00    -0.485 A  
HETATM   26  O   UNL     1      -9.347  16.551  65.684  1.00  0.00    -0.490 OA 
HETATM   27  C   UNL     1     -11.230  15.455  64.768  1.00  0.00    -0.395 A  
HETATM   28  O   UNL     1     -11.530  16.594  64.076  1.00  0.00    -1.192 OA 
ENDBRANCH   3  19
TORSDOF 8
ENDMDL
MODEL       17
REMARK 921   NORMALIZED FREE ENERGY PREDICTED BY IDOCK:   -6.41 KCAL/MOL
REMARK 922        TOTAL FREE ENERGY PREDICTED BY IDOCK:  -10.62 KCAL/MOL
REMARK 923 INTER-LIGAND FREE ENERGY PREDICTED BY IDOCK:   -9.65 KCAL/MOL
REMARK 924 INTRA-LIGAND FREE ENERGY PREDICTED BY IDOCK:   -0.96 KCAL/MOL
REMARK 927      BINDING AFFINITY PREDICTED BY RF-SCORE:    0.00 PKD
ROOT
HETATM    1  O   UNL     1     -10.932  13.539  69.389  1.00  0.00    -0.408 OA 
HETATM    2  H   UNL     1     -11.856  13.760  69.428  1.00  0.00     0.000 HD 
HETATM    3  C   UNL     1     -10.262  14.443  68.501  1.00  0.00    -0.243 C  
ENDROOT
BRANCH   3   4
HETATM    4  C   UNL     1      -8.758  14.083  68.437  1.00  0.00    -0.179 C  
BRANCH   4   5
HETATM    5  N   UNL     1      -8.500  12.965  67.503  1.00  0.00    -0.174 NA 
HETATM    6  H   UNL     1      -7.745  13.178  66.851  1.00  0.00     0.000 HD 
BRANCH   5   7
HETATM    7  C   UNL     1      -8.244  11.730  68.254  1.00  0.00    -0.157 C  
BRANCH   7   8
HETATM    8  C   UNL     1      -8.912  10.543  67.556  1.00  0.00    -0.137 C  
BRANCH   8   9
HETATM    9  C   UNL     1     -10.043   9.976  68.418  1.00  0.00    -0.186 C  
BRANCH   9  10
HETATM   10  C   UNL     1      -9.669   9.951  69.902  1.00  0.00    -0.274 C  
BRANCH  10  11
HETATM   11  C   UNL     1     -10.874   9.643  70.757  1.00  0.00    -0.400 A  
HETATM   12  C   UNL     1     -12.030  10.433  70.668  1.00  0.00    -0.448 A  
HETATM   13  C   UNL     1     -13.126  10.184  71.497  1.00  0.00    -0.529 A  
HETATM   14  C   UNL     1     -13.064   9.143  72.418  1.00  0.00    -0.423 A  
HETATM   15  O   UNL     1     -14.104   8.876  73.259  1.00  0.00    -1.211 OA 
HETATM   16  C   UNL     1     -11.932   8.345  72.515  1.00  0.00    -0.418 A  
HETATM   17  H   UNL     1     -14.061   8.167  73.889  1.00  0.00     0.000 HD 
HETATM   18  C   UNL     1     -10.836   8.596  71.687  1.00  0.00    -0.374 A  
ENDBRANCH  10  11
ENDBRANCH   9  10
ENDBRANCH   8   9
ENDBRANCH   7   8
ENDBRANCH   5   7
ENDBRANCH   4   5
ENDBRANCH   3   4
BRANCH   3  19
HETATM   19  C   UNL     1     -10.901  14.388  67.128  1.00  0.00    -0.292 A  
HETATM   20  C   UNL     1     -10.769  15.450  66.216  1.00  0.00    -0.312 A  
HETATM   21  H   UNL     1     -13.289  13.452  63.179  1.00  0.00     0.000 HD 
HETATM   22  C   UNL     1     -11.673  13.270  66.761  1.00  0.00    -0.434 A  
HETATM   23  H   UNL     1     -11.722  16.345  63.213  1.00  0.00     0.000 HD 
HETATM   24  C   UNL     1     -11.394  15.381  64.977  1.00  0.00    -0.333 A  
HETATM   25  C   UNL     1     -12.299  13.207  65.514  1.00  0.00    -0.529 A  
HETATM   26  O   UNL     1     -11.295  16.392  64.061  1.00  0.00    -0.964 OA 
HETATM   27  C   UNL     1     -12.155  14.267  64.632  1.00  0.00    -0.463 A  
HETATM   28  O   UNL     1     -12.771  14.212  63.414  1.00  0.00    -0.767 OA 
ENDBRANCH   3  19
TORSDOF 8
ENDMDL
MODEL       18
REMARK 921   NORMALIZED FREE ENERGY PREDICTED BY IDOCK:   -6.40 KCAL/MOL
REMARK 922        TOTAL FREE ENERGY PREDICTED BY IDOCK:  -10.60 KCAL/MOL
REMARK 923 INTER-LIGAND FREE ENERGY PREDICTED BY IDOCK:   -9.47 KCAL/MOL
REMARK 924 INTRA-LIGAND FREE ENERGY PREDICTED BY IDOCK:   -1.14 KCAL/MOL
REMARK 927      BINDING AFFINITY PREDICTED BY RF-SCORE:    0.00 PKD
ROOT
HETATM    1  O   UNL     1      -9.384  15.137  68.582  1.00  0.00    -0.184 OA 
HETATM    2  H   UNL     1      -9.005  14.341  68.227  1.00  0.00     0.000 HD 
HETATM    3  C   UNL     1     -10.813  15.063  68.505  1.00  0.00    -0.250 C  
ENDROOT
BRANCH   3   4
HETATM    4  C   UNL     1     -11.429  16.360  69.082  1.00  0.00    -0.188 C  
BRANCH   4   5
HETATM    5  N   UNL     1     -12.558  16.074  69.994  1.00  0.00    -0.558 NA 
HETATM    6  H   UNL     1     -13.098  15.262  69.691  1.00  0.00     0.000 HD 
BRANCH   5   7
HETATM    7  C   UNL     1     -12.070  15.926  71.370  1.00  0.00    -0.452 C  
BRANCH   7   8
HETATM    8  C   UNL     1     -13.199  15.433  72.278  1.00  0.00    -0.515 C  
BRANCH   8   9
HETATM    9  C   UNL     1     -12.856  14.065  72.873  1.00  0.00    -0.365 C  
BRANCH   9  10
HETATM   10  C   UNL     1     -13.785  12.968  72.349  1.00  0.00    -0.593 C  
BRANCH  10  11
HETATM   11  C   UNL     1     -13.010  11.924  71.583  1.00  0.00    -0.447 A  
HETATM   12  C   UNL     1     -12.924  10.607  72.061  1.00  0.00    -0.466 A  
HETATM   13  C   UNL     1     -12.163   9.653  71.382  1.00  0.00    -0.471 A  
HETATM   14  C   UNL     1     -11.483  10.019  70.225  1.00  0.00    -0.300 A  
HETATM   15  O   UNL     1     -10.713   9.125  69.541  1.00  0.00    -0.228 OA 
HETATM   16  C   UNL     1     -11.561  11.315  69.732  1.00  0.00    -0.408 A  
HETATM   17  H   UNL     1     -10.248   9.374  68.752  1.00  0.00     0.000 HD 
HETATM   18  C   UNL     1     -12.322  12.268  70.412  1.00  0.00    -0.309 A  
ENDBRANCH  10  11
ENDBRANCH   9  10
ENDBRANCH   8   9
ENDBRANCH   7   8
ENDBRANCH   5   7
ENDBRANCH   4   5
ENDBRANCH   3   4
BRANCH   3  19
HETATM   19  C   UNL     1     -11.243  14.841  67.068  1.00  0.00    -0.347 A  
HETATM   20  C   UNL     1     -12.088  13.776  66.713  1.00  0.00    -0.460 A  
HETATM   21  H   UNL     1     -11.964  14.815  62.415  1.00  0.00     0.000 HD 
HETATM   22  C   UNL     1     -10.762  15.694  66.056  1.00  0.00    -0.322 A  
HETATM   23  H   UNL     1     -13.493  12.425  64.082  1.00  0.00     0.000 HD 
HETATM   24  C   UNL     1     -12.437  13.582  65.382  1.00  0.00    -0.497 A  
HETATM   25  C   UNL     1     -11.118  15.494  64.720  1.00  0.00    -0.421 A  
HETATM   26  O   UNL     1     -13.254  12.557  64.991  1.00  0.00    -0.700 OA 
HETATM   27  C   UNL     1     -11.951  14.436  64.394  1.00  0.00    -0.452 A  
HETATM   28  O   UNL     1     -12.295  14.232  63.088  1.00  0.00    -0.531 OA 
ENDBRANCH   3  19
TORSDOF 8
ENDMDL
MODEL       19
REMARK 921   NORMALIZED FREE ENERGY PREDICTED BY IDOCK:   -6.40 KCAL/MOL
REMARK 922        TOTAL FREE ENERGY PREDICTED BY IDOCK:  -10.60 KCAL/MOL
REMARK 923 INTER-LIGAND FREE ENERGY PREDICTED BY IDOCK:   -9.54 KCAL/MOL
REMARK 924 INTRA-LIGAND FREE ENERGY PREDICTED BY IDOCK:   -1.06 KCAL/MOL
REMARK 927      BINDING AFFINITY PREDICTED BY RF-SCORE:    0.00 PKD
ROOT
HETATM    1  O   UNL     1     -12.363  10.839  68.510  1.00  0.00    -0.825 OA 
HETATM    2  H   UNL     1     -12.633  10.441  69.331  1.00  0.00     0.000 HD 
HETATM    3  C   UNL     1     -11.368  11.838  68.767  1.00  0.00    -0.267 C  
ENDROOT
BRANCH   3   4
HETATM    4  C   UNL     1     -10.930  12.486  67.431  1.00  0.00    -0.259 C  
BRANCH   4   5
HETATM    5  N   UNL     1     -12.007  12.439  66.418  1.00  0.00    -0.607 NA 
HETATM    6  H   UNL     1     -12.896  12.138  66.819  1.00  0.00     0.000 HD 
BRANCH   5   7
HETATM    7  C   UNL     1     -12.120  13.736  65.743  1.00  0.00    -0.429 C  
BRANCH   7   8
HETATM    8  C   UNL     1     -10.727  14.281  65.415  1.00  0.00    -0.353 C  
BRANCH   8   9
HETATM    9  C   UNL     1     -10.724  15.811  65.448  1.00  0.00    -0.420 C  
BRANCH   9  10
HETATM   10  C   UNL     1     -10.725  16.349  66.881  1.00  0.00    -0.202 C  
BRANCH  10  11
HETATM   11  C   UNL     1      -9.966  17.651  66.970  1.00  0.00    -0.320 A  
HETATM   12  C   UNL     1     -10.651  18.865  67.121  1.00  0.00    -0.531 A  
HETATM   13  C   UNL     1      -9.954  20.075  67.148  1.00  0.00    -0.580 A  
HETATM   14  C   UNL     1      -8.569  20.070  67.021  1.00  0.00    -0.334 A  
HETATM   15  O   UNL     1      -7.850  21.229  67.024  1.00  0.00    -0.717 OA 
HETATM   16  C   UNL     1      -7.872  18.877  66.879  1.00  0.00    -0.256 A  
HETATM   17  H   UNL     1      -6.905  21.225  66.937  1.00  0.00     0.000 HD 
HETATM   18  C   UNL     1      -8.570  17.668  66.851  1.00  0.00    -0.260 A  
ENDBRANCH  10  11
ENDBRANCH   9  10
ENDBRANCH   8   9
ENDBRANCH   7   8
ENDBRANCH   5   7
ENDBRANCH   4   5
ENDBRANCH   3   4
BRANCH   3  19
HETATM   19  C   UNL     1     -11.912  12.875  69.729  1.00  0.00    -0.365 A  
HETATM   20  C   UNL     1     -12.768  12.517  70.785  1.00  0.00    -0.209 A  
HETATM   21  H   UNL     1     -13.224  16.704  72.137  1.00  0.00     0.000 HD 
HETATM   22  C   UNL     1     -11.587  14.234  69.550  1.00  0.00    -0.353 A  
HETATM   23  H   UNL     1     -14.459  13.862  73.246  1.00  0.00     0.000 HD 
HETATM   24  C   UNL     1     -13.275  13.496  71.630  1.00  0.00    -0.366 A  
HETATM   25  C   UNL     1     -12.099  15.213  70.404  1.00  0.00    -0.373 A  
HETATM   26  O   UNL     1     -14.113  13.193  72.668  1.00  0.00    -0.701 OA 
HETATM   27  C   UNL     1     -12.943  14.835  71.436  1.00  0.00    -0.342 A  
HETATM   28  O   UNL     1     -13.451  15.791  72.269  1.00  0.00    -0.467 OA 
ENDBRANCH   3  19
TORSDOF 8
ENDMDL
MODEL       20
REMARK 921   NORMALIZED FREE ENERGY PREDICTED BY IDOCK:   -6.36 KCAL/MOL
REMARK 922        TOTAL FREE ENERGY PREDICTED BY IDOCK:  -10.53 KCAL/MOL
REMARK 923 INTER-LIGAND FREE ENERGY PREDICTED BY IDOCK:   -8.48 KCAL/MOL
REMARK 924 INTRA-LIGAND FREE ENERGY PREDICTED BY IDOCK:   -2.06 KCAL/MOL
REMARK 927      BINDING AFFINITY PREDICTED BY RF-SCORE:    0.00 PKD
ROOT
HETATM    1  O   UNL     1      -8.865  12.891  68.564  1.00  0.00    -0.321 OA 
HETATM    2  H   UNL     1      -8.143  13.036  67.962  1.00  0.00     0.000 HD 
HETATM    3  C   UNL     1     -10.052  12.584  67.822  1.00  0.00    -0.218 C  
ENDROOT
BRANCH   3   4
HETATM    4  C   UNL     1     -11.227  12.348  68.801  1.00  0.00    -0.273 C  
BRANCH   4   5
HETATM    5  N   UNL     1     -11.062  13.120  70.053  1.00  0.00    -0.341 NA 
HETATM    6  H   UNL     1     -10.117  13.491  70.152  1.00  0.00     0.000 HD 
BRANCH   5   7
HETATM    7  C   UNL     1     -12.077  14.176  70.131  1.00  0.00    -0.346 C  
BRANCH   7   8
HETATM    8  C   UNL     1     -11.475  15.440  70.751  1.00  0.00    -0.385 C  
BRANCH   8   9
HETATM    9  C   UNL     1     -10.459  16.077  69.800  1.00  0.00    -0.300 C  
BRANCH   9  10
HETATM   10  C   UNL     1     -11.145  16.868  68.683  1.00  0.00    -0.194 C  
BRANCH  10  11
HETATM   11  C   UNL     1     -10.267  17.998  68.205  1.00  0.00    -0.402 A  
HETATM   12  C   UNL     1      -8.898  18.016  68.512  1.00  0.00    -0.304 A  
HETATM   13  C   UNL     1      -8.095  19.088  68.117  1.00  0.00    -0.347 A  
HETATM   14  C   UNL     1      -8.664  20.146  67.415  1.00  0.00    -0.344 A  
HETATM   15  O   UNL     1      -7.920  21.221  67.027  1.00  0.00    -0.691 OA 
HETATM   16  C   UNL     1     -10.014  20.143  67.095  1.00  0.00    -0.595 A  
HETATM   17  H   UNL     1      -8.309  21.944  66.548  1.00  0.00     0.000 HD 
HETATM   18  C   UNL     1     -10.817  19.071  67.491  1.00  0.00    -0.478 A  
ENDBRANCH  10  11
ENDBRANCH   9  10
ENDBRANCH   8   9
ENDBRANCH   7   8
ENDBRANCH   5   7
ENDBRANCH   4   5
ENDBRANCH   3   4
BRANCH   3  19
HETATM   19  C   UNL     1     -10.361  13.707  66.852  1.00  0.00    -0.262 A  
HETATM   20  C   UNL     1     -11.645  13.871  66.306  1.00  0.00    -0.378 A  
HETATM   21  H   UNL     1     -10.407  17.340  63.855  1.00  0.00     0.000 HD 
HETATM   22  C   UNL     1      -9.337  14.590  66.457  1.00  0.00    -0.307 A  
HETATM   23  H   UNL     1     -13.285  15.785  64.214  1.00  0.00     0.000 HD 
HETATM   24  C   UNL     1     -11.886  14.893  65.394  1.00  0.00    -0.188 A  
HETATM   25  C   UNL     1      -9.586  15.615  65.541  1.00  0.00    -0.237 A  
HETATM   26  O   UNL     1     -13.120  15.087  64.836  1.00  0.00    -0.061 OA 
HETATM   27  C   UNL     1     -10.860  15.755  65.015  1.00  0.00    -0.443 A  
HETATM   28  O   UNL     1     -11.106  16.752  64.114  1.00  0.00    -1.061 OA 
ENDBRANCH   3  19
TORSDOF 8
ENDMDL
MODEL       21
REMARK 921   NORMALIZED FREE ENERGY PREDICTED BY IDOCK:   -6.33 KCAL/MOL
REMARK 922        TOTAL FREE ENERGY PREDICTED BY IDOCK:  -10.49 KCAL/MOL
REMARK 923 INTER-LIGAND FREE ENERGY PREDICTED BY IDOCK:   -9.47 KCAL/MOL
REMARK 924 INTRA-LIGAND FREE ENERGY PREDICTED BY IDOCK:   -1.02 KCAL/MOL
REMARK 927      BINDING AFFINITY PREDICTED BY RF-SCORE:    0.00 PKD
ROOT
HETATM    1  O   UNL     1     -10.313  17.455  66.613  1.00  0.00    -0.317 OA 
HETATM    2  H   UNL     1     -10.354  17.582  65.671  1.00  0.00     0.000 HD 
HETATM    3  C   UNL     1      -9.859  16.125  66.895  1.00  0.00    -0.241 C  
ENDROOT
BRANCH   3   4
HETATM    4  C   UNL     1      -9.791  15.917  68.427  1.00  0.00    -0.214 C  
BRANCH   4   5
HETATM    5  N   UNL     1     -10.927  16.563  69.120  1.00  0.00    -0.316 NA 
HETATM    6  H   UNL     1     -11.762  16.600  68.534  1.00  0.00     0.000 HD 
BRANCH   5   7
HETATM    7  C   UNL     1     -11.184  15.893  70.400  1.00  0.00    -0.378 C  
BRANCH   7   8
HETATM    8  C   UNL     1     -12.526  15.158  70.348  1.00  0.00    -0.416 C  
BRANCH   8   9
HETATM    9  C   UNL     1     -12.433  13.812  71.069  1.00  0.00    -0.458 C  
BRANCH   9  10
HETATM   10  C   UNL     1     -11.919  12.706  70.144  1.00  0.00    -0.375 C  
BRANCH  10  11
HETATM   11  C   UNL     1     -12.127  11.345  70.763  1.00  0.00    -0.433 A  
HETATM   12  C   UNL     1     -13.140  11.141  71.711  1.00  0.00    -0.536 A  
HETATM   13  C   UNL     1     -13.299   9.896  72.325  1.00  0.00    -0.429 A  
HETATM   14  C   UNL     1     -12.440   8.854  71.990  1.00  0.00    -0.392 A  
HETATM   15  O   UNL     1     -12.547   7.629  72.578  1.00  0.00    -0.524 OA 
HETATM   16  C   UNL     1     -11.436   9.034  71.048  1.00  0.00    -0.358 A  
HETATM   17  H   UNL     1     -11.960   6.918  72.350  1.00  0.00     0.000 HD 
HETATM   18  C   UNL     1     -11.278  10.279  70.435  1.00  0.00    -0.407 A  
ENDBRANCH  10  11
ENDBRANCH   9  10
ENDBRANCH   8   9
ENDBRANCH   7   8
ENDBRANCH   5   7
ENDBRANCH   4   5
ENDBRANCH   3   4
BRANCH   3  19
HETATM   19  C   UNL     1     -10.780  15.114  66.242  1.00  0.00    -0.320 A  
HETATM   20  C   UNL     1     -11.050  13.873  66.844  1.00  0.00    -0.309 A  
HETATM   21  H   UNL     1     -13.620  12.553  63.494  1.00  0.00     0.000 HD 
HETATM   22  C   UNL     1     -11.357  15.401  64.989  1.00  0.00    -0.334 A  
HETATM   23  H   UNL     1     -12.724  11.109  66.312  1.00  0.00     0.000 HD 
HETATM   24  C   UNL     1     -11.874  12.956  66.202  1.00  0.00    -0.429 A  
HETATM   25  C   UNL     1     -12.185  14.475  64.351  1.00  0.00    -0.480 A  
HETATM   26  O   UNL     1     -12.161  11.735  66.750  1.00  0.00    -0.547 OA 
HETATM   27  C   UNL     1     -12.434  13.257  64.963  1.00  0.00    -0.443 A  
HETATM   28  O   UNL     1     -13.238  12.347  64.339  1.00  0.00    -0.816 OA 
ENDBRANCH   3  19
TORSDOF 8
ENDMDL
MODEL       22
REMARK 921   NORMALIZED FREE ENERGY PREDICTED BY IDOCK:   -6.29 KCAL/MOL
REMARK 922        TOTAL FREE ENERGY PREDICTED BY IDOCK:  -10.43 KCAL/MOL
REMARK 923 INTER-LIGAND FREE ENERGY PREDICTED BY IDOCK:   -9.76 KCAL/MOL
REMARK 924 INTRA-LIGAND FREE ENERGY PREDICTED BY IDOCK:   -0.66 KCAL/MOL
REMARK 927      BINDING AFFINITY PREDICTED BY RF-SCORE:    0.00 PKD
ROOT
HETATM    1  O   UNL     1     -11.372  16.620  63.909  1.00  0.00    -1.558 OA 
HETATM    2  H   UNL     1     -11.749  17.475  64.089  1.00  0.00     0.000 HD 
HETATM    3  C   UNL     1     -11.124  15.938  65.145  1.00  0.00    -0.311 C  
ENDROOT
BRANCH   3   4
HETATM    4  C   UNL     1     -10.512  14.547  64.853  1.00  0.00    -0.409 C  
BRANCH   4   5
HETATM    5  N   UNL     1     -11.516  13.468  64.978  1.00  0.00    -0.310 NA 
HETATM    6  H   UNL     1     -11.128  12.555  64.736  1.00  0.00     0.000 HD 
BRANCH   5   7
HETATM    7  C   UNL     1     -12.100  13.476  66.324  1.00  0.00    -0.428 C  
BRANCH   7   8
HETATM    8  C   UNL     1     -11.008  13.251  67.373  1.00  0.00    -0.287 C  
BRANCH   8   9
HETATM    9  C   UNL     1     -11.605  12.683  68.662  1.00  0.00    -0.356 C  
BRANCH   9  10
HETATM   10  C   UNL     1     -11.079  11.277  68.961  1.00  0.00    -0.301 C  
BRANCH  10  11
HETATM   11  C   UNL     1     -11.819  10.660  70.123  1.00  0.00    -0.421 A  
HETATM   12  C   UNL     1     -11.756   9.278  70.354  1.00  0.00    -0.157 A  
HETATM   13  C   UNL     1     -12.483   8.698  71.397  1.00  0.00    -0.337 A  
HETATM   14  C   UNL     1     -13.276   9.504  72.208  1.00  0.00    -0.421 A  
HETATM   15  O   UNL     1     -14.016   8.977  73.225  1.00  0.00    -1.205 OA 
HETATM   16  C   UNL     1     -13.345  10.875  72.000  1.00  0.00    -0.394 A  
HETATM   17  H   UNL     1     -14.558   9.527  73.778  1.00  0.00     0.000 HD 
HETATM   18  C   UNL     1     -12.618  11.453  70.957  1.00  0.00    -0.487 A  
ENDBRANCH  10  11
ENDBRANCH   9  10
ENDBRANCH   8   9
ENDBRANCH   7   8
ENDBRANCH   5   7
ENDBRANCH   4   5
ENDBRANCH   3   4
BRANCH   3  19
HETATM   19  C   UNL     1     -10.208  16.771  66.020  1.00  0.00    -0.361 A  
HETATM   20  C   UNL     1     -10.685  17.892  66.720  1.00  0.00    -0.157 A  
HETATM   21  H   UNL     1      -6.692  18.838  68.374  1.00  0.00     0.000 HD 
HETATM   22  C   UNL     1      -8.842  16.442  66.113  1.00  0.00    -0.349 A  
HETATM   23  H   UNL     1      -9.634  20.273  68.709  1.00  0.00     0.000 HD 
HETATM   24  C   UNL     1      -9.811  18.653  67.489  1.00  0.00    -0.320 A  
HETATM   25  C   UNL     1      -7.970  17.211  66.887  1.00  0.00    -0.250 A  
HETATM   26  O   UNL     1     -10.231  19.753  68.184  1.00  0.00    -0.421 OA 
HETATM   27  C   UNL     1      -8.463  18.313  67.567  1.00  0.00    -0.249 A  
HETATM   28  O   UNL     1      -7.611  19.071  68.320  1.00  0.00    -0.274 OA 
ENDBRANCH   3  19
TORSDOF 8
ENDMDL
MODEL       23
REMARK 921   NORMALIZED FREE ENERGY PREDICTED BY IDOCK:   -6.25 KCAL/MOL
REMARK 922        TOTAL FREE ENERGY PREDICTED BY IDOCK:  -10.37 KCAL/MOL
REMARK 923 INTER-LIGAND FREE ENERGY PREDICTED BY IDOCK:   -9.21 KCAL/MOL
REMARK 924 INTRA-LIGAND FREE ENERGY PREDICTED BY IDOCK:   -1.16 KCAL/MOL
REMARK 927      BINDING AFFINITY PREDICTED BY RF-SCORE:    0.00 PKD
ROOT
HETATM    1  O   UNL     1     -13.534   9.538  71.620  1.00  0.00    -0.377 OA 
HETATM    2  H   UNL     1     -14.006   9.852  72.383  1.00  0.00     0.000 HD 
HETATM    3  C   UNL     1     -12.336  10.305  71.449  1.00  0.00    -0.401 C  
ENDROOT
BRANCH   3   4
HETATM    4  C   UNL     1     -11.568   9.793  70.207  1.00  0.00    -0.220 C  
BRANCH   4   5
HETATM    5  N   UNL     1     -10.108   9.988  70.345  1.00  0.00    -0.398 NA 
HETATM    6  H   UNL     1      -9.690   9.310  70.983  1.00  0.00     0.000 HD 
BRANCH   5   7
HETATM    7  C   UNL     1      -9.469   9.964  69.024  1.00  0.00    -0.183 C  
BRANCH   7   8
HETATM    8  C   UNL     1     -10.443   9.412  67.979  1.00  0.00    -0.278 C  
BRANCH   8   9
HETATM    9  C   UNL     1     -10.647  10.419  66.845  1.00  0.00    -0.293 C  
BRANCH   9  10
HETATM   10  C   UNL     1     -10.086  11.798  67.201  1.00  0.00    -0.224 C  
BRANCH  10  11
HETATM   11  C   UNL     1     -10.731  12.875  66.364  1.00  0.00    -0.286 A  
HETATM   12  C   UNL     1     -12.061  12.745  65.937  1.00  0.00    -0.485 A  
HETATM   13  C   UNL     1     -12.642  13.715  65.117  1.00  0.00    -0.474 A  
HETATM   14  C   UNL     1     -11.889  14.816  64.721  1.00  0.00    -0.423 A  
HETATM   15  O   UNL     1     -12.411  15.777  63.906  1.00  0.00    -0.997 OA 
HETATM   16  C   UNL     1     -10.574  14.967  65.140  1.00  0.00    -0.450 A  
HETATM   17  H   UNL     1     -11.897  16.528  63.636  1.00  0.00     0.000 HD 
HETATM   18  C   UNL     1      -9.994  13.996  65.959  1.00  0.00    -0.331 A  
ENDBRANCH  10  11
ENDBRANCH   9  10
ENDBRANCH   8   9
ENDBRANCH   7   8
ENDBRANCH   5   7
ENDBRANCH   4   5
ENDBRANCH   3   4
BRANCH   3  19
HETATM   19  C   UNL     1     -12.679  11.776  71.317  1.00  0.00    -0.420 A  
HETATM   20  C   UNL     1     -12.195  12.548  70.247  1.00  0.00    -0.345 A  
HETATM   21  H   UNL     1     -14.109  16.242  71.749  1.00  0.00     0.000 HD 
HETATM   22  C   UNL     1     -13.469  12.400  72.302  1.00  0.00    -0.428 A  
HETATM   23  H   UNL     1     -12.259  15.615  69.101  1.00  0.00     0.000 HD 
HETATM   24  C   UNL     1     -12.501  13.901  70.173  1.00  0.00    -0.292 A  
HETATM   25  C   UNL     1     -13.774  13.760  72.221  1.00  0.00    -0.673 A  
HETATM   26  O   UNL     1     -12.050  14.690  69.151  1.00  0.00    -0.299 OA 
HETATM   27  C   UNL     1     -13.284  14.501  71.157  1.00  0.00    -0.361 A  
HETATM   28  O   UNL     1     -13.575  15.833  71.079  1.00  0.00    -0.568 OA 
ENDBRANCH   3  19
TORSDOF 8
ENDMDL
MODEL       24
REMARK 921   NORMALIZED FREE ENERGY PREDICTED BY IDOCK:   -6.22 KCAL/MOL
REMARK 922        TOTAL FREE ENERGY PREDICTED BY IDOCK:  -10.33 KCAL/MOL
REMARK 923 INTER-LIGAND FREE ENERGY PREDICTED BY IDOCK:   -9.08 KCAL/MOL
REMARK 924 INTRA-LIGAND FREE ENERGY PREDICTED BY IDOCK:   -1.25 KCAL/MOL
REMARK 927      BINDING AFFINITY PREDICTED BY RF-SCORE:    0.00 PKD
ROOT
HETATM    1  O   UNL     1     -11.491  16.344  63.609  1.00  0.00    -1.446 OA 
HETATM    2  H   UNL     1     -11.805  17.220  63.809  1.00  0.00     0.000 HD 
HETATM    3  C   UNL     1     -11.466  15.560  64.808  1.00  0.00    -0.313 C  
ENDROOT
BRANCH   3   4
HETATM    4  C   UNL     1     -10.956  14.135  64.482  1.00  0.00    -0.328 C  
BRANCH   4   5
HETATM    5  N   UNL     1     -12.054  13.144  64.488  1.00  0.00    -0.384 NA 
HETATM    6  H   UNL     1     -11.964  12.469  63.728  1.00  0.00     0.000 HD 
BRANCH   5   7
HETATM    7  C   UNL     1     -12.133  12.488  65.799  1.00  0.00    -0.378 C  
BRANCH   7   8
HETATM    8  C   UNL     1     -10.834  11.731  66.087  1.00  0.00    -0.336 C  
BRANCH   8   9
HETATM    9  C   UNL     1     -10.434  11.883  67.556  1.00  0.00    -0.233 C  
BRANCH   9  10
HETATM   10  C   UNL     1     -11.185  10.898  68.454  1.00  0.00    -0.347 C  
BRANCH  10  11
HETATM   11  C   UNL     1     -11.897  11.621  69.572  1.00  0.00    -0.414 A  
HETATM   12  C   UNL     1     -11.964  13.022  69.584  1.00  0.00    -0.367 A  
HETATM   13  C   UNL     1     -12.575  13.695  70.644  1.00  0.00    -0.366 A  
HETATM   14  C   UNL     1     -13.118  12.964  71.696  1.00  0.00    -0.335 A  
HETATM   15  O   UNL     1     -13.707  13.580  72.760  1.00  0.00    -0.710 OA 
HETATM   16  C   UNL     1     -13.069  11.576  71.698  1.00  0.00    -0.478 A  
HETATM   17  H   UNL     1     -14.077  13.081  73.478  1.00  0.00     0.000 HD 
HETATM   18  C   UNL     1     -12.457  10.904  70.638  1.00  0.00    -0.460 A  
ENDBRANCH  10  11
ENDBRANCH   9  10
ENDBRANCH   8   9
ENDBRANCH   7   8
ENDBRANCH   5   7
ENDBRANCH   4   5
ENDBRANCH   3   4
BRANCH   3  19
HETATM   19  C   UNL     1     -10.593  16.233  65.848  1.00  0.00    -0.307 A  
HETATM   20  C   UNL     1     -10.387  17.623  65.842  1.00  0.00    -0.261 A  
HETATM   21  H   UNL     1      -7.664  17.461  69.325  1.00  0.00     0.000 HD 
HETATM   22  C   UNL     1      -9.941  15.453  66.824  1.00  0.00    -0.256 A  
HETATM   23  H   UNL     1      -8.755  19.950  67.470  1.00  0.00     0.000 HD 
HETATM   24  C   UNL     1      -9.554  18.205  66.791  1.00  0.00    -0.301 A  
HETATM   25  C   UNL     1      -9.107  16.045  67.775  1.00  0.00    -0.196 A  
HETATM   26  O   UNL     1      -9.324  19.553  66.821  1.00  0.00    -0.321 OA 
HETATM   27  C   UNL     1      -8.918  17.417  67.748  1.00  0.00    -0.236 A  
HETATM   28  O   UNL     1      -8.097  17.998  68.672  1.00  0.00    -0.303 OA 
ENDBRANCH   3  19
TORSDOF 8
ENDMDL
MODEL       25
REMARK 921   NORMALIZED FREE ENERGY PREDICTED BY IDOCK:   -6.22 KCAL/MOL
REMARK 922        TOTAL FREE ENERGY PREDICTED BY IDOCK:  -10.33 KCAL/MOL
REMARK 923 INTER-LIGAND FREE ENERGY PREDICTED BY IDOCK:   -9.66 KCAL/MOL
REMARK 924 INTRA-LIGAND FREE ENERGY PREDICTED BY IDOCK:   -0.67 KCAL/MOL
REMARK 927      BINDING AFFINITY PREDICTED BY RF-SCORE:    0.00 PKD
ROOT
HETATM    1  O   UNL     1     -13.969   8.898  73.215  1.00  0.00    -1.203 OA 
HETATM    2  H   UNL     1     -14.211   8.012  73.462  1.00  0.00     0.000 HD 
HETATM    3  C   UNL     1     -13.386   8.887  71.906  1.00  0.00    -0.405 C  
ENDROOT
BRANCH   3   4
HETATM    4  C   UNL     1     -12.992  10.328  71.504  1.00  0.00    -0.453 C  
BRANCH   4   5
HETATM    5  N   UNL     1     -12.725  10.441  70.053  1.00  0.00    -0.549 NA 
HETATM    6  H   UNL     1     -13.578  10.354  69.500  1.00  0.00     0.000 HD 
BRANCH   5   7
HETATM    7  C   UNL     1     -12.010  11.690  69.768  1.00  0.00    -0.332 C  
BRANCH   7   8
HETATM    8  C   UNL     1     -10.530  11.400  69.506  1.00  0.00     0.046 C  
BRANCH   8   9
HETATM    9  C   UNL     1     -10.105  11.947  68.142  1.00  0.00    -0.200 C  
BRANCH   9  10
HETATM   10  C   UNL     1     -11.251  11.899  67.128  1.00  0.00    -0.377 C  
BRANCH  10  11
HETATM   11  C   UNL     1     -11.252  13.132  66.257  1.00  0.00    -0.328 A  
HETATM   12  C   UNL     1     -10.366  14.188  66.516  1.00  0.00    -0.284 A  
HETATM   13  C   UNL     1     -10.402  15.352  65.744  1.00  0.00    -0.381 A  
HETATM   14  C   UNL     1     -11.330  15.460  64.713  1.00  0.00    -0.376 A  
HETATM   15  O   UNL     1     -11.413  16.585  63.947  1.00  0.00    -1.608 OA 
HETATM   16  C   UNL     1     -12.210  14.422  64.436  1.00  0.00    -0.481 A  
HETATM   17  H   UNL     1     -12.046  16.659  63.244  1.00  0.00     0.000 HD 
HETATM   18  C   UNL     1     -12.173  13.259  65.208  1.00  0.00    -0.492 A  
ENDBRANCH  10  11
ENDBRANCH   9  10
ENDBRANCH   8   9
ENDBRANCH   7   8
ENDBRANCH   5   7
ENDBRANCH   4   5
ENDBRANCH   3   4
BRANCH   3  19
HETATM   19  C   UNL     1     -12.186   7.961  71.882  1.00  0.00    -0.351 A  
HETATM   20  C   UNL     1     -11.153   8.075  72.829  1.00  0.00    -0.448 A  
HETATM   21  H   UNL     1      -8.810   4.798  71.004  1.00  0.00     0.000 HD 
HETATM   22  C   UNL     1     -12.077   6.985  70.873  1.00  0.00    -0.403 A  
HETATM   23  H   UNL     1      -8.270   6.732  73.611  1.00  0.00     0.000 HD 
HETATM   24  C   UNL     1     -10.051   7.231  72.759  1.00  0.00    -0.210 A  
HETATM   25  C   UNL     1     -10.967   6.139  70.809  1.00  0.00    -0.365 A  
HETATM   26  O   UNL     1      -9.023   7.309  73.658  1.00  0.00    -0.157 OA 
HETATM   27  C   UNL     1      -9.961   6.272  71.753  1.00  0.00    -0.171 A  
HETATM   28  O   UNL     1      -8.871   5.452  71.690  1.00  0.00    -0.133 OA 
ENDBRANCH   3  19
TORSDOF 8
ENDMDL
MODEL       26
REMARK 921   NORMALIZED FREE ENERGY PREDICTED BY IDOCK:   -6.19 KCAL/MOL
REMARK 922        TOTAL FREE ENERGY PREDICTED BY IDOCK:  -10.28 KCAL/MOL
REMARK 923 INTER-LIGAND FREE ENERGY PREDICTED BY IDOCK:   -8.72 KCAL/MOL
REMARK 924 INTRA-LIGAND FREE ENERGY PREDICTED BY IDOCK:   -1.56 KCAL/MOL
REMARK 927      BINDING AFFINITY PREDICTED BY RF-SCORE:    0.00 PKD
ROOT
HETATM    1  O   UNL     1     -13.644  15.552  70.360  1.00  0.00    -0.806 OA 
HETATM    2  H   UNL     1     -14.382  15.133  69.932  1.00  0.00     0.000 HD 
HETATM    3  C   UNL     1     -12.454  15.324  69.594  1.00  0.00    -0.139 C  
ENDROOT
BRANCH   3   4
HETATM    4  C   UNL     1     -11.253  16.007  70.290  1.00  0.00    -0.389 C  
BRANCH   4   5
HETATM    5  N   UNL     1     -10.774  17.184  69.532  1.00  0.00    -0.358 NA 
HETATM    6  H   UNL     1     -10.199  17.800  70.107  1.00  0.00     0.000 HD 
BRANCH   5   7
HETATM    7  C   UNL     1     -10.073  16.752  68.318  1.00  0.00    -0.274 C  
BRANCH   7   8
HETATM    8  C   UNL     1     -10.478  17.634  67.135  1.00  0.00    -0.319 C  
BRANCH   8   9
HETATM    9  C   UNL     1     -10.566  16.808  65.850  1.00  0.00    -0.255 C  
BRANCH   9  10
HETATM   10  C   UNL     1      -9.835  15.470  65.983  1.00  0.00    -0.364 C  
BRANCH  10  11
HETATM   11  C   UNL     1     -10.535  14.392  65.191  1.00  0.00    -0.437 A  
HETATM   12  C   UNL     1      -9.929  13.141  65.002  1.00  0.00    -0.163 A  
HETATM   13  C   UNL     1     -10.551  12.161  64.224  1.00  0.00    -0.385 A  
HETATM   14  C   UNL     1     -11.780  12.436  63.632  1.00  0.00    -0.514 A  
HETATM   15  O   UNL     1     -12.413  11.516  62.850  1.00  0.00    -0.964 OA 
HETATM   16  C   UNL     1     -12.399  13.665  63.815  1.00  0.00    -0.357 A  
HETATM   17  H   UNL     1     -13.251  11.703  62.446  1.00  0.00     0.000 HD 
HETATM   18  C   UNL     1     -11.776  14.644  64.592  1.00  0.00    -0.431 A  
ENDBRANCH  10  11
ENDBRANCH   9  10
ENDBRANCH   8   9
ENDBRANCH   7   8
ENDBRANCH   5   7
ENDBRANCH   4   5
ENDBRANCH   3   4
BRANCH   3  19
HETATM   19  C   UNL     1     -12.222  13.836  69.428  1.00  0.00    -0.325 A  
HETATM   20  C   UNL     1     -12.327  12.953  70.517  1.00  0.00    -0.362 A  
HETATM   21  H   UNL     1     -11.225   9.440  68.064  1.00  0.00     0.000 HD 
HETATM   22  C   UNL     1     -11.860  13.321  68.168  1.00  0.00    -0.388 A  
HETATM   23  H   UNL     1     -11.994   9.777  71.246  1.00  0.00     0.000 HD 
HETATM   24  C   UNL     1     -12.077  11.597  70.337  1.00  0.00    -0.373 A  
HETATM   25  C   UNL     1     -11.611  11.957  67.995  1.00  0.00    -0.401 A  
HETATM   26  O   UNL     1     -12.165  10.704  71.369  1.00  0.00    -0.350 OA 
HETATM   27  C   UNL     1     -11.719  11.107  69.083  1.00  0.00    -0.338 A  
HETATM   28  O   UNL     1     -11.469   9.774  68.919  1.00  0.00    -0.026 OA 
ENDBRANCH   3  19
TORSDOF 8
ENDMDL
MODEL       27
REMARK 921   NORMALIZED FREE ENERGY PREDICTED BY IDOCK:   -6.18 KCAL/MOL
REMARK 922        TOTAL FREE ENERGY PREDICTED BY IDOCK:  -10.27 KCAL/MOL
REMARK 923 INTER-LIGAND FREE ENERGY PREDICTED BY IDOCK:   -8.99 KCAL/MOL
REMARK 924 INTRA-LIGAND FREE ENERGY PREDICTED BY IDOCK:   -1.28 KCAL/MOL
REMARK 927      BINDING AFFINITY PREDICTED BY RF-SCORE:    0.00 PKD
ROOT
HETATM    1  O   UNL     1     -10.684  17.014  68.961  1.00  0.00    -0.322 OA 
HETATM    2  H   UNL     1      -9.973  16.973  68.331  1.00  0.00     0.000 HD 
HETATM    3  C   UNL     1     -10.867  15.724  69.560  1.00  0.00    -0.287 C  
ENDROOT
BRANCH   3   4
HETATM    4  C   UNL     1     -12.024  15.791  70.585  1.00  0.00    -0.393 C  
BRANCH   4   5
HETATM    5  N   UNL     1     -11.563  15.476  71.955  1.00  0.00    -0.436 NA 
HETATM    6  H   UNL     1     -10.973  16.214  72.339  1.00  0.00     0.000 HD 
BRANCH   5   7
HETATM    7  C   UNL     1     -12.713  15.187  72.819  1.00  0.00    -0.398 C  
BRANCH   7   8
HETATM    8  C   UNL     1     -13.748  14.355  72.057  1.00  0.00    -0.533 C  
BRANCH   8   9
HETATM    9  C   UNL     1     -13.470  12.860  72.226  1.00  0.00    -0.631 C  
BRANCH   9  10
HETATM   10  C   UNL     1     -12.772  12.269  70.998  1.00  0.00    -0.319 C  
BRANCH  10  11
HETATM   11  C   UNL     1     -12.552  10.785  71.165  1.00  0.00    -0.532 A  
HETATM   12  C   UNL     1     -13.407  10.025  71.978  1.00  0.00    -0.513 A  
HETATM   13  C   UNL     1     -13.173   8.663  72.177  1.00  0.00    -0.420 A  
HETATM   14  C   UNL     1     -12.080   8.060  71.562  1.00  0.00    -0.298 A  
HETATM   15  O   UNL     1     -11.804   6.737  71.744  1.00  0.00    -0.296 OA 
HETATM   16  C   UNL     1     -11.228   8.793  70.747  1.00  0.00    -0.309 A  
HETATM   17  H   UNL     1     -11.058   6.325  71.325  1.00  0.00     0.000 HD 
HETATM   18  C   UNL     1     -11.462  10.155  70.550  1.00  0.00    -0.417 A  
ENDBRANCH  10  11
ENDBRANCH   9  10
ENDBRANCH   8   9
ENDBRANCH   7   8
ENDBRANCH   5   7
ENDBRANCH   4   5
ENDBRANCH   3   4
BRANCH   3  19
HETATM   19  C   UNL     1     -11.140  14.690  68.486  1.00  0.00    -0.273 A  
HETATM   20  C   UNL     1     -12.003  14.961  67.410  1.00  0.00    -0.144 A  
HETATM   21  H   UNL     1     -11.519  10.907  65.707  1.00  0.00     0.000 HD 
HETATM   22  C   UNL     1     -10.548  13.415  68.578  1.00  0.00    -0.264 A  
HETATM   23  H   UNL     1     -13.264  13.528  64.750  1.00  0.00     0.000 HD 
HETATM   24  C   UNL     1     -12.256  13.979  66.460  1.00  0.00    -0.451 A  
HETATM   25  C   UNL     1     -10.808  12.433  67.619  1.00  0.00    -0.258 A  
HETATM   26  O   UNL     1     -13.091  14.199  65.399  1.00  0.00    -0.743 OA 
HETATM   27  C   UNL     1     -11.663  12.723  66.569  1.00  0.00    -0.400 A  
HETATM   28  O   UNL     1     -11.924  11.763  65.633  1.00  0.00    -0.352 OA 
ENDBRANCH   3  19
TORSDOF 8
ENDMDL
MODEL       28
REMARK 921   NORMALIZED FREE ENERGY PREDICTED BY IDOCK:   -6.17 KCAL/MOL
REMARK 922        TOTAL FREE ENERGY PREDICTED BY IDOCK:  -10.25 KCAL/MOL
REMARK 923 INTER-LIGAND FREE ENERGY PREDICTED BY IDOCK:   -9.36 KCAL/MOL
REMARK 924 INTRA-LIGAND FREE ENERGY PREDICTED BY IDOCK:   -0.90 KCAL/MOL
REMARK 927      BINDING AFFINITY PREDICTED BY RF-SCORE:    0.00 PKD
ROOT
HETATM    1  O   UNL     1      -9.510  12.141  63.233  1.00  0.00    -0.664 OA 
HETATM    2  H   UNL     1      -8.641  11.793  63.401  1.00  0.00     0.000 HD 
HETATM    3  C   UNL     1     -10.120  12.523  64.472  1.00  0.00    -0.247 C  
ENDROOT
BRANCH   3   4
HETATM    4  C   UNL     1     -11.533  13.089  64.199  1.00  0.00    -0.402 C  
BRANCH   4   5
HETATM    5  N   UNL     1     -11.563  14.566  64.298  1.00  0.00    -0.637 NA 
HETATM    6  H   UNL     1     -12.482  14.945  64.070  1.00  0.00     0.000 HD 
BRANCH   5   7
HETATM    7  C   UNL     1     -11.107  14.991  65.626  1.00  0.00    -0.349 C  
BRANCH   7   8
HETATM    8  C   UNL     1     -12.122  14.568  66.691  1.00  0.00    -0.319 C  
BRANCH   8   9
HETATM    9  C   UNL     1     -11.643  14.974  68.086  1.00  0.00    -0.360 C  
BRANCH   9  10
HETATM   10  C   UNL     1     -11.948  13.896  69.128  1.00  0.00    -0.404 C  
BRANCH  10  11
HETATM   11  C   UNL     1     -12.325  14.516  70.452  1.00  0.00    -0.400 A  
HETATM   12  C   UNL     1     -13.542  14.191  71.070  1.00  0.00    -0.171 A  
HETATM   13  C   UNL     1     -13.916  14.804  72.268  1.00  0.00    -0.598 A  
HETATM   14  C   UNL     1     -13.072  15.747  72.846  1.00  0.00    -0.521 A  
HETATM   15  O   UNL     1     -13.407  16.384  74.005  1.00  0.00    -0.915 OA 
HETATM   16  C   UNL     1     -11.860  16.076  72.254  1.00  0.00    -0.628 A  
HETATM   17  H   UNL     1     -12.831  17.028  74.399  1.00  0.00     0.000 HD 
HETATM   18  C   UNL     1     -11.487  15.463  71.056  1.00  0.00    -0.407 A  
ENDBRANCH  10  11
ENDBRANCH   9  10
ENDBRANCH   8   9
ENDBRANCH   7   8
ENDBRANCH   5   7
ENDBRANCH   4   5
ENDBRANCH   3   4
BRANCH   3  19
HETATM   19  C   UNL     1     -10.174  11.334  65.410  1.00  0.00    -0.323 A  
HETATM   20  C   UNL     1     -10.817  11.413  66.657  1.00  0.00    -0.339 A  
HETATM   21  H   UNL     1      -9.761   7.251  67.720  1.00  0.00     0.000 HD 
HETATM   22  C   UNL     1      -9.540  10.129  65.048  1.00  0.00    -0.362 A  
HETATM   23  H   UNL     1     -11.435   9.596  69.311  1.00  0.00     0.000 HD 
HETATM   24  C   UNL     1     -10.821  10.313  67.507  1.00  0.00    -0.298 A  
HETATM   25  C   UNL     1      -9.549   9.027  65.906  1.00  0.00    -0.317 A  
HETATM   26  O   UNL     1     -11.432  10.347  68.730  1.00  0.00    -0.241 OA 
HETATM   27  C   UNL     1     -10.188   9.131  67.132  1.00  0.00    -0.261 A  
HETATM   28  O   UNL     1     -10.192   8.058  67.977  1.00  0.00    -0.194 OA 
ENDBRANCH   3  19
TORSDOF 8
ENDMDL
MODEL       29
REMARK 921   NORMALIZED FREE ENERGY PREDICTED BY IDOCK:   -6.16 KCAL/MOL
REMARK 922        TOTAL FREE ENERGY PREDICTED BY IDOCK:  -10.24 KCAL/MOL
REMARK 923 INTER-LIGAND FREE ENERGY PREDICTED BY IDOCK:   -9.19 KCAL/MOL
REMARK 924 INTRA-LIGAND FREE ENERGY PREDICTED BY IDOCK:   -1.05 KCAL/MOL
REMARK 927      BINDING AFFINITY PREDICTED BY RF-SCORE:    0.00 PKD
ROOT
HETATM    1  O   UNL     1      -7.748  10.689  64.470  1.00  0.00    -0.342 OA 
HETATM    2  H   UNL     1      -7.682  11.406  63.849  1.00  0.00     0.000 HD 
HETATM    3  C   UNL     1      -9.055  10.105  64.391  1.00  0.00    -0.245 C  
ENDROOT
BRANCH   3   4
HETATM    4  C   UNL     1      -9.161   8.938  65.401  1.00  0.00    -0.163 C  
BRANCH   4   5
HETATM    5  N   UNL     1      -7.936   8.808  66.221  1.00  0.00    -0.104 NA 
HETATM    6  H   UNL     1      -7.343   9.636  66.157  1.00  0.00     0.000 HD 
BRANCH   5   7
HETATM    7  C   UNL     1      -8.290   8.491  67.609  1.00  0.00    -0.129 C  
BRANCH   7   8
HETATM    8  C   UNL     1      -7.975   9.683  68.517  1.00  0.00    -0.089 C  
BRANCH   8   9
HETATM    9  C   UNL     1      -8.889   9.685  69.744  1.00  0.00    -0.224 C  
BRANCH   9  10
HETATM   10  C   UNL     1     -10.273  10.254  69.421  1.00  0.00    -0.255 C  
BRANCH  10  11
HETATM   11  C   UNL     1     -11.268   9.897  70.499  1.00  0.00    -0.399 A  
HETATM   12  C   UNL     1     -11.221   8.642  71.124  1.00  0.00    -0.329 A  
HETATM   13  C   UNL     1     -12.173   8.290  72.083  1.00  0.00    -0.418 A  
HETATM   14  C   UNL     1     -13.176   9.195  72.415  1.00  0.00    -0.444 A  
HETATM   15  O   UNL     1     -14.137   8.886  73.332  1.00  0.00    -1.256 OA 
HETATM   16  C   UNL     1     -13.235  10.445  71.813  1.00  0.00    -0.529 A  
HETATM   17  H   UNL     1     -14.822   9.503  73.558  1.00  0.00     0.000 HD 
HETATM   18  C   UNL     1     -12.283  10.796  70.854  1.00  0.00    -0.487 A  
ENDBRANCH  10  11
ENDBRANCH   9  10
ENDBRANCH   8   9
ENDBRANCH   7   8
ENDBRANCH   5   7
ENDBRANCH   4   5
ENDBRANCH   3   4
BRANCH   3  19
HETATM   19  C   UNL     1     -10.109  11.161  64.656  1.00  0.00    -0.358 A  
HETATM   20  C   UNL     1     -10.628  11.370  65.945  1.00  0.00    -0.317 A  
HETATM   21  H   UNL     1     -13.409  14.520  64.560  1.00  0.00     0.000 HD 
HETATM   22  C   UNL     1     -10.611  11.931  63.589  1.00  0.00    -0.500 A  
HETATM   23  H   UNL     1     -12.829  13.212  67.524  1.00  0.00     0.000 HD 
HETATM   24  C   UNL     1     -11.618  12.325  66.148  1.00  0.00    -0.390 A  
HETATM   25  C   UNL     1     -11.605  12.889  63.800  1.00  0.00    -0.538 A  
HETATM   26  O   UNL     1     -12.153  12.559  67.385  1.00  0.00    -0.466 OA 
HETATM   27  C   UNL     1     -12.102  13.076  65.080  1.00  0.00    -0.427 A  
HETATM   28  O   UNL     1     -13.079  14.007  65.289  1.00  0.00    -0.782 OA 
ENDBRANCH   3  19
TORSDOF 8
ENDMDL
MODEL       30
REMARK 921   NORMALIZED FREE ENERGY PREDICTED BY IDOCK:   -6.15 KCAL/MOL
REMARK 922        TOTAL FREE ENERGY PREDICTED BY IDOCK:  -10.23 KCAL/MOL
REMARK 923 INTER-LIGAND FREE ENERGY PREDICTED BY IDOCK:   -8.90 KCAL/MOL
REMARK 924 INTRA-LIGAND FREE ENERGY PREDICTED BY IDOCK:   -1.32 KCAL/MOL
REMARK 927      BINDING AFFINITY PREDICTED BY RF-SCORE:    0.00 PKD
ROOT
HETATM    1  O   UNL     1      -8.811   9.768  68.918  1.00  0.00    -0.129 OA 
HETATM    2  H   UNL     1      -8.439   9.836  69.790  1.00  0.00     0.000 HD 
HETATM    3  C   UNL     1     -10.023  10.531  68.854  1.00  0.00    -0.204 C  
ENDROOT
BRANCH   3   4
HETATM    4  C   UNL     1     -10.628  10.421  67.434  1.00  0.00    -0.269 C  
BRANCH   4   5
HETATM    5  N   UNL     1     -11.756  11.359  67.243  1.00  0.00    -0.583 NA 
HETATM    6  H   UNL     1     -12.084  11.747  68.128  1.00  0.00     0.000 HD 
BRANCH   5   7
HETATM    7  C   UNL     1     -11.383  12.408  66.288  1.00  0.00    -0.340 C  
BRANCH   7   8
HETATM    8  C   UNL     1     -11.780  13.782  66.836  1.00  0.00    -0.424 C  
BRANCH   8   9
HETATM    9  C   UNL     1     -12.189  13.680  68.306  1.00  0.00    -0.165 C  
BRANCH   9  10
HETATM   10  C   UNL     1     -11.176  14.366  69.227  1.00  0.00    -0.308 C  
BRANCH  10  11
HETATM   11  C   UNL     1     -11.842  14.857  70.490  1.00  0.00    -0.358 A  
HETATM   12  C   UNL     1     -13.032  14.269  70.942  1.00  0.00    -0.395 A  
HETATM   13  C   UNL     1     -13.678  14.757  72.080  1.00  0.00    -0.543 A  
HETATM   14  C   UNL     1     -13.132  15.838  72.765  1.00  0.00    -0.503 A  
HETATM   15  O   UNL     1     -13.739  16.358  73.870  1.00  0.00    -0.843 OA 
HETATM   16  C   UNL     1     -11.950  16.428  72.338  1.00  0.00    -0.553 A  
HETATM   17  H   UNL     1     -13.367  17.096  74.338  1.00  0.00     0.000 HD 
HETATM   18  C   UNL     1     -11.306  15.940  71.200  1.00  0.00    -0.435 A  
ENDBRANCH  10  11
ENDBRANCH   9  10
ENDBRANCH   8   9
ENDBRANCH   7   8
ENDBRANCH   5   7
ENDBRANCH   4   5
ENDBRANCH   3   4
BRANCH   3  19
HETATM   19  C   UNL     1     -10.997  10.042  69.907  1.00  0.00    -0.339 A  
HETATM   20  C   UNL     1     -11.138   8.674  70.196  1.00  0.00    -0.199 A  
HETATM   21  H   UNL     1     -14.308   9.402  73.194  1.00  0.00     0.000 HD 
HETATM   22  C   UNL     1     -11.807  10.968  70.593  1.00  0.00    -0.434 A  
HETATM   23  H   UNL     1     -12.868   6.651  72.104  1.00  0.00     0.000 HD 
HETATM   24  C   UNL     1     -12.064   8.257  71.145  1.00  0.00    -0.252 A  
HETATM   25  C   UNL     1     -12.735  10.542  71.546  1.00  0.00    -0.558 A  
HETATM   26  O   UNL     1     -12.236   6.936  71.456  1.00  0.00    -0.333 OA 
HETATM   27  C   UNL     1     -12.857   9.188  71.812  1.00  0.00    -0.377 A  
HETATM   28  O   UNL     1     -13.768   8.767  72.739  1.00  0.00    -0.361 OA 
ENDBRANCH   3  19
TORSDOF 8
ENDMDL
MODEL       31
REMARK 921   NORMALIZED FREE ENERGY PREDICTED BY IDOCK:   -6.15 KCAL/MOL
REMARK 922        TOTAL FREE ENERGY PREDICTED BY IDOCK:  -10.22 KCAL/MOL
REMARK 923 INTER-LIGAND FREE ENERGY PREDICTED BY IDOCK:   -8.77 KCAL/MOL
REMARK 924 INTRA-LIGAND FREE ENERGY PREDICTED BY IDOCK:   -1.45 KCAL/MOL
REMARK 927      BINDING AFFINITY PREDICTED BY RF-SCORE:    0.00 PKD
ROOT
HETATM    1  O   UNL     1     -13.080  15.842  70.298  1.00  0.00    -0.700 OA 
HETATM    2  H   UNL     1     -12.810  16.715  70.559  1.00  0.00     0.000 HD 
HETATM    3  C   UNL     1     -11.927  15.068  69.946  1.00  0.00    -0.334 C  
ENDROOT
BRANCH   3   4
HETATM    4  C   UNL     1     -12.368  13.647  69.522  1.00  0.00    -0.182 C  
BRANCH   4   5
HETATM    5  N   UNL     1     -11.668  12.600  70.298  1.00  0.00    -0.552 NA 
HETATM    6  H   UNL     1     -11.900  12.641  71.291  1.00  0.00     0.000 HD 
BRANCH   5   7
HETATM    7  C   UNL     1     -11.945  11.278  69.724  1.00  0.00    -0.360 C  
BRANCH   7   8
HETATM    8  C   UNL     1     -10.639  10.617  69.274  1.00  0.00    -0.263 C  
BRANCH   8   9
HETATM    9  C   UNL     1      -9.934  11.474  68.221  1.00  0.00    -0.205 C  
BRANCH   9  10
HETATM   10  C   UNL     1      -9.865  10.767  66.865  1.00  0.00    -0.224 C  
BRANCH  10  11
HETATM   11  C   UNL     1     -10.579  11.566  65.802  1.00  0.00    -0.315 A  
HETATM   12  C   UNL     1     -10.048  11.663  64.508  1.00  0.00    -0.321 A  
HETATM   13  C   UNL     1     -10.680  12.446  63.538  1.00  0.00    -0.473 A  
HETATM   14  C   UNL     1     -11.843  13.134  63.867  1.00  0.00    -0.472 A  
HETATM   15  O   UNL     1     -12.482  13.924  62.957  1.00  0.00    -1.099 OA 
HETATM   16  C   UNL     1     -12.388  13.044  65.140  1.00  0.00    -0.536 A  
HETATM   17  H   UNL     1     -13.276  14.395  63.181  1.00  0.00     0.000 HD 
HETATM   18  C   UNL     1     -11.756  12.262  66.109  1.00  0.00    -0.440 A  
ENDBRANCH  10  11
ENDBRANCH   9  10
ENDBRANCH   8   9
ENDBRANCH   7   8
ENDBRANCH   5   7
ENDBRANCH   4   5
ENDBRANCH   3   4
BRANCH   3  19
HETATM   19  C   UNL     1     -11.158  15.761  68.838  1.00  0.00    -0.298 A  
HETATM   20  C   UNL     1     -10.593  15.036  67.775  1.00  0.00    -0.264 A  
HETATM   21  H   UNL     1      -8.852  18.660  65.931  1.00  0.00     0.000 HD 
HETATM   22  C   UNL     1     -10.971  17.156  68.884  1.00  0.00    -0.061 A  
HETATM   23  H   UNL     1      -8.803  15.484  65.070  1.00  0.00     0.000 HD 
HETATM   24  C   UNL     1      -9.867  15.698  66.792  1.00  0.00    -0.244 A  
HETATM   25  C   UNL     1     -10.240  17.815  67.893  1.00  0.00    -0.362 A  
HETATM   26  O   UNL     1      -9.299  15.032  65.742  1.00  0.00    -0.293 OA 
HETATM   27  C   UNL     1      -9.692  17.078  66.856  1.00  0.00    -0.262 A  
HETATM   28  O   UNL     1      -8.971  17.719  65.888  1.00  0.00    -0.511 OA 
ENDBRANCH   3  19
TORSDOF 8
ENDMDL
MODEL       32
REMARK 921   NORMALIZED FREE ENERGY PREDICTED BY IDOCK:   -6.14 KCAL/MOL
REMARK 922        TOTAL FREE ENERGY PREDICTED BY IDOCK:  -10.22 KCAL/MOL
REMARK 923 INTER-LIGAND FREE ENERGY PREDICTED BY IDOCK:   -8.62 KCAL/MOL
REMARK 924 INTRA-LIGAND FREE ENERGY PREDICTED BY IDOCK:   -1.60 KCAL/MOL
REMARK 927      BINDING AFFINITY PREDICTED BY RF-SCORE:    0.00 PKD
ROOT
HETATM    1  O   UNL     1     -11.664  16.562  71.334  1.00  0.00    -0.648 OA 
HETATM    2  H   UNL     1     -12.144  16.562  72.155  1.00  0.00     0.000 HD 
HETATM    3  C   UNL     1     -12.390  15.806  70.356  1.00  0.00    -0.333 C  
ENDROOT
BRANCH   3   4
HETATM    4  C   UNL     1     -11.609  15.805  69.020  1.00  0.00    -0.400 C  
BRANCH   4   5
HETATM    5  N   UNL     1     -10.564  16.853  68.994  1.00  0.00    -0.340 NA 
HETATM    6  H   UNL     1      -9.650  16.487  69.260  1.00  0.00     0.000 HD 
BRANCH   5   7
HETATM    7  C   UNL     1     -10.535  17.502  67.678  1.00  0.00    -0.370 C  
BRANCH   7   8
HETATM    8  C   UNL     1      -9.098  17.558  67.152  1.00  0.00    -0.247 C  
BRANCH   8   9
HETATM    9  C   UNL     1      -8.772  16.304  66.338  1.00  0.00    -0.354 C  
BRANCH   9  10
HETATM   10  C   UNL     1      -9.968  15.842  65.502  1.00  0.00    -0.341 C  
BRANCH  10  11
HETATM   11  C   UNL     1     -10.417  14.462  65.920  1.00  0.00    -0.317 A  
HETATM   12  C   UNL     1     -11.667  13.968  65.519  1.00  0.00    -0.353 A  
HETATM   13  C   UNL     1     -12.107  12.714  65.949  1.00  0.00    -0.459 A  
HETATM   14  C   UNL     1     -11.295  11.955  66.785  1.00  0.00    -0.330 A  
HETATM   15  O   UNL     1     -11.693  10.734  67.244  1.00  0.00    -0.402 OA 
HETATM   16  C   UNL     1     -10.051  12.423  67.187  1.00  0.00    -0.221 A  
HETATM   17  H   UNL     1     -11.139  10.216  67.815  1.00  0.00     0.000 HD 
HETATM   18  C   UNL     1      -9.612  13.677  66.757  1.00  0.00    -0.277 A  
ENDBRANCH  10  11
ENDBRANCH   9  10
ENDBRANCH   8   9
ENDBRANCH   7   8
ENDBRANCH   5   7
ENDBRANCH   4   5
ENDBRANCH   3   4
BRANCH   3  19
HETATM   19  C   UNL     1     -12.621  14.395  70.860  1.00  0.00    -0.422 A  
HETATM   20  C   UNL     1     -12.042  13.285  70.221  1.00  0.00    -0.405 A  
HETATM   21  H   UNL     1     -13.953  10.411  72.987  1.00  0.00     0.000 HD 
HETATM   22  C   UNL     1     -13.460  14.179  71.970  1.00  0.00    -0.518 A  
HETATM   23  H   UNL     1     -11.936  10.018  70.418  1.00  0.00     0.000 HD 
HETATM   24  C   UNL     1     -12.300  12.003  70.690  1.00  0.00    -0.304 A  
HETATM   25  C   UNL     1     -13.715  12.887  72.436  1.00  0.00    -0.530 A  
HETATM   26  O   UNL     1     -11.760  10.894  70.097  1.00  0.00    -0.288 OA 
HETATM   27  C   UNL     1     -13.133  11.808  71.789  1.00  0.00    -0.375 A  
HETATM   28  O   UNL     1     -13.386  10.543  72.238  1.00  0.00    -0.384 OA 
ENDBRANCH   3  19
TORSDOF 8
ENDMDL
MODEL       33
REMARK 921   NORMALIZED FREE ENERGY PREDICTED BY IDOCK:   -6.13 KCAL/MOL
REMARK 922        TOTAL FREE ENERGY PREDICTED BY IDOCK:  -10.21 KCAL/MOL
REMARK 923 INTER-LIGAND FREE ENERGY PREDICTED BY IDOCK:   -8.32 KCAL/MOL
REMARK 924 INTRA-LIGAND FREE ENERGY PREDICTED BY IDOCK:   -1.89 KCAL/MOL
REMARK 927      BINDING AFFINITY PREDICTED BY RF-SCORE:    0.00 PKD
ROOT
HETATM    1  O   UNL     1     -11.372  16.437  63.931  1.00  0.00    -1.510 OA 
HETATM    2  H   UNL     1     -11.292  17.376  64.057  1.00  0.00     0.000 HD 
HETATM    3  C   UNL     1     -11.648  15.807  65.188  1.00  0.00     0.068 C  
ENDROOT
BRANCH   3   4
HETATM    4  C   UNL     1     -11.778  14.279  64.981  1.00  0.00    -0.383 C  
BRANCH   4   5
HETATM    5  N   UNL     1     -12.397  13.951  63.678  1.00  0.00    -1.007 NA 
HETATM    6  H   UNL     1     -12.110  14.600  62.945  1.00  0.00     0.000 HD 
BRANCH   5   7
HETATM    7  C   UNL     1     -12.111  12.557  63.321  1.00  0.00    -0.430 C  
BRANCH   7   8
HETATM    8  C   UNL     1     -10.608  12.286  63.421  1.00  0.00    -0.427 C  
BRANCH   8   9
HETATM    9  C   UNL     1     -10.346  10.889  63.987  1.00  0.00    -0.417 C  
BRANCH   9  10
HETATM   10  C   UNL     1      -9.264  10.908  65.070  1.00  0.00    -0.233 C  
BRANCH  10  11
HETATM   11  C   UNL     1      -9.782  11.541  66.339  1.00  0.00    -0.231 A  
HETATM   12  C   UNL     1     -11.062  11.227  66.820  1.00  0.00    -0.314 A  
HETATM   13  C   UNL     1     -11.563  11.852  67.964  1.00  0.00    -0.401 A  
HETATM   14  C   UNL     1     -10.784  12.795  68.625  1.00  0.00    -0.246 A  
HETATM   15  O   UNL     1     -11.241  13.443  69.735  1.00  0.00    -0.460 OA 
HETATM   16  C   UNL     1      -9.512  13.114  68.169  1.00  0.00    -0.222 A  
HETATM   17  H   UNL     1     -10.710  14.087  70.186  1.00  0.00     0.000 HD 
HETATM   18  C   UNL     1      -9.011  12.489  67.025  1.00  0.00    -0.211 A  
ENDBRANCH  10  11
ENDBRANCH   9  10
ENDBRANCH   8   9
ENDBRANCH   7   8
ENDBRANCH   5   7
ENDBRANCH   4   5
ENDBRANCH   3   4
BRANCH   3  19
HETATM   19  C   UNL     1     -10.553  16.137  66.183  1.00  0.00    -0.288 A  
HETATM   20  C   UNL     1      -9.195  16.067  65.828  1.00  0.00    -0.215 A  
HETATM   21  H   UNL     1      -7.843  17.193  69.886  1.00  0.00     0.000 HD 
HETATM   22  C   UNL     1     -10.893  16.489  67.504  1.00  0.00    -0.237 A  
HETATM   23  H   UNL     1      -6.214  16.477  67.119  1.00  0.00     0.000 HD 
HETATM   24  C   UNL     1      -8.216  16.345  66.774  1.00  0.00    -0.251 A  
HETATM   25  C   UNL     1      -9.903  16.768  68.449  1.00  0.00    -0.253 A  
HETATM   26  O   UNL     1      -6.883  16.286  66.473  1.00  0.00    -0.215 OA 
HETATM   27  C   UNL     1      -8.571  16.691  68.076  1.00  0.00    -0.193 A  
HETATM   28  O   UNL     1      -7.601  16.957  68.999  1.00  0.00    -0.240 OA 
ENDBRANCH   3  19
TORSDOF 8
ENDMDL
MODEL       34
REMARK 921   NORMALIZED FREE ENERGY PREDICTED BY IDOCK:   -6.12 KCAL/MOL
REMARK 922        TOTAL FREE ENERGY PREDICTED BY IDOCK:  -10.19 KCAL/MOL
REMARK 923 INTER-LIGAND FREE ENERGY PREDICTED BY IDOCK:   -9.45 KCAL/MOL
REMARK 924 INTRA-LIGAND FREE ENERGY PREDICTED BY IDOCK:   -0.74 KCAL/MOL
REMARK 927      BINDING AFFINITY PREDICTED BY RF-SCORE:    0.00 PKD
ROOT
HETATM    1  O   UNL     1     -14.255   8.610  73.122  1.00  0.00    -1.059 OA 
HETATM    2  H   UNL     1     -14.397   7.680  73.264  1.00  0.00     0.000 HD 
HETATM    3  C   UNL     1     -13.546   8.804  71.891  1.00  0.00    -0.424 C  
ENDROOT
BRANCH   3   4
HETATM    4  C   UNL     1     -13.316  10.316  71.661  1.00  0.00    -0.353 C  
BRANCH   4   5
HETATM    5  N   UNL     1     -13.003  10.616  70.246  1.00  0.00    -0.393 NA 
HETATM    6  H   UNL     1     -13.819  10.960  69.739  1.00  0.00     0.000 HD 
BRANCH   5   7
HETATM    7  C   UNL     1     -11.873  11.548  70.166  1.00  0.00    -0.356 C  
BRANCH   7   8
HETATM    8  C   UNL     1     -11.865  12.249  68.805  1.00  0.00    -0.356 C  
BRANCH   8   9
HETATM    9  C   UNL     1     -11.071  13.555  68.873  1.00  0.00    -0.305 C  
BRANCH   9  10
HETATM   10  C   UNL     1     -11.990  14.779  68.895  1.00  0.00    -0.298 C  
BRANCH  10  11
HETATM   11  C   UNL     1     -12.364  15.147  70.310  1.00  0.00    -0.398 A  
HETATM   12  C   UNL     1     -11.419  15.729  71.168  1.00  0.00    -0.466 A  
HETATM   13  C   UNL     1     -11.748  16.021  72.494  1.00  0.00    -0.547 A  
HETATM   14  C   UNL     1     -13.024  15.727  72.963  1.00  0.00    -0.525 A  
HETATM   15  O   UNL     1     -13.382  15.978  74.254  1.00  0.00    -0.806 OA 
HETATM   16  C   UNL     1     -13.976  15.159  72.127  1.00  0.00    -0.635 A  
HETATM   17  H   UNL     1     -14.253  15.777  74.574  1.00  0.00     0.000 HD 
HETATM   18  C   UNL     1     -13.647  14.867  70.802  1.00  0.00    -0.221 A  
ENDBRANCH  10  11
ENDBRANCH   9  10
ENDBRANCH   8   9
ENDBRANCH   7   8
ENDBRANCH   5   7
ENDBRANCH   4   5
ENDBRANCH   3   4
BRANCH   3  19
HETATM   19  C   UNL     1     -12.235   8.046  71.925  1.00  0.00    -0.359 A  
HETATM   20  C   UNL     1     -11.036   8.672  72.310  1.00  0.00    -0.395 A  
HETATM   21  H   UNL     1      -8.642   5.016  71.625  1.00  0.00     0.000 HD 
HETATM   22  C   UNL     1     -12.198   6.694  71.532  1.00  0.00    -0.391 A  
HETATM   23  H   UNL     1      -7.842   8.037  72.656  1.00  0.00     0.000 HD 
HETATM   24  C   UNL     1      -9.845   7.956  72.299  1.00  0.00    -0.215 A  
HETATM   25  C   UNL     1     -10.998   5.980  71.524  1.00  0.00    -0.335 A  
HETATM   26  O   UNL     1      -8.656   8.526  72.663  1.00  0.00    -0.306 OA 
HETATM   27  C   UNL     1      -9.829   6.620  71.906  1.00  0.00    -0.166 A  
HETATM   28  O   UNL     1      -8.652   5.927  71.893  1.00  0.00    -0.135 OA 
ENDBRANCH   3  19
TORSDOF 8
ENDMDL
MODEL       35
REMARK 921   NORMALIZED FREE ENERGY PREDICTED BY IDOCK:   -6.11 KCAL/MOL
REMARK 922        TOTAL FREE ENERGY PREDICTED BY IDOCK:  -10.17 KCAL/MOL
REMARK 923 INTER-LIGAND FREE ENERGY PREDICTED BY IDOCK:   -8.40 KCAL/MOL
REMARK 924 INTRA-LIGAND FREE ENERGY PREDICTED BY IDOCK:   -1.77 KCAL/MOL
REMARK 927      BINDING AFFINITY PREDICTED BY RF-SCORE:    0.00 PKD
ROOT
HETATM    1  O   UNL     1     -12.411  14.306  63.149  1.00  0.00    -1.102 OA 
HETATM    2  H   UNL     1     -12.691  15.209  63.246  1.00  0.00     0.000 HD 
HETATM    3  C   UNL     1     -12.520  13.633  64.410  1.00  0.00    -0.264 C  
ENDROOT
BRANCH   3   4
HETATM    4  C   UNL     1     -12.065  12.163  64.252  1.00  0.00    -0.375 C  
BRANCH   4   5
HETATM    5  N   UNL     1     -11.086  12.005  63.153  1.00  0.00    -0.696 NA 
HETATM    6  H   UNL     1     -10.930  12.881  62.653  1.00  0.00     0.000 HD 
BRANCH   5   7
HETATM    7  C   UNL     1      -9.836  11.437  63.670  1.00  0.00    -0.348 C  
BRANCH   7   8
HETATM    8  C   UNL     1     -10.122  10.565  64.895  1.00  0.00    -0.403 C  
BRANCH   8   9
HETATM    9  C   UNL     1      -8.977  10.662  65.906  1.00  0.00    -0.192 C  
BRANCH   9  10
HETATM   10  C   UNL     1      -9.260  11.707  66.988  1.00  0.00    -0.185 C  
BRANCH  10  11
HETATM   11  C   UNL     1      -9.919  11.074  68.189  1.00  0.00    -0.190 A  
HETATM   12  C   UNL     1     -11.305  11.182  68.379  1.00  0.00    -0.357 A  
HETATM   13  C   UNL     1     -11.909  10.644  69.518  1.00  0.00    -0.345 A  
HETATM   14  C   UNL     1     -11.125  10.000  70.469  1.00  0.00    -0.331 A  
HETATM   15  O   UNL     1     -11.671   9.477  71.604  1.00  0.00    -0.370 OA 
HETATM   16  C   UNL     1      -9.753   9.877  70.295  1.00  0.00    -0.211 A  
HETATM   17  H   UNL     1     -11.135   9.038  72.254  1.00  0.00     0.000 HD 
HETATM   18  C   UNL     1      -9.149  10.415  69.157  1.00  0.00    -0.197 A  
ENDBRANCH  10  11
ENDBRANCH   9  10
ENDBRANCH   8   9
ENDBRANCH   7   8
ENDBRANCH   5   7
ENDBRANCH   4   5
ENDBRANCH   3   4
BRANCH   3  19
HETATM   19  C   UNL     1     -11.695  14.356  65.455  1.00  0.00    -0.362 A  
HETATM   20  C   UNL     1     -10.559  15.106  65.101  1.00  0.00    -0.447 A  
HETATM   21  H   UNL     1      -9.662  16.152  69.305  1.00  0.00     0.000 HD 
HETATM   22  C   UNL     1     -12.044  14.253  66.816  1.00  0.00    -0.446 A  
HETATM   23  H   UNL     1      -8.178  16.895  66.463  1.00  0.00     0.000 HD 
HETATM   24  C   UNL     1      -9.806  15.731  66.088  1.00  0.00    -0.315 A  
HETATM   25  C   UNL     1     -11.282  14.884  67.802  1.00  0.00    -0.329 A  
HETATM   26  O   UNL     1      -8.693  16.467  65.789  1.00  0.00    -0.460 OA 
HETATM   27  C   UNL     1     -10.167  15.616  67.429  1.00  0.00    -0.264 A  
HETATM   28  O   UNL     1      -9.416  16.229  68.391  1.00  0.00    -0.206 OA 
ENDBRANCH   3  19
TORSDOF 8
ENDMDL
MODEL       36
REMARK 921   NORMALIZED FREE ENERGY PREDICTED BY IDOCK:   -6.11 KCAL/MOL
REMARK 922        TOTAL FREE ENERGY PREDICTED BY IDOCK:  -10.17 KCAL/MOL
REMARK 923 INTER-LIGAND FREE ENERGY PREDICTED BY IDOCK:   -9.15 KCAL/MOL
REMARK 924 INTRA-LIGAND FREE ENERGY PREDICTED BY IDOCK:   -1.01 KCAL/MOL
REMARK 927      BINDING AFFINITY PREDICTED BY RF-SCORE:    0.00 PKD
ROOT
HETATM    1  O   UNL     1     -13.810  15.644  71.164  1.00  0.00    -0.698 OA 
HETATM    2  H   UNL     1     -14.605  15.242  70.831  1.00  0.00     0.000 HD 
HETATM    3  C   UNL     1     -12.669  15.022  70.559  1.00  0.00    -0.357 C  
ENDROOT
BRANCH   3   4
HETATM    4  C   UNL     1     -11.376  15.677  71.100  1.00  0.00    -0.393 C  
BRANCH   4   5
HETATM    5  N   UNL     1     -10.275  15.618  70.113  1.00  0.00    -0.300 NA 
HETATM    6  H   UNL     1     -10.301  14.760  69.563  1.00  0.00     0.000 HD 
BRANCH   5   7
HETATM    7  C   UNL     1     -10.296  16.815  69.265  1.00  0.00    -0.309 C  
BRANCH   7   8
HETATM    8  C   UNL     1     -11.059  16.528  67.969  1.00  0.00    -0.275 C  
BRANCH   8   9
HETATM    9  C   UNL     1     -10.690  15.148  67.419  1.00  0.00    -0.286 C  
BRANCH   9  10
HETATM   10  C   UNL     1     -11.908  14.423  66.841  1.00  0.00    -0.433 C  
BRANCH  10  11
HETATM   11  C   UNL     1     -11.507  13.524  65.696  1.00  0.00    -0.330 A  
HETATM   12  C   UNL     1     -12.153  13.622  64.455  1.00  0.00    -0.470 A  
HETATM   13  C   UNL     1     -11.820  12.756  63.411  1.00  0.00    -0.591 A  
HETATM   14  C   UNL     1     -10.842  11.787  63.612  1.00  0.00    -0.440 A  
HETATM   15  O   UNL     1     -10.500  10.908  62.627  1.00  0.00    -0.760 OA 
HETATM   16  C   UNL     1     -10.186  11.680  64.831  1.00  0.00    -0.315 A  
HETATM   17  H   UNL     1      -9.833  10.247  62.764  1.00  0.00     0.000 HD 
HETATM   18  C   UNL     1     -10.520  12.546  65.874  1.00  0.00    -0.289 A  
ENDBRANCH  10  11
ENDBRANCH   9  10
ENDBRANCH   8   9
ENDBRANCH   7   8
ENDBRANCH   5   7
ENDBRANCH   4   5
ENDBRANCH   3   4
BRANCH   3  19
HETATM   19  C   UNL     1     -12.688  13.531  70.832  1.00  0.00    -0.366 A  
HETATM   20  C   UNL     1     -12.026  12.624  69.987  1.00  0.00    -0.377 A  
HETATM   21  H   UNL     1     -13.363   9.119  72.332  1.00  0.00     0.000 HD 
HETATM   22  C   UNL     1     -13.411  13.032  71.933  1.00  0.00    -0.539 A  
HETATM   23  H   UNL     1     -11.507   9.410  69.630  1.00  0.00     0.000 HD 
HETATM   24  C   UNL     1     -12.090  11.260  70.248  1.00  0.00    -0.373 A  
HETATM   25  C   UNL     1     -13.470  11.660  72.190  1.00  0.00    -0.238 A  
HETATM   26  O   UNL     1     -11.463  10.342  69.452  1.00  0.00    -0.234 OA 
HETATM   27  C   UNL     1     -12.811  10.785  71.342  1.00  0.00    -0.452 A  
HETATM   28  O   UNL     1     -12.873   9.443  71.586  1.00  0.00    -0.330 OA 
ENDBRANCH   3  19
TORSDOF 8
ENDMDL
MODEL       37
REMARK 921   NORMALIZED FREE ENERGY PREDICTED BY IDOCK:   -6.09 KCAL/MOL
REMARK 922        TOTAL FREE ENERGY PREDICTED BY IDOCK:  -10.14 KCAL/MOL
REMARK 923 INTER-LIGAND FREE ENERGY PREDICTED BY IDOCK:   -9.13 KCAL/MOL
REMARK 924 INTRA-LIGAND FREE ENERGY PREDICTED BY IDOCK:   -1.01 KCAL/MOL
REMARK 927      BINDING AFFINITY PREDICTED BY RF-SCORE:    0.00 PKD
ROOT
HETATM    1  O   UNL     1      -9.183  15.474  67.437  1.00  0.00    -0.198 OA 
HETATM    2  H   UNL     1      -8.613  15.002  66.839  1.00  0.00     0.000 HD 
HETATM    3  C   UNL     1     -10.123  14.563  68.021  1.00  0.00    -0.226 C  
ENDROOT
BRANCH   3   4
HETATM    4  C   UNL     1     -11.050  15.331  68.994  1.00  0.00    -0.260 C  
BRANCH   4   5
HETATM    5  N   UNL     1     -10.513  15.340  70.373  1.00  0.00    -0.500 NA 
HETATM    6  H   UNL     1      -9.864  16.113  70.525  1.00  0.00     0.000 HD 
BRANCH   5   7
HETATM    7  C   UNL     1     -11.614  15.348  71.342  1.00  0.00    -0.402 C  
BRANCH   7   8
HETATM    8  C   UNL     1     -12.823  14.603  70.770  1.00  0.00    -0.418 C  
BRANCH   8   9
HETATM    9  C   UNL     1     -12.872  13.167  71.296  1.00  0.00    -0.384 C  
BRANCH   9  10
HETATM   10  C   UNL     1     -12.145  12.195  70.363  1.00  0.00    -0.395 C  
BRANCH  10  11
HETATM   11  C   UNL     1     -12.209  10.784  70.897  1.00  0.00    -0.487 A  
HETATM   12  C   UNL     1     -11.271   9.825  70.488  1.00  0.00    -0.381 A  
HETATM   13  C   UNL     1     -11.361   8.506  70.939  1.00  0.00    -0.304 A  
HETATM   14  C   UNL     1     -12.394   8.147  71.798  1.00  0.00    -0.321 A  
HETATM   15  O   UNL     1     -12.530   6.866  72.248  1.00  0.00    -0.506 OA 
HETATM   16  C   UNL     1     -13.327   9.084  72.221  1.00  0.00    -0.523 A  
HETATM   17  H   UNL     1     -13.236   6.621  72.835  1.00  0.00     0.000 HD 
HETATM   18  C   UNL     1     -13.237  10.402  71.769  1.00  0.00    -0.529 A  
ENDBRANCH  10  11
ENDBRANCH   9  10
ENDBRANCH   8   9
ENDBRANCH   7   8
ENDBRANCH   5   7
ENDBRANCH   4   5
ENDBRANCH   3   4
BRANCH   3  19
HETATM   19  C   UNL     1     -10.919  13.873  66.931  1.00  0.00    -0.300 A  
HETATM   20  C   UNL     1     -10.425  12.734  66.273  1.00  0.00    -0.273 A  
HETATM   21  H   UNL     1     -13.955  12.456  63.622  1.00  0.00     0.000 HD 
HETATM   22  C   UNL     1     -12.166  14.397  66.539  1.00  0.00    -0.358 A  
HETATM   23  H   UNL     1     -11.229  10.633  63.893  1.00  0.00     0.000 HD 
HETATM   24  C   UNL     1     -11.166  12.144  65.256  1.00  0.00    -0.332 A  
HETATM   25  C   UNL     1     -12.906  13.798  65.517  1.00  0.00    -0.464 A  
HETATM   26  O   UNL     1     -10.723  11.036  64.588  1.00  0.00    -0.324 OA 
HETATM   27  C   UNL     1     -12.398  12.677  64.881  1.00  0.00    -0.498 A  
HETATM   28  O   UNL     1     -13.115  12.093  63.877  1.00  0.00    -0.749 OA 
ENDBRANCH   3  19
TORSDOF 8
ENDMDL
MODEL       38
REMARK 921   NORMALIZED FREE ENERGY PREDICTED BY IDOCK:   -6.08 KCAL/MOL
REMARK 922        TOTAL FREE ENERGY PREDICTED BY IDOCK:  -10.13 KCAL/MOL
REMARK 923 INTER-LIGAND FREE ENERGY PREDICTED BY IDOCK:   -9.23 KCAL/MOL
REMARK 924 INTRA-LIGAND FREE ENERGY PREDICTED BY IDOCK:   -0.91 KCAL/MOL
REMARK 927      BINDING AFFINITY PREDICTED BY RF-SCORE:    0.00 PKD
ROOT
HETATM    1  O   UNL     1     -13.740   8.844  73.253  1.00  0.00    -1.085 OA 
HETATM    2  H   UNL     1     -13.778   7.943  73.553  1.00  0.00     0.000 HD 
HETATM    3  C   UNL     1     -13.410   8.870  71.858  1.00  0.00    -0.405 C  
ENDROOT
BRANCH   3   4
HETATM    4  C   UNL     1     -13.349  10.337  71.370  1.00  0.00    -0.304 C  
BRANCH   4   5
HETATM    5  N   UNL     1     -13.002  10.424  69.934  1.00  0.00    -0.542 NA 
HETATM    6  H   UNL     1     -13.824  10.587  69.352  1.00  0.00     0.000 HD 
BRANCH   5   7
HETATM    7  C   UNL     1     -11.970  11.445  69.725  1.00  0.00    -0.353 C  
BRANCH   7   8
HETATM    8  C   UNL     1     -10.729  10.816  69.087  1.00  0.00    -0.265 C  
BRANCH   8   9
HETATM    9  C   UNL     1     -10.234  11.666  67.915  1.00  0.00    -0.203 C  
BRANCH   9  10
HETATM   10  C   UNL     1     -10.976  11.333  66.618  1.00  0.00    -0.326 C  
BRANCH  10  11
HETATM   11  C   UNL     1     -11.310  12.590  65.851  1.00  0.00    -0.380 A  
HETATM   12  C   UNL     1     -12.216  12.550  64.780  1.00  0.00    -0.532 A  
HETATM   13  C   UNL     1     -12.485  13.701  64.035  1.00  0.00    -0.285 A  
HETATM   14  C   UNL     1     -11.845  14.892  64.361  1.00  0.00    -0.360 A  
HETATM   15  O   UNL     1     -12.064  16.034  63.649  1.00  0.00    -1.285 OA 
HETATM   16  C   UNL     1     -10.952  14.953  65.422  1.00  0.00    -0.371 A  
HETATM   17  H   UNL     1     -11.626  16.847  63.871  1.00  0.00     0.000 HD 
HETATM   18  C   UNL     1     -10.683  13.802  66.166  1.00  0.00    -0.283 A  
ENDBRANCH  10  11
ENDBRANCH   9  10
ENDBRANCH   8   9
ENDBRANCH   7   8
ENDBRANCH   5   7
ENDBRANCH   4   5
ENDBRANCH   3   4
BRANCH   3  19
HETATM   19  C   UNL     1     -12.094   8.156  71.626  1.00  0.00    -0.342 A  
HETATM   20  C   UNL     1     -12.017   7.003  70.826  1.00  0.00    -0.392 A  
HETATM   21  H   UNL     1      -7.679   6.519  71.542  1.00  0.00     0.000 HD 
HETATM   22  C   UNL     1     -10.922   8.630  72.247  1.00  0.00    -0.392 A  
HETATM   23  H   UNL     1      -9.848   4.784  69.777  1.00  0.00     0.000 HD 
HETATM   24  C   UNL     1     -10.800   6.354  70.659  1.00  0.00    -0.276 A  
HETATM   25  C   UNL     1      -9.702   7.973  72.075  1.00  0.00    -0.264 A  
HETATM   26  O   UNL     1     -10.680   5.228  69.892  1.00  0.00    -0.291 OA 
HETATM   27  C   UNL     1      -9.652   6.837  71.283  1.00  0.00    -0.169 A  
HETATM   28  O   UNL     1      -8.461   6.189  71.117  1.00  0.00    -0.123 OA 
ENDBRANCH   3  19
TORSDOF 8
ENDMDL
MODEL       39
REMARK 921   NORMALIZED FREE ENERGY PREDICTED BY IDOCK:   -6.07 KCAL/MOL
REMARK 922        TOTAL FREE ENERGY PREDICTED BY IDOCK:  -10.12 KCAL/MOL
REMARK 923 INTER-LIGAND FREE ENERGY PREDICTED BY IDOCK:   -9.05 KCAL/MOL
REMARK 924 INTRA-LIGAND FREE ENERGY PREDICTED BY IDOCK:   -1.06 KCAL/MOL
REMARK 927      BINDING AFFINITY PREDICTED BY RF-SCORE:    0.00 PKD
ROOT
HETATM    1  O   UNL     1      -9.926  10.271  65.690  1.00  0.00    -0.251 OA 
HETATM    2  H   UNL     1     -10.656  10.295  65.082  1.00  0.00     0.000 HD 
HETATM    3  C   UNL     1     -10.164  11.196  66.759  1.00  0.00    -0.232 C  
ENDROOT
BRANCH   3   4
HETATM    4  C   UNL     1      -8.976  11.157  67.749  1.00  0.00    -0.139 C  
BRANCH   4   5
HETATM    5  N   UNL     1      -9.433  11.141  69.157  1.00  0.00    -0.407 NA 
HETATM    6  H   UNL     1     -10.397  11.463  69.249  1.00  0.00     0.000 HD 
BRANCH   5   7
HETATM    7  C   UNL     1      -9.242   9.806  69.734  1.00  0.00    -0.226 C  
BRANCH   7   8
HETATM    8  C   UNL     1     -10.394   9.476  70.687  1.00  0.00    -0.369 C  
BRANCH   8   9
HETATM    9  C   UNL     1     -11.719  10.009  70.138  1.00  0.00    -0.285 C  
BRANCH   9  10
HETATM   10  C   UNL     1     -12.663  10.450  71.260  1.00  0.00    -0.536 C  
BRANCH  10  11
HETATM   11  C   UNL     1     -12.789  11.953  71.300  1.00  0.00    -0.391 A  
HETATM   12  C   UNL     1     -13.382  12.589  72.401  1.00  0.00    -0.354 A  
HETATM   13  C   UNL     1     -13.548  13.975  72.416  1.00  0.00    -0.658 A  
HETATM   14  C   UNL     1     -13.123  14.727  71.325  1.00  0.00    -0.368 A  
HETATM   15  O   UNL     1     -13.283  16.081  71.290  1.00  0.00    -0.546 OA 
HETATM   16  C   UNL     1     -12.527  14.117  70.230  1.00  0.00    -0.416 A  
HETATM   17  H   UNL     1     -12.993  16.594  70.545  1.00  0.00     0.000 HD 
HETATM   18  C   UNL     1     -12.362  12.731  70.215  1.00  0.00    -0.277 A  
ENDBRANCH  10  11
ENDBRANCH   9  10
ENDBRANCH   8   9
ENDBRANCH   7   8
ENDBRANCH   5   7
ENDBRANCH   4   5
ENDBRANCH   3   4
BRANCH   3  19
HETATM   19  C   UNL     1     -10.370  12.589  66.201  1.00  0.00    -0.274 A  
HETATM   20  C   UNL     1     -11.430  12.877  65.323  1.00  0.00    -0.348 A  
HETATM   21  H   UNL     1     -10.196  17.100  64.859  1.00  0.00     0.000 HD 
HETATM   22  C   UNL     1      -9.467  13.617  66.535  1.00  0.00    -0.270 A  
HETATM   23  H   UNL     1     -12.683  15.358  63.590  1.00  0.00     0.000 HD 
HETATM   24  C   UNL     1     -11.572  14.159  64.804  1.00  0.00    -0.396 A  
HETATM   25  C   UNL     1      -9.616  14.903  66.010  1.00  0.00    -0.346 A  
HETATM   26  O   UNL     1     -12.586  14.482  63.945  1.00  0.00    -0.827 OA 
HETATM   27  C   UNL     1     -10.667  15.162  65.146  1.00  0.00    -0.422 A  
HETATM   28  O   UNL     1     -10.812  16.416  64.625  1.00  0.00    -0.717 OA 
ENDBRANCH   3  19
TORSDOF 8
ENDMDL
MODEL       40
REMARK 921   NORMALIZED FREE ENERGY PREDICTED BY IDOCK:   -6.06 KCAL/MOL
REMARK 922        TOTAL FREE ENERGY PREDICTED BY IDOCK:  -10.09 KCAL/MOL
REMARK 923 INTER-LIGAND FREE ENERGY PREDICTED BY IDOCK:   -9.06 KCAL/MOL
REMARK 924 INTRA-LIGAND FREE ENERGY PREDICTED BY IDOCK:   -1.03 KCAL/MOL
REMARK 927      BINDING AFFINITY PREDICTED BY RF-SCORE:    0.00 PKD
ROOT
HETATM    1  O   UNL     1      -9.649   6.761  70.872  1.00  0.00    -0.168 OA 
HETATM    2  H   UNL     1      -9.250   7.227  71.598  1.00  0.00     0.000 HD 
HETATM    3  C   UNL     1     -10.054   7.697  69.866  1.00  0.00    -0.198 C  
ENDROOT
BRANCH   3   4
HETATM    4  C   UNL     1     -10.703   6.937  68.685  1.00  0.00    -0.216 C  
BRANCH   4   5
HETATM    5  N   UNL     1     -10.984   7.834  67.542  1.00  0.00    -0.526 NA 
HETATM    6  H   UNL     1     -11.637   8.578  67.791  1.00  0.00     0.000 HD 
BRANCH   5   7
HETATM    7  C   UNL     1      -9.729   8.366  66.998  1.00  0.00    -0.206 C  
BRANCH   7   8
HETATM    8  C   UNL     1     -10.025   9.451  65.959  1.00  0.00    -0.352 C  
BRANCH   8   9
HETATM    9  C   UNL     1      -9.826  10.844  66.561  1.00  0.00    -0.245 C  
BRANCH   9  10
HETATM   10  C   UNL     1     -11.158  11.567  66.772  1.00  0.00    -0.361 C  
BRANCH  10  11
HETATM   11  C   UNL     1     -11.224  12.828  65.945  1.00  0.00    -0.334 A  
HETATM   12  C   UNL     1     -10.349  13.894  66.201  1.00  0.00    -0.303 A  
HETATM   13  C   UNL     1     -10.444  15.082  65.472  1.00  0.00    -0.385 A  
HETATM   14  C   UNL     1     -11.419  15.204  64.488  1.00  0.00    -0.316 A  
HETATM   15  O   UNL     1     -11.559  16.352  63.765  1.00  0.00    -1.605 OA 
HETATM   16  C   UNL     1     -12.289  14.157  64.214  1.00  0.00    -0.398 A  
HETATM   17  H   UNL     1     -12.225  16.436  63.093  1.00  0.00     0.000 HD 
HETATM   18  C   UNL     1     -12.194  12.970  64.943  1.00  0.00    -0.490 A  
ENDBRANCH  10  11
ENDBRANCH   9  10
ENDBRANCH   8   9
ENDBRANCH   7   8
ENDBRANCH   5   7
ENDBRANCH   4   5
ENDBRANCH   3   4
BRANCH   3  19
HETATM   19  C   UNL     1     -11.009   8.713  70.459  1.00  0.00    -0.266 A  
HETATM   20  C   UNL     1     -12.034   8.328  71.340  1.00  0.00    -0.333 A  
HETATM   21  H   UNL     1     -13.574  12.458  71.715  1.00  0.00     0.000 HD 
HETATM   22  C   UNL     1     -10.898  10.071  70.099  1.00  0.00    -0.365 A  
HETATM   23  H   UNL     1     -14.526   9.601  73.042  1.00  0.00     0.000 HD 
HETATM   24  C   UNL     1     -12.913   9.281  71.841  1.00  0.00    -0.411 A  
HETATM   25  C   UNL     1     -11.784  11.023  70.607  1.00  0.00    -0.371 A  
HETATM   26  O   UNL     1     -13.926   8.949  72.699  1.00  0.00    -0.448 OA 
HETATM   27  C   UNL     1     -12.787  10.618  71.473  1.00  0.00    -0.462 A  
HETATM   28  O   UNL     1     -13.660  11.546  71.966  1.00  0.00    -0.302 OA 
ENDBRANCH   3  19
TORSDOF 8
ENDMDL
MODEL       41
REMARK 921   NORMALIZED FREE ENERGY PREDICTED BY IDOCK:   -6.05 KCAL/MOL
REMARK 922        TOTAL FREE ENERGY PREDICTED BY IDOCK:  -10.09 KCAL/MOL
REMARK 923 INTER-LIGAND FREE ENERGY PREDICTED BY IDOCK:   -9.30 KCAL/MOL
REMARK 924 INTRA-LIGAND FREE ENERGY PREDICTED BY IDOCK:   -0.78 KCAL/MOL
REMARK 927      BINDING AFFINITY PREDICTED BY RF-SCORE:    0.00 PKD
ROOT
HETATM    1  O   UNL     1     -10.539  10.749  62.764  1.00  0.00    -0.749 OA 
HETATM    2  H   UNL     1     -11.349  11.113  62.423  1.00  0.00     0.000 HD 
HETATM    3  C   UNL     1     -10.524  10.869  64.192  1.00  0.00    -0.327 C  
ENDROOT
BRANCH   3   4
HETATM    4  C   UNL     1      -9.205  10.278  64.745  1.00  0.00    -0.241 C  
BRANCH   4   5
HETATM    5  N   UNL     1      -9.286   8.809  64.904  1.00  0.00    -0.415 NA 
HETATM    6  H   UNL     1      -8.481   8.336  64.493  1.00  0.00     0.000 HD 
BRANCH   5   7
HETATM    7  C   UNL     1      -9.463   8.463  66.319  1.00  0.00    -0.224 C  
BRANCH   7   8
HETATM    8  C   UNL     1      -9.230   9.698  67.194  1.00  0.00    -0.156 C  
BRANCH   8   9
HETATM    9  C   UNL     1     -10.382   9.884  68.183  1.00  0.00    -0.232 C  
BRANCH   9  10
HETATM   10  C   UNL     1      -9.897   9.843  69.635  1.00  0.00    -0.255 C  
BRANCH  10  11
HETATM   11  C   UNL     1     -11.047   9.596  70.581  1.00  0.00    -0.384 A  
HETATM   12  C   UNL     1     -12.176  10.428  70.563  1.00  0.00    -0.412 A  
HETATM   13  C   UNL     1     -13.217  10.233  71.473  1.00  0.00    -0.484 A  
HETATM   14  C   UNL     1     -13.126   9.205  72.406  1.00  0.00    -0.423 A  
HETATM   15  O   UNL     1     -14.110   8.991  73.325  1.00  0.00    -1.218 OA 
HETATM   16  C   UNL     1     -12.021   8.366  72.435  1.00  0.00    -0.451 A  
HETATM   17  H   UNL     1     -14.048   8.290  73.962  1.00  0.00     0.000 HD 
HETATM   18  C   UNL     1     -10.980   8.562  71.524  1.00  0.00    -0.337 A  
ENDBRANCH  10  11
ENDBRANCH   9  10
ENDBRANCH   8   9
ENDBRANCH   7   8
ENDBRANCH   5   7
ENDBRANCH   4   5
ENDBRANCH   3   4
BRANCH   3  19
HETATM   19  C   UNL     1     -10.686  12.322  64.591  1.00  0.00    -0.347 A  
HETATM   20  C   UNL     1     -11.656  13.143  63.989  1.00  0.00    -0.481 A  
HETATM   21  H   UNL     1     -10.419  16.696  66.316  1.00  0.00     0.000 HD 
HETATM   22  C   UNL     1      -9.829  12.881  65.559  1.00  0.00    -0.159 A  
HETATM   23  H   UNL     1     -12.753  16.228  64.045  1.00  0.00     0.000 HD 
HETATM   24  C   UNL     1     -11.757  14.480  64.355  1.00  0.00    -0.367 A  
HETATM   25  C   UNL     1      -9.937  14.225  65.922  1.00  0.00    -0.340 A  
HETATM   26  O   UNL     1     -12.683  15.315  63.794  1.00  0.00    -0.687 OA 
HETATM   27  C   UNL     1     -10.899  15.015  65.314  1.00  0.00    -0.386 A  
HETATM   28  O   UNL     1     -11.003  16.331  65.662  1.00  0.00    -0.231 OA 
ENDBRANCH   3  19
TORSDOF 8
ENDMDL
MODEL       42
REMARK 921   NORMALIZED FREE ENERGY PREDICTED BY IDOCK:   -6.05 KCAL/MOL
REMARK 922        TOTAL FREE ENERGY PREDICTED BY IDOCK:  -10.08 KCAL/MOL
REMARK 923 INTER-LIGAND FREE ENERGY PREDICTED BY IDOCK:   -9.01 KCAL/MOL
REMARK 924 INTRA-LIGAND FREE ENERGY PREDICTED BY IDOCK:   -1.07 KCAL/MOL
REMARK 927      BINDING AFFINITY PREDICTED BY RF-SCORE:    0.00 PKD
ROOT
HETATM    1  O   UNL     1     -11.530  16.472  68.184  1.00  0.00    -0.251 OA 
HETATM    2  H   UNL     1     -12.323  16.952  68.394  1.00  0.00     0.000 HD 
HETATM    3  C   UNL     1     -11.666  15.111  68.612  1.00  0.00    -0.341 C  
ENDROOT
BRANCH   3   4
HETATM    4  C   UNL     1     -10.375  14.330  68.270  1.00  0.00    -0.242 C  
BRANCH   4   5
HETATM    5  N   UNL     1     -10.447  13.708  66.929  1.00  0.00    -0.270 NA 
HETATM    6  H   UNL     1      -9.557  13.293  66.652  1.00  0.00     0.000 HD 
BRANCH   5   7
HETATM    7  C   UNL     1     -11.544  12.736  66.882  1.00  0.00    -0.366 C  
BRANCH   7   8
HETATM    8  C   UNL     1     -10.994  11.334  66.609  1.00  0.00    -0.326 C  
BRANCH   8   9
HETATM    9  C   UNL     1     -11.377  10.373  67.736  1.00  0.00    -0.205 C  
BRANCH   9  10
HETATM   10  C   UNL     1     -11.494  11.094  69.082  1.00  0.00    -0.366 C  
BRANCH  10  11
HETATM   11  C   UNL     1     -11.490  10.107  70.224  1.00  0.00    -0.381 A  
HETATM   12  C   UNL     1     -12.659   9.865  70.961  1.00  0.00    -0.431 A  
HETATM   13  C   UNL     1     -12.644   8.993  72.051  1.00  0.00    -0.464 A  
HETATM   14  C   UNL     1     -11.455   8.364  72.407  1.00  0.00    -0.380 A  
HETATM   15  O   UNL     1     -11.391   7.519  73.476  1.00  0.00    -0.620 OA 
HETATM   16  C   UNL     1     -10.290   8.583  71.686  1.00  0.00    -0.333 A  
HETATM   17  H   UNL     1     -10.580   7.090  73.719  1.00  0.00     0.000 HD 
HETATM   18  C   UNL     1     -10.305   9.456  70.596  1.00  0.00    -0.349 A  
ENDBRANCH  10  11
ENDBRANCH   9  10
ENDBRANCH   8   9
ENDBRANCH   7   8
ENDBRANCH   5   7
ENDBRANCH   4   5
ENDBRANCH   3   4
BRANCH   3  19
HETATM   19  C   UNL     1     -11.962  15.063  70.097  1.00  0.00    -0.366 A  
HETATM   20  C   UNL     1     -12.776  14.059  70.650  1.00  0.00    -0.373 A  
HETATM   21  H   UNL     1     -12.459  15.735  74.732  1.00  0.00     0.000 HD 
HETATM   22  C   UNL     1     -11.442  16.060  70.946  1.00  0.00    -0.451 A  
HETATM   23  H   UNL     1     -14.032  13.110  73.522  1.00  0.00     0.000 HD 
HETATM   24  C   UNL     1     -13.053  14.063  72.012  1.00  0.00    -0.401 A  
HETATM   25  C   UNL     1     -11.725  16.057  72.314  1.00  0.00    -0.581 A  
HETATM   26  O   UNL     1     -13.843  13.108  72.591  1.00  0.00    -0.691 OA 
HETATM   27  C   UNL     1     -12.531  15.059  72.835  1.00  0.00    -0.391 A  
HETATM   28  O   UNL     1     -12.815  15.056  74.171  1.00  0.00    -0.430 OA 
ENDBRANCH   3  19
TORSDOF 8
ENDMDL
MODEL       43
REMARK 921   NORMALIZED FREE ENERGY PREDICTED BY IDOCK:   -6.02 KCAL/MOL
REMARK 922        TOTAL FREE ENERGY PREDICTED BY IDOCK:  -10.04 KCAL/MOL
REMARK 923 INTER-LIGAND FREE ENERGY PREDICTED BY IDOCK:   -9.04 KCAL/MOL
REMARK 924 INTRA-LIGAND FREE ENERGY PREDICTED BY IDOCK:   -1.00 KCAL/MOL
REMARK 927      BINDING AFFINITY PREDICTED BY RF-SCORE:    0.00 PKD
ROOT
HETATM    1  O   UNL     1     -12.470  13.840  62.981  1.00  0.00    -1.068 OA 
HETATM    2  H   UNL     1     -13.243  14.287  63.308  1.00  0.00     0.000 HD 
HETATM    3  C   UNL     1     -11.848  13.116  64.050  1.00  0.00    -0.453 C  
ENDROOT
BRANCH   3   4
HETATM    4  C   UNL     1     -10.591  12.388  63.517  1.00  0.00    -0.413 C  
BRANCH   4   5
HETATM    5  N   UNL     1     -10.566  10.965  63.922  1.00  0.00    -0.510 NA 
HETATM    6  H   UNL     1     -10.338  10.350  63.141  1.00  0.00     0.000 HD 
BRANCH   5   7
HETATM    7  C   UNL     1      -9.650  10.780  65.053  1.00  0.00    -0.254 C  
BRANCH   7   8
HETATM    8  C   UNL     1     -10.348  10.000  66.171  1.00  0.00    -0.225 C  
BRANCH   8   9
HETATM    9  C   UNL     1      -9.884  10.492  67.544  1.00  0.00    -0.196 C  
BRANCH   9  10
HETATM   10  C   UNL     1     -11.023  11.150  68.327  1.00  0.00    -0.278 C  
BRANCH  10  11
HETATM   11  C   UNL     1     -11.350  10.359  69.570  1.00  0.00    -0.325 A  
HETATM   12  C   UNL     1     -12.445  10.714  70.372  1.00  0.00    -0.421 A  
HETATM   13  C   UNL     1     -12.717  10.017  71.551  1.00  0.00    -0.532 A  
HETATM   14  C   UNL     1     -11.889   8.965  71.931  1.00  0.00    -0.370 A  
HETATM   15  O   UNL     1     -12.107   8.270  73.084  1.00  0.00    -0.566 OA 
HETATM   16  C   UNL     1     -10.805   8.594  71.146  1.00  0.00    -0.320 A  
HETATM   17  H   UNL     1     -11.541   7.553  73.343  1.00  0.00     0.000 HD 
HETATM   18  C   UNL     1     -10.533   9.292  69.968  1.00  0.00    -0.254 A  
ENDBRANCH  10  11
ENDBRANCH   9  10
ENDBRANCH   8   9
ENDBRANCH   7   8
ENDBRANCH   5   7
ENDBRANCH   4   5
ENDBRANCH   3   4
BRANCH   3  19
HETATM   19  C   UNL     1     -11.498  14.063  65.181  1.00  0.00    -0.328 A  
HETATM   20  C   UNL     1     -11.962  13.843  66.489  1.00  0.00    -0.470 A  
HETATM   21  H   UNL     1     -10.060  17.531  68.024  1.00  0.00     0.000 HD 
HETATM   22  C   UNL     1     -10.721  15.208  64.919  1.00  0.00    -0.421 A  
HETATM   23  H   UNL     1     -11.869  15.194  69.471  1.00  0.00     0.000 HD 
HETATM   24  C   UNL     1     -11.650  14.748  67.497  1.00  0.00    -0.361 A  
HETATM   25  C   UNL     1     -10.411  16.113  65.936  1.00  0.00    -0.384 A  
HETATM   26  O   UNL     1     -12.083  14.576  68.783  1.00  0.00    -0.293 OA 
HETATM   27  C   UNL     1     -10.881  15.876  67.218  1.00  0.00    -0.279 A  
HETATM   28  O   UNL     1     -10.585  16.762  68.214  1.00  0.00    -0.318 OA 
ENDBRANCH   3  19
TORSDOF 8
ENDMDL
MODEL       44
REMARK 921   NORMALIZED FREE ENERGY PREDICTED BY IDOCK:   -6.01 KCAL/MOL
REMARK 922        TOTAL FREE ENERGY PREDICTED BY IDOCK:  -10.03 KCAL/MOL
REMARK 923 INTER-LIGAND FREE ENERGY PREDICTED BY IDOCK:   -9.11 KCAL/MOL
REMARK 924 INTRA-LIGAND FREE ENERGY PREDICTED BY IDOCK:   -0.92 KCAL/MOL
REMARK 927      BINDING AFFINITY PREDICTED BY RF-SCORE:    0.00 PKD
ROOT
HETATM    1  O   UNL     1     -12.403  11.071  68.486  1.00  0.00    -0.762 OA 
HETATM    2  H   UNL     1     -11.921  10.363  68.072  1.00  0.00     0.000 HD 
HETATM    3  C   UNL     1     -11.706  11.499  69.663  1.00  0.00    -0.351 C  
ENDROOT
BRANCH   3   4
HETATM    4  C   UNL     1     -12.490  12.651  70.336  1.00  0.00    -0.143 C  
BRANCH   4   5
HETATM    5  N   UNL     1     -11.620  13.813  70.626  1.00  0.00    -0.514 NA 
HETATM    6  H   UNL     1     -10.634  13.552  70.663  1.00  0.00     0.000 HD 
BRANCH   5   7
HETATM    7  C   UNL     1     -11.867  14.883  69.653  1.00  0.00    -0.318 C  
BRANCH   7   8
HETATM    8  C   UNL     1     -10.614  15.126  68.808  1.00  0.00    -0.236 C  
BRANCH   8   9
HETATM    9  C   UNL     1     -10.971  15.209  67.323  1.00  0.00    -0.327 C  
BRANCH   9  10
HETATM   10  C   UNL     1     -12.068  14.210  66.945  1.00  0.00    -0.466 C  
BRANCH  10  11
HETATM   11  C   UNL     1     -11.645  13.365  65.768  1.00  0.00    -0.358 A  
HETATM   12  C   UNL     1     -12.356  13.421  64.560  1.00  0.00    -0.415 A  
HETATM   13  C   UNL     1     -11.999  12.600  63.488  1.00  0.00    -0.630 A  
HETATM   14  C   UNL     1     -10.932  11.719  63.626  1.00  0.00    -0.439 A  
HETATM   15  O   UNL     1     -10.562  10.886  62.612  1.00  0.00    -0.761 OA 
HETATM   16  C   UNL     1     -10.211  11.654  64.811  1.00  0.00    -0.321 A  
HETATM   17  H   UNL     1      -9.833  10.284  62.707  1.00  0.00     0.000 HD 
HETATM   18  C   UNL     1     -10.569  12.475  65.883  1.00  0.00    -0.292 A  
ENDBRANCH  10  11
ENDBRANCH   9  10
ENDBRANCH   8   9
ENDBRANCH   7   8
ENDBRANCH   5   7
ENDBRANCH   4   5
ENDBRANCH   3   4
BRANCH   3  19
HETATM   19  C   UNL     1     -11.523  10.330  70.610  1.00  0.00    -0.435 A  
HETATM   20  C   UNL     1     -10.334   9.582  70.629  1.00  0.00    -0.369 A  
HETATM   21  H   UNL     1     -11.851   6.826  73.739  1.00  0.00     0.000 HD 
HETATM   22  C   UNL     1     -12.575   9.956  71.469  1.00  0.00    -0.513 A  
HETATM   23  H   UNL     1      -8.989   6.997  72.124  1.00  0.00     0.000 HD 
HETATM   24  C   UNL     1     -10.211   8.496  71.488  1.00  0.00    -0.250 A  
HETATM   25  C   UNL     1     -12.445   8.864  72.330  1.00  0.00    -0.440 A  
HETATM   26  O   UNL     1      -9.073   7.739  71.537  1.00  0.00    -0.130 OA 
HETATM   27  C   UNL     1     -11.263   8.140  72.329  1.00  0.00    -0.359 A  
HETATM   28  O   UNL     1     -11.134   7.068  73.165  1.00  0.00    -0.279 OA 
ENDBRANCH   3  19
TORSDOF 8
ENDMDL
MODEL       45
REMARK 921   NORMALIZED FREE ENERGY PREDICTED BY IDOCK:   -6.01 KCAL/MOL
REMARK 922        TOTAL FREE ENERGY PREDICTED BY IDOCK:  -10.02 KCAL/MOL
REMARK 923 INTER-LIGAND FREE ENERGY PREDICTED BY IDOCK:   -8.87 KCAL/MOL
REMARK 924 INTRA-LIGAND FREE ENERGY PREDICTED BY IDOCK:   -1.16 KCAL/MOL
REMARK 927      BINDING AFFINITY PREDICTED BY RF-SCORE:    0.00 PKD
ROOT
HETATM    1  O   UNL     1     -12.827  10.362  69.522  1.00  0.00    -0.632 OA 
HETATM    2  H   UNL     1     -13.377  10.091  70.249  1.00  0.00     0.000 HD 
HETATM    3  C   UNL     1     -11.753  11.175  70.011  1.00  0.00    -0.356 C  
ENDROOT
BRANCH   3   4
HETATM    4  C   UNL     1     -10.859  11.616  68.827  1.00  0.00    -0.220 C  
BRANCH   4   5
HETATM    5  N   UNL     1     -11.426  11.200  67.525  1.00  0.00    -0.510 NA 
HETATM    6  H   UNL     1     -12.188  11.810  67.227  1.00  0.00     0.000 HD 
BRANCH   5   7
HETATM    7  C   UNL     1     -10.364  11.115  66.517  1.00  0.00    -0.243 C  
BRANCH   7   8
HETATM    8  C   UNL     1     -10.892  11.581  65.157  1.00  0.00    -0.326 C  
BRANCH   8   9
HETATM    9  C   UNL     1     -12.085  12.523  65.335  1.00  0.00    -0.494 C  
BRANCH   9  10
HETATM   10  C   UNL     1     -11.904  13.824  64.548  1.00  0.00    -0.445 C  
BRANCH  10  11
HETATM   11  C   UNL     1     -11.413  14.933  65.447  1.00  0.00    -0.320 A  
HETATM   12  C   UNL     1     -11.410  14.772  66.840  1.00  0.00    -0.358 A  
HETATM   13  C   UNL     1     -11.007  15.817  67.675  1.00  0.00    -0.302 A  
HETATM   14  C   UNL     1     -10.609  17.026  67.114  1.00  0.00    -0.245 A  
HETATM   15  O   UNL     1     -10.226  18.078  67.892  1.00  0.00    -0.340 OA 
HETATM   16  C   UNL     1     -10.598  17.202  65.737  1.00  0.00    -0.201 A  
HETATM   17  H   UNL     1      -9.955  18.904  67.509  1.00  0.00     0.000 HD 
HETATM   18  C   UNL     1     -11.001  16.157  64.903  1.00  0.00    -0.364 A  
ENDBRANCH  10  11
ENDBRANCH   9  10
ENDBRANCH   8   9
ENDBRANCH   7   8
ENDBRANCH   5   7
ENDBRANCH   4   5
ENDBRANCH   3   4
BRANCH   3  19
HETATM   19  C   UNL     1     -12.308  12.371  70.758  1.00  0.00    -0.377 A  
HETATM   20  C   UNL     1     -11.932  13.683  70.422  1.00  0.00    -0.372 A  
HETATM   21  H   UNL     1     -14.389  15.453  73.647  1.00  0.00     0.000 HD 
HETATM   22  C   UNL     1     -13.193  12.173  71.835  1.00  0.00    -0.474 A  
HETATM   23  H   UNL     1     -12.438  16.782  71.354  1.00  0.00     0.000 HD 
HETATM   24  C   UNL     1     -12.435  14.756  71.148  1.00  0.00    -0.329 A  
HETATM   25  C   UNL     1     -13.695  13.256  72.560  1.00  0.00    -0.613 A  
HETATM   26  O   UNL     1     -12.094  16.048  70.858  1.00  0.00    -0.394 OA 
HETATM   27  C   UNL     1     -13.309  14.540  72.212  1.00  0.00    -0.403 A  
HETATM   28  O   UNL     1     -13.793  15.601  72.923  1.00  0.00    -0.551 OA 
ENDBRANCH   3  19
TORSDOF 8
ENDMDL
MODEL       46
REMARK 921   NORMALIZED FREE ENERGY PREDICTED BY IDOCK:   -5.97 KCAL/MOL
REMARK 922        TOTAL FREE ENERGY PREDICTED BY IDOCK:   -9.96 KCAL/MOL
REMARK 923 INTER-LIGAND FREE ENERGY PREDICTED BY IDOCK:   -8.55 KCAL/MOL
REMARK 924 INTRA-LIGAND FREE ENERGY PREDICTED BY IDOCK:   -1.42 KCAL/MOL
REMARK 927      BINDING AFFINITY PREDICTED BY RF-SCORE:    0.00 PKD
ROOT
HETATM    1  O   UNL     1     -12.689  12.468  65.076  1.00  0.00    -0.649 OA 
HETATM    2  H   UNL     1     -13.211  11.699  65.280  1.00  0.00     0.000 HD 
HETATM    3  C   UNL     1     -11.299  12.118  65.082  1.00  0.00    -0.327 C  
ENDROOT
BRANCH   3   4
HETATM    4  C   UNL     1     -10.451  13.369  64.751  1.00  0.00    -0.403 C  
BRANCH   4   5
HETATM    5  N   UNL     1     -11.295  14.568  64.550  1.00  0.00    -0.574 NA 
HETATM    6  H   UNL     1     -12.281  14.376  64.727  1.00  0.00     0.000 HD 
BRANCH   5   7
HETATM    7  C   UNL     1     -10.796  15.678  65.371  1.00  0.00    -0.381 C  
BRANCH   7   8
HETATM    8  C   UNL     1     -10.278  15.150  66.711  1.00  0.00    -0.265 C  
BRANCH   8   9
HETATM    9  C   UNL     1     -11.371  15.222  67.779  1.00  0.00    -0.331 C  
BRANCH   9  10
HETATM   10  C   UNL     1     -10.939  14.540  69.080  1.00  0.00    -0.286 C  
BRANCH  10  11
HETATM   11  C   UNL     1     -11.765  15.028  70.245  1.00  0.00    -0.338 A  
HETATM   12  C   UNL     1     -11.179  15.799  71.260  1.00  0.00    -0.376 A  
HETATM   13  C   UNL     1     -11.929  16.207  72.366  1.00  0.00    -0.649 A  
HETATM   14  C   UNL     1     -13.267  15.839  72.457  1.00  0.00    -0.487 A  
HETATM   15  O   UNL     1     -14.031  16.200  73.528  1.00  0.00    -0.825 OA 
HETATM   16  C   UNL     1     -13.868  15.084  71.459  1.00  0.00    -0.570 A  
HETATM   17  H   UNL     1     -14.945  15.949  73.590  1.00  0.00     0.000 HD 
HETATM   18  C   UNL     1     -13.118  14.677  70.354  1.00  0.00    -0.161 A  
ENDBRANCH  10  11
ENDBRANCH   9  10
ENDBRANCH   8   9
ENDBRANCH   7   8
ENDBRANCH   5   7
ENDBRANCH   4   5
ENDBRANCH   3   4
BRANCH   3  19
HETATM   19  C   UNL     1     -10.919  11.535  66.428  1.00  0.00    -0.336 A  
HETATM   20  C   UNL     1     -11.838  11.480  67.489  1.00  0.00    -0.157 A  
HETATM   21  H   UNL     1      -8.882   9.701  70.258  1.00  0.00     0.000 HD 
HETATM   22  C   UNL     1      -9.607  11.066  66.640  1.00  0.00    -0.216 A  
HETATM   23  H   UNL     1     -12.041  10.547  70.622  1.00  0.00     0.000 HD 
HETATM   24  C   UNL     1     -11.447  10.967  68.720  1.00  0.00    -0.305 A  
HETATM   25  C   UNL     1      -9.221  10.552  67.880  1.00  0.00    -0.143 A  
HETATM   26  O   UNL     1     -12.308  10.898  69.781  1.00  0.00    -0.330 OA 
HETATM   27  C   UNL     1     -10.145  10.510  68.912  1.00  0.00    -0.202 A  
HETATM   28  O   UNL     1      -9.769  10.014  70.127  1.00  0.00    -0.233 OA 
ENDBRANCH   3  19
TORSDOF 8
ENDMDL
MODEL       47
REMARK 921   NORMALIZED FREE ENERGY PREDICTED BY IDOCK:   -5.95 KCAL/MOL
REMARK 922        TOTAL FREE ENERGY PREDICTED BY IDOCK:   -9.94 KCAL/MOL
REMARK 923 INTER-LIGAND FREE ENERGY PREDICTED BY IDOCK:   -7.94 KCAL/MOL
REMARK 924 INTRA-LIGAND FREE ENERGY PREDICTED BY IDOCK:   -1.99 KCAL/MOL
REMARK 927      BINDING AFFINITY PREDICTED BY RF-SCORE:    0.00 PKD
ROOT
HETATM    1  O   UNL     1      -9.196  12.437  68.590  1.00  0.00    -0.374 OA 
HETATM    2  H   UNL     1      -8.419  12.705  68.112  1.00  0.00     0.000 HD 
HETATM    3  C   UNL     1     -10.238  12.109  67.662  1.00  0.00    -0.197 C  
ENDROOT
BRANCH   3   4
HETATM    4  C   UNL     1     -11.502  11.672  68.439  1.00  0.00    -0.297 C  
BRANCH   4   5
HETATM    5  N   UNL     1     -11.454  12.101  69.854  1.00  0.00    -0.506 NA 
HETATM    6  H   UNL     1     -10.508  12.346  70.147  1.00  0.00     0.000 HD 
BRANCH   5   7
HETATM    7  C   UNL     1     -12.400  13.200  70.080  1.00  0.00    -0.213 C  
BRANCH   7   8
HETATM    8  C   UNL     1     -11.866  14.138  71.167  1.00  0.00    -0.209 C  
BRANCH   8   9
HETATM    9  C   UNL     1     -11.975  15.598  70.722  1.00  0.00    -0.438 C  
BRANCH   9  10
HETATM   10  C   UNL     1     -11.695  15.759  69.226  1.00  0.00    -0.384 C  
BRANCH  10  11
HETATM   11  C   UNL     1     -10.397  16.495  68.996  1.00  0.00    -0.296 A  
HETATM   12  C   UNL     1     -10.396  17.771  68.414  1.00  0.00    -0.378 A  
HETATM   13  C   UNL     1      -9.194  18.431  68.152  1.00  0.00    -0.327 A  
HETATM   14  C   UNL     1      -7.990  17.811  68.470  1.00  0.00    -0.294 A  
HETATM   15  O   UNL     1      -6.792  18.412  68.214  1.00  0.00    -0.225 OA 
HETATM   16  C   UNL     1      -7.970  16.552  69.055  1.00  0.00    -0.225 A  
HETATM   17  H   UNL     1      -5.970  17.988  68.431  1.00  0.00     0.000 HD 
HETATM   18  C   UNL     1      -9.173  15.893  69.316  1.00  0.00    -0.254 A  
ENDBRANCH  10  11
ENDBRANCH   9  10
ENDBRANCH   8   9
ENDBRANCH   7   8
ENDBRANCH   5   7
ENDBRANCH   4   5
ENDBRANCH   3   4
BRANCH   3  19
HETATM   19  C   UNL     1     -10.525  13.298  66.766  1.00  0.00    -0.270 A  
HETATM   20  C   UNL     1     -11.791  13.489  66.187  1.00  0.00    -0.426 A  
HETATM   21  H   UNL     1     -10.508  17.140  64.044  1.00  0.00     0.000 HD 
HETATM   22  C   UNL     1      -9.498  14.217  66.474  1.00  0.00    -0.303 A  
HETATM   23  H   UNL     1     -13.378  15.536  64.182  1.00  0.00     0.000 HD 
HETATM   24  C   UNL     1     -12.012  14.573  65.345  1.00  0.00    -0.332 A  
HETATM   25  C   UNL     1      -9.727  15.304  65.627  1.00  0.00    -0.360 A  
HETATM   26  O   UNL     1     -13.227  14.796  64.758  1.00  0.00    -0.204 OA 
HETATM   27  C   UNL     1     -10.983  15.470  65.067  1.00  0.00    -0.440 A  
HETATM   28  O   UNL     1     -11.209  16.528  64.233  1.00  0.00    -0.992 OA 
ENDBRANCH   3  19
TORSDOF 8
ENDMDL
MODEL       48
REMARK 921   NORMALIZED FREE ENERGY PREDICTED BY IDOCK:   -5.93 KCAL/MOL
REMARK 922        TOTAL FREE ENERGY PREDICTED BY IDOCK:   -9.90 KCAL/MOL
REMARK 923 INTER-LIGAND FREE ENERGY PREDICTED BY IDOCK:   -8.34 KCAL/MOL
REMARK 924 INTRA-LIGAND FREE ENERGY PREDICTED BY IDOCK:   -1.57 KCAL/MOL
REMARK 927      BINDING AFFINITY PREDICTED BY RF-SCORE:    0.00 PKD
ROOT
HETATM    1  O   UNL     1      -9.469  10.820  65.221  1.00  0.00    -0.193 OA 
HETATM    2  H   UNL     1      -9.474  10.878  64.272  1.00  0.00     0.000 HD 
HETATM    3  C   UNL     1     -10.719  11.294  65.736  1.00  0.00    -0.223 C  
ENDROOT
BRANCH   3   4
HETATM    4  C   UNL     1     -10.711  11.199  67.281  1.00  0.00    -0.258 C  
BRANCH   4   5
HETATM    5  N   UNL     1     -11.915  11.821  67.876  1.00  0.00    -0.597 NA 
HETATM    6  H   UNL     1     -12.607  11.124  68.153  1.00  0.00     0.000 HD 
BRANCH   5   7
HETATM    7  C   UNL     1     -11.532  12.690  68.994  1.00  0.00    -0.303 C  
BRANCH   7   8
HETATM    8  C   UNL     1     -11.801  14.155  68.637  1.00  0.00    -0.383 C  
BRANCH   8   9
HETATM    9  C   UNL     1     -10.546  15.003  68.853  1.00  0.00    -0.242 C  
BRANCH   9  10
HETATM   10  C   UNL     1     -10.890  16.418  69.324  1.00  0.00    -0.327 C  
BRANCH  10  11
HETATM   11  C   UNL     1     -10.222  17.454  68.452  1.00  0.00    -0.362 A  
HETATM   12  C   UNL     1     -10.976  18.220  67.551  1.00  0.00    -0.140 A  
HETATM   13  C   UNL     1     -10.353  19.141  66.706  1.00  0.00    -0.507 A  
HETATM   14  C   UNL     1      -8.971  19.292  66.761  1.00  0.00    -0.327 A  
HETATM   15  O   UNL     1      -8.319  20.166  65.941  1.00  0.00    -0.535 OA 
HETATM   16  C   UNL     1      -8.208  18.549  67.652  1.00  0.00    -0.267 A  
HETATM   17  H   UNL     1      -7.376  20.269  65.978  1.00  0.00     0.000 HD 
HETATM   18  C   UNL     1      -8.832  17.629  68.496  1.00  0.00    -0.285 A  
ENDBRANCH  10  11
ENDBRANCH   9  10
ENDBRANCH   8   9
ENDBRANCH   7   8
ENDBRANCH   5   7
ENDBRANCH   4   5
ENDBRANCH   3   4
BRANCH   3  19
HETATM   19  C   UNL     1     -10.963  12.717  65.273  1.00  0.00    -0.320 A  
HETATM   20  C   UNL     1     -10.002  13.724  65.465  1.00  0.00    -0.260 A  
HETATM   21  H   UNL     1     -12.575  16.837  63.661  1.00  0.00     0.000 HD 
HETATM   22  C   UNL     1     -12.188  13.054  64.666  1.00  0.00    -0.477 A  
HETATM   23  H   UNL     1      -9.548  16.926  64.948  1.00  0.00     0.000 HD 
HETATM   24  C   UNL     1     -10.270  15.026  65.057  1.00  0.00    -0.314 A  
HETATM   25  C   UNL     1     -12.451  14.364  64.258  1.00  0.00    -0.303 A  
HETATM   26  O   UNL     1      -9.365  16.037  65.227  1.00  0.00    -0.255 OA 
HETATM   27  C   UNL     1     -11.489  15.340  64.460  1.00  0.00    -0.315 A  
HETATM   28  O   UNL     1     -11.745  16.623  64.068  1.00  0.00    -1.143 OA 
ENDBRANCH   3  19
TORSDOF 8
ENDMDL
MODEL       49
REMARK 921   NORMALIZED FREE ENERGY PREDICTED BY IDOCK:   -5.89 KCAL/MOL
REMARK 922        TOTAL FREE ENERGY PREDICTED BY IDOCK:   -9.85 KCAL/MOL
REMARK 923 INTER-LIGAND FREE ENERGY PREDICTED BY IDOCK:   -8.84 KCAL/MOL
REMARK 924 INTRA-LIGAND FREE ENERGY PREDICTED BY IDOCK:   -1.02 KCAL/MOL
REMARK 927      BINDING AFFINITY PREDICTED BY RF-SCORE:    0.00 PKD
ROOT
HETATM    1  O   UNL     1     -11.262   8.445  69.703  1.00  0.00    -0.444 OA 
HETATM    2  H   UNL     1     -11.178   8.271  70.634  1.00  0.00     0.000 HD 
HETATM    3  C   UNL     1     -10.896   9.804  69.435  1.00  0.00    -0.232 C  
ENDROOT
BRANCH   3   4
HETATM    4  C   UNL     1     -11.034  10.086  67.920  1.00  0.00    -0.252 C  
BRANCH   4   5
HETATM    5  N   UNL     1     -10.748   8.883  67.108  1.00  0.00    -0.358 NA 
HETATM    6  H   UNL     1     -11.602   8.441  66.767  1.00  0.00     0.000 HD 
BRANCH   5   7
HETATM    7  C   UNL     1      -9.829   9.218  66.015  1.00  0.00    -0.293 C  
BRANCH   7   8
HETATM    8  C   UNL     1      -9.943  10.705  65.670  1.00  0.00    -0.327 C  
BRANCH   8   9
HETATM    9  C   UNL     1     -10.396  10.890  64.220  1.00  0.00    -0.436 C  
BRANCH   9  10
HETATM   10  C   UNL     1     -11.564  11.874  64.111  1.00  0.00    -0.434 C  
BRANCH  10  11
HETATM   11  C   UNL     1     -11.392  13.025  65.072  1.00  0.00    -0.325 A  
HETATM   12  C   UNL     1     -12.237  13.157  66.184  1.00  0.00    -0.451 A  
HETATM   13  C   UNL     1     -12.114  14.250  67.044  1.00  0.00    -0.424 A  
HETATM   14  C   UNL     1     -11.145  15.215  66.790  1.00  0.00    -0.307 A  
HETATM   15  O   UNL     1     -11.002  16.308  67.593  1.00  0.00    -0.315 OA 
HETATM   16  C   UNL     1     -10.293  15.098  65.699  1.00  0.00    -0.379 A  
HETATM   17  H   UNL     1     -10.341  16.967  67.419  1.00  0.00     0.000 HD 
HETATM   18  C   UNL     1     -10.417  14.005  64.839  1.00  0.00    -0.453 A  
ENDBRANCH  10  11
ENDBRANCH   9  10
ENDBRANCH   8   9
ENDBRANCH   7   8
ENDBRANCH   5   7
ENDBRANCH   4   5
ENDBRANCH   3   4
BRANCH   3  19
HETATM   19  C   UNL     1     -11.761  10.743  70.251  1.00  0.00    -0.442 A  
HETATM   20  C   UNL     1     -11.702  12.136  70.072  1.00  0.00    -0.330 A  
HETATM   21  H   UNL     1     -14.667  12.901  73.265  1.00  0.00     0.000 HD 
HETATM   22  C   UNL     1     -12.621  10.221  71.238  1.00  0.00    -0.522 A  
HETATM   23  H   UNL     1     -12.994  14.902  71.258  1.00  0.00     0.000 HD 
HETATM   24  C   UNL     1     -12.486  12.971  70.859  1.00  0.00    -0.310 A  
HETATM   25  C   UNL     1     -13.407  11.066  72.025  1.00  0.00    -0.393 A  
HETATM   26  O   UNL     1     -12.458  14.331  70.720  1.00  0.00    -0.313 OA 
HETATM   27  C   UNL     1     -13.330  12.436  71.830  1.00  0.00    -0.349 A  
HETATM   28  O   UNL     1     -14.091  13.266  72.603  1.00  0.00    -0.744 OA 
ENDBRANCH   3  19
TORSDOF 8
ENDMDL
MODEL       50
REMARK 921   NORMALIZED FREE ENERGY PREDICTED BY IDOCK:   -5.88 KCAL/MOL
REMARK 922        TOTAL FREE ENERGY PREDICTED BY IDOCK:   -9.84 KCAL/MOL
REMARK 923 INTER-LIGAND FREE ENERGY PREDICTED BY IDOCK:   -8.83 KCAL/MOL
REMARK 924 INTRA-LIGAND FREE ENERGY PREDICTED BY IDOCK:   -1.01 KCAL/MOL
REMARK 927      BINDING AFFINITY PREDICTED BY RF-SCORE:    0.00 PKD
ROOT
HETATM    1  O   UNL     1     -11.796   6.758  69.460  1.00  0.00    -0.635 OA 
HETATM    2  H   UNL     1     -12.709   6.618  69.684  1.00  0.00     0.000 HD 
HETATM    3  C   UNL     1     -11.121   7.372  70.566  1.00  0.00    -0.261 C  
ENDROOT
BRANCH   3   4
HETATM    4  C   UNL     1      -9.635   7.599  70.202  1.00  0.00    -0.168 C  
BRANCH   4   5
HETATM    5  N   UNL     1      -9.308   7.060  68.863  1.00  0.00    -0.139 NA 
HETATM    6  H   UNL     1     -10.050   6.461  68.501  1.00  0.00     0.000 HD 
BRANCH   5   7
HETATM    7  C   UNL     1      -8.990   8.158  67.942  1.00  0.00    -0.133 C  
BRANCH   7   8
HETATM    8  C   UNL     1      -9.598   7.881  66.565  1.00  0.00    -0.281 C  
BRANCH   8   9
HETATM    9  C   UNL     1      -9.760   9.181  65.774  1.00  0.00    -0.299 C  
BRANCH   9  10
HETATM   10  C   UNL     1     -10.388  10.289  66.624  1.00  0.00    -0.283 C  
BRANCH  10  11
HETATM   11  C   UNL     1     -10.914  11.404  65.754  1.00  0.00    -0.256 A  
HETATM   12  C   UNL     1     -11.656  12.455  66.314  1.00  0.00    -0.449 A  
HETATM   13  C   UNL     1     -12.189  13.459  65.503  1.00  0.00    -0.499 A  
HETATM   14  C   UNL     1     -11.983  13.409  64.128  1.00  0.00    -0.450 A  
HETATM   15  O   UNL     1     -12.501  14.358  63.297  1.00  0.00    -1.099 OA 
HETATM   16  C   UNL     1     -11.245  12.382  63.556  1.00  0.00    -0.540 A  
HETATM   17  H   UNL     1     -12.361  14.324  62.359  1.00  0.00     0.000 HD 
HETATM   18  C   UNL     1     -10.712  11.378  64.367  1.00  0.00    -0.405 A  
ENDBRANCH  10  11
ENDBRANCH   9  10
ENDBRANCH   8   9
ENDBRANCH   7   8
ENDBRANCH   5   7
ENDBRANCH   4   5
ENDBRANCH   3   4
BRANCH   3  19
HETATM   19  C   UNL     1     -11.804   8.675  70.930  1.00  0.00    -0.257 A  
HETATM   20  C   UNL     1     -11.416   9.893  70.346  1.00  0.00    -0.372 A  
HETATM   21  H   UNL     1     -14.345  12.218  72.710  1.00  0.00     0.000 HD 
HETATM   22  C   UNL     1     -12.828   8.681  71.897  1.00  0.00    -0.411 A  
HETATM   23  H   UNL     1     -12.122  13.090  70.445  1.00  0.00     0.000 HD 
HETATM   24  C   UNL     1     -12.042  11.075  70.726  1.00  0.00    -0.366 A  
HETATM   25  C   UNL     1     -13.453   9.872  72.273  1.00  0.00    -0.397 A  
HETATM   26  O   UNL     1     -11.695  12.282  70.186  1.00  0.00    -0.293 OA 
HETATM   27  C   UNL     1     -13.052  11.060  71.685  1.00  0.00    -0.438 A  
HETATM   28  O   UNL     1     -13.656  12.228  72.056  1.00  0.00    -0.400 OA 
ENDBRANCH   3  19
TORSDOF 8
ENDMDL
MODEL       51
REMARK 921   NORMALIZED FREE ENERGY PREDICTED BY IDOCK:   -5.88 KCAL/MOL
REMARK 922        TOTAL FREE ENERGY PREDICTED BY IDOCK:   -9.84 KCAL/MOL
REMARK 923 INTER-LIGAND FREE ENERGY PREDICTED BY IDOCK:   -8.89 KCAL/MOL
REMARK 924 INTRA-LIGAND FREE ENERGY PREDICTED BY IDOCK:   -0.95 KCAL/MOL
REMARK 927      BINDING AFFINITY PREDICTED BY RF-SCORE:    0.00 PKD
ROOT
HETATM    1  O   UNL     1     -12.371  14.267  63.694  1.00  0.00    -1.035 OA 
HETATM    2  H   UNL     1     -11.787  14.254  62.944  1.00  0.00     0.000 HD 
HETATM    3  C   UNL     1     -11.631  13.964  64.883  1.00  0.00    -0.359 C  
ENDROOT
BRANCH   3   4
HETATM    4  C   UNL     1     -12.583  13.985  66.103  1.00  0.00    -0.367 C  
BRANCH   4   5
HETATM    5  N   UNL     1     -12.209  15.037  67.073  1.00  0.00    -0.206 NA 
HETATM    6  H   UNL     1     -13.022  15.558  67.404  1.00  0.00     0.000 HD 
BRANCH   5   7
HETATM    7  C   UNL     1     -11.444  14.453  68.181  1.00  0.00    -0.310 C  
BRANCH   7   8
HETATM    8  C   UNL     1     -12.211  14.620  69.495  1.00  0.00    -0.297 C  
BRANCH   8   9
HETATM    9  C   UNL     1     -12.079  13.366  70.361  1.00  0.00    -0.405 C  
BRANCH   9  10
HETATM   10  C   UNL     1     -11.843  12.113  69.514  1.00  0.00    -0.386 C  
BRANCH  10  11
HETATM   11  C   UNL     1     -11.950  10.865  70.357  1.00  0.00    -0.453 A  
HETATM   12  C   UNL     1     -13.033  10.685  71.229  1.00  0.00    -0.513 A  
HETATM   13  C   UNL     1     -13.106   9.556  72.048  1.00  0.00    -0.528 A  
HETATM   14  C   UNL     1     -12.091   8.607  71.996  1.00  0.00    -0.375 A  
HETATM   15  O   UNL     1     -12.112   7.500  72.792  1.00  0.00    -0.556 OA 
HETATM   16  C   UNL     1     -11.014   8.763  71.133  1.00  0.00    -0.334 A  
HETATM   17  H   UNL     1     -11.419   6.852  72.757  1.00  0.00     0.000 HD 
HETATM   18  C   UNL     1     -10.942   9.892  70.315  1.00  0.00    -0.366 A  
ENDBRANCH  10  11
ENDBRANCH   9  10
ENDBRANCH   8   9
ENDBRANCH   7   8
ENDBRANCH   5   7
ENDBRANCH   4   5
ENDBRANCH   3   4
BRANCH   3  19
HETATM   19  C   UNL     1     -10.951  12.617  64.738  1.00  0.00    -0.334 A  
HETATM   20  C   UNL     1     -10.639  11.830  65.860  1.00  0.00    -0.314 A  
HETATM   21  H   UNL     1      -8.746   8.676  63.404  1.00  0.00     0.000 HD 
HETATM   22  C   UNL     1     -10.587  12.151  63.460  1.00  0.00    -0.501 A  
HETATM   23  H   UNL     1      -9.214   8.988  66.646  1.00  0.00     0.000 HD 
HETATM   24  C   UNL     1      -9.985  10.615  65.695  1.00  0.00    -0.268 A  
HETATM   25  C   UNL     1      -9.931  10.929  63.301  1.00  0.00    -0.399 A  
HETATM   26  O   UNL     1      -9.661   9.818  66.759  1.00  0.00    -0.162 OA 
HETATM   27  C   UNL     1      -9.633  10.171  64.422  1.00  0.00    -0.302 A  
HETATM   28  O   UNL     1      -8.986   8.978  64.271  1.00  0.00    -0.123 OA 
ENDBRANCH   3  19
TORSDOF 8
ENDMDL
MODEL       52
REMARK 921   NORMALIZED FREE ENERGY PREDICTED BY IDOCK:   -5.88 KCAL/MOL
REMARK 922        TOTAL FREE ENERGY PREDICTED BY IDOCK:   -9.83 KCAL/MOL
REMARK 923 INTER-LIGAND FREE ENERGY PREDICTED BY IDOCK:   -8.79 KCAL/MOL
REMARK 924 INTRA-LIGAND FREE ENERGY PREDICTED BY IDOCK:   -1.04 KCAL/MOL
REMARK 927      BINDING AFFINITY PREDICTED BY RF-SCORE:    0.00 PKD
ROOT
HETATM    1  O   UNL     1     -11.563   6.618  66.751  1.00  0.00    -0.718 OA 
HETATM    2  H   UNL     1     -12.345   6.208  67.105  1.00  0.00     0.000 HD 
HETATM    3  C   UNL     1     -10.447   6.332  67.603  1.00  0.00    -0.230 C  
ENDROOT
BRANCH   3   4
HETATM    4  C   UNL     1      -9.174   6.998  67.027  1.00  0.00    -0.147 C  
BRANCH   4   5
HETATM    5  N   UNL     1      -9.455   7.724  65.769  1.00  0.00    -0.405 NA 
HETATM    6  H   UNL     1     -10.452   7.740  65.552  1.00  0.00     0.000 HD 
BRANCH   5   7
HETATM    7  C   UNL     1      -8.884   9.074  65.828  1.00  0.00    -0.179 C  
BRANCH   7   8
HETATM    8  C   UNL     1      -9.995  10.121  65.704  1.00  0.00    -0.348 C  
BRANCH   8   9
HETATM    9  C   UNL     1     -10.073  10.979  66.968  1.00  0.00    -0.232 C  
BRANCH   9  10
HETATM   10  C   UNL     1     -11.395  11.747  67.053  1.00  0.00    -0.387 C  
BRANCH  10  11
HETATM   11  C   UNL     1     -11.378  12.952  66.145  1.00  0.00    -0.356 A  
HETATM   12  C   UNL     1     -10.377  13.927  66.274  1.00  0.00    -0.293 A  
HETATM   13  C   UNL     1     -10.390  15.069  65.471  1.00  0.00    -0.397 A  
HETATM   14  C   UNL     1     -11.409  15.238  64.539  1.00  0.00    -0.300 A  
HETATM   15  O   UNL     1     -11.471  16.347  63.748  1.00  0.00    -1.590 OA 
HETATM   16  C   UNL     1     -12.404  14.281  64.391  1.00  0.00    -0.417 A  
HETATM   17  H   UNL     1     -12.167  16.463  63.112  1.00  0.00     0.000 HD 
HETATM   18  C   UNL     1     -12.390  13.140  65.194  1.00  0.00    -0.525 A  
ENDBRANCH  10  11
ENDBRANCH   9  10
ENDBRANCH   8   9
ENDBRANCH   7   8
ENDBRANCH   5   7
ENDBRANCH   4   5
ENDBRANCH   3   4
BRANCH   3  19
HETATM   19  C   UNL     1     -10.733   6.815  69.010  1.00  0.00    -0.280 A  
HETATM   20  C   UNL     1     -10.930   5.912  70.069  1.00  0.00    -0.430 A  
HETATM   21  H   UNL     1     -11.688   9.149  72.988  1.00  0.00     0.000 HD 
HETATM   22  C   UNL     1     -10.839   8.196  69.267  1.00  0.00    -0.064 A  
HETATM   23  H   UNL     1     -11.624   5.871  73.270  1.00  0.00     0.000 HD 
HETATM   24  C   UNL     1     -11.223   6.388  71.342  1.00  0.00    -0.288 A  
HETATM   25  C   UNL     1     -11.133   8.668  70.548  1.00  0.00    -0.268 A  
HETATM   26  O   UNL     1     -11.425   5.546  72.400  1.00  0.00    -0.267 OA 
HETATM   27  C   UNL     1     -11.325   7.758  71.575  1.00  0.00    -0.255 A  
HETATM   28  O   UNL     1     -11.619   8.215  72.828  1.00  0.00    -0.411 OA 
ENDBRANCH   3  19
TORSDOF 8
ENDMDL
MODEL       53
REMARK 921   NORMALIZED FREE ENERGY PREDICTED BY IDOCK:   -5.87 KCAL/MOL
REMARK 922        TOTAL FREE ENERGY PREDICTED BY IDOCK:   -9.81 KCAL/MOL
REMARK 923 INTER-LIGAND FREE ENERGY PREDICTED BY IDOCK:   -7.87 KCAL/MOL
REMARK 924 INTRA-LIGAND FREE ENERGY PREDICTED BY IDOCK:   -1.95 KCAL/MOL
REMARK 927      BINDING AFFINITY PREDICTED BY RF-SCORE:    0.00 PKD
ROOT
HETATM    1  O   UNL     1     -10.121   8.316  65.871  1.00  0.00    -0.410 OA 
HETATM    2  H   UNL     1     -10.174   7.620  66.517  1.00  0.00     0.000 HD 
HETATM    3  C   UNL     1      -9.435   9.441  66.434  1.00  0.00    -0.201 C  
ENDROOT
BRANCH   3   4
HETATM    4  C   UNL     1      -9.350  10.573  65.383  1.00  0.00    -0.211 C  
BRANCH   4   5
HETATM    5  N   UNL     1     -10.246  10.323  64.232  1.00  0.00    -0.425 NA 
HETATM    6  H   UNL     1     -11.122   9.885  64.518  1.00  0.00     0.000 HD 
BRANCH   5   7
HETATM    7  C   UNL     1     -10.472  11.568  63.490  1.00  0.00    -0.428 C  
BRANCH   7   8
HETATM    8  C   UNL     1     -11.919  12.034  63.672  1.00  0.00    -0.612 C  
BRANCH   8   9
HETATM    9  C   UNL     1     -11.963  13.477  64.179  1.00  0.00    -0.498 C  
BRANCH   9  10
HETATM   10  C   UNL     1     -10.581  13.968  64.616  1.00  0.00    -0.416 C  
BRANCH  10  11
HETATM   11  C   UNL     1     -10.537  14.200  66.107  1.00  0.00    -0.293 A  
HETATM   12  C   UNL     1      -9.397  13.855  66.848  1.00  0.00    -0.265 A  
HETATM   13  C   UNL     1      -9.375  14.019  68.235  1.00  0.00    -0.208 A  
HETATM   14  C   UNL     1     -10.498  14.526  68.881  1.00  0.00    -0.246 A  
HETATM   15  O   UNL     1     -10.526  14.684  70.235  1.00  0.00    -0.457 OA 
HETATM   16  C   UNL     1     -11.633  14.880  68.164  1.00  0.00    -0.356 A  
HETATM   17  H   UNL     1     -11.293  15.030  70.677  1.00  0.00     0.000 HD 
HETATM   18  C   UNL     1     -11.654  14.716  66.778  1.00  0.00    -0.370 A  
ENDBRANCH  10  11
ENDBRANCH   9  10
ENDBRANCH   8   9
ENDBRANCH   7   8
ENDBRANCH   5   7
ENDBRANCH   4   5
ENDBRANCH   3   4
BRANCH   3  19
HETATM   19  C   UNL     1     -10.147   9.906  67.689  1.00  0.00    -0.241 A  
HETATM   20  C   UNL     1      -9.798   9.411  68.956  1.00  0.00    -0.171 A  
HETATM   21  H   UNL     1     -12.932  11.775  70.996  1.00  0.00     0.000 HD 
HETATM   22  C   UNL     1     -11.207  10.829  67.589  1.00  0.00    -0.370 A  
HETATM   23  H   UNL     1     -10.662   9.666  72.105  1.00  0.00     0.000 HD 
HETATM   24  C   UNL     1     -10.493   9.834  70.083  1.00  0.00    -0.286 A  
HETATM   25  C   UNL     1     -11.901  11.251  68.725  1.00  0.00    -0.396 A  
HETATM   26  O   UNL     1     -10.187   9.376  71.335  1.00  0.00    -0.316 OA 
HETATM   27  C   UNL     1     -11.538  10.747  69.964  1.00  0.00    -0.334 A  
HETATM   28  O   UNL     1     -12.219  11.152  71.077  1.00  0.00    -0.356 OA 
ENDBRANCH   3  19
TORSDOF 8
ENDMDL
MODEL       54
REMARK 921   NORMALIZED FREE ENERGY PREDICTED BY IDOCK:   -5.85 KCAL/MOL
REMARK 922        TOTAL FREE ENERGY PREDICTED BY IDOCK:   -9.79 KCAL/MOL
REMARK 923 INTER-LIGAND FREE ENERGY PREDICTED BY IDOCK:   -8.07 KCAL/MOL
REMARK 924 INTRA-LIGAND FREE ENERGY PREDICTED BY IDOCK:   -1.72 KCAL/MOL
REMARK 927      BINDING AFFINITY PREDICTED BY RF-SCORE:    0.00 PKD
ROOT
HETATM    1  O   UNL     1      -9.538   9.373  63.434  1.00  0.00    -0.425 OA 
HETATM    2  H   UNL     1      -9.049   8.651  63.813  1.00  0.00     0.000 HD 
HETATM    3  C   UNL     1      -9.129  10.602  64.047  1.00  0.00    -0.224 C  
ENDROOT
BRANCH   3   4
HETATM    4  C   UNL     1      -9.926  11.777  63.431  1.00  0.00    -0.423 C  
BRANCH   4   5
HETATM    5  N   UNL     1     -11.247  11.340  62.925  1.00  0.00    -0.734 NA 
HETATM    6  H   UNL     1     -11.341  10.324  62.931  1.00  0.00     0.000 HD 
BRANCH   5   7
HETATM    7  C   UNL     1     -12.318  11.995  63.683  1.00  0.00    -0.539 C  
BRANCH   7   8
HETATM    8  C   UNL     1     -11.858  13.375  64.159  1.00  0.00    -0.492 C  
BRANCH   8   9
HETATM    9  C   UNL     1     -12.503  13.728  65.501  1.00  0.00    -0.548 C  
BRANCH   9  10
HETATM   10  C   UNL     1     -11.795  13.040  66.670  1.00  0.00    -0.455 C  
BRANCH  10  11
HETATM   11  C   UNL     1     -11.829  13.906  67.906  1.00  0.00    -0.413 A  
HETATM   12  C   UNL     1     -11.656  15.294  67.807  1.00  0.00    -0.277 A  
HETATM   13  C   UNL     1     -11.633  16.091  68.954  1.00  0.00    -0.354 A  
HETATM   14  C   UNL     1     -11.780  15.495  70.203  1.00  0.00    -0.347 A  
HETATM   15  O   UNL     1     -11.745  16.232  71.350  1.00  0.00    -0.550 OA 
HETATM   16  C   UNL     1     -11.959  14.124  70.321  1.00  0.00    -0.404 A  
HETATM   17  H   UNL     1     -11.844  15.826  72.203  1.00  0.00     0.000 HD 
HETATM   18  C   UNL     1     -11.982  13.328  69.174  1.00  0.00    -0.343 A  
ENDBRANCH  10  11
ENDBRANCH   9  10
ENDBRANCH   8   9
ENDBRANCH   7   8
ENDBRANCH   5   7
ENDBRANCH   4   5
ENDBRANCH   3   4
BRANCH   3  19
HETATM   19  C   UNL     1      -9.332  10.525  65.547  1.00  0.00    -0.245 A  
HETATM   20  C   UNL     1      -8.513  11.244  66.435  1.00  0.00    -0.169 A  
HETATM   21  H   UNL     1     -10.565   9.616  70.000  1.00  0.00     0.000 HD 
HETATM   22  C   UNL     1     -10.338   9.692  66.073  1.00  0.00    -0.160 A  
HETATM   23  H   UNL     1      -8.063  11.724  69.643  1.00  0.00     0.000 HD 
HETATM   24  C   UNL     1      -8.706  11.125  67.806  1.00  0.00    -0.132 A  
HETATM   25  C   UNL     1     -10.527   9.578  67.453  1.00  0.00    -0.336 A  
HETATM   26  O   UNL     1      -7.931  11.804  68.706  1.00  0.00    -0.133 OA 
HETATM   27  C   UNL     1      -9.706  10.295  68.308  1.00  0.00    -0.142 A  
HETATM   28  O   UNL     1      -9.883  10.182  69.658  1.00  0.00    -0.224 OA 
ENDBRANCH   3  19
TORSDOF 8
ENDMDL
MODEL       55
REMARK 921   NORMALIZED FREE ENERGY PREDICTED BY IDOCK:   -5.83 KCAL/MOL
REMARK 922        TOTAL FREE ENERGY PREDICTED BY IDOCK:   -9.77 KCAL/MOL
REMARK 923 INTER-LIGAND FREE ENERGY PREDICTED BY IDOCK:   -7.86 KCAL/MOL
REMARK 924 INTRA-LIGAND FREE ENERGY PREDICTED BY IDOCK:   -1.91 KCAL/MOL
REMARK 927      BINDING AFFINITY PREDICTED BY RF-SCORE:    0.00 PKD
ROOT
HETATM    1  O   UNL     1     -11.007  16.955  69.693  1.00  0.00    -0.374 OA 
HETATM    2  H   UNL     1     -11.678  17.245  70.300  1.00  0.00     0.000 HD 
HETATM    3  C   UNL     1     -11.534  15.916  68.858  1.00  0.00    -0.386 C  
ENDROOT
BRANCH   3   4
HETATM    4  C   UNL     1     -10.441  15.444  67.869  1.00  0.00    -0.256 C  
BRANCH   4   5
HETATM    5  N   UNL     1     -10.700  15.924  66.494  1.00  0.00    -0.293 NA 
HETATM    6  H   UNL     1     -10.112  16.721  66.250  1.00  0.00     0.000 HD 
BRANCH   5   7
HETATM    7  C   UNL     1     -10.553  14.820  65.539  1.00  0.00    -0.359 C  
BRANCH   7   8
HETATM    8  C   UNL     1     -11.923  14.223  65.209  1.00  0.00    -0.389 C  
BRANCH   8   9
HETATM    9  C   UNL     1     -12.065  12.826  65.817  1.00  0.00    -0.505 C  
BRANCH   9  10
HETATM   10  C   UNL     1     -10.871  11.932  65.472  1.00  0.00    -0.343 C  
BRANCH  10  11
HETATM   11  C   UNL     1     -10.263  11.340  66.720  1.00  0.00    -0.263 A  
HETATM   12  C   UNL     1     -10.851  10.226  67.339  1.00  0.00    -0.336 A  
HETATM   13  C   UNL     1     -10.321   9.710  68.523  1.00  0.00    -0.231 A  
HETATM   14  C   UNL     1      -9.202  10.311  69.091  1.00  0.00    -0.194 A  
HETATM   15  O   UNL     1      -8.663   9.851  70.256  1.00  0.00    -0.309 OA 
HETATM   16  C   UNL     1      -8.601  11.408  68.489  1.00  0.00    -0.150 A  
HETATM   17  H   UNL     1      -7.899  10.261  70.644  1.00  0.00     0.000 HD 
HETATM   18  C   UNL     1      -9.132  11.925  67.306  1.00  0.00    -0.178 A  
ENDBRANCH  10  11
ENDBRANCH   9  10
ENDBRANCH   8   9
ENDBRANCH   7   8
ENDBRANCH   5   7
ENDBRANCH   4   5
ENDBRANCH   3   4
BRANCH   3  19
HETATM   19  C   UNL     1     -12.035  14.770  69.714  1.00  0.00    -0.368 A  
HETATM   20  C   UNL     1     -12.882  14.992  70.813  1.00  0.00    -0.447 A  
HETATM   21  H   UNL     1     -12.998  10.701  71.880  1.00  0.00     0.000 HD 
HETATM   22  C   UNL     1     -11.620  13.454  69.431  1.00  0.00    -0.365 A  
HETATM   23  H   UNL     1     -14.404  13.361  73.211  1.00  0.00     0.000 HD 
HETATM   24  C   UNL     1     -13.298  13.922  71.596  1.00  0.00    -0.362 A  
HETATM   25  C   UNL     1     -12.042  12.383  70.222  1.00  0.00    -0.377 A  
HETATM   26  O   UNL     1     -14.120  14.093  72.676  1.00  0.00    -0.617 OA 
HETATM   27  C   UNL     1     -12.876  12.627  71.301  1.00  0.00    -0.250 A  
HETATM   28  O   UNL     1     -13.285  11.583  72.081  1.00  0.00    -0.505 OA 
ENDBRANCH   3  19
TORSDOF 8
ENDMDL
MODEL       56
REMARK 921   NORMALIZED FREE ENERGY PREDICTED BY IDOCK:   -5.81 KCAL/MOL
REMARK 922        TOTAL FREE ENERGY PREDICTED BY IDOCK:   -9.74 KCAL/MOL
REMARK 923 INTER-LIGAND FREE ENERGY PREDICTED BY IDOCK:   -8.47 KCAL/MOL
REMARK 924 INTRA-LIGAND FREE ENERGY PREDICTED BY IDOCK:   -1.27 KCAL/MOL
REMARK 927      BINDING AFFINITY PREDICTED BY RF-SCORE:    0.00 PKD
ROOT
HETATM    1  O   UNL     1     -10.011   9.353  66.580  1.00  0.00    -0.219 OA 
HETATM    2  H   UNL     1     -10.869   9.015  66.348  1.00  0.00     0.000 HD 
HETATM    3  C   UNL     1     -10.136  10.707  67.031  1.00  0.00    -0.211 C  
ENDROOT
BRANCH   3   4
HETATM    4  C   UNL     1      -8.739  11.256  67.409  1.00  0.00    -0.139 C  
BRANCH   4   5
HETATM    5  N   UNL     1      -8.832  12.534  68.150  1.00  0.00    -0.188 NA 
HETATM    6  H   UNL     1      -8.571  12.427  69.130  1.00  0.00     0.000 HD 
BRANCH   5   7
HETATM    7  C   UNL     1      -8.034  13.566  67.478  1.00  0.00    -0.181 C  
BRANCH   7   8
HETATM    8  C   UNL     1      -8.445  14.954  67.975  1.00  0.00    -0.151 C  
BRANCH   8   9
HETATM    9  C   UNL     1      -9.946  15.178  67.775  1.00  0.00    -0.225 C  
BRANCH   9  10
HETATM   10  C   UNL     1     -10.502  16.214  68.756  1.00  0.00    -0.264 C  
BRANCH  10  11
HETATM   11  C   UNL     1     -11.301  15.547  69.849  1.00  0.00    -0.323 A  
HETATM   12  C   UNL     1     -11.963  14.334  69.608  1.00  0.00    -0.387 A  
HETATM   13  C   UNL     1     -12.746  13.743  70.602  1.00  0.00    -0.330 A  
HETATM   14  C   UNL     1     -12.871  14.370  71.838  1.00  0.00    -0.349 A  
HETATM   15  O   UNL     1     -13.641  13.838  72.830  1.00  0.00    -0.666 OA 
HETATM   16  C   UNL     1     -12.217  15.567  72.098  1.00  0.00    -0.488 A  
HETATM   17  H   UNL     1     -13.726  14.266  73.673  1.00  0.00     0.000 HD 
HETATM   18  C   UNL     1     -11.434  16.157  71.104  1.00  0.00    -0.433 A  
ENDBRANCH  10  11
ENDBRANCH   9  10
ENDBRANCH   8   9
ENDBRANCH   7   8
ENDBRANCH   5   7
ENDBRANCH   4   5
ENDBRANCH   3   4
BRANCH   3  19
HETATM   19  C   UNL     1     -10.788  11.553  65.956  1.00  0.00    -0.330 A  
HETATM   20  C   UNL     1     -11.861  12.412  66.249  1.00  0.00    -0.431 A  
HETATM   21  H   UNL     1     -12.284  13.691  62.036  1.00  0.00     0.000 HD 
HETATM   22  C   UNL     1     -10.339  11.457  64.624  1.00  0.00    -0.362 A  
HETATM   23  H   UNL     1     -13.912  14.499  64.779  1.00  0.00     0.000 HD 
HETATM   24  C   UNL     1     -12.457  13.149  65.233  1.00  0.00    -0.495 A  
HETATM   25  C   UNL     1     -10.942  12.201  63.608  1.00  0.00    -0.527 A  
HETATM   26  O   UNL     1     -13.505  13.995  65.474  1.00  0.00    -0.677 OA 
HETATM   27  C   UNL     1     -12.000  13.040  63.922  1.00  0.00    -0.485 A  
HETATM   28  O   UNL     1     -12.597  13.765  62.930  1.00  0.00    -0.611 OA 
ENDBRANCH   3  19
TORSDOF 8
ENDMDL
MODEL       57
REMARK 921   NORMALIZED FREE ENERGY PREDICTED BY IDOCK:   -5.81 KCAL/MOL
REMARK 922        TOTAL FREE ENERGY PREDICTED BY IDOCK:   -9.73 KCAL/MOL
REMARK 923 INTER-LIGAND FREE ENERGY PREDICTED BY IDOCK:   -8.80 KCAL/MOL
REMARK 924 INTRA-LIGAND FREE ENERGY PREDICTED BY IDOCK:   -0.93 KCAL/MOL
REMARK 927      BINDING AFFINITY PREDICTED BY RF-SCORE:    0.00 PKD
ROOT
HETATM    1  O   UNL     1     -11.719  15.381  69.037  1.00  0.00    -0.332 OA 
HETATM    2  H   UNL     1     -11.801  16.198  68.558  1.00  0.00     0.000 HD 
HETATM    3  C   UNL     1     -10.809  14.512  68.351  1.00  0.00    -0.243 C  
ENDROOT
BRANCH   3   4
HETATM    4  C   UNL     1     -10.675  13.183  69.133  1.00  0.00    -0.030 C  
BRANCH   4   5
HETATM    5  N   UNL     1     -11.742  13.032  70.147  1.00  0.00    -0.532 NA 
HETATM    6  H   UNL     1     -12.399  13.812  70.129  1.00  0.00     0.000 HD 
BRANCH   5   7
HETATM    7  C   UNL     1     -12.418  11.741  69.978  1.00  0.00    -0.065 C  
BRANCH   7   8
HETATM    8  C   UNL     1     -12.454  10.989  71.311  1.00  0.00    -0.475 C  
BRANCH   8   9
HETATM    9  C   UNL     1     -11.907   9.569  71.146  1.00  0.00    -0.436 C  
BRANCH   9  10
HETATM   10  C   UNL     1     -10.580   9.557  70.382  1.00  0.00    -0.333 C  
BRANCH  10  11
HETATM   11  C   UNL     1     -10.619   8.558  69.250  1.00  0.00    -0.193 A  
HETATM   12  C   UNL     1     -10.427   8.976  67.925  1.00  0.00    -0.291 A  
HETATM   13  C   UNL     1     -10.516   8.063  66.873  1.00  0.00    -0.387 A  
HETATM   14  C   UNL     1     -10.800   6.729  67.147  1.00  0.00    -0.392 A  
HETATM   15  O   UNL     1     -10.914   5.807  66.148  1.00  0.00    -0.674 OA 
HETATM   16  C   UNL     1     -10.984   6.294  68.453  1.00  0.00    -0.409 A  
HETATM   17  H   UNL     1     -11.109   4.896  66.336  1.00  0.00     0.000 HD 
HETATM   18  C   UNL     1     -10.896   7.208  69.504  1.00  0.00    -0.244 A  
ENDBRANCH  10  11
ENDBRANCH   9  10
ENDBRANCH   8   9
ENDBRANCH   7   8
ENDBRANCH   5   7
ENDBRANCH   4   5
ENDBRANCH   3   4
BRANCH   3  19
HETATM   19  C   UNL     1     -11.291  14.273  66.935  1.00  0.00    -0.354 A  
HETATM   20  C   UNL     1     -11.398  15.325  66.009  1.00  0.00    -0.162 A  
HETATM   21  H   UNL     1     -12.978  12.677  62.838  1.00  0.00     0.000 HD 
HETATM   22  C   UNL     1     -11.675  12.977  66.537  1.00  0.00    -0.437 A  
HETATM   23  H   UNL     1     -12.323  15.901  62.921  1.00  0.00     0.000 HD 
HETATM   24  C   UNL     1     -11.874  15.076  64.728  1.00  0.00    -0.341 A  
HETATM   25  C   UNL     1     -12.152  12.734  65.247  1.00  0.00    -0.505 A  
HETATM   26  O   UNL     1     -11.998  16.071  63.797  1.00  0.00    -0.844 OA 
HETATM   27  C   UNL     1     -12.250  13.788  64.353  1.00  0.00    -0.399 A  
HETATM   28  O   UNL     1     -12.723  13.556  63.093  1.00  0.00    -0.718 OA 
ENDBRANCH   3  19
TORSDOF 8
ENDMDL
MODEL       58
REMARK 921   NORMALIZED FREE ENERGY PREDICTED BY IDOCK:   -5.80 KCAL/MOL
REMARK 922        TOTAL FREE ENERGY PREDICTED BY IDOCK:   -9.72 KCAL/MOL
REMARK 923 INTER-LIGAND FREE ENERGY PREDICTED BY IDOCK:   -8.16 KCAL/MOL
REMARK 924 INTRA-LIGAND FREE ENERGY PREDICTED BY IDOCK:   -1.56 KCAL/MOL
REMARK 927      BINDING AFFINITY PREDICTED BY RF-SCORE:    0.00 PKD
ROOT
HETATM    1  O   UNL     1     -10.894  12.286  69.171  1.00  0.00    -0.363 OA 
HETATM    2  H   UNL     1     -11.687  12.775  69.359  1.00  0.00     0.000 HD 
HETATM    3  C   UNL     1     -10.021  13.082  68.360  1.00  0.00    -0.216 C  
ENDROOT
BRANCH   3   4
HETATM    4  C   UNL     1      -8.730  12.285  68.054  1.00  0.00    -0.181 C  
BRANCH   4   5
HETATM    5  N   UNL     1      -7.733  12.418  69.139  1.00  0.00    -0.324 NA 
HETATM    6  H   UNL     1      -7.480  11.513  69.538  1.00  0.00     0.000 HD 
BRANCH   5   7
HETATM    7  C   UNL     1      -6.558  13.153  68.657  1.00  0.00    -0.092 C  
BRANCH   7   8
HETATM    8  C   UNL     1      -6.508  14.542  69.299  1.00  0.00    -0.123 C  
BRANCH   8   9
HETATM    9  C   UNL     1      -7.111  15.592  68.363  1.00  0.00    -0.115 C  
BRANCH   9  10
HETATM   10  C   UNL     1      -8.230  16.385  69.044  1.00  0.00    -0.222 C  
BRANCH  10  11
HETATM   11  C   UNL     1      -8.706  17.513  68.161  1.00  0.00    -0.262 A  
HETATM   12  C   UNL     1     -10.038  17.948  68.218  1.00  0.00    -0.376 A  
HETATM   13  C   UNL     1     -10.494  18.955  67.365  1.00  0.00    -0.520 A  
HETATM   14  C   UNL     1      -9.615  19.525  66.449  1.00  0.00    -0.390 A  
HETATM   15  O   UNL     1     -10.022  20.497  65.584  1.00  0.00    -0.573 OA 
HETATM   16  C   UNL     1      -8.291  19.113  66.383  1.00  0.00    -0.326 A  
HETATM   17  H   UNL     1      -9.423  20.886  64.959  1.00  0.00     0.000 HD 
HETATM   18  C   UNL     1      -7.836  18.106  67.236  1.00  0.00    -0.230 A  
ENDBRANCH  10  11
ENDBRANCH   9  10
ENDBRANCH   8   9
ENDBRANCH   7   8
ENDBRANCH   5   7
ENDBRANCH   4   5
ENDBRANCH   3   4
BRANCH   3  19
HETATM   19  C   UNL     1     -10.731  13.492  67.085  1.00  0.00    -0.282 A  
HETATM   20  C   UNL     1     -11.696  12.665  66.486  1.00  0.00    -0.463 A  
HETATM   21  H   UNL     1     -12.327  15.460  63.116  1.00  0.00     0.000 HD 
HETATM   22  C   UNL     1     -10.398  14.710  66.461  1.00  0.00    -0.283 A  
HETATM   23  H   UNL     1     -13.663  12.549  63.870  1.00  0.00     0.000 HD 
HETATM   24  C   UNL     1     -12.304  13.056  65.299  1.00  0.00    -0.486 A  
HETATM   25  C   UNL     1     -11.014  15.097  65.268  1.00  0.00    -0.405 A  
HETATM   26  O   UNL     1     -13.247  12.281  64.680  1.00  0.00    -0.763 OA 
HETATM   27  C   UNL     1     -11.961  14.264  64.696  1.00  0.00    -0.455 A  
HETATM   28  O   UNL     1     -12.561  14.636  63.527  1.00  0.00    -0.705 OA 
ENDBRANCH   3  19
TORSDOF 8
ENDMDL
MODEL       59
REMARK 921   NORMALIZED FREE ENERGY PREDICTED BY IDOCK:   -5.80 KCAL/MOL
REMARK 922        TOTAL FREE ENERGY PREDICTED BY IDOCK:   -9.71 KCAL/MOL
REMARK 923 INTER-LIGAND FREE ENERGY PREDICTED BY IDOCK:   -8.70 KCAL/MOL
REMARK 924 INTRA-LIGAND FREE ENERGY PREDICTED BY IDOCK:   -1.01 KCAL/MOL
REMARK 927      BINDING AFFINITY PREDICTED BY RF-SCORE:    0.00 PKD
ROOT
HETATM    1  O   UNL     1     -13.718  13.830  72.860  1.00  0.00    -0.684 OA 
HETATM    2  H   UNL     1     -14.351  13.173  73.128  1.00  0.00     0.000 HD 
HETATM    3  C   UNL     1     -13.410  13.657  71.471  1.00  0.00    -0.297 C  
ENDROOT
BRANCH   3   4
HETATM    4  C   UNL     1     -12.381  14.727  71.033  1.00  0.00    -0.330 C  
BRANCH   4   5
HETATM    5  N   UNL     1     -12.916  15.601  69.967  1.00  0.00    -0.638 NA 
HETATM    6  H   UNL     1     -13.357  16.440  70.346  1.00  0.00     0.000 HD 
BRANCH   5   7
HETATM    7  C   UNL     1     -11.859  15.925  69.002  1.00  0.00    -0.318 C  
BRANCH   7   8
HETATM    8  C   UNL     1     -10.532  15.307  69.450  1.00  0.00    -0.253 C  
BRANCH   8   9
HETATM    9  C   UNL     1      -9.387  15.775  68.550  1.00  0.00    -0.198 C  
BRANCH   9  10
HETATM   10  C   UNL     1      -8.930  14.673  67.591  1.00  0.00    -0.187 C  
BRANCH  10  11
HETATM   11  C   UNL     1      -9.935  14.472  66.482  1.00  0.00    -0.290 A  
HETATM   12  C   UNL     1     -10.333  13.180  66.108  1.00  0.00    -0.287 A  
HETATM   13  C   UNL     1     -11.222  12.990  65.047  1.00  0.00    -0.324 A  
HETATM   14  C   UNL     1     -11.709  14.096  64.357  1.00  0.00    -0.392 A  
HETATM   15  O   UNL     1     -12.564  13.956  63.303  1.00  0.00    -1.049 OA 
HETATM   16  C   UNL     1     -11.333  15.383  64.718  1.00  0.00    -0.381 A  
HETATM   17  H   UNL     1     -12.896  14.710  62.832  1.00  0.00     0.000 HD 
HETATM   18  C   UNL     1     -10.445  15.572  65.778  1.00  0.00    -0.378 A  
ENDBRANCH  10  11
ENDBRANCH   9  10
ENDBRANCH   8   9
ENDBRANCH   7   8
ENDBRANCH   5   7
ENDBRANCH   4   5
ENDBRANCH   3   4
BRANCH   3  19
HETATM   19  C   UNL     1     -12.885  12.256  71.228  1.00  0.00    -0.337 A  
HETATM   20  C   UNL     1     -11.942  11.991  70.220  1.00  0.00    -0.398 A  
HETATM   21  H   UNL     1     -11.905   7.652  71.080  1.00  0.00     0.000 HD 
HETATM   22  C   UNL     1     -13.372  11.184  72.001  1.00  0.00    -0.384 A  
HETATM   23  H   UNL     1     -10.293   9.497  68.883  1.00  0.00     0.000 HD 
HETATM   24  C   UNL     1     -11.506  10.690  70.003  1.00  0.00    -0.325 A  
HETATM   25  C   UNL     1     -12.928   9.879  71.778  1.00  0.00    -0.549 A  
HETATM   26  O   UNL     1     -10.592  10.387  69.031  1.00  0.00    -0.194 OA 
HETATM   27  C   UNL     1     -12.000   9.642  70.777  1.00  0.00    -0.277 A  
HETATM   28  O   UNL     1     -11.569   8.366  70.551  1.00  0.00    -0.238 OA 
ENDBRANCH   3  19
TORSDOF 8
ENDMDL
MODEL       60
REMARK 921   NORMALIZED FREE ENERGY PREDICTED BY IDOCK:   -5.76 KCAL/MOL
REMARK 922        TOTAL FREE ENERGY PREDICTED BY IDOCK:   -9.66 KCAL/MOL
REMARK 923 INTER-LIGAND FREE ENERGY PREDICTED BY IDOCK:   -8.97 KCAL/MOL
REMARK 924 INTRA-LIGAND FREE ENERGY PREDICTED BY IDOCK:   -0.69 KCAL/MOL
REMARK 927      BINDING AFFINITY PREDICTED BY RF-SCORE:    0.00 PKD
ROOT
HETATM    1  O   UNL     1     -10.054  14.121  69.240  1.00  0.00    -0.426 OA 
HETATM    2  H   UNL     1      -9.425  14.626  68.739  1.00  0.00     0.000 HD 
HETATM    3  C   UNL     1     -10.470  12.982  68.476  1.00  0.00    -0.249 C  
ENDROOT
BRANCH   3   4
HETATM    4  C   UNL     1     -11.495  12.158  69.292  1.00  0.00    -0.302 C  
BRANCH   4   5
HETATM    5  N   UNL     1     -11.966  12.895  70.486  1.00  0.00    -0.533 NA 
HETATM    6  H   UNL     1     -12.332  13.817  70.246  1.00  0.00     0.000 HD 
BRANCH   5   7
HETATM    7  C   UNL     1     -12.948  12.089  71.221  1.00  0.00    -0.217 C  
BRANCH   7   8
HETATM    8  C   UNL     1     -12.763  10.606  70.890  1.00  0.00    -0.498 C  
BRANCH   8   9
HETATM    9  C   UNL     1     -13.269   9.729  72.037  1.00  0.00    -0.557 C  
BRANCH   9  10
HETATM   10  C   UNL     1     -13.435   8.269  71.606  1.00  0.00    -0.358 C  
BRANCH  10  11
HETATM   11  C   UNL     1     -12.112   7.543  71.640  1.00  0.00    -0.341 A  
HETATM   12  C   UNL     1     -11.814   6.561  70.683  1.00  0.00    -0.398 A  
HETATM   13  C   UNL     1     -10.613   5.851  70.744  1.00  0.00    -0.330 A  
HETATM   14  C   UNL     1      -9.710   6.121  71.767  1.00  0.00    -0.153 A  
HETATM   15  O   UNL     1      -8.535   5.438  71.876  1.00  0.00    -0.124 OA 
HETATM   16  C   UNL     1      -9.984   7.094  72.719  1.00  0.00    -0.219 A  
HETATM   17  H   UNL     1      -7.919   5.622  72.575  1.00  0.00     0.000 HD 
HETATM   18  C   UNL     1     -11.184   7.804  72.657  1.00  0.00    -0.438 A  
ENDBRANCH  10  11
ENDBRANCH   9  10
ENDBRANCH   8   9
ENDBRANCH   7   8
ENDBRANCH   5   7
ENDBRANCH   4   5
ENDBRANCH   3   4
BRANCH   3  19
HETATM   19  C   UNL     1     -11.055  13.432  67.152  1.00  0.00    -0.303 A  
HETATM   20  C   UNL     1     -11.983  12.641  66.454  1.00  0.00    -0.425 A  
HETATM   21  H   UNL     1     -12.249  15.513  63.100  1.00  0.00     0.000 HD 
HETATM   22  C   UNL     1     -10.640  14.653  66.585  1.00  0.00    -0.289 A  
HETATM   23  H   UNL     1     -13.714  12.622  63.674  1.00  0.00     0.000 HD 
HETATM   24  C   UNL     1     -12.475  13.069  65.227  1.00  0.00    -0.499 A  
HETATM   25  C   UNL     1     -11.139  15.077  65.352  1.00  0.00    -0.377 A  
HETATM   26  O   UNL     1     -13.377  12.330  64.512  1.00  0.00    -0.769 OA 
HETATM   27  C   UNL     1     -12.052  14.279  64.681  1.00  0.00    -0.463 A  
HETATM   28  O   UNL     1     -12.537  14.688  63.472  1.00  0.00    -0.705 OA 
ENDBRANCH   3  19
TORSDOF 8
ENDMDL
MODEL       61
REMARK 921   NORMALIZED FREE ENERGY PREDICTED BY IDOCK:   -5.76 KCAL/MOL
REMARK 922        TOTAL FREE ENERGY PREDICTED BY IDOCK:   -9.66 KCAL/MOL
REMARK 923 INTER-LIGAND FREE ENERGY PREDICTED BY IDOCK:   -8.59 KCAL/MOL
REMARK 924 INTRA-LIGAND FREE ENERGY PREDICTED BY IDOCK:   -1.07 KCAL/MOL
REMARK 927      BINDING AFFINITY PREDICTED BY RF-SCORE:    0.00 PKD
ROOT
HETATM    1  O   UNL     1      -7.784  11.151  67.323  1.00  0.00    -0.118 OA 
HETATM    2  H   UNL     1      -7.180  10.938  68.025  1.00  0.00     0.000 HD 
HETATM    3  C   UNL     1      -8.924  11.832  67.862  1.00  0.00    -0.180 C  
ENDROOT
BRANCH   3   4
HETATM    4  C   UNL     1      -9.907  12.178  66.718  1.00  0.00    -0.206 C  
BRANCH   4   5
HETATM    5  N   UNL     1      -9.443  13.338  65.926  1.00  0.00    -0.489 NA 
HETATM    6  H   UNL     1      -9.782  13.305  64.965  1.00  0.00     0.000 HD 
BRANCH   5   7
HETATM    7  C   UNL     1      -9.816  14.588  66.597  1.00  0.00    -0.273 C  
BRANCH   7   8
HETATM    8  C   UNL     1     -11.316  14.593  66.903  1.00  0.00    -0.361 C  
BRANCH   8   9
HETATM    9  C   UNL     1     -11.579  15.127  68.312  1.00  0.00    -0.357 C  
BRANCH   9  10
HETATM   10  C   UNL     1     -12.154  14.046  69.231  1.00  0.00    -0.380 C  
BRANCH  10  11
HETATM   11  C   UNL     1     -12.330  14.569  70.636  1.00  0.00    -0.407 A  
HETATM   12  C   UNL     1     -13.080  13.847  71.576  1.00  0.00    -0.441 A  
HETATM   13  C   UNL     1     -13.288  14.356  72.860  1.00  0.00    -0.575 A  
HETATM   14  C   UNL     1     -12.747  15.591  73.203  1.00  0.00    -0.478 A  
HETATM   15  O   UNL     1     -12.942  16.133  74.439  1.00  0.00    -0.930 OA 
HETATM   16  C   UNL     1     -11.995  16.316  72.289  1.00  0.00    -0.605 A  
HETATM   17  H   UNL     1     -12.573  16.976  74.672  1.00  0.00     0.000 HD 
HETATM   18  C   UNL     1     -11.788  15.808  71.005  1.00  0.00    -0.460 A  
ENDBRANCH  10  11
ENDBRANCH   9  10
ENDBRANCH   8   9
ENDBRANCH   7   8
ENDBRANCH   5   7
ENDBRANCH   4   5
ENDBRANCH   3   4
BRANCH   3  19
HETATM   19  C   UNL     1      -9.588  10.971  68.918  1.00  0.00    -0.174 A  
HETATM   20  C   UNL     1     -10.945  11.133  69.248  1.00  0.00    -0.300 A  
HETATM   21  H   UNL     1     -10.795   7.997  72.364  1.00  0.00     0.000 HD 
HETATM   22  C   UNL     1      -8.830  10.009  69.613  1.00  0.00    -0.217 A  
HETATM   23  H   UNL     1     -13.220   9.939  71.279  1.00  0.00     0.000 HD 
HETATM   24  C   UNL     1     -11.515  10.349  70.244  1.00  0.00    -0.325 A  
HETATM   25  C   UNL     1      -9.410   9.224  70.613  1.00  0.00    -0.329 A  
HETATM   26  O   UNL     1     -12.830  10.475  70.599  1.00  0.00    -0.358 OA 
HETATM   27  C   UNL     1     -10.749   9.403  70.921  1.00  0.00    -0.323 A  
HETATM   28  O   UNL     1     -11.317   8.642  71.903  1.00  0.00    -0.301 OA 
ENDBRANCH   3  19
TORSDOF 8
ENDMDL
MODEL       62
REMARK 921   NORMALIZED FREE ENERGY PREDICTED BY IDOCK:   -5.75 KCAL/MOL
REMARK 922        TOTAL FREE ENERGY PREDICTED BY IDOCK:   -9.64 KCAL/MOL
REMARK 923 INTER-LIGAND FREE ENERGY PREDICTED BY IDOCK:   -8.86 KCAL/MOL
REMARK 924 INTRA-LIGAND FREE ENERGY PREDICTED BY IDOCK:   -0.78 KCAL/MOL
REMARK 927      BINDING AFFINITY PREDICTED BY RF-SCORE:    0.00 PKD
ROOT
HETATM    1  O   UNL     1      -9.655  13.236  68.904  1.00  0.00    -0.408 OA 
HETATM    2  H   UNL     1      -9.678  13.663  69.753  1.00  0.00     0.000 HD 
HETATM    3  C   UNL     1     -10.979  12.833  68.533  1.00  0.00    -0.258 C  
ENDROOT
BRANCH   3   4
HETATM    4  C   UNL     1     -10.940  12.138  67.151  1.00  0.00    -0.268 C  
BRANCH   4   5
HETATM    5  N   UNL     1     -12.161  12.414  66.362  1.00  0.00    -0.614 NA 
HETATM    6  H   UNL     1     -13.003  12.081  66.832  1.00  0.00     0.000 HD 
BRANCH   5   7
HETATM    7  C   UNL     1     -12.241  13.844  66.041  1.00  0.00    -0.462 C  
BRANCH   7   8
HETATM    8  C   UNL     1     -11.222  14.195  64.954  1.00  0.00    -0.373 C  
BRANCH   8   9
HETATM    9  C   UNL     1     -10.757  15.646  65.098  1.00  0.00    -0.463 C  
BRANCH   9  10
HETATM   10  C   UNL     1     -10.605  16.051  66.566  1.00  0.00    -0.284 C  
BRANCH  10  11
HETATM   11  C   UNL     1      -9.981  17.420  66.686  1.00  0.00    -0.308 A  
HETATM   12  C   UNL     1      -8.886  17.631  67.538  1.00  0.00    -0.231 A  
HETATM   13  C   UNL     1      -8.342  18.908  67.691  1.00  0.00    -0.296 A  
HETATM   14  C   UNL     1      -8.896  19.976  66.993  1.00  0.00    -0.347 A  
HETATM   15  O   UNL     1      -8.408  21.243  67.128  1.00  0.00    -0.595 OA 
HETATM   16  C   UNL     1      -9.975  19.786  66.140  1.00  0.00    -0.573 A  
HETATM   17  H   UNL     1      -8.787  21.972  66.652  1.00  0.00     0.000 HD 
HETATM   18  C   UNL     1     -10.519  18.509  65.987  1.00  0.00    -0.433 A  
ENDBRANCH  10  11
ENDBRANCH   9  10
ENDBRANCH   8   9
ENDBRANCH   7   8
ENDBRANCH   5   7
ENDBRANCH   4   5
ENDBRANCH   3   4
BRANCH   3  19
HETATM   19  C   UNL     1     -11.557  11.917  69.594  1.00  0.00    -0.387 A  
HETATM   20  C   UNL     1     -11.292  10.537  69.593  1.00  0.00    -0.345 A  
HETATM   21  H   UNL     1     -13.833   9.817  73.141  1.00  0.00     0.000 HD 
HETATM   22  C   UNL     1     -12.405  12.445  70.586  1.00  0.00    -0.367 A  
HETATM   23  H   UNL     1     -12.026   7.814  71.258  1.00  0.00     0.000 HD 
HETATM   24  C   UNL     1     -11.864   9.720  70.561  1.00  0.00    -0.240 A  
HETATM   25  C   UNL     1     -12.976  11.619  71.557  1.00  0.00    -0.463 A  
HETATM   26  O   UNL     1     -11.636   8.372  70.596  1.00  0.00    -0.270 OA 
HETATM   27  C   UNL     1     -12.701  10.261  71.534  1.00  0.00    -0.452 A  
HETATM   28  O   UNL     1     -13.263   9.449  72.478  1.00  0.00    -0.426 OA 
ENDBRANCH   3  19
TORSDOF 8
ENDMDL
MODEL       63
REMARK 921   NORMALIZED FREE ENERGY PREDICTED BY IDOCK:   -5.74 KCAL/MOL
REMARK 922        TOTAL FREE ENERGY PREDICTED BY IDOCK:   -9.62 KCAL/MOL
REMARK 923 INTER-LIGAND FREE ENERGY PREDICTED BY IDOCK:   -8.73 KCAL/MOL
REMARK 924 INTRA-LIGAND FREE ENERGY PREDICTED BY IDOCK:   -0.89 KCAL/MOL
REMARK 927      BINDING AFFINITY PREDICTED BY RF-SCORE:    0.00 PKD
ROOT
HETATM    1  O   UNL     1     -10.614  12.651  69.211  1.00  0.00    -0.438 OA 
HETATM    2  H   UNL     1     -10.193  13.427  68.857  1.00  0.00     0.000 HD 
HETATM    3  C   UNL     1     -10.424  11.551  68.312  1.00  0.00    -0.197 C  
ENDROOT
BRANCH   3   4
HETATM    4  C   UNL     1     -11.108  10.289  68.889  1.00  0.00    -0.231 C  
BRANCH   4   5
HETATM    5  N   UNL     1     -12.509  10.555  69.285  1.00  0.00    -0.717 NA 
HETATM    6  H   UNL     1     -13.164   9.928  68.816  1.00  0.00     0.000 HD 
BRANCH   5   7
HETATM    7  C   UNL     1     -12.640  10.495  70.745  1.00  0.00    -0.382 C  
BRANCH   7   8
HETATM    8  C   UNL     1     -11.566   9.576  71.332  1.00  0.00    -0.466 C  
BRANCH   8   9
HETATM    9  C   UNL     1     -12.200   8.493  72.207  1.00  0.00    -0.454 C  
BRANCH   9  10
HETATM   10  C   UNL     1     -12.715   7.317  71.373  1.00  0.00    -0.427 C  
BRANCH  10  11
HETATM   11  C   UNL     1     -11.569   6.528  70.787  1.00  0.00    -0.437 A  
HETATM   12  C   UNL     1     -10.622   5.920  71.623  1.00  0.00    -0.295 A  
HETATM   13  C   UNL     1      -9.532   5.235  71.081  1.00  0.00    -0.206 A  
HETATM   14  C   UNL     1      -9.388   5.163  69.700  1.00  0.00    -0.129 A  
HETATM   15  O   UNL     1      -8.329   4.521  69.128  1.00  0.00    -0.078 OA 
HETATM   16  C   UNL     1     -10.319   5.752  68.855  1.00  0.00    -0.295 A  
HETATM   17  H   UNL     1      -8.230   4.472  68.185  1.00  0.00     0.000 HD 
HETATM   18  C   UNL     1     -11.409   6.436  69.397  1.00  0.00    -0.443 A  
ENDBRANCH  10  11
ENDBRANCH   9  10
ENDBRANCH   8   9
ENDBRANCH   7   8
ENDBRANCH   5   7
ENDBRANCH   4   5
ENDBRANCH   3   4
BRANCH   3  19
HETATM   19  C   UNL     1     -10.976  11.900  66.945  1.00  0.00    -0.335 A  
HETATM   20  C   UNL     1     -11.938  12.912  66.779  1.00  0.00    -0.418 A  
HETATM   21  H   UNL     1     -12.226  12.237  62.417  1.00  0.00     0.000 HD 
HETATM   22  C   UNL     1     -10.548  11.178  65.813  1.00  0.00    -0.289 A  
HETATM   23  H   UNL     1     -13.733  14.346  64.445  1.00  0.00     0.000 HD 
HETATM   24  C   UNL     1     -12.447  13.185  65.515  1.00  0.00    -0.458 A  
HETATM   25  C   UNL     1     -11.064  11.459  64.546  1.00  0.00    -0.302 A  
HETATM   26  O   UNL     1     -13.385  14.159  65.309  1.00  0.00    -0.715 OA 
HETATM   27  C   UNL     1     -12.012  12.459  64.408  1.00  0.00    -0.407 A  
HETATM   28  O   UNL     1     -12.523  12.732  63.171  1.00  0.00    -0.612 OA 
ENDBRANCH   3  19
TORSDOF 8
ENDMDL
MODEL       64
REMARK 921   NORMALIZED FREE ENERGY PREDICTED BY IDOCK:   -5.73 KCAL/MOL
REMARK 922        TOTAL FREE ENERGY PREDICTED BY IDOCK:   -9.61 KCAL/MOL
REMARK 923 INTER-LIGAND FREE ENERGY PREDICTED BY IDOCK:   -8.07 KCAL/MOL
REMARK 924 INTRA-LIGAND FREE ENERGY PREDICTED BY IDOCK:   -1.54 KCAL/MOL
REMARK 927      BINDING AFFINITY PREDICTED BY RF-SCORE:    0.00 PKD
ROOT
HETATM    1  O   UNL     1     -11.314   9.561  67.738  1.00  0.00    -0.467 OA 
HETATM    2  H   UNL     1     -12.264   9.578  67.699  1.00  0.00     0.000 HD 
HETATM    3  C   UNL     1     -10.821  10.886  67.974  1.00  0.00    -0.245 C  
ENDROOT
BRANCH   3   4
HETATM    4  C   UNL     1      -9.276  10.859  68.037  1.00  0.00    -0.156 C  
BRANCH   4   5
HETATM    5  N   UNL     1      -8.749  11.811  69.040  1.00  0.00    -0.366 NA 
HETATM    6  H   UNL     1      -8.605  11.368  69.948  1.00  0.00     0.000 HD 
BRANCH   5   7
HETATM    7  C   UNL     1      -7.526  12.447  68.538  1.00  0.00    -0.112 C  
BRANCH   7   8
HETATM    8  C   UNL     1      -7.810  13.162  67.214  1.00  0.00    -0.125 C  
BRANCH   8   9
HETATM    9  C   UNL     1      -8.102  14.645  67.453  1.00  0.00    -0.216 C  
BRANCH   9  10
HETATM   10  C   UNL     1      -9.068  15.209  66.408  1.00  0.00    -0.331 C  
BRANCH  10  11
HETATM   11  C   UNL     1      -9.156  16.712  66.511  1.00  0.00    -0.303 A  
HETATM   12  C   UNL     1      -7.995  17.485  66.658  1.00  0.00    -0.288 A  
HETATM   13  C   UNL     1      -8.078  18.871  66.807  1.00  0.00    -0.278 A  
HETATM   14  C   UNL     1      -9.327  19.485  66.813  1.00  0.00    -0.356 A  
HETATM   15  O   UNL     1      -9.456  20.832  66.975  1.00  0.00    -0.634 OA 
HETATM   16  C   UNL     1     -10.487  18.738  66.661  1.00  0.00    -0.483 A  
HETATM   17  H   UNL     1     -10.308  21.251  66.980  1.00  0.00     0.000 HD 
HETATM   18  C   UNL     1     -10.403  17.352  66.513  1.00  0.00    -0.312 A  
ENDBRANCH  10  11
ENDBRANCH   9  10
ENDBRANCH   8   9
ENDBRANCH   7   8
ENDBRANCH   5   7
ENDBRANCH   4   5
ENDBRANCH   3   4
BRANCH   3  19
HETATM   19  C   UNL     1     -11.313  11.822  66.887  1.00  0.00    -0.386 A  
HETATM   20  C   UNL     1     -11.029  11.583  65.532  1.00  0.00    -0.290 A  
HETATM   21  H   UNL     1     -13.095  15.266  64.216  1.00  0.00     0.000 HD 
HETATM   22  C   UNL     1     -12.040  12.976  67.236  1.00  0.00    -0.304 A  
HETATM   23  H   UNL     1     -11.511  12.897  62.571  1.00  0.00     0.000 HD 
HETATM   24  C   UNL     1     -11.467  12.478  64.563  1.00  0.00    -0.337 A  
HETATM   25  C   UNL     1     -12.478  13.871  66.257  1.00  0.00    -0.454 A  
HETATM   26  O   UNL     1     -11.211  12.286  63.233  1.00  0.00    -0.419 OA 
HETATM   27  C   UNL     1     -12.185  13.615  64.927  1.00  0.00    -0.414 A  
HETATM   28  O   UNL     1     -12.605  14.491  63.968  1.00  0.00    -0.797 OA 
ENDBRANCH   3  19
TORSDOF 8
ENDMDL
MODEL       65
REMARK 921   NORMALIZED FREE ENERGY PREDICTED BY IDOCK:   -5.72 KCAL/MOL
REMARK 922        TOTAL FREE ENERGY PREDICTED BY IDOCK:   -9.60 KCAL/MOL
REMARK 923 INTER-LIGAND FREE ENERGY PREDICTED BY IDOCK:   -8.55 KCAL/MOL
REMARK 924 INTRA-LIGAND FREE ENERGY PREDICTED BY IDOCK:   -1.05 KCAL/MOL
REMARK 927      BINDING AFFINITY PREDICTED BY RF-SCORE:    0.00 PKD
ROOT
HETATM    1  O   UNL     1     -10.396  10.962  62.531  1.00  0.00    -0.730 OA 
HETATM    2  H   UNL     1      -9.488  10.679  62.497  1.00  0.00     0.000 HD 
HETATM    3  C   UNL     1     -10.627  11.680  63.750  1.00  0.00    -0.416 C  
ENDROOT
BRANCH   3   4
HETATM    4  C   UNL     1     -12.104  12.140  63.805  1.00  0.00    -0.525 C  
BRANCH   4   5
HETATM    5  N   UNL     1     -12.277  13.501  63.251  1.00  0.00    -1.002 NA 
HETATM    6  H   UNL     1     -13.157  13.597  62.743  1.00  0.00     0.000 HD 
BRANCH   5   7
HETATM    7  C   UNL     1     -12.146  14.500  64.318  1.00  0.00    -0.425 C  
BRANCH   7   8
HETATM    8  C   UNL     1     -12.657  13.925  65.642  1.00  0.00    -0.553 C  
BRANCH   8   9
HETATM    9  C   UNL     1     -11.787  14.398  66.808  1.00  0.00    -0.431 C  
BRANCH   9  10
HETATM   10  C   UNL     1     -10.378  14.780  66.348  1.00  0.00    -0.297 C  
BRANCH  10  11
HETATM   11  C   UNL     1      -9.998  16.150  66.855  1.00  0.00    -0.258 A  
HETATM   12  C   UNL     1      -8.895  16.828  66.314  1.00  0.00    -0.334 A  
HETATM   13  C   UNL     1      -8.509  18.072  66.818  1.00  0.00    -0.274 A  
HETATM   14  C   UNL     1      -9.227  18.636  67.868  1.00  0.00    -0.294 A  
HETATM   15  O   UNL     1      -8.874  19.840  68.404  1.00  0.00    -0.323 OA 
HETATM   16  C   UNL     1     -10.325  17.984  68.411  1.00  0.00    -0.377 A  
HETATM   17  H   UNL     1      -9.363  20.225  69.121  1.00  0.00     0.000 HD 
HETATM   18  C   UNL     1     -10.710  16.741  67.907  1.00  0.00    -0.347 A  
ENDBRANCH  10  11
ENDBRANCH   9  10
ENDBRANCH   8   9
ENDBRANCH   7   8
ENDBRANCH   5   7
ENDBRANCH   4   5
ENDBRANCH   3   4
BRANCH   3  19
HETATM   19  C   UNL     1     -10.276  10.808  64.939  1.00  0.00    -0.388 A  
HETATM   20  C   UNL     1     -10.893  10.991  66.188  1.00  0.00    -0.212 A  
HETATM   21  H   UNL     1      -8.517   7.777  68.084  1.00  0.00     0.000 HD 
HETATM   22  C   UNL     1      -9.288   9.813  64.808  1.00  0.00    -0.327 A  
HETATM   23  H   UNL     1     -10.846   9.796  69.237  1.00  0.00     0.000 HD 
HETATM   24  C   UNL     1     -10.525  10.195  67.266  1.00  0.00    -0.256 A  
HETATM   25  C   UNL     1      -8.923   9.017  65.896  1.00  0.00    -0.233 A  
HETATM   26  O   UNL     1     -11.097  10.340  68.500  1.00  0.00    -0.248 OA 
HETATM   27  C   UNL     1      -9.544   9.217  67.118  1.00  0.00    -0.164 A  
HETATM   28  O   UNL     1      -9.185   8.444  68.185  1.00  0.00    -0.138 OA 
ENDBRANCH   3  19
TORSDOF 8
ENDMDL
MODEL       66
REMARK 921   NORMALIZED FREE ENERGY PREDICTED BY IDOCK:   -5.67 KCAL/MOL
REMARK 922        TOTAL FREE ENERGY PREDICTED BY IDOCK:   -9.52 KCAL/MOL
REMARK 923 INTER-LIGAND FREE ENERGY PREDICTED BY IDOCK:   -8.71 KCAL/MOL
REMARK 924 INTRA-LIGAND FREE ENERGY PREDICTED BY IDOCK:   -0.82 KCAL/MOL
REMARK 927      BINDING AFFINITY PREDICTED BY RF-SCORE:    0.00 PKD
ROOT
HETATM    1  O   UNL     1     -11.026   7.663  67.631  1.00  0.00    -0.497 OA 
HETATM    2  H   UNL     1     -10.945   6.733  67.808  1.00  0.00     0.000 HD 
HETATM    3  C   UNL     1     -10.052   8.383  68.396  1.00  0.00    -0.198 C  
ENDROOT
BRANCH   3   4
HETATM    4  C   UNL     1     -10.184   9.898  68.107  1.00  0.00    -0.179 C  
BRANCH   4   5
HETATM    5  N   UNL     1     -11.596  10.301  67.924  1.00  0.00    -0.670 NA 
HETATM    6  H   UNL     1     -12.243   9.614  68.311  1.00  0.00     0.000 HD 
BRANCH   5   7
HETATM    7  C   UNL     1     -11.815  11.639  68.485  1.00  0.00    -0.292 C  
BRANCH   7   8
HETATM    8  C   UNL     1     -10.531  12.467  68.384  1.00  0.00    -0.250 C  
BRANCH   8   9
HETATM    9  C   UNL     1     -10.787  13.915  68.809  1.00  0.00    -0.282 C  
BRANCH   9  10
HETATM   10  C   UNL     1     -12.277  14.189  69.024  1.00  0.00    -0.274 C  
BRANCH  10  11
HETATM   11  C   UNL     1     -12.528  14.761  70.398  1.00  0.00    -0.405 A  
HETATM   12  C   UNL     1     -11.585  15.608  70.999  1.00  0.00    -0.434 A  
HETATM   13  C   UNL     1     -11.790  16.095  72.292  1.00  0.00    -0.631 A  
HETATM   14  C   UNL     1     -12.940  15.731  72.985  1.00  0.00    -0.525 A  
HETATM   15  O   UNL     1     -13.172  16.169  74.256  1.00  0.00    -0.915 OA 
HETATM   16  C   UNL     1     -13.889  14.901  72.404  1.00  0.00    -0.587 A  
HETATM   17  H   UNL     1     -13.957  15.920  74.730  1.00  0.00     0.000 HD 
HETATM   18  C   UNL     1     -13.683  14.414  71.112  1.00  0.00    -0.297 A  
ENDBRANCH  10  11
ENDBRANCH   9  10
ENDBRANCH   8   9
ENDBRANCH   7   8
ENDBRANCH   5   7
ENDBRANCH   4   5
ENDBRANCH   3   4
BRANCH   3  19
HETATM   19  C   UNL     1     -10.231   8.087  69.872  1.00  0.00    -0.204 A  
HETATM   20  C   UNL     1     -11.272   7.262  70.332  1.00  0.00    -0.302 A  
HETATM   21  H   UNL     1     -10.131   7.804  74.571  1.00  0.00     0.000 HD 
HETATM   22  C   UNL     1      -9.362   8.673  70.813  1.00  0.00    -0.231 A  
HETATM   23  H   UNL     1     -12.533   6.088  73.117  1.00  0.00     0.000 HD 
HETATM   24  C   UNL     1     -11.427   7.036  71.694  1.00  0.00    -0.266 A  
HETATM   25  C   UNL     1      -9.524   8.441  72.180  1.00  0.00    -0.360 A  
HETATM   26  O   UNL     1     -12.427   6.243  72.186  1.00  0.00    -0.291 OA 
HETATM   27  C   UNL     1     -10.558   7.626  72.610  1.00  0.00    -0.299 A  
HETATM   28  O   UNL     1     -10.724   7.402  73.947  1.00  0.00    -0.319 OA 
ENDBRANCH   3  19
TORSDOF 8
ENDMDL
MODEL       67
REMARK 921   NORMALIZED FREE ENERGY PREDICTED BY IDOCK:   -5.66 KCAL/MOL
REMARK 922        TOTAL FREE ENERGY PREDICTED BY IDOCK:   -9.51 KCAL/MOL
REMARK 923 INTER-LIGAND FREE ENERGY PREDICTED BY IDOCK:   -8.80 KCAL/MOL
REMARK 924 INTRA-LIGAND FREE ENERGY PREDICTED BY IDOCK:   -0.71 KCAL/MOL
REMARK 927      BINDING AFFINITY PREDICTED BY RF-SCORE:    0.00 PKD
ROOT
HETATM    1  O   UNL     1     -10.181  10.279  65.448  1.00  0.00    -0.297 OA 
HETATM    2  H   UNL     1     -10.373  10.411  64.526  1.00  0.00     0.000 HD 
HETATM    3  C   UNL     1     -11.112  11.025  66.242  1.00  0.00    -0.037 C  
ENDROOT
BRANCH   3   4
HETATM    4  C   UNL     1     -10.801  10.809  67.743  1.00  0.00    -0.269 C  
BRANCH   4   5
HETATM    5  N   UNL     1     -12.030  10.813  68.566  1.00  0.00    -0.793 NA 
HETATM    6  H   UNL     1     -12.154   9.936  69.072  1.00  0.00     0.000 HD 
BRANCH   5   7
HETATM    7  C   UNL     1     -12.030  11.972  69.466  1.00  0.00    -0.283 C  
BRANCH   7   8
HETATM    8  C   UNL     1     -12.508  11.555  70.859  1.00  0.00    -0.464 C  
BRANCH   8   9
HETATM    9  C   UNL     1     -13.071  10.133  70.834  1.00  0.00    -0.412 C  
BRANCH   9  10
HETATM   10  C   UNL     1     -12.839   9.406  72.161  1.00  0.00    -0.480 C  
BRANCH  10  11
HETATM   11  C   UNL     1     -11.865   8.266  71.988  1.00  0.00    -0.408 A  
HETATM   12  C   UNL     1     -12.278   7.058  71.407  1.00  0.00    -0.407 A  
HETATM   13  C   UNL     1     -11.393   5.984  71.295  1.00  0.00    -0.296 A  
HETATM   14  C   UNL     1     -10.092   6.117  71.770  1.00  0.00    -0.185 A  
HETATM   15  O   UNL     1      -9.200   5.088  71.698  1.00  0.00    -0.141 OA 
HETATM   16  C   UNL     1      -9.662   7.307  72.341  1.00  0.00    -0.186 A  
HETATM   17  H   UNL     1      -8.312   5.179  72.022  1.00  0.00     0.000 HD 
HETATM   18  C   UNL     1     -10.547   8.381  72.453  1.00  0.00    -0.405 A  
ENDBRANCH  10  11
ENDBRANCH   9  10
ENDBRANCH   8   9
ENDBRANCH   7   8
ENDBRANCH   5   7
ENDBRANCH   4   5
ENDBRANCH   3   4
BRANCH   3  19
HETATM   19  C   UNL     1     -11.047  12.493  65.872  1.00  0.00    -0.334 A  
HETATM   20  C   UNL     1     -11.991  13.074  65.008  1.00  0.00    -0.438 A  
HETATM   21  H   UNL     1     -10.031  17.037  65.162  1.00  0.00     0.000 HD 
HETATM   22  C   UNL     1     -10.001  13.294  66.372  1.00  0.00    -0.288 A  
HETATM   23  H   UNL     1     -12.704  15.938  63.589  1.00  0.00     0.000 HD 
HETATM   24  C   UNL     1     -11.883  14.416  64.664  1.00  0.00    -0.451 A  
HETATM   25  C   UNL     1      -9.899  14.642  66.023  1.00  0.00    -0.347 A  
HETATM   26  O   UNL     1     -12.778  15.020  63.824  1.00  0.00    -0.741 OA 
HETATM   27  C   UNL     1     -10.841  15.191  65.168  1.00  0.00    -0.422 A  
HETATM   28  O   UNL     1     -10.741  16.508  64.818  1.00  0.00    -0.719 OA 
ENDBRANCH   3  19
TORSDOF 8
ENDMDL
MODEL       68
REMARK 921   NORMALIZED FREE ENERGY PREDICTED BY IDOCK:   -5.66 KCAL/MOL
REMARK 922        TOTAL FREE ENERGY PREDICTED BY IDOCK:   -9.51 KCAL/MOL
REMARK 923 INTER-LIGAND FREE ENERGY PREDICTED BY IDOCK:   -8.50 KCAL/MOL
REMARK 924 INTRA-LIGAND FREE ENERGY PREDICTED BY IDOCK:   -1.01 KCAL/MOL
REMARK 927      BINDING AFFINITY PREDICTED BY RF-SCORE:    0.00 PKD
ROOT
HETATM    1  O   UNL     1     -10.614  12.108  69.470  1.00  0.00    -0.431 OA 
HETATM    2  H   UNL     1     -10.408  11.243  69.134  1.00  0.00     0.000 HD 
HETATM    3  C   UNL     1     -11.815  12.589  68.851  1.00  0.00    -0.301 C  
ENDROOT
BRANCH   3   4
HETATM    4  C   UNL     1     -12.150  13.997  69.398  1.00  0.00    -0.340 C  
BRANCH   4   5
HETATM    5  N   UNL     1     -11.254  14.382  70.511  1.00  0.00    -0.495 NA 
HETATM    6  H   UNL     1     -10.603  13.635  70.754  1.00  0.00     0.000 HD 
BRANCH   5   7
HETATM    7  C   UNL     1     -10.558  15.633  70.188  1.00  0.00    -0.334 C  
BRANCH   7   8
HETATM    8  C   UNL     1     -11.099  16.212  68.878  1.00  0.00    -0.347 C  
BRANCH   8   9
HETATM    9  C   UNL     1      -9.969  16.405  67.865  1.00  0.00    -0.243 C  
BRANCH   9  10
HETATM   10  C   UNL     1     -10.031  17.783  67.201  1.00  0.00    -0.322 C  
BRANCH  10  11
HETATM   11  C   UNL     1      -8.885  18.654  67.658  1.00  0.00    -0.292 A  
HETATM   12  C   UNL     1      -8.654  19.900  67.057  1.00  0.00    -0.389 A  
HETATM   13  C   UNL     1      -7.563  20.682  67.442  1.00  0.00    -0.375 A  
HETATM   14  C   UNL     1      -6.700  20.215  68.428  1.00  0.00    -0.302 A  
HETATM   15  O   UNL     1      -5.613  20.938  68.821  1.00  0.00    -0.317 OA 
HETATM   16  C   UNL     1      -6.917  18.989  69.041  1.00  0.00    -0.354 A  
HETATM   17  H   UNL     1      -5.024  20.619  69.494  1.00  0.00     0.000 HD 
HETATM   18  C   UNL     1      -8.008  18.206  68.655  1.00  0.00    -0.301 A  
ENDBRANCH  10  11
ENDBRANCH   9  10
ENDBRANCH   8   9
ENDBRANCH   7   8
ENDBRANCH   5   7
ENDBRANCH   4   5
ENDBRANCH   3   4
BRANCH   3  19
HETATM   19  C   UNL     1     -11.648  12.608  67.345  1.00  0.00    -0.421 A  
HETATM   20  C   UNL     1     -12.274  13.584  66.551  1.00  0.00    -0.433 A  
HETATM   21  H   UNL     1     -10.706  11.857  62.792  1.00  0.00     0.000 HD 
HETATM   22  C   UNL     1     -10.878  11.611  66.715  1.00  0.00    -0.322 A  
HETATM   23  H   UNL     1     -12.619  14.461  63.415  1.00  0.00     0.000 HD 
HETATM   24  C   UNL     1     -12.126  13.554  65.169  1.00  0.00    -0.404 A  
HETATM   25  C   UNL     1     -10.733  11.587  65.326  1.00  0.00    -0.337 A  
HETATM   26  O   UNL     1     -12.720  14.481  64.359  1.00  0.00    -0.655 OA 
HETATM   27  C   UNL     1     -11.362  12.559  64.564  1.00  0.00    -0.330 A  
HETATM   28  O   UNL     1     -11.228  12.535  63.205  1.00  0.00    -0.452 OA 
ENDBRANCH   3  19
TORSDOF 8
ENDMDL
MODEL       69
REMARK 921   NORMALIZED FREE ENERGY PREDICTED BY IDOCK:   -5.64 KCAL/MOL
REMARK 922        TOTAL FREE ENERGY PREDICTED BY IDOCK:   -9.48 KCAL/MOL
REMARK 923 INTER-LIGAND FREE ENERGY PREDICTED BY IDOCK:   -7.81 KCAL/MOL
REMARK 924 INTRA-LIGAND FREE ENERGY PREDICTED BY IDOCK:   -1.67 KCAL/MOL
REMARK 927      BINDING AFFINITY PREDICTED BY RF-SCORE:    0.00 PKD
ROOT
HETATM    1  O   UNL     1     -13.914   9.104  70.924  1.00  0.00    -0.569 OA 
HETATM    2  H   UNL     1     -14.746   9.555  70.833  1.00  0.00     0.000 HD 
HETATM    3  C   UNL     1     -13.114   9.771  71.908  1.00  0.00    -0.446 C  
ENDROOT
BRANCH   3   4
HETATM    4  C   UNL     1     -11.760   9.038  72.057  1.00  0.00    -0.347 C  
BRANCH   4   5
HETATM    5  N   UNL     1     -11.935   7.658  72.564  1.00  0.00    -0.530 NA 
HETATM    6  H   UNL     1     -12.909   7.357  72.524  1.00  0.00     0.000 HD 
BRANCH   5   7
HETATM    7  C   UNL     1     -11.045   6.740  71.844  1.00  0.00    -0.247 C  
BRANCH   7   8
HETATM    8  C   UNL     1     -11.578   6.493  70.430  1.00  0.00    -0.470 C  
BRANCH   8   9
HETATM    9  C   UNL     1     -10.448   6.582  69.403  1.00  0.00    -0.262 C  
BRANCH   9  10
HETATM   10  C   UNL     1      -9.392   7.615  69.808  1.00  0.00    -0.150 C  
BRANCH  10  11
HETATM   11  C   UNL     1      -9.567   8.898  69.031  1.00  0.00    -0.158 A  
HETATM   12  C   UNL     1     -10.501   8.976  67.987  1.00  0.00    -0.270 A  
HETATM   13  C   UNL     1     -10.626  10.145  67.233  1.00  0.00    -0.321 A  
HETATM   14  C   UNL     1      -9.813  11.236  67.522  1.00  0.00    -0.178 A  
HETATM   15  O   UNL     1      -9.889  12.390  66.799  1.00  0.00    -0.213 OA 
HETATM   16  C   UNL     1      -8.889  11.180  68.557  1.00  0.00    -0.161 A  
HETATM   17  H   UNL     1      -9.333  13.135  66.996  1.00  0.00     0.000 HD 
HETATM   18  C   UNL     1      -8.764  10.012  69.310  1.00  0.00    -0.182 A  
ENDBRANCH  10  11
ENDBRANCH   9  10
ENDBRANCH   8   9
ENDBRANCH   7   8
ENDBRANCH   5   7
ENDBRANCH   4   5
ENDBRANCH   3   4
BRANCH   3  19
HETATM   19  C   UNL     1     -12.915  11.222  71.515  1.00  0.00    -0.520 A  
HETATM   20  C   UNL     1     -13.505  12.266  72.247  1.00  0.00    -0.365 A  
HETATM   21  H   UNL     1     -11.892  15.374  69.543  1.00  0.00     0.000 HD 
HETATM   22  C   UNL     1     -12.152  11.538  70.374  1.00  0.00    -0.471 A  
HETATM   23  H   UNL     1     -13.765  15.531  72.245  1.00  0.00     0.000 HD 
HETATM   24  C   UNL     1     -13.328  13.584  71.841  1.00  0.00    -0.443 A  
HETATM   25  C   UNL     1     -11.978  12.864  69.972  1.00  0.00    -0.380 A  
HETATM   26  O   UNL     1     -13.886  14.631  72.522  1.00  0.00    -0.454 OA 
HETATM   27  C   UNL     1     -12.571  13.877  70.709  1.00  0.00    -0.354 A  
HETATM   28  O   UNL     1     -12.409  15.174  70.315  1.00  0.00    -0.321 OA 
ENDBRANCH   3  19
TORSDOF 8
ENDMDL
MODEL       70
REMARK 921   NORMALIZED FREE ENERGY PREDICTED BY IDOCK:   -5.64 KCAL/MOL
REMARK 922        TOTAL FREE ENERGY PREDICTED BY IDOCK:   -9.48 KCAL/MOL
REMARK 923 INTER-LIGAND FREE ENERGY PREDICTED BY IDOCK:   -8.64 KCAL/MOL
REMARK 924 INTRA-LIGAND FREE ENERGY PREDICTED BY IDOCK:   -0.84 KCAL/MOL
REMARK 927      BINDING AFFINITY PREDICTED BY RF-SCORE:    0.00 PKD
ROOT
HETATM    1  O   UNL     1      -9.983  10.994  68.148  1.00  0.00    -0.168 OA 
HETATM    2  H   UNL     1      -9.859  11.875  68.482  1.00  0.00     0.000 HD 
HETATM    3  C   UNL     1      -9.603  10.948  66.767  1.00  0.00    -0.183 C  
ENDROOT
BRANCH   3   4
HETATM    4  C   UNL     1      -9.804   9.514  66.223  1.00  0.00    -0.266 C  
BRANCH   4   5
HETATM    5  N   UNL     1     -10.584   8.675  67.160  1.00  0.00    -0.356 NA 
HETATM    6  H   UNL     1     -11.554   8.982  67.231  1.00  0.00     0.000 HD 
BRANCH   5   7
HETATM    7  C   UNL     1     -10.482   7.262  66.776  1.00  0.00    -0.241 C  
BRANCH   7   8
HETATM    8  C   UNL     1     -11.030   6.373  67.895  1.00  0.00    -0.416 C  
BRANCH   8   9
HETATM    9  C   UNL     1     -10.163   6.487  69.150  1.00  0.00    -0.208 C  
BRANCH   9  10
HETATM   10  C   UNL     1     -10.978   6.268  70.427  1.00  0.00    -0.385 C  
BRANCH  10  11
HETATM   11  C   UNL     1     -11.660   7.545  70.856  1.00  0.00    -0.309 A  
HETATM   12  C   UNL     1     -11.044   8.787  70.646  1.00  0.00    -0.285 A  
HETATM   13  C   UNL     1     -11.649   9.965  71.090  1.00  0.00    -0.468 A  
HETATM   14  C   UNL     1     -12.872   9.899  71.750  1.00  0.00    -0.442 A  
HETATM   15  O   UNL     1     -13.488  11.021  72.217  1.00  0.00    -0.603 OA 
HETATM   16  C   UNL     1     -13.501   8.679  71.961  1.00  0.00    -0.439 A  
HETATM   17  H   UNL     1     -14.323  10.976  72.668  1.00  0.00     0.000 HD 
HETATM   18  C   UNL     1     -12.896   7.502  71.516  1.00  0.00    -0.397 A  
ENDBRANCH  10  11
ENDBRANCH   9  10
ENDBRANCH   8   9
ENDBRANCH   7   8
ENDBRANCH   5   7
ENDBRANCH   4   5
ENDBRANCH   3   4
BRANCH   3  19
HETATM   19  C   UNL     1     -10.411  11.956  65.975  1.00  0.00    -0.282 A  
HETATM   20  C   UNL     1     -11.474  11.555  65.147  1.00  0.00    -0.090 A  
HETATM   21  H   UNL     1     -12.283  15.690  63.797  1.00  0.00     0.000 HD 
HETATM   22  C   UNL     1     -10.076  13.323  66.035  1.00  0.00    -0.301 A  
HETATM   23  H   UNL     1     -13.693  12.803  63.086  1.00  0.00     0.000 HD 
HETATM   24  C   UNL     1     -12.175  12.502  64.410  1.00  0.00    -0.449 A  
HETATM   25  C   UNL     1     -10.785  14.269  65.291  1.00  0.00    -0.377 A  
HETATM   26  O   UNL     1     -13.214  12.156  63.590  1.00  0.00    -0.770 OA 
HETATM   27  C   UNL     1     -11.828  13.849  64.482  1.00  0.00    -0.426 A  
HETATM   28  O   UNL     1     -12.519  14.771  63.748  1.00  0.00    -0.782 OA 
ENDBRANCH   3  19
TORSDOF 8
ENDMDL
MODEL       71
REMARK 921   NORMALIZED FREE ENERGY PREDICTED BY IDOCK:   -5.63 KCAL/MOL
REMARK 922        TOTAL FREE ENERGY PREDICTED BY IDOCK:   -9.47 KCAL/MOL
REMARK 923 INTER-LIGAND FREE ENERGY PREDICTED BY IDOCK:   -8.57 KCAL/MOL
REMARK 924 INTRA-LIGAND FREE ENERGY PREDICTED BY IDOCK:   -0.90 KCAL/MOL
REMARK 927      BINDING AFFINITY PREDICTED BY RF-SCORE:    0.00 PKD
ROOT
HETATM    1  O   UNL     1     -11.618   6.720  67.002  1.00  0.00    -0.681 OA 
HETATM    2  H   UNL     1     -12.352   6.250  67.381  1.00  0.00     0.000 HD 
HETATM    3  C   UNL     1     -10.439   6.473  67.778  1.00  0.00    -0.227 C  
ENDROOT
BRANCH   3   4
HETATM    4  C   UNL     1      -9.244   7.238  67.160  1.00  0.00    -0.135 C  
BRANCH   4   5
HETATM    5  N   UNL     1      -9.687   8.229  66.155  1.00  0.00    -0.438 NA 
HETATM    6  H   UNL     1     -10.598   8.627  66.386  1.00  0.00     0.000 HD 
BRANCH   5   7
HETATM    7  C   UNL     1      -8.663   9.266  65.983  1.00  0.00    -0.153 C  
BRANCH   7   8
HETATM    8  C   UNL     1      -9.325  10.632  65.785  1.00  0.00    -0.223 C  
BRANCH   8   9
HETATM    9  C   UNL     1     -10.498  10.809  66.752  1.00  0.00    -0.305 C  
BRANCH   9  10
HETATM   10  C   UNL     1     -10.440  12.158  67.474  1.00  0.00    -0.229 C  
BRANCH  10  11
HETATM   11  C   UNL     1     -10.785  13.288  66.534  1.00  0.00    -0.290 A  
HETATM   12  C   UNL     1     -12.005  13.291  65.842  1.00  0.00    -0.466 A  
HETATM   13  C   UNL     1     -12.302  14.308  64.932  1.00  0.00    -0.435 A  
HETATM   14  C   UNL     1     -11.375  15.322  64.712  1.00  0.00    -0.391 A  
HETATM   15  O   UNL     1     -11.616  16.323  63.819  1.00  0.00    -1.539 OA 
HETATM   16  C   UNL     1     -10.166  15.340  65.393  1.00  0.00    -0.414 A  
HETATM   17  H   UNL     1     -10.984  17.015  63.668  1.00  0.00     0.000 HD 
HETATM   18  C   UNL     1      -9.869  14.323  66.303  1.00  0.00    -0.323 A  
ENDBRANCH  10  11
ENDBRANCH   9  10
ENDBRANCH   8   9
ENDBRANCH   7   8
ENDBRANCH   5   7
ENDBRANCH   4   5
ENDBRANCH   3   4
BRANCH   3  19
HETATM   19  C   UNL     1     -10.671   6.884  69.218  1.00  0.00    -0.265 A  
HETATM   20  C   UNL     1     -10.774   8.237  69.585  1.00  0.00    -0.196 A  
HETATM   21  H   UNL     1     -11.258   7.269  73.874  1.00  0.00     0.000 HD 
HETATM   22  C   UNL     1     -10.753   5.900  70.221  1.00  0.00    -0.383 A  
HETATM   23  H   UNL     1     -11.182  10.121  72.233  1.00  0.00     0.000 HD 
HETATM   24  C   UNL     1     -10.955   8.582  70.919  1.00  0.00    -0.251 A  
HETATM   25  C   UNL     1     -10.936   6.253  71.560  1.00  0.00    -0.322 A  
HETATM   26  O   UNL     1     -11.058   9.885  71.321  1.00  0.00    -0.351 OA 
HETATM   27  C   UNL     1     -11.033   7.594  71.898  1.00  0.00    -0.241 A  
HETATM   28  O   UNL     1     -11.205   7.943  73.207  1.00  0.00    -0.308 OA 
ENDBRANCH   3  19
TORSDOF 8
ENDMDL
MODEL       72
REMARK 921   NORMALIZED FREE ENERGY PREDICTED BY IDOCK:   -5.62 KCAL/MOL
REMARK 922        TOTAL FREE ENERGY PREDICTED BY IDOCK:   -9.45 KCAL/MOL
REMARK 923 INTER-LIGAND FREE ENERGY PREDICTED BY IDOCK:   -8.68 KCAL/MOL
REMARK 924 INTRA-LIGAND FREE ENERGY PREDICTED BY IDOCK:   -0.77 KCAL/MOL
REMARK 927      BINDING AFFINITY PREDICTED BY RF-SCORE:    0.00 PKD
ROOT
HETATM    1  O   UNL     1     -11.779  11.126  70.873  1.00  0.00    -0.347 OA 
HETATM    2  H   UNL     1     -12.136  10.990  71.744  1.00  0.00     0.000 HD 
HETATM    3  C   UNL     1     -11.513   9.857  70.261  1.00  0.00    -0.281 C  
ENDROOT
BRANCH   3   4
HETATM    4  C   UNL     1     -10.932  10.080  68.844  1.00  0.00    -0.207 C  
BRANCH   4   5
HETATM    5  N   UNL     1     -11.818  10.926  68.014  1.00  0.00    -0.759 NA 
HETATM    6  H   UNL     1     -12.686  11.158  68.496  1.00  0.00     0.000 HD 
BRANCH   5   7
HETATM    7  C   UNL     1     -11.098  12.125  67.570  1.00  0.00    -0.275 C  
BRANCH   7   8
HETATM    8  C   UNL     1     -12.093  13.200  67.126  1.00  0.00    -0.343 C  
BRANCH   8   9
HETATM    9  C   UNL     1     -11.972  14.446  68.007  1.00  0.00    -0.326 C  
BRANCH   9  10
HETATM   10  C   UNL     1     -11.164  14.167  69.277  1.00  0.00    -0.308 C  
BRANCH  10  11
HETATM   11  C   UNL     1     -11.869  14.714  70.495  1.00  0.00    -0.367 A  
HETATM   12  C   UNL     1     -13.157  14.272  70.830  1.00  0.00    -0.368 A  
HETATM   13  C   UNL     1     -13.831  14.815  71.926  1.00  0.00    -0.541 A  
HETATM   14  C   UNL     1     -13.216  15.806  72.685  1.00  0.00    -0.502 A  
HETATM   15  O   UNL     1     -13.846  16.377  73.751  1.00  0.00    -0.820 OA 
HETATM   16  C   UNL     1     -11.939  16.250  72.374  1.00  0.00    -0.630 A  
HETATM   17  H   UNL     1     -13.426  17.054  74.269  1.00  0.00     0.000 HD 
HETATM   18  C   UNL     1     -11.265  15.707  71.278  1.00  0.00    -0.393 A  
ENDBRANCH  10  11
ENDBRANCH   9  10
ENDBRANCH   8   9
ENDBRANCH   7   8
ENDBRANCH   5   7
ENDBRANCH   4   5
ENDBRANCH   3   4
BRANCH   3  19
HETATM   19  C   UNL     1     -10.562   9.055  71.127  1.00  0.00    -0.361 A  
HETATM   20  C   UNL     1     -11.026   8.293  72.213  1.00  0.00    -0.418 A  
HETATM   21  H   UNL     1      -6.949   6.996  73.337  1.00  0.00     0.000 HD 
HETATM   22  C   UNL     1      -9.178   9.095  70.867  1.00  0.00    -0.326 A  
HETATM   23  H   UNL     1      -9.914   6.366  74.616  1.00  0.00     0.000 HD 
HETATM   24  C   UNL     1     -10.123   7.595  73.006  1.00  0.00    -0.304 A  
HETATM   25  C   UNL     1      -8.277   8.389  71.667  1.00  0.00    -0.195 A  
HETATM   26  O   UNL     1     -10.531   6.843  74.074  1.00  0.00    -0.374 OA 
HETATM   27  C   UNL     1      -8.758   7.647  72.733  1.00  0.00    -0.140 A  
HETATM   28  O   UNL     1      -7.879   6.961  73.523  1.00  0.00    -0.094 OA 
ENDBRANCH   3  19
TORSDOF 8
ENDMDL
MODEL       73
REMARK 921   NORMALIZED FREE ENERGY PREDICTED BY IDOCK:   -5.61 KCAL/MOL
REMARK 922        TOTAL FREE ENERGY PREDICTED BY IDOCK:   -9.44 KCAL/MOL
REMARK 923 INTER-LIGAND FREE ENERGY PREDICTED BY IDOCK:   -8.92 KCAL/MOL
REMARK 924 INTRA-LIGAND FREE ENERGY PREDICTED BY IDOCK:   -0.52 KCAL/MOL
REMARK 927      BINDING AFFINITY PREDICTED BY RF-SCORE:    0.00 PKD
ROOT
HETATM    1  O   UNL     1     -10.066  11.226  66.805  1.00  0.00    -0.208 OA 
HETATM    2  H   UNL     1      -9.790  11.069  65.909  1.00  0.00     0.000 HD 
HETATM    3  C   UNL     1     -11.400  11.749  66.810  1.00  0.00    -0.320 C  
ENDROOT
BRANCH   3   4
HETATM    4  C   UNL     1     -11.848  12.004  68.269  1.00  0.00    -0.287 C  
BRANCH   4   5
HETATM    5  N   UNL     1     -12.301  10.760  68.931  1.00  0.00    -0.786 NA 
HETATM    6  H   UNL     1     -12.101   9.933  68.367  1.00  0.00     0.000 HD 
BRANCH   5   7
HETATM    7  C   UNL     1     -11.717  10.663  70.274  1.00  0.00    -0.344 C  
BRANCH   7   8
HETATM    8  C   UNL     1     -12.728  10.042  71.242  1.00  0.00    -0.500 C  
BRANCH   8   9
HETATM    9  C   UNL     1     -12.095   8.882  72.013  1.00  0.00    -0.442 C  
BRANCH   9  10
HETATM   10  C   UNL     1     -12.769   7.547  71.686  1.00  0.00    -0.385 C  
BRANCH  10  11
HETATM   11  C   UNL     1     -11.750   6.517  71.264  1.00  0.00    -0.386 A  
HETATM   12  C   UNL     1     -11.177   5.654  72.209  1.00  0.00    -0.317 A  
HETATM   13  C   UNL     1     -10.194   4.737  71.830  1.00  0.00    -0.258 A  
HETATM   14  C   UNL     1      -9.782   4.687  70.502  1.00  0.00    -0.214 A  
HETATM   15  O   UNL     1      -8.812   3.820  70.091  1.00  0.00    -0.068 OA 
HETATM   16  C   UNL     1     -10.343   5.527  69.550  1.00  0.00    -0.357 A  
HETATM   17  H   UNL     1      -8.531   3.786  69.185  1.00  0.00     0.000 HD 
HETATM   18  C   UNL     1     -11.325   6.444  69.931  1.00  0.00    -0.500 A  
ENDBRANCH  10  11
ENDBRANCH   9  10
ENDBRANCH   8   9
ENDBRANCH   7   8
ENDBRANCH   5   7
ENDBRANCH   4   5
ENDBRANCH   3   4
BRANCH   3  19
HETATM   19  C   UNL     1     -11.460  13.019  65.985  1.00  0.00    -0.374 A  
HETATM   20  C   UNL     1     -10.870  14.213  66.434  1.00  0.00    -0.304 A  
HETATM   21  H   UNL     1     -12.227  16.482  62.887  1.00  0.00     0.000 HD 
HETATM   22  C   UNL     1     -12.151  13.022  64.758  1.00  0.00    -0.465 A  
HETATM   23  H   UNL     1     -10.483  17.340  65.542  1.00  0.00     0.000 HD 
HETATM   24  C   UNL     1     -10.971  15.368  65.667  1.00  0.00    -0.326 A  
HETATM   25  C   UNL     1     -12.249  14.186  63.992  1.00  0.00    -0.369 A  
HETATM   26  O   UNL     1     -10.414  16.551  66.066  1.00  0.00    -0.328 OA 
HETATM   27  C   UNL     1     -11.659  15.351  64.456  1.00  0.00    -0.296 A  
HETATM   28  O   UNL     1     -11.759  16.493  63.713  1.00  0.00    -1.086 OA 
ENDBRANCH   3  19
TORSDOF 8
ENDMDL
MODEL       74
REMARK 921   NORMALIZED FREE ENERGY PREDICTED BY IDOCK:   -5.60 KCAL/MOL
REMARK 922        TOTAL FREE ENERGY PREDICTED BY IDOCK:   -9.43 KCAL/MOL
REMARK 923 INTER-LIGAND FREE ENERGY PREDICTED BY IDOCK:   -7.56 KCAL/MOL
REMARK 924 INTRA-LIGAND FREE ENERGY PREDICTED BY IDOCK:   -1.87 KCAL/MOL
REMARK 927      BINDING AFFINITY PREDICTED BY RF-SCORE:    0.00 PKD
ROOT
HETATM    1  O   UNL     1     -10.300  14.409  66.202  1.00  0.00    -0.280 OA 
HETATM    2  H   UNL     1      -9.730  14.683  66.912  1.00  0.00     0.000 HD 
HETATM    3  C   UNL     1     -11.664  14.457  66.639  1.00  0.00    -0.394 C  
ENDROOT
BRANCH   3   4
HETATM    4  C   UNL     1     -12.592  14.012  65.483  1.00  0.00    -0.516 C  
BRANCH   4   5
HETATM    5  N   UNL     1     -11.967  14.232  64.160  1.00  0.00    -0.651 NA 
HETATM    6  H   UNL     1     -10.996  14.534  64.242  1.00  0.00     0.000 HD 
BRANCH   5   7
HETATM    7  C   UNL     1     -12.100  13.027  63.334  1.00  0.00    -0.515 C  
BRANCH   7   8
HETATM    8  C   UNL     1     -11.730  11.786  64.150  1.00  0.00    -0.376 C  
BRANCH   8   9
HETATM    9  C   UNL     1     -10.211  11.611  64.208  1.00  0.00    -0.357 C  
BRANCH   9  10
HETATM   10  C   UNL     1      -9.814  10.139  64.352  1.00  0.00    -0.307 C  
BRANCH  10  11
HETATM   11  C   UNL     1      -9.531   9.795  65.794  1.00  0.00    -0.300 A  
HETATM   12  C   UNL     1      -8.535  10.479  66.507  1.00  0.00    -0.139 A  
HETATM   13  C   UNL     1      -8.235  10.126  67.824  1.00  0.00    -0.110 A  
HETATM   14  C   UNL     1      -8.932   9.084  68.428  1.00  0.00    -0.133 A  
HETATM   15  O   UNL     1      -8.659   8.693  69.706  1.00  0.00    -0.125 OA 
HETATM   16  C   UNL     1      -9.926   8.400  67.742  1.00  0.00    -0.236 A  
HETATM   17  H   UNL     1      -9.134   7.982  70.118  1.00  0.00     0.000 HD 
HETATM   18  C   UNL     1     -10.225   8.754  66.424  1.00  0.00    -0.256 A  
ENDBRANCH  10  11
ENDBRANCH   9  10
ENDBRANCH   8   9
ENDBRANCH   7   8
ENDBRANCH   5   7
ENDBRANCH   4   5
ENDBRANCH   3   4
BRANCH   3  19
HETATM   19  C   UNL     1     -11.847  13.580  67.861  1.00  0.00    -0.397 A  
HETATM   20  C   UNL     1     -12.123  14.132  69.124  1.00  0.00    -0.362 A  
HETATM   21  H   UNL     1     -12.133  10.175  71.101  1.00  0.00     0.000 HD 
HETATM   22  C   UNL     1     -11.705  12.184  67.746  1.00  0.00    -0.390 A  
HETATM   23  H   UNL     1     -12.607  13.228  72.234  1.00  0.00     0.000 HD 
HETATM   24  C   UNL     1     -12.253  13.301  70.231  1.00  0.00    -0.321 A  
HETATM   25  C   UNL     1     -11.837  11.355  68.863  1.00  0.00    -0.413 A  
HETATM   26  O   UNL     1     -12.518  13.795  71.478  1.00  0.00    -0.337 OA 
HETATM   27  C   UNL     1     -12.108  11.922  70.097  1.00  0.00    -0.302 A  
HETATM   28  O   UNL     1     -12.231  11.115  71.192  1.00  0.00    -0.338 OA 
ENDBRANCH   3  19
TORSDOF 8
ENDMDL
MODEL       75
REMARK 921   NORMALIZED FREE ENERGY PREDICTED BY IDOCK:   -5.60 KCAL/MOL
REMARK 922        TOTAL FREE ENERGY PREDICTED BY IDOCK:   -9.42 KCAL/MOL
REMARK 923 INTER-LIGAND FREE ENERGY PREDICTED BY IDOCK:   -8.30 KCAL/MOL
REMARK 924 INTRA-LIGAND FREE ENERGY PREDICTED BY IDOCK:   -1.13 KCAL/MOL
REMARK 927      BINDING AFFINITY PREDICTED BY RF-SCORE:    0.00 PKD
ROOT
HETATM    1  O   UNL     1     -10.076  14.587  69.432  1.00  0.00    -0.396 OA 
HETATM    2  H   UNL     1     -10.982  14.844  69.561  1.00  0.00     0.000 HD 
HETATM    3  C   UNL     1      -9.669  14.919  68.098  1.00  0.00    -0.214 C  
ENDROOT
BRANCH   3   4
HETATM    4  C   UNL     1      -8.195  14.500  67.888  1.00  0.00    -0.153 C  
BRANCH   4   5
HETATM    5  N   UNL     1      -7.441  15.509  67.111  1.00  0.00    -0.218 NA 
HETATM    6  H   UNL     1      -7.940  16.397  67.053  1.00  0.00     0.000 HD 
BRANCH   5   7
HETATM    7  C   UNL     1      -6.094  15.671  67.669  1.00  0.00    -0.149 C  
BRANCH   7   8
HETATM    8  C   UNL     1      -5.817  17.150  67.951  1.00  0.00    -0.131 C  
BRANCH   8   9
HETATM    9  C   UNL     1      -6.582  17.616  69.192  1.00  0.00    -0.251 C  
BRANCH   9  10
HETATM   10  C   UNL     1      -7.002  19.084  69.082  1.00  0.00    -0.346 C  
BRANCH  10  11
HETATM   11  C   UNL     1      -8.136  19.249  68.099  1.00  0.00    -0.349 A  
HETATM   12  C   UNL     1      -9.391  18.677  68.357  1.00  0.00    -0.369 A  
HETATM   13  C   UNL     1     -10.425  18.783  67.424  1.00  0.00    -0.490 A  
HETATM   14  C   UNL     1     -10.201  19.459  66.229  1.00  0.00    -0.478 A  
HETATM   15  O   UNL     1     -11.176  19.569  65.282  1.00  0.00    -0.331 OA 
HETATM   16  C   UNL     1      -8.969  20.038  65.959  1.00  0.00    -0.267 A  
HETATM   17  H   UNL     1     -11.024  20.030  64.466  1.00  0.00     0.000 HD 
HETATM   18  C   UNL     1      -7.935  19.932  66.892  1.00  0.00    -0.339 A  
ENDBRANCH  10  11
ENDBRANCH   9  10
ENDBRANCH   8   9
ENDBRANCH   7   8
ENDBRANCH   5   7
ENDBRANCH   4   5
ENDBRANCH   3   4
BRANCH   3  19
HETATM   19  C   UNL     1     -10.583  14.243  67.095  1.00  0.00    -0.279 A  
HETATM   20  C   UNL     1     -11.130  14.950  66.011  1.00  0.00    -0.334 A  
HETATM   21  H   UNL     1     -13.389  11.431  64.566  1.00  0.00     0.000 HD 
HETATM   22  C   UNL     1     -10.923  12.887  67.264  1.00  0.00    -0.289 A  
HETATM   23  H   UNL     1     -13.135  14.519  63.457  1.00  0.00     0.000 HD 
HETATM   24  C   UNL     1     -11.990  14.308  65.127  1.00  0.00    -0.395 A  
HETATM   25  C   UNL     1     -11.788  12.248  66.372  1.00  0.00    -0.382 A  
HETATM   26  O   UNL     1     -12.547  14.958  64.061  1.00  0.00    -0.832 OA 
HETATM   27  C   UNL     1     -12.316  12.966  65.311  1.00  0.00    -0.490 A  
HETATM   28  O   UNL     1     -13.167  12.346  64.441  1.00  0.00    -0.816 OA 
ENDBRANCH   3  19
TORSDOF 8
ENDMDL
MODEL       76
REMARK 921   NORMALIZED FREE ENERGY PREDICTED BY IDOCK:   -5.59 KCAL/MOL
REMARK 922        TOTAL FREE ENERGY PREDICTED BY IDOCK:   -9.41 KCAL/MOL
REMARK 923 INTER-LIGAND FREE ENERGY PREDICTED BY IDOCK:   -8.75 KCAL/MOL
REMARK 924 INTRA-LIGAND FREE ENERGY PREDICTED BY IDOCK:   -0.66 KCAL/MOL
REMARK 927      BINDING AFFINITY PREDICTED BY RF-SCORE:    0.00 PKD
ROOT
HETATM    1  O   UNL     1     -11.863   7.810  73.072  1.00  0.00    -0.617 OA 
HETATM    2  H   UNL     1     -11.733   6.970  73.499  1.00  0.00     0.000 HD 
HETATM    3  C   UNL     1     -12.442   7.604  71.777  1.00  0.00    -0.329 C  
ENDROOT
BRANCH   3   4
HETATM    4  C   UNL     1     -12.654   8.971  71.084  1.00  0.00    -0.211 C  
BRANCH   4   5
HETATM    5  N   UNL     1     -11.422   9.791  71.097  1.00  0.00    -0.373 NA 
HETATM    6  H   UNL     1     -10.582   9.220  71.006  1.00  0.00     0.000 HD 
BRANCH   5   7
HETATM    7  C   UNL     1     -11.496  10.830  70.063  1.00  0.00    -0.331 C  
BRANCH   7   8
HETATM    8  C   UNL     1     -11.067  10.255  68.711  1.00  0.00    -0.276 C  
BRANCH   8   9
HETATM    9  C   UNL     1     -10.786  11.379  67.711  1.00  0.00    -0.281 C  
BRANCH   9  10
HETATM   10  C   UNL     1     -11.589  12.641  68.035  1.00  0.00    -0.394 C  
BRANCH  10  11
HETATM   11  C   UNL     1     -11.558  13.612  66.879  1.00  0.00    -0.397 A  
HETATM   12  C   UNL     1     -10.774  14.773  66.946  1.00  0.00    -0.308 A  
HETATM   13  C   UNL     1     -10.785  15.699  65.900  1.00  0.00    -0.336 A  
HETATM   14  C   UNL     1     -11.585  15.463  64.787  1.00  0.00    -0.286 A  
HETATM   15  O   UNL     1     -11.641  16.350  63.752  1.00  0.00    -1.605 OA 
HETATM   16  C   UNL     1     -12.362  14.316  64.698  1.00  0.00    -0.433 A  
HETATM   17  H   UNL     1     -12.187  16.189  62.992  1.00  0.00     0.000 HD 
HETATM   18  C   UNL     1     -12.350  13.391  65.745  1.00  0.00    -0.513 A  
ENDBRANCH  10  11
ENDBRANCH   9  10
ENDBRANCH   8   9
ENDBRANCH   7   8
ENDBRANCH   5   7
ENDBRANCH   4   5
ENDBRANCH   3   4
BRANCH   3  19
HETATM   19  C   UNL     1     -11.551   6.699  70.951  1.00  0.00    -0.416 A  
HETATM   20  C   UNL     1     -11.633   6.675  69.548  1.00  0.00    -0.257 A  
HETATM   21  H   UNL     1      -8.538   3.533  69.198  1.00  0.00     0.000 HD 
HETATM   22  C   UNL     1     -10.644   5.835  71.594  1.00  0.00    -0.302 A  
HETATM   23  H   UNL     1     -10.318   5.159  66.959  1.00  0.00     0.000 HD 
HETATM   24  C   UNL     1     -10.823   5.809  68.821  1.00  0.00    -0.215 A  
HETATM   25  C   UNL     1      -9.833   4.969  70.857  1.00  0.00    -0.274 A  
HETATM   26  O   UNL     1     -10.871   5.750  67.455  1.00  0.00    -0.261 OA 
HETATM   27  C   UNL     1      -9.932   4.961  69.475  1.00  0.00    -0.225 A  
HETATM   28  O   UNL     1      -9.146   4.110  68.752  1.00  0.00    -0.112 OA 
ENDBRANCH   3  19
TORSDOF 8
ENDMDL
MODEL       77
REMARK 921   NORMALIZED FREE ENERGY PREDICTED BY IDOCK:   -5.58 KCAL/MOL
REMARK 922        TOTAL FREE ENERGY PREDICTED BY IDOCK:   -9.39 KCAL/MOL
REMARK 923 INTER-LIGAND FREE ENERGY PREDICTED BY IDOCK:   -7.65 KCAL/MOL
REMARK 924 INTRA-LIGAND FREE ENERGY PREDICTED BY IDOCK:   -1.75 KCAL/MOL
REMARK 927      BINDING AFFINITY PREDICTED BY RF-SCORE:    0.00 PKD
ROOT
HETATM    1  O   UNL     1     -11.498   6.691  66.997  1.00  0.00    -0.763 OA 
HETATM    2  H   UNL     1     -12.099   6.143  67.490  1.00  0.00     0.000 HD 
HETATM    3  C   UNL     1     -10.167   6.175  67.123  1.00  0.00    -0.199 C  
ENDROOT
BRANCH   3   4
HETATM    4  C   UNL     1      -9.190   7.067  66.321  1.00  0.00    -0.126 C  
BRANCH   4   5
HETATM    5  N   UNL     1      -9.829   8.328  65.884  1.00  0.00    -0.440 NA 
HETATM    6  H   UNL     1     -10.816   8.365  66.141  1.00  0.00     0.000 HD 
BRANCH   5   7
HETATM    7  C   UNL     1      -9.082   9.478  66.405  1.00  0.00    -0.159 C  
BRANCH   7   8
HETATM    8  C   UNL     1     -10.038  10.640  66.690  1.00  0.00    -0.270 C  
BRANCH   8   9
HETATM    9  C   UNL     1     -11.031  10.264  67.791  1.00  0.00    -0.360 C  
BRANCH   9  10
HETATM   10  C   UNL     1     -10.399  10.358  69.183  1.00  0.00    -0.241 C  
BRANCH  10  11
HETATM   11  C   UNL     1     -11.393   9.976  70.253  1.00  0.00    -0.376 A  
HETATM   12  C   UNL     1     -12.399  10.872  70.643  1.00  0.00    -0.470 A  
HETATM   13  C   UNL     1     -13.286  10.541  71.670  1.00  0.00    -0.493 A  
HETATM   14  C   UNL     1     -13.163   9.313  72.311  1.00  0.00    -0.460 A  
HETATM   15  O   UNL     1     -13.995   8.957  73.331  1.00  0.00    -1.236 OA 
HETATM   16  C   UNL     1     -12.178   8.409  71.934  1.00  0.00    -0.395 A  
HETATM   17  H   UNL     1     -13.910   8.119  73.769  1.00  0.00     0.000 HD 
HETATM   18  C   UNL     1     -11.292   8.740  70.907  1.00  0.00    -0.322 A  
ENDBRANCH  10  11
ENDBRANCH   9  10
ENDBRANCH   8   9
ENDBRANCH   7   8
ENDBRANCH   5   7
ENDBRANCH   4   5
ENDBRANCH   3   4
BRANCH   3  19
HETATM   19  C   UNL     1      -9.776   6.106  68.586  1.00  0.00    -0.145 A  
HETATM   20  C   UNL     1      -8.672   6.820  69.083  1.00  0.00    -0.131 A  
HETATM   21  H   UNL     1      -9.199   5.228  73.177  1.00  0.00     0.000 HD 
HETATM   22  C   UNL     1     -10.507   5.285  69.467  1.00  0.00    -0.304 A  
HETATM   23  H   UNL     1      -7.013   7.309  71.865  1.00  0.00     0.000 HD 
HETATM   24  C   UNL     1      -8.321   6.709  70.423  1.00  0.00    -0.127 A  
HETATM   25  C   UNL     1     -10.149   5.179  70.813  1.00  0.00    -0.303 A  
HETATM   26  O   UNL     1      -7.253   7.384  70.949  1.00  0.00    -0.066 OA 
HETATM   27  C   UNL     1      -9.055   5.892  71.279  1.00  0.00    -0.140 A  
HETATM   28  O   UNL     1      -8.698   5.785  72.593  1.00  0.00    -0.120 OA 
ENDBRANCH   3  19
TORSDOF 8
ENDMDL
MODEL       78
REMARK 921   NORMALIZED FREE ENERGY PREDICTED BY IDOCK:   -5.56 KCAL/MOL
REMARK 922        TOTAL FREE ENERGY PREDICTED BY IDOCK:   -9.36 KCAL/MOL
REMARK 923 INTER-LIGAND FREE ENERGY PREDICTED BY IDOCK:   -8.51 KCAL/MOL
REMARK 924 INTRA-LIGAND FREE ENERGY PREDICTED BY IDOCK:   -0.85 KCAL/MOL
REMARK 927      BINDING AFFINITY PREDICTED BY RF-SCORE:    0.00 PKD
ROOT
HETATM    1  O   UNL     1     -11.510  13.210  70.362  1.00  0.00    -0.508 OA 
HETATM    2  H   UNL     1     -12.063  13.296  71.131  1.00  0.00     0.000 HD 
HETATM    3  C   UNL     1     -11.884  12.035  69.632  1.00  0.00    -0.333 C  
ENDROOT
BRANCH   3   4
HETATM    4  C   UNL     1     -10.984  11.895  68.381  1.00  0.00    -0.232 C  
BRANCH   4   5
HETATM    5  N   UNL     1     -11.771  11.570  67.171  1.00  0.00    -0.577 NA 
HETATM    6  H   UNL     1     -12.541  12.224  67.029  1.00  0.00     0.000 HD 
BRANCH   5   7
HETATM    7  C   UNL     1     -10.888  11.496  66.001  1.00  0.00    -0.276 C  
BRANCH   7   8
HETATM    8  C   UNL     1     -11.588  12.094  64.777  1.00  0.00    -0.380 C  
BRANCH   8   9
HETATM    9  C   UNL     1     -11.962  13.557  65.029  1.00  0.00    -0.399 C  
BRANCH   9  10
HETATM   10  C   UNL     1     -10.763  14.490  64.843  1.00  0.00    -0.448 C  
BRANCH  10  11
HETATM   11  C   UNL     1     -10.647  15.456  65.997  1.00  0.00    -0.330 A  
HETATM   12  C   UNL     1     -11.280  15.185  67.219  1.00  0.00    -0.324 A  
HETATM   13  C   UNL     1     -11.219  16.102  68.270  1.00  0.00    -0.343 A  
HETATM   14  C   UNL     1     -10.524  17.295  68.097  1.00  0.00    -0.382 A  
HETATM   15  O   UNL     1     -10.454  18.227  69.090  1.00  0.00    -0.445 OA 
HETATM   16  C   UNL     1      -9.883  17.578  66.898  1.00  0.00    -0.302 A  
HETATM   17  H   UNL     1      -9.980  19.042  68.971  1.00  0.00     0.000 HD 
HETATM   18  C   UNL     1      -9.946  16.660  65.847  1.00  0.00    -0.320 A  
ENDBRANCH  10  11
ENDBRANCH   9  10
ENDBRANCH   8   9
ENDBRANCH   7   8
ENDBRANCH   5   7
ENDBRANCH   4   5
ENDBRANCH   3   4
BRANCH   3  19
HETATM   19  C   UNL     1     -11.779  10.815  70.525  1.00  0.00    -0.449 A  
HETATM   20  C   UNL     1     -12.789  10.495  71.449  1.00  0.00    -0.551 A  
HETATM   21  H   UNL     1     -10.596   6.965  72.966  1.00  0.00     0.000 HD 
HETATM   22  C   UNL     1     -10.634   9.998  70.460  1.00  0.00    -0.313 A  
HETATM   23  H   UNL     1     -13.505   8.283  73.756  1.00  0.00     0.000 HD 
HETATM   24  C   UNL     1     -12.646   9.387  72.276  1.00  0.00    -0.306 A  
HETATM   25  C   UNL     1     -10.498   8.886  71.294  1.00  0.00    -0.357 A  
HETATM   26  O   UNL     1     -13.602   9.041  73.191  1.00  0.00    -0.214 OA 
HETATM   27  C   UNL     1     -11.506   8.591  72.198  1.00  0.00    -0.376 A  
HETATM   28  O   UNL     1     -11.373   7.508  73.019  1.00  0.00    -0.341 OA 
ENDBRANCH   3  19
TORSDOF 8
ENDMDL
MODEL       79
REMARK 921   NORMALIZED FREE ENERGY PREDICTED BY IDOCK:   -5.53 KCAL/MOL
REMARK 922        TOTAL FREE ENERGY PREDICTED BY IDOCK:   -9.32 KCAL/MOL
REMARK 923 INTER-LIGAND FREE ENERGY PREDICTED BY IDOCK:   -8.66 KCAL/MOL
REMARK 924 INTRA-LIGAND FREE ENERGY PREDICTED BY IDOCK:   -0.66 KCAL/MOL
REMARK 927      BINDING AFFINITY PREDICTED BY RF-SCORE:    0.00 PKD
ROOT
HETATM    1  O   UNL     1     -11.960  11.879  67.463  1.00  0.00    -0.586 OA 
HETATM    2  H   UNL     1     -12.900  12.001  67.392  1.00  0.00     0.000 HD 
HETATM    3  C   UNL     1     -11.651  11.270  68.723  1.00  0.00    -0.316 C  
ENDROOT
BRANCH   3   4
HETATM    4  C   UNL     1     -10.120  11.071  68.839  1.00  0.00    -0.199 C  
BRANCH   4   5
HETATM    5  N   UNL     1      -9.386  12.345  68.674  1.00  0.00    -0.399 NA 
HETATM    6  H   UNL     1      -9.241  12.820  69.565  1.00  0.00     0.000 HD 
BRANCH   5   7
HETATM    7  C   UNL     1      -8.124  12.111  67.964  1.00  0.00    -0.155 C  
BRANCH   7   8
HETATM    8  C   UNL     1      -8.179  10.775  67.219  1.00  0.00    -0.121 C  
BRANCH   8   9
HETATM    9  C   UNL     1      -8.224  11.000  65.706  1.00  0.00    -0.064 C  
BRANCH   9  10
HETATM   10  C   UNL     1      -9.588  10.632  65.117  1.00  0.00    -0.304 C  
BRANCH  10  11
HETATM   11  C   UNL     1     -10.346  11.868  64.696  1.00  0.00    -0.326 A  
HETATM   12  C   UNL     1      -9.973  13.130  65.180  1.00  0.00    -0.170 A  
HETATM   13  C   UNL     1     -10.706  14.268  64.834  1.00  0.00    -0.448 A  
HETATM   14  C   UNL     1     -11.816  14.141  64.005  1.00  0.00    -0.271 A  
HETATM   15  O   UNL     1     -12.570  15.222  63.658  1.00  0.00    -0.873 OA 
HETATM   16  C   UNL     1     -12.195  12.901  63.510  1.00  0.00    -0.595 A  
HETATM   17  H   UNL     1     -13.328  15.135  63.092  1.00  0.00     0.000 HD 
HETATM   18  C   UNL     1     -11.463  11.764  63.856  1.00  0.00    -0.481 A  
ENDBRANCH  10  11
ENDBRANCH   9  10
ENDBRANCH   8   9
ENDBRANCH   7   8
ENDBRANCH   5   7
ENDBRANCH   4   5
ENDBRANCH   3   4
BRANCH   3  19
HETATM   19  C   UNL     1     -12.182  12.126  69.856  1.00  0.00    -0.240 A  
HETATM   20  C   UNL     1     -12.130  13.529  69.799  1.00  0.00    -0.381 A  
HETATM   21  H   UNL     1     -13.917  13.981  73.821  1.00  0.00     0.000 HD 
HETATM   22  C   UNL     1     -12.709  11.511  71.008  1.00  0.00    -0.426 A  
HETATM   23  H   UNL     1     -12.883  16.167  71.589  1.00  0.00     0.000 HD 
HETATM   24  C   UNL     1     -12.597  14.284  70.869  1.00  0.00    -0.356 A  
HETATM   25  C   UNL     1     -13.177  12.276  72.079  1.00  0.00    -0.508 A  
HETATM   26  O   UNL     1     -12.564  15.651  70.858  1.00  0.00    -0.432 OA 
HETATM   27  C   UNL     1     -13.114  13.658  72.001  1.00  0.00    -0.393 A  
HETATM   28  O   UNL     1     -13.564  14.408  73.049  1.00  0.00    -0.619 OA 
ENDBRANCH   3  19
TORSDOF 8
ENDMDL
MODEL       80
REMARK 921   NORMALIZED FREE ENERGY PREDICTED BY IDOCK:   -5.52 KCAL/MOL
REMARK 922        TOTAL FREE ENERGY PREDICTED BY IDOCK:   -9.31 KCAL/MOL
REMARK 923 INTER-LIGAND FREE ENERGY PREDICTED BY IDOCK:   -8.20 KCAL/MOL
REMARK 924 INTRA-LIGAND FREE ENERGY PREDICTED BY IDOCK:   -1.11 KCAL/MOL
REMARK 927      BINDING AFFINITY PREDICTED BY RF-SCORE:    0.00 PKD
ROOT
HETATM    1  O   UNL     1     -10.674  14.662  64.264  1.00  0.00    -0.552 OA 
HETATM    2  H   UNL     1      -9.775  14.581  63.967  1.00  0.00     0.000 HD 
HETATM    3  C   UNL     1     -10.810  14.047  65.551  1.00  0.00    -0.309 C  
ENDROOT
BRANCH   3   4
HETATM    4  C   UNL     1     -12.274  14.180  66.035  1.00  0.00    -0.443 C  
BRANCH   4   5
HETATM    5  N   UNL     1     -12.356  14.318  67.506  1.00  0.00    -0.587 NA 
HETATM    6  H   UNL     1     -12.410  13.412  67.973  1.00  0.00     0.000 HD 
BRANCH   5   7
HETATM    7  C   UNL     1     -11.235  15.124  68.000  1.00  0.00    -0.323 C  
BRANCH   7   8
HETATM    8  C   UNL     1     -11.571  15.704  69.377  1.00  0.00    -0.378 C  
BRANCH   8   9
HETATM    9  C   UNL     1     -12.733  14.941  70.016  1.00  0.00    -0.194 C  
BRANCH   9  10
HETATM   10  C   UNL     1     -12.301  14.212  71.291  1.00  0.00    -0.447 C  
BRANCH  10  11
HETATM   11  C   UNL     1     -12.452  12.718  71.135  1.00  0.00    -0.335 A  
HETATM   12  C   UNL     1     -13.205  11.978  72.059  1.00  0.00    -0.481 A  
HETATM   13  C   UNL     1     -13.301  10.589  71.947  1.00  0.00    -0.461 A  
HETATM   14  C   UNL     1     -12.639   9.939  70.910  1.00  0.00    -0.302 A  
HETATM   15  O   UNL     1     -12.690   8.583  70.775  1.00  0.00    -0.492 OA 
HETATM   16  C   UNL     1     -11.895  10.655  69.982  1.00  0.00    -0.403 A  
HETATM   17  H   UNL     1     -12.238   8.140  70.067  1.00  0.00     0.000 HD 
HETATM   18  C   UNL     1     -11.799  12.043  70.094  1.00  0.00    -0.383 A  
ENDBRANCH  10  11
ENDBRANCH   9  10
ENDBRANCH   8   9
ENDBRANCH   7   8
ENDBRANCH   5   7
ENDBRANCH   4   5
ENDBRANCH   3   4
BRANCH   3  19
HETATM   19  C   UNL     1     -10.383  12.595  65.478  1.00  0.00    -0.305 A  
HETATM   20  C   UNL     1     -10.061  11.987  64.253  1.00  0.00    -0.319 A  
HETATM   21  H   UNL     1      -9.292   8.062  66.143  1.00  0.00     0.000 HD 
HETATM   22  C   UNL     1     -10.337  11.820  66.654  1.00  0.00    -0.251 A  
HETATM   23  H   UNL     1      -9.141   9.095  63.022  1.00  0.00     0.000 HD 
HETATM   24  C   UNL     1      -9.703  10.645  64.217  1.00  0.00    -0.314 A  
HETATM   25  C   UNL     1      -9.977  10.471  66.610  1.00  0.00    -0.260 A  
HETATM   26  O   UNL     1      -9.385  10.012  63.047  1.00  0.00    -0.287 OA 
HETATM   27  C   UNL     1      -9.665   9.894  65.390  1.00  0.00    -0.306 A  
HETATM   28  O   UNL     1      -9.319   8.574  65.343  1.00  0.00    -0.067 OA 
ENDBRANCH   3  19
TORSDOF 8
ENDMDL
MODEL       81
REMARK 921   NORMALIZED FREE ENERGY PREDICTED BY IDOCK:   -5.52 KCAL/MOL
REMARK 922        TOTAL FREE ENERGY PREDICTED BY IDOCK:   -9.30 KCAL/MOL
REMARK 923 INTER-LIGAND FREE ENERGY PREDICTED BY IDOCK:   -8.26 KCAL/MOL
REMARK 924 INTRA-LIGAND FREE ENERGY PREDICTED BY IDOCK:   -1.04 KCAL/MOL
REMARK 927      BINDING AFFINITY PREDICTED BY RF-SCORE:    0.00 PKD
ROOT
HETATM    1  O   UNL     1     -11.288   7.625  73.139  1.00  0.00    -0.573 OA 
HETATM    2  H   UNL     1     -10.537   7.053  73.257  1.00  0.00     0.000 HD 
HETATM    3  C   UNL     1     -12.037   7.198  71.994  1.00  0.00    -0.292 C  
ENDROOT
BRANCH   3   4
HETATM    4  C   UNL     1     -13.259   8.128  71.801  1.00  0.00    -0.341 C  
BRANCH   4   5
HETATM    5  N   UNL     1     -12.921   9.543  72.073  1.00  0.00    -0.408 NA 
HETATM    6  H   UNL     1     -11.938   9.660  72.317  1.00  0.00     0.000 HD 
BRANCH   5   7
HETATM    7  C   UNL     1     -13.309  10.381  70.933  1.00  0.00    -0.129 C  
BRANCH   7   8
HETATM    8  C   UNL     1     -12.119  11.229  70.476  1.00  0.00    -0.481 C  
BRANCH   8   9
HETATM    9  C   UNL     1     -11.884  11.065  68.973  1.00  0.00    -0.399 C  
BRANCH   9  10
HETATM   10  C   UNL     1     -11.003  12.183  68.409  1.00  0.00    -0.271 C  
BRANCH  10  11
HETATM   11  C   UNL     1     -11.413  12.534  67.000  1.00  0.00    -0.419 A  
HETATM   12  C   UNL     1     -10.949  11.777  65.914  1.00  0.00    -0.354 A  
HETATM   13  C   UNL     1     -11.283  12.133  64.605  1.00  0.00    -0.374 A  
HETATM   14  C   UNL     1     -12.081  13.251  64.383  1.00  0.00    -0.415 A  
HETATM   15  O   UNL     1     -12.416  13.645  63.122  1.00  0.00    -1.033 OA 
HETATM   16  C   UNL     1     -12.556  14.008  65.445  1.00  0.00    -0.529 A  
HETATM   17  H   UNL     1     -12.960  14.409  62.970  1.00  0.00     0.000 HD 
HETATM   18  C   UNL     1     -12.221  13.652  66.753  1.00  0.00    -0.416 A  
ENDBRANCH  10  11
ENDBRANCH   9  10
ENDBRANCH   8   9
ENDBRANCH   7   8
ENDBRANCH   5   7
ENDBRANCH   4   5
ENDBRANCH   3   4
BRANCH   3  19
HETATM   19  C   UNL     1     -11.149   7.193  70.766  1.00  0.00    -0.296 A  
HETATM   20  C   UNL     1     -11.282   6.211  69.770  1.00  0.00    -0.494 A  
HETATM   21  H   UNL     1      -7.929   7.846  67.393  1.00  0.00     0.000 HD 
HETATM   22  C   UNL     1     -10.143   8.169  70.628  1.00  0.00    -0.209 A  
HETATM   23  H   UNL     1      -9.940   5.282  66.931  1.00  0.00     0.000 HD 
HETATM   24  C   UNL     1     -10.430   6.216  68.672  1.00  0.00    -0.236 A  
HETATM   25  C   UNL     1      -9.290   8.169  69.522  1.00  0.00    -0.155 A  
HETATM   26  O   UNL     1     -10.522   5.278  67.681  1.00  0.00    -0.176 OA 
HETATM   27  C   UNL     1      -9.440   7.189  68.554  1.00  0.00    -0.139 A  
HETATM   28  O   UNL     1      -8.604   7.182  67.474  1.00  0.00    -0.121 OA 
ENDBRANCH   3  19
TORSDOF 8
ENDMDL
MODEL       82
REMARK 921   NORMALIZED FREE ENERGY PREDICTED BY IDOCK:   -5.51 KCAL/MOL
REMARK 922        TOTAL FREE ENERGY PREDICTED BY IDOCK:   -9.29 KCAL/MOL
REMARK 923 INTER-LIGAND FREE ENERGY PREDICTED BY IDOCK:   -8.33 KCAL/MOL
REMARK 924 INTRA-LIGAND FREE ENERGY PREDICTED BY IDOCK:   -0.96 KCAL/MOL
REMARK 927      BINDING AFFINITY PREDICTED BY RF-SCORE:    0.00 PKD
ROOT
HETATM    1  O   UNL     1      -8.414  15.271  68.841  1.00  0.00    -0.173 OA 
HETATM    2  H   UNL     1      -8.957  16.038  68.699  1.00  0.00     0.000 HD 
HETATM    3  C   UNL     1      -8.143  14.638  67.584  1.00  0.00    -0.173 C  
ENDROOT
BRANCH   3   4
HETATM    4  C   UNL     1      -7.259  13.389  67.815  1.00  0.00    -0.154 C  
BRANCH   4   5
HETATM    5  N   UNL     1      -7.244  12.981  69.238  1.00  0.00    -0.314 NA 
HETATM    6  H   UNL     1      -8.098  13.258  69.723  1.00  0.00     0.000 HD 
BRANCH   5   7
HETATM    7  C   UNL     1      -6.993  11.540  69.347  1.00  0.00    -0.071 C  
BRANCH   7   8
HETATM    8  C   UNL     1      -8.113  10.757  68.657  1.00  0.00    -0.136 C  
BRANCH   8   9
HETATM    9  C   UNL     1      -8.855   9.875  69.663  1.00  0.00    -0.224 C  
BRANCH   9  10
HETATM   10  C   UNL     1     -10.258   9.510  69.173  1.00  0.00    -0.209 C  
BRANCH  10  11
HETATM   11  C   UNL     1     -11.214   9.363  70.333  1.00  0.00    -0.309 A  
HETATM   12  C   UNL     1     -11.394   8.119  70.953  1.00  0.00    -0.286 A  
HETATM   13  C   UNL     1     -12.317   7.970  71.991  1.00  0.00    -0.366 A  
HETATM   14  C   UNL     1     -13.063   9.069  72.406  1.00  0.00    -0.423 A  
HETATM   15  O   UNL     1     -13.989   8.964  73.402  1.00  0.00    -1.236 OA 
HETATM   16  C   UNL     1     -12.893  10.310  71.809  1.00  0.00    -0.565 A  
HETATM   17  H   UNL     1     -14.498   9.714  73.684  1.00  0.00     0.000 HD 
HETATM   18  C   UNL     1     -11.970  10.458  70.771  1.00  0.00    -0.462 A  
ENDBRANCH  10  11
ENDBRANCH   9  10
ENDBRANCH   8   9
ENDBRANCH   7   8
ENDBRANCH   5   7
ENDBRANCH   4   5
ENDBRANCH   3   4
BRANCH   3  19
HETATM   19  C   UNL     1      -9.443  14.273  66.897  1.00  0.00    -0.272 A  
HETATM   20  C   UNL     1     -10.260  13.236  67.379  1.00  0.00    -0.229 A  
HETATM   21  H   UNL     1     -13.201  13.729  64.111  1.00  0.00     0.000 HD 
HETATM   22  C   UNL     1      -9.834  14.959  65.730  1.00  0.00    -0.380 A  
HETATM   23  H   UNL     1     -13.054  11.677  66.679  1.00  0.00     0.000 HD 
HETATM   24  C   UNL     1     -11.431  12.906  66.706  1.00  0.00    -0.340 A  
HETATM   25  C   UNL     1     -11.012  14.623  65.060  1.00  0.00    -0.415 A  
HETATM   26  O   UNL     1     -12.254  11.902  67.138  1.00  0.00    -0.501 OA 
HETATM   27  C   UNL     1     -11.800  13.595  65.553  1.00  0.00    -0.362 A  
HETATM   28  O   UNL     1     -12.949  13.259  64.897  1.00  0.00    -0.727 OA 
ENDBRANCH   3  19
TORSDOF 8
ENDMDL
MODEL       83
REMARK 921   NORMALIZED FREE ENERGY PREDICTED BY IDOCK:   -5.50 KCAL/MOL
REMARK 922        TOTAL FREE ENERGY PREDICTED BY IDOCK:   -9.28 KCAL/MOL
REMARK 923 INTER-LIGAND FREE ENERGY PREDICTED BY IDOCK:   -8.97 KCAL/MOL
REMARK 924 INTRA-LIGAND FREE ENERGY PREDICTED BY IDOCK:   -0.31 KCAL/MOL
REMARK 927      BINDING AFFINITY PREDICTED BY RF-SCORE:    0.00 PKD
ROOT
HETATM    1  O   UNL     1     -11.797  10.538  67.830  1.00  0.00    -0.731 OA 
HETATM    2  H   UNL     1     -12.729  10.351  67.852  1.00  0.00     0.000 HD 
HETATM    3  C   UNL     1     -11.259  10.441  69.155  1.00  0.00    -0.246 C  
ENDROOT
BRANCH   3   4
HETATM    4  C   UNL     1      -9.742  10.746  69.121  1.00  0.00    -0.163 C  
BRANCH   4   5
HETATM    5  N   UNL     1      -9.464  12.096  68.583  1.00  0.00    -0.389 NA 
HETATM    6  H   UNL     1      -8.686  12.546  69.064  1.00  0.00     0.000 HD 
BRANCH   5   7
HETATM    7  C   UNL     1      -9.248  12.026  67.133  1.00  0.00    -0.190 C  
BRANCH   7   8
HETATM    8  C   UNL     1      -9.734  13.316  66.467  1.00  0.00    -0.273 C  
BRANCH   8   9
HETATM    9  C   UNL     1      -9.650  14.493  67.441  1.00  0.00    -0.212 C  
BRANCH   9  10
HETATM   10  C   UNL     1     -10.913  15.357  67.398  1.00  0.00    -0.312 C  
BRANCH  10  11
HETATM   11  C   UNL     1     -10.560  16.824  67.333  1.00  0.00    -0.291 A  
HETATM   12  C   UNL     1     -10.305  17.547  68.508  1.00  0.00    -0.380 A  
HETATM   13  C   UNL     1     -10.031  18.915  68.454  1.00  0.00    -0.447 A  
HETATM   14  C   UNL     1     -10.017  19.562  67.222  1.00  0.00    -0.379 A  
HETATM   15  O   UNL     1      -9.773  20.900  67.125  1.00  0.00    -0.654 OA 
HETATM   16  C   UNL     1     -10.259  18.862  66.048  1.00  0.00    -0.437 A  
HETATM   17  H   UNL     1      -9.764  21.342  66.284  1.00  0.00     0.000 HD 
HETATM   18  C   UNL     1     -10.533  17.494  66.103  1.00  0.00    -0.288 A  
ENDBRANCH  10  11
ENDBRANCH   9  10
ENDBRANCH   8   9
ENDBRANCH   7   8
ENDBRANCH   5   7
ENDBRANCH   4   5
ENDBRANCH   3   4
BRANCH   3  19
HETATM   19  C   UNL     1     -11.991  11.392  70.081  1.00  0.00    -0.460 A  
HETATM   20  C   UNL     1     -11.957  12.783  69.879  1.00  0.00    -0.368 A  
HETATM   21  H   UNL     1     -14.408  13.594  73.470  1.00  0.00     0.000 HD 
HETATM   22  C   UNL     1     -12.694  10.885  71.191  1.00  0.00    -0.530 A  
HETATM   23  H   UNL     1     -13.051  15.566  71.213  1.00  0.00     0.000 HD 
HETATM   24  C   UNL     1     -12.612  13.629  70.765  1.00  0.00    -0.325 A  
HETATM   25  C   UNL     1     -13.351  11.741  72.077  1.00  0.00    -0.417 A  
HETATM   26  O   UNL     1     -12.603  14.988  70.607  1.00  0.00    -0.329 OA 
HETATM   27  C   UNL     1     -13.302  13.108  71.857  1.00  0.00    -0.455 A  
HETATM   28  O   UNL     1     -13.938  13.949  72.726  1.00  0.00    -0.697 OA 
ENDBRANCH   3  19
TORSDOF 8
ENDMDL
MODEL       84
REMARK 921   NORMALIZED FREE ENERGY PREDICTED BY IDOCK:   -5.50 KCAL/MOL
REMARK 922        TOTAL FREE ENERGY PREDICTED BY IDOCK:   -9.28 KCAL/MOL
REMARK 923 INTER-LIGAND FREE ENERGY PREDICTED BY IDOCK:   -7.59 KCAL/MOL
REMARK 924 INTRA-LIGAND FREE ENERGY PREDICTED BY IDOCK:   -1.69 KCAL/MOL
REMARK 927      BINDING AFFINITY PREDICTED BY RF-SCORE:    0.00 PKD
ROOT
HETATM    1  O   UNL     1     -10.226   7.199  66.259  1.00  0.00    -0.460 OA 
HETATM    2  H   UNL     1     -10.349   7.819  65.550  1.00  0.00     0.000 HD 
HETATM    3  C   UNL     1     -10.732   7.760  67.478  1.00  0.00    -0.195 C  
ENDROOT
BRANCH   3   4
HETATM    4  C   UNL     1     -10.532   6.750  68.633  1.00  0.00    -0.206 C  
BRANCH   4   5
HETATM    5  N   UNL     1     -11.662   6.775  69.588  1.00  0.00    -0.642 NA 
HETATM    6  H   UNL     1     -12.198   5.907  69.569  1.00  0.00     0.000 HD 
BRANCH   5   7
HETATM    7  C   UNL     1     -11.176   7.092  70.935  1.00  0.00    -0.276 C  
BRANCH   7   8
HETATM    8  C   UNL     1     -12.059   8.169  71.572  1.00  0.00    -0.332 C  
BRANCH   8   9
HETATM    9  C   UNL     1     -11.422   9.551  71.419  1.00  0.00    -0.462 C  
BRANCH   9  10
HETATM   10  C   UNL     1     -12.061  10.349  70.280  1.00  0.00    -0.370 C  
BRANCH  10  11
HETATM   11  C   UNL     1     -12.441  11.736  70.739  1.00  0.00    -0.405 A  
HETATM   12  C   UNL     1     -11.931  12.867  70.084  1.00  0.00    -0.373 A  
HETATM   13  C   UNL     1     -12.238  14.151  70.541  1.00  0.00    -0.431 A  
HETATM   14  C   UNL     1     -13.053  14.302  71.658  1.00  0.00    -0.346 A  
HETATM   15  O   UNL     1     -13.363  15.536  72.149  1.00  0.00    -0.402 OA 
HETATM   16  C   UNL     1     -13.574  13.195  72.314  1.00  0.00    -0.677 A  
HETATM   17  H   UNL     1     -13.920  15.640  72.911  1.00  0.00     0.000 HD 
HETATM   18  C   UNL     1     -13.267  11.912  71.857  1.00  0.00    -0.467 A  
ENDBRANCH  10  11
ENDBRANCH   9  10
ENDBRANCH   8   9
ENDBRANCH   7   8
ENDBRANCH   5   7
ENDBRANCH   4   5
ENDBRANCH   3   4
BRANCH   3  19
HETATM   19  C   UNL     1     -10.037   9.075  67.769  1.00  0.00    -0.260 A  
HETATM   20  C   UNL     1     -10.397  10.257  67.100  1.00  0.00    -0.292 A  
HETATM   21  H   UNL     1      -7.304  12.642  69.178  1.00  0.00     0.000 HD 
HETATM   22  C   UNL     1      -8.983   9.116  68.703  1.00  0.00    -0.136 A  
HETATM   23  H   UNL     1      -9.570  13.421  66.922  1.00  0.00     0.000 HD 
HETATM   24  C   UNL     1      -9.718  11.440  67.368  1.00  0.00    -0.181 A  
HETATM   25  C   UNL     1      -8.306  10.308  68.968  1.00  0.00    -0.148 A  
HETATM   26  O   UNL     1     -10.033  12.613  66.739  1.00  0.00    -0.225 OA 
HETATM   27  C   UNL     1      -8.678  11.461  68.295  1.00  0.00    -0.160 A  
HETATM   28  O   UNL     1      -8.013  12.627  68.546  1.00  0.00    -0.141 OA 
ENDBRANCH   3  19
TORSDOF 8
ENDMDL
MODEL       85
REMARK 921   NORMALIZED FREE ENERGY PREDICTED BY IDOCK:   -5.50 KCAL/MOL
REMARK 922        TOTAL FREE ENERGY PREDICTED BY IDOCK:   -9.28 KCAL/MOL
REMARK 923 INTER-LIGAND FREE ENERGY PREDICTED BY IDOCK:   -8.06 KCAL/MOL
REMARK 924 INTRA-LIGAND FREE ENERGY PREDICTED BY IDOCK:   -1.22 KCAL/MOL
REMARK 927      BINDING AFFINITY PREDICTED BY RF-SCORE:    0.00 PKD
ROOT
HETATM    1  O   UNL     1      -7.348   8.721  68.639  1.00  0.00    -0.078 OA 
HETATM    2  H   UNL     1      -7.140   7.885  69.040  1.00  0.00     0.000 HD 
HETATM    3  C   UNL     1      -8.046   9.544  69.582  1.00  0.00    -0.128 C  
ENDROOT
BRANCH   3   4
HETATM    4  C   UNL     1      -8.384  10.905  68.929  1.00  0.00    -0.139 C  
BRANCH   4   5
HETATM    5  N   UNL     1      -9.207  10.741  67.710  1.00  0.00    -0.150 NA 
HETATM    6  H   UNL     1      -9.581   9.795  67.627  1.00  0.00     0.000 HD 
BRANCH   5   7
HETATM    7  C   UNL     1     -10.266  11.756  67.676  1.00  0.00    -0.199 C  
BRANCH   7   8
HETATM    8  C   UNL     1     -11.535  11.214  68.340  1.00  0.00    -0.377 C  
BRANCH   8   9
HETATM    9  C   UNL     1     -11.854  11.998  69.615  1.00  0.00    -0.401 C  
BRANCH   9  10
HETATM   10  C   UNL     1     -11.651  13.503  69.424  1.00  0.00    -0.369 C  
BRANCH  10  11
HETATM   11  C   UNL     1     -12.102  14.268  70.644  1.00  0.00    -0.417 A  
HETATM   12  C   UNL     1     -11.440  15.441  71.034  1.00  0.00    -0.407 A  
HETATM   13  C   UNL     1     -11.822  16.121  72.193  1.00  0.00    -0.626 A  
HETATM   14  C   UNL     1     -12.866  15.623  72.965  1.00  0.00    -0.490 A  
HETATM   15  O   UNL     1     -13.260  16.244  74.113  1.00  0.00    -0.954 OA 
HETATM   16  C   UNL     1     -13.539  14.467  72.591  1.00  0.00    -0.577 A  
HETATM   17  H   UNL     1     -13.972  15.903  74.641  1.00  0.00     0.000 HD 
HETATM   18  C   UNL     1     -13.157  13.788  71.433  1.00  0.00    -0.413 A  
ENDBRANCH  10  11
ENDBRANCH   9  10
ENDBRANCH   8   9
ENDBRANCH   7   8
ENDBRANCH   5   7
ENDBRANCH   4   5
ENDBRANCH   3   4
BRANCH   3  19
HETATM   19  C   UNL     1      -9.298   8.836  70.060  1.00  0.00    -0.175 A  
HETATM   20  C   UNL     1      -9.803   7.709  69.388  1.00  0.00    -0.171 A  
HETATM   21  H   UNL     1     -13.261   7.349  72.123  1.00  0.00     0.000 HD 
HETATM   22  C   UNL     1      -9.997   9.330  71.178  1.00  0.00    -0.356 A  
HETATM   23  H   UNL     1     -12.297   5.591  69.513  1.00  0.00     0.000 HD 
HETATM   24  C   UNL     1     -10.971   7.102  69.834  1.00  0.00    -0.253 A  
HETATM   25  C   UNL     1     -11.170   8.714  71.621  1.00  0.00    -0.379 A  
HETATM   26  O   UNL     1     -11.499   6.006  69.209  1.00  0.00    -0.345 OA 
HETATM   27  C   UNL     1     -11.649   7.606  70.941  1.00  0.00    -0.280 A  
HETATM   28  O   UNL     1     -12.800   7.006  71.367  1.00  0.00    -0.377 OA 
ENDBRANCH   3  19
TORSDOF 8
ENDMDL
MODEL       86
REMARK 921   NORMALIZED FREE ENERGY PREDICTED BY IDOCK:   -5.49 KCAL/MOL
REMARK 922        TOTAL FREE ENERGY PREDICTED BY IDOCK:   -9.27 KCAL/MOL
REMARK 923 INTER-LIGAND FREE ENERGY PREDICTED BY IDOCK:   -7.42 KCAL/MOL
REMARK 924 INTRA-LIGAND FREE ENERGY PREDICTED BY IDOCK:   -1.85 KCAL/MOL
REMARK 927      BINDING AFFINITY PREDICTED BY RF-SCORE:    0.00 PKD
ROOT
HETATM    1  O   UNL     1      -6.951  18.835  64.860  1.00  0.00    -0.387 OA 
HETATM    2  H   UNL     1      -6.449  18.084  64.563  1.00  0.00     0.000 HD 
HETATM    3  C   UNL     1      -6.488  19.239  66.154  1.00  0.00    -0.197 C  
ENDROOT
BRANCH   3   4
HETATM    4  C   UNL     1      -7.306  20.461  66.637  1.00  0.00    -0.262 C  
BRANCH   4   5
HETATM    5  N   UNL     1      -8.701  20.417  66.147  1.00  0.00    -0.573 NA 
HETATM    6  H   UNL     1      -8.892  19.568  65.614  1.00  0.00     0.000 HD 
BRANCH   5   7
HETATM    7  C   UNL     1      -9.634  20.584  67.267  1.00  0.00    -0.440 C  
BRANCH   7   8
HETATM    8  C   UNL     1     -10.778  19.573  67.152  1.00  0.00    -0.599 C  
BRANCH   8   9
HETATM    9  C   UNL     1     -10.240  18.184  66.801  1.00  0.00    -0.379 C  
BRANCH   9  10
HETATM   10  C   UNL     1     -10.341  17.219  67.986  1.00  0.00    -0.353 C  
BRANCH  10  11
HETATM   11  C   UNL     1     -10.810  15.858  67.533  1.00  0.00    -0.305 A  
HETATM   12  C   UNL     1     -10.663  15.462  66.195  1.00  0.00    -0.316 A  
HETATM   13  C   UNL     1     -11.144  14.224  65.764  1.00  0.00    -0.310 A  
HETATM   14  C   UNL     1     -11.777  13.382  66.672  1.00  0.00    -0.385 A  
HETATM   15  O   UNL     1     -12.279  12.173  66.290  1.00  0.00    -0.604 OA 
HETATM   16  C   UNL     1     -11.925  13.752  68.002  1.00  0.00    -0.390 A  
HETATM   17  H   UNL     1     -12.711  11.598  66.910  1.00  0.00     0.000 HD 
HETATM   18  C   UNL     1     -11.444  14.990  68.433  1.00  0.00    -0.340 A  
ENDBRANCH  10  11
ENDBRANCH   9  10
ENDBRANCH   8   9
ENDBRANCH   7   8
ENDBRANCH   5   7
ENDBRANCH   4   5
ENDBRANCH   3   4
BRANCH   3  19
HETATM   19  C   UNL     1      -6.598  18.083  67.128  1.00  0.00    -0.201 A  
HETATM   20  C   UNL     1      -6.820  16.769  66.682  1.00  0.00    -0.255 A  
HETATM   21  H   UNL     1      -6.935  15.151  70.797  1.00  0.00     0.000 HD 
HETATM   22  C   UNL     1      -6.512  18.325  68.513  1.00  0.00    -0.222 A  
HETATM   23  H   UNL     1      -7.255  13.737  67.843  1.00  0.00     0.000 HD 
HETATM   24  C   UNL     1      -6.948  15.736  67.603  1.00  0.00    -0.169 A  
HETATM   25  C   UNL     1      -6.641  17.282  69.433  1.00  0.00    -0.218 A  
HETATM   26  O   UNL     1      -7.168  14.443  67.213  1.00  0.00    -0.170 OA 
HETATM   27  C   UNL     1      -6.861  15.995  68.969  1.00  0.00    -0.159 A  
HETATM   28  O   UNL     1      -6.995  14.974  69.866  1.00  0.00    -0.183 OA 
ENDBRANCH   3  19
TORSDOF 8
ENDMDL
MODEL       87
REMARK 921   NORMALIZED FREE ENERGY PREDICTED BY IDOCK:   -5.48 KCAL/MOL
REMARK 922        TOTAL FREE ENERGY PREDICTED BY IDOCK:   -9.25 KCAL/MOL
REMARK 923 INTER-LIGAND FREE ENERGY PREDICTED BY IDOCK:   -8.40 KCAL/MOL
REMARK 924 INTRA-LIGAND FREE ENERGY PREDICTED BY IDOCK:   -0.85 KCAL/MOL
REMARK 927      BINDING AFFINITY PREDICTED BY RF-SCORE:    0.00 PKD
ROOT
HETATM    1  O   UNL     1     -12.113  12.610  71.329  1.00  0.00    -0.266 OA 
HETATM    2  H   UNL     1     -12.648  12.494  72.107  1.00  0.00     0.000 HD 
HETATM    3  C   UNL     1     -12.490  11.644  70.340  1.00  0.00    -0.221 C  
ENDROOT
BRANCH   3   4
HETATM    4  C   UNL     1     -11.621  11.835  69.074  1.00  0.00    -0.311 C  
BRANCH   4   5
HETATM    5  N   UNL     1     -11.902  10.801  68.053  1.00  0.00    -0.773 NA 
HETATM    6  H   UNL     1     -12.652  11.082  67.422  1.00  0.00     0.000 HD 
BRANCH   5   7
HETATM    7  C   UNL     1     -10.672  10.461  67.329  1.00  0.00    -0.273 C  
BRANCH   7   8
HETATM    8  C   UNL     1      -9.465  11.113  68.008  1.00  0.00    -0.174 C  
BRANCH   8   9
HETATM    9  C   UNL     1      -8.659  11.937  67.002  1.00  0.00    -0.176 C  
BRANCH   9  10
HETATM   10  C   UNL     1      -8.657  13.426  67.359  1.00  0.00    -0.204 C  
BRANCH  10  11
HETATM   11  C   UNL     1      -9.544  14.207  66.421  1.00  0.00    -0.310 A  
HETATM   12  C   UNL     1     -10.347  13.542  65.481  1.00  0.00    -0.309 A  
HETATM   13  C   UNL     1     -11.128  14.265  64.577  1.00  0.00    -0.321 A  
HETATM   14  C   UNL     1     -11.103  15.656  64.611  1.00  0.00    -0.373 A  
HETATM   15  O   UNL     1     -11.836  16.400  63.734  1.00  0.00    -1.455 OA 
HETATM   16  C   UNL     1     -10.322  16.331  65.538  1.00  0.00    -0.363 A  
HETATM   17  H   UNL     1     -11.819  17.350  63.757  1.00  0.00     0.000 HD 
HETATM   18  C   UNL     1      -9.541  15.608  66.442  1.00  0.00    -0.316 A  
ENDBRANCH  10  11
ENDBRANCH   9  10
ENDBRANCH   8   9
ENDBRANCH   7   8
ENDBRANCH   5   7
ENDBRANCH   4   5
ENDBRANCH   3   4
BRANCH   3  19
HETATM   19  C   UNL     1     -12.346  10.245  70.902  1.00  0.00    -0.471 A  
HETATM   20  C   UNL     1     -11.082   9.662  71.102  1.00  0.00    -0.444 A  
HETATM   21  H   UNL     1     -12.813   5.858  72.552  1.00  0.00     0.000 HD 
HETATM   22  C   UNL     1     -13.496   9.490  71.203  1.00  0.00    -0.280 A  
HETATM   23  H   UNL     1      -9.711   6.871  72.130  1.00  0.00     0.000 HD 
HETATM   24  C   UNL     1     -10.985   8.364  71.590  1.00  0.00    -0.278 A  
HETATM   25  C   UNL     1     -13.392   8.186  71.694  1.00  0.00    -0.358 A  
HETATM   26  O   UNL     1      -9.777   7.758  71.796  1.00  0.00    -0.158 OA 
HETATM   27  C   UNL     1     -12.135   7.633  71.880  1.00  0.00    -0.298 A  
HETATM   28  O   UNL     1     -12.029   6.357  72.353  1.00  0.00    -0.263 OA 
ENDBRANCH   3  19
TORSDOF 8
ENDMDL
MODEL       88
REMARK 921   NORMALIZED FREE ENERGY PREDICTED BY IDOCK:   -5.47 KCAL/MOL
REMARK 922        TOTAL FREE ENERGY PREDICTED BY IDOCK:   -9.23 KCAL/MOL
REMARK 923 INTER-LIGAND FREE ENERGY PREDICTED BY IDOCK:   -8.21 KCAL/MOL
REMARK 924 INTRA-LIGAND FREE ENERGY PREDICTED BY IDOCK:   -1.03 KCAL/MOL
REMARK 927      BINDING AFFINITY PREDICTED BY RF-SCORE:    0.00 PKD
ROOT
HETATM    1  O   UNL     1     -10.747   6.408  72.657  1.00  0.00    -0.215 OA 
HETATM    2  H   UNL     1      -9.945   5.916  72.518  1.00  0.00     0.000 HD 
HETATM    3  C   UNL     1     -11.585   6.294  71.500  1.00  0.00    -0.287 C  
ENDROOT
BRANCH   3   4
HETATM    4  C   UNL     1     -12.889   7.095  71.726  1.00  0.00    -0.330 C  
BRANCH   4   5
HETATM    5  N   UNL     1     -12.686   8.222  72.664  1.00  0.00    -0.607 NA 
HETATM    6  H   UNL     1     -11.697   8.390  72.850  1.00  0.00     0.000 HD 
BRANCH   5   7
HETATM    7  C   UNL     1     -13.362   9.424  72.162  1.00  0.00    -0.468 C  
BRANCH   7   8
HETATM    8  C   UNL     1     -12.845   9.772  70.764  1.00  0.00    -0.230 C  
BRANCH   8   9
HETATM    9  C   UNL     1     -11.725  10.812  70.846  1.00  0.00    -0.334 C  
BRANCH   9  10
HETATM   10  C   UNL     1     -12.035  12.050  70.000  1.00  0.00    -0.400 C  
BRANCH  10  11
HETATM   11  C   UNL     1     -12.512  13.190  70.867  1.00  0.00    -0.407 A  
HETATM   12  C   UNL     1     -11.937  14.463  70.748  1.00  0.00    -0.391 A  
HETATM   13  C   UNL     1     -12.340  15.505  71.586  1.00  0.00    -0.471 A  
HETATM   14  C   UNL     1     -13.318  15.271  72.547  1.00  0.00    -0.453 A  
HETATM   15  O   UNL     1     -13.728  16.254  73.399  1.00  0.00    -0.792 OA 
HETATM   16  C   UNL     1     -13.905  14.019  72.675  1.00  0.00    -0.516 A  
HETATM   17  H   UNL     1     -14.395  16.094  74.055  1.00  0.00     0.000 HD 
HETATM   18  C   UNL     1     -13.502  12.978  71.837  1.00  0.00    -0.498 A  
ENDBRANCH  10  11
ENDBRANCH   9  10
ENDBRANCH   8   9
ENDBRANCH   7   8
ENDBRANCH   5   7
ENDBRANCH   4   5
ENDBRANCH   3   4
BRANCH   3  19
HETATM   19  C   UNL     1     -10.843   6.784  70.273  1.00  0.00    -0.314 A  
HETATM   20  C   UNL     1     -11.166   6.317  68.987  1.00  0.00    -0.415 A  
HETATM   21  H   UNL     1      -7.979   8.713  67.071  1.00  0.00     0.000 HD 
HETATM   22  C   UNL     1      -9.783   7.700  70.417  1.00  0.00    -0.179 A  
HETATM   23  H   UNL     1     -10.230   6.638  65.865  1.00  0.00     0.000 HD 
HETATM   24  C   UNL     1     -10.445   6.763  67.886  1.00  0.00    -0.218 A  
HETATM   25  C   UNL     1      -9.063   8.144  69.305  1.00  0.00    -0.151 A  
HETATM   26  O   UNL     1     -10.723   6.333  66.617  1.00  0.00    -0.264 OA 
HETATM   27  C   UNL     1      -9.399   7.668  68.048  1.00  0.00    -0.140 A  
HETATM   28  O   UNL     1      -8.692   8.095  66.960  1.00  0.00    -0.127 OA 
ENDBRANCH   3  19
TORSDOF 8
ENDMDL
MODEL       89
REMARK 921   NORMALIZED FREE ENERGY PREDICTED BY IDOCK:   -5.47 KCAL/MOL
REMARK 922        TOTAL FREE ENERGY PREDICTED BY IDOCK:   -9.23 KCAL/MOL
REMARK 923 INTER-LIGAND FREE ENERGY PREDICTED BY IDOCK:   -7.64 KCAL/MOL
REMARK 924 INTRA-LIGAND FREE ENERGY PREDICTED BY IDOCK:   -1.58 KCAL/MOL
REMARK 927      BINDING AFFINITY PREDICTED BY RF-SCORE:    0.00 PKD
ROOT
HETATM    1  O   UNL     1     -10.048   9.109  66.480  1.00  0.00    -0.273 OA 
HETATM    2  H   UNL     1     -10.586   9.282  65.715  1.00  0.00     0.000 HD 
HETATM    3  C   UNL     1     -10.557   9.847  67.599  1.00  0.00    -0.270 C  
ENDROOT
BRANCH   3   4
HETATM    4  C   UNL     1      -9.682   9.565  68.844  1.00  0.00    -0.164 C  
BRANCH   4   5
HETATM    5  N   UNL     1     -10.297   8.551  69.729  1.00  0.00    -0.208 NA 
HETATM    6  H   UNL     1      -9.714   7.718  69.819  1.00  0.00     0.000 HD 
BRANCH   5   7
HETATM    7  C   UNL     1     -10.610   9.145  71.034  1.00  0.00    -0.292 C  
BRANCH   7   8
HETATM    8  C   UNL     1     -12.109   9.026  71.319  1.00  0.00    -0.375 C  
BRANCH   8   9
HETATM    9  C   UNL     1     -12.867  10.221  70.736  1.00  0.00    -0.427 C  
BRANCH   9  10
HETATM   10  C   UNL     1     -13.390  11.153  71.833  1.00  0.00    -0.409 C  
BRANCH  10  11
HETATM   11  C   UNL     1     -12.955  12.577  71.584  1.00  0.00    -0.405 A  
HETATM   12  C   UNL     1     -13.328  13.600  72.468  1.00  0.00    -0.638 A  
HETATM   13  C   UNL     1     -12.973  14.926  72.211  1.00  0.00    -0.423 A  
HETATM   14  C   UNL     1     -12.245  15.228  71.064  1.00  0.00    -0.350 A  
HETATM   15  O   UNL     1     -11.893  16.511  70.764  1.00  0.00    -0.488 OA 
HETATM   16  C   UNL     1     -11.859  14.228  70.181  1.00  0.00    -0.379 A  
HETATM   17  H   UNL     1     -11.396  16.718  69.982  1.00  0.00     0.000 HD 
HETATM   18  C   UNL     1     -12.216  12.903  70.439  1.00  0.00    -0.381 A  
ENDBRANCH  10  11
ENDBRANCH   9  10
ENDBRANCH   8   9
ENDBRANCH   7   8
ENDBRANCH   5   7
ENDBRANCH   4   5
ENDBRANCH   3   4
BRANCH   3  19
HETATM   19  C   UNL     1     -10.588  11.326  67.271  1.00  0.00    -0.271 A  
HETATM   20  C   UNL     1      -9.516  12.173  67.601  1.00  0.00    -0.187 A  
HETATM   21  H   UNL     1     -11.563  15.759  66.016  1.00  0.00     0.000 HD 
HETATM   22  C   UNL     1     -11.726  11.881  66.653  1.00  0.00    -0.264 A  
HETATM   23  H   UNL     1      -8.622  15.318  67.426  1.00  0.00     0.000 HD 
HETATM   24  C   UNL     1      -9.590  13.531  67.315  1.00  0.00    -0.235 A  
HETATM   25  C   UNL     1     -11.793  13.246  66.367  1.00  0.00    -0.446 A  
HETATM   26  O   UNL     1      -8.572  14.390  67.622  1.00  0.00    -0.164 OA 
HETATM   27  C   UNL     1     -10.724  14.061  66.704  1.00  0.00    -0.281 A  
HETATM   28  O   UNL     1     -10.790  15.398  66.433  1.00  0.00    -0.314 OA 
ENDBRANCH   3  19
TORSDOF 8
ENDMDL
MODEL       90
REMARK 921   NORMALIZED FREE ENERGY PREDICTED BY IDOCK:   -5.47 KCAL/MOL
REMARK 922        TOTAL FREE ENERGY PREDICTED BY IDOCK:   -9.22 KCAL/MOL
REMARK 923 INTER-LIGAND FREE ENERGY PREDICTED BY IDOCK:   -8.68 KCAL/MOL
REMARK 924 INTRA-LIGAND FREE ENERGY PREDICTED BY IDOCK:   -0.54 KCAL/MOL
REMARK 927      BINDING AFFINITY PREDICTED BY RF-SCORE:    0.00 PKD
ROOT
HETATM    1  O   UNL     1     -10.852  14.066  69.229  1.00  0.00    -0.323 OA 
HETATM    2  H   UNL     1     -10.639  14.919  68.868  1.00  0.00     0.000 HD 
HETATM    3  C   UNL     1     -10.346  13.040  68.365  1.00  0.00    -0.252 C  
ENDROOT
BRANCH   3   4
HETATM    4  C   UNL     1     -10.693  11.652  68.954  1.00  0.00    -0.207 C  
BRANCH   4   5
HETATM    5  N   UNL     1     -11.589  11.760  70.127  1.00  0.00    -0.508 NA 
HETATM    6  H   UNL     1     -12.134  12.622  70.113  1.00  0.00     0.000 HD 
BRANCH   5   7
HETATM    7  C   UNL     1     -12.444  10.571  70.219  1.00  0.00    -0.271 C  
BRANCH   7   8
HETATM    8  C   UNL     1     -12.838  10.320  71.677  1.00  0.00    -0.568 C  
BRANCH   8   9
HETATM    9  C   UNL     1     -12.199   9.031  72.196  1.00  0.00    -0.427 C  
BRANCH   9  10
HETATM   10  C   UNL     1     -12.868   7.787  71.606  1.00  0.00    -0.365 C  
BRANCH  10  11
HETATM   11  C   UNL     1     -11.850   6.708  71.328  1.00  0.00    -0.403 A  
HETATM   12  C   UNL     1     -11.421   6.455  70.016  1.00  0.00    -0.496 A  
HETATM   13  C   UNL     1     -10.520   5.421  69.751  1.00  0.00    -0.378 A  
HETATM   14  C   UNL     1     -10.050   4.637  70.799  1.00  0.00    -0.194 A  
HETATM   15  O   UNL     1      -9.185   3.606  70.583  1.00  0.00    -0.106 OA 
HETATM   16  C   UNL     1     -10.457   4.877  72.105  1.00  0.00    -0.257 A  
HETATM   17  H   UNL     1      -8.864   3.070  71.298  1.00  0.00     0.000 HD 
HETATM   18  C   UNL     1     -11.358   5.910  72.370  1.00  0.00    -0.358 A  
ENDBRANCH  10  11
ENDBRANCH   9  10
ENDBRANCH   8   9
ENDBRANCH   7   8
ENDBRANCH   5   7
ENDBRANCH   4   5
ENDBRANCH   3   4
BRANCH   3  19
HETATM   19  C   UNL     1     -10.922  13.207  66.973  1.00  0.00    -0.289 A  
HETATM   20  C   UNL     1     -10.238  12.740  65.837  1.00  0.00    -0.300 A  
HETATM   21  H   UNL     1     -13.344  14.248  63.070  1.00  0.00     0.000 HD 
HETATM   22  C   UNL     1     -12.150  13.874  66.800  1.00  0.00    -0.476 A  
HETATM   23  H   UNL     1     -10.517  12.638  62.575  1.00  0.00     0.000 HD 
HETATM   24  C   UNL     1     -10.779  12.939  64.572  1.00  0.00    -0.371 A  
HETATM   25  C   UNL     1     -12.688  14.069  65.526  1.00  0.00    -0.517 A  
HETATM   26  O   UNL     1     -10.147  12.503  63.440  1.00  0.00    -0.396 OA 
HETATM   27  C   UNL     1     -11.995  13.601  64.421  1.00  0.00    -0.437 A  
HETATM   28  O   UNL     1     -12.515  13.796  63.173  1.00  0.00    -0.786 OA 
ENDBRANCH   3  19
TORSDOF 8
ENDMDL
MODEL       91
REMARK 921   NORMALIZED FREE ENERGY PREDICTED BY IDOCK:   -5.46 KCAL/MOL
REMARK 922        TOTAL FREE ENERGY PREDICTED BY IDOCK:   -9.21 KCAL/MOL
REMARK 923 INTER-LIGAND FREE ENERGY PREDICTED BY IDOCK:   -8.58 KCAL/MOL
REMARK 924 INTRA-LIGAND FREE ENERGY PREDICTED BY IDOCK:   -0.63 KCAL/MOL
REMARK 927      BINDING AFFINITY PREDICTED BY RF-SCORE:    0.00 PKD
ROOT
HETATM    1  O   UNL     1     -10.055  13.568  64.266  1.00  0.00    -0.705 OA 
HETATM    2  H   UNL     1      -9.713  14.290  63.750  1.00  0.00     0.000 HD 
HETATM    3  C   UNL     1     -11.257  13.981  64.929  1.00  0.00    -0.362 C  
ENDROOT
BRANCH   3   4
HETATM    4  C   UNL     1     -11.813  12.805  65.767  1.00  0.00    -0.434 C  
BRANCH   4   5
HETATM    5  N   UNL     1     -10.754  11.837  66.128  1.00  0.00    -0.267 NA 
HETATM    6  H   UNL     1      -9.850  12.095  65.731  1.00  0.00     0.000 HD 
BRANCH   5   7
HETATM    7  C   UNL     1     -10.689  11.679  67.585  1.00  0.00    -0.207 C  
BRANCH   7   8
HETATM    8  C   UNL     1      -9.292  11.213  68.002  1.00  0.00    -0.166 C  
BRANCH   8   9
HETATM    9  C   UNL     1      -9.376  10.241  69.181  1.00  0.00    -0.214 C  
BRANCH   9  10
HETATM   10  C   UNL     1     -10.484   9.204  68.984  1.00  0.00    -0.238 C  
BRANCH  10  11
HETATM   11  C   UNL     1     -11.365   9.118  70.208  1.00  0.00    -0.217 A  
HETATM   12  C   UNL     1     -11.618   7.880  70.816  1.00  0.00    -0.258 A  
HETATM   13  C   UNL     1     -12.475   7.791  71.916  1.00  0.00    -0.343 A  
HETATM   14  C   UNL     1     -13.082   8.943  72.404  1.00  0.00    -0.418 A  
HETATM   15  O   UNL     1     -13.941   8.900  73.463  1.00  0.00    -1.160 OA 
HETATM   16  C   UNL     1     -12.838  10.179  71.820  1.00  0.00    -0.554 A  
HETATM   17  H   UNL     1     -14.355   9.686  73.796  1.00  0.00     0.000 HD 
HETATM   18  C   UNL     1     -11.981  10.267  70.721  1.00  0.00    -0.456 A  
ENDBRANCH  10  11
ENDBRANCH   9  10
ENDBRANCH   8   9
ENDBRANCH   7   8
ENDBRANCH   5   7
ENDBRANCH   4   5
ENDBRANCH   3   4
BRANCH   3  19
HETATM   19  C   UNL     1     -10.979  15.193  65.795  1.00  0.00    -0.350 A  
HETATM   20  C   UNL     1     -11.022  15.116  67.198  1.00  0.00    -0.326 A  
HETATM   21  H   UNL     1     -10.126  19.420  67.687  1.00  0.00     0.000 HD 
HETATM   22  C   UNL     1     -10.706  16.436  65.191  1.00  0.00    -0.309 A  
HETATM   23  H   UNL     1     -10.672  17.003  69.852  1.00  0.00     0.000 HD 
HETATM   24  C   UNL     1     -10.794  16.254  67.962  1.00  0.00    -0.339 A  
HETATM   25  C   UNL     1     -10.477  17.575  65.965  1.00  0.00    -0.274 A  
HETATM   26  O   UNL     1     -10.829  16.225  69.329  1.00  0.00    -0.275 OA 
HETATM   27  C   UNL     1     -10.526  17.475  67.346  1.00  0.00    -0.342 A  
HETATM   28  O   UNL     1     -10.309  18.588  68.107  1.00  0.00    -0.362 OA 
ENDBRANCH   3  19
TORSDOF 8
ENDMDL
MODEL       92
REMARK 921   NORMALIZED FREE ENERGY PREDICTED BY IDOCK:   -5.45 KCAL/MOL
REMARK 922        TOTAL FREE ENERGY PREDICTED BY IDOCK:   -9.20 KCAL/MOL
REMARK 923 INTER-LIGAND FREE ENERGY PREDICTED BY IDOCK:   -8.46 KCAL/MOL
REMARK 924 INTRA-LIGAND FREE ENERGY PREDICTED BY IDOCK:   -0.73 KCAL/MOL
REMARK 927      BINDING AFFINITY PREDICTED BY RF-SCORE:    0.00 PKD
ROOT
HETATM    1  O   UNL     1      -9.792  13.257  68.718  1.00  0.00    -0.398 OA 
HETATM    2  H   UNL     1      -9.515  12.349  68.672  1.00  0.00     0.000 HD 
HETATM    3  C   UNL     1     -11.053  13.407  68.053  1.00  0.00    -0.255 C  
ENDROOT
BRANCH   3   4
HETATM    4  C   UNL     1     -11.502  14.886  68.127  1.00  0.00    -0.330 C  
BRANCH   4   5
HETATM    5  N   UNL     1     -12.585  15.083  69.117  1.00  0.00    -0.498 NA 
HETATM    6  H   UNL     1     -13.188  14.263  69.192  1.00  0.00     0.000 HD 
BRANCH   5   7
HETATM    7  C   UNL     1     -12.018  15.469  70.414  1.00  0.00    -0.367 C  
BRANCH   7   8
HETATM    8  C   UNL     1     -12.519  14.523  71.509  1.00  0.00    -0.424 C  
BRANCH   8   9
HETATM    9  C   UNL     1     -12.882  13.159  70.920  1.00  0.00    -0.237 C  
BRANCH   9  10
HETATM   10  C   UNL     1     -13.366  12.185  71.997  1.00  0.00    -0.470 C  
BRANCH  10  11
HETATM   11  C   UNL     1     -12.930  10.774  71.684  1.00  0.00    -0.581 A  
HETATM   12  C   UNL     1     -13.496   9.686  72.366  1.00  0.00    -0.421 A  
HETATM   13  C   UNL     1     -13.056   8.385  72.116  1.00  0.00    -0.357 A  
HETATM   14  C   UNL     1     -12.045   8.172  71.185  1.00  0.00    -0.260 A  
HETATM   15  O   UNL     1     -11.572   6.920  70.924  1.00  0.00    -0.299 OA 
HETATM   16  C   UNL     1     -11.478   9.234  70.494  1.00  0.00    -0.296 A  
HETATM   17  H   UNL     1     -10.881   6.774  70.288  1.00  0.00     0.000 HD 
HETATM   18  C   UNL     1     -11.918  10.535  70.744  1.00  0.00    -0.472 A  
ENDBRANCH  10  11
ENDBRANCH   9  10
ENDBRANCH   8   9
ENDBRANCH   7   8
ENDBRANCH   5   7
ENDBRANCH   4   5
ENDBRANCH   3   4
BRANCH   3  19
HETATM   19  C   UNL     1     -10.940  12.937  66.617  1.00  0.00    -0.302 A  
HETATM   20  C   UNL     1     -11.877  13.324  65.644  1.00  0.00    -0.419 A  
HETATM   21  H   UNL     1      -9.918  10.932  62.480  1.00  0.00     0.000 HD 
HETATM   22  C   UNL     1      -9.898  12.064  66.248  1.00  0.00    -0.250 A  
HETATM   23  H   UNL     1     -12.575  12.873  62.476  1.00  0.00     0.000 HD 
HETATM   24  C   UNL     1     -11.763  12.848  64.343  1.00  0.00    -0.372 A  
HETATM   25  C   UNL     1      -9.789  11.591  64.938  1.00  0.00    -0.289 A  
HETATM   26  O   UNL     1     -12.653  13.197  63.365  1.00  0.00    -0.722 OA 
HETATM   27  C   UNL     1     -10.725  11.986  63.997  1.00  0.00    -0.375 A  
HETATM   28  O   UNL     1     -10.626  11.519  62.717  1.00  0.00    -0.070 OA 
ENDBRANCH   3  19
TORSDOF 8
ENDMDL
MODEL       93
REMARK 921   NORMALIZED FREE ENERGY PREDICTED BY IDOCK:   -5.41 KCAL/MOL
REMARK 922        TOTAL FREE ENERGY PREDICTED BY IDOCK:   -9.14 KCAL/MOL
REMARK 923 INTER-LIGAND FREE ENERGY PREDICTED BY IDOCK:   -8.36 KCAL/MOL
REMARK 924 INTRA-LIGAND FREE ENERGY PREDICTED BY IDOCK:   -0.78 KCAL/MOL
REMARK 927      BINDING AFFINITY PREDICTED BY RF-SCORE:    0.00 PKD
ROOT
HETATM    1  O   UNL     1      -8.873  10.854  69.250  1.00  0.00    -0.351 OA 
HETATM    2  H   UNL     1      -8.637  11.126  70.129  1.00  0.00     0.000 HD 
HETATM    3  C   UNL     1     -10.182  11.344  68.933  1.00  0.00    -0.168 C  
ENDROOT
BRANCH   3   4
HETATM    4  C   UNL     1     -10.567  10.901  67.501  1.00  0.00    -0.230 C  
BRANCH   4   5
HETATM    5  N   UNL     1     -11.689  11.701  66.961  1.00  0.00    -0.581 NA 
HETATM    6  H   UNL     1     -12.546  11.569  67.499  1.00  0.00     0.000 HD 
BRANCH   5   7
HETATM    7  C   UNL     1     -11.305  13.114  66.875  1.00  0.00    -0.318 C  
BRANCH   7   8
HETATM    8  C   UNL     1     -10.347  13.329  65.701  1.00  0.00    -0.292 C  
BRANCH   8   9
HETATM    9  C   UNL     1      -9.593  14.652  65.852  1.00  0.00    -0.303 C  
BRANCH   9  10
HETATM   10  C   UNL     1     -10.409  15.834  65.323  1.00  0.00    -0.387 C  
BRANCH  10  11
HETATM   11  C   UNL     1     -10.445  16.958  66.330  1.00  0.00    -0.252 A  
HETATM   12  C   UNL     1     -10.482  18.294  65.905  1.00  0.00    -0.324 A  
HETATM   13  C   UNL     1     -10.462  19.336  66.835  1.00  0.00    -0.547 A  
HETATM   14  C   UNL     1     -10.401  19.040  68.193  1.00  0.00    -0.368 A  
HETATM   15  O   UNL     1     -10.360  20.026  69.134  1.00  0.00    -0.603 OA 
HETATM   16  C   UNL     1     -10.372  17.724  68.633  1.00  0.00    -0.351 A  
HETATM   17  H   UNL     1     -10.318  19.824  70.061  1.00  0.00     0.000 HD 
HETATM   18  C   UNL     1     -10.392  16.682  67.703  1.00  0.00    -0.305 A  
ENDBRANCH  10  11
ENDBRANCH   9  10
ENDBRANCH   8   9
ENDBRANCH   7   8
ENDBRANCH   5   7
ENDBRANCH   4   5
ENDBRANCH   3   4
BRANCH   3  19
HETATM   19  C   UNL     1     -11.184  10.842  69.953  1.00  0.00    -0.355 A  
HETATM   20  C   UNL     1     -12.042  11.724  70.633  1.00  0.00    -0.407 A  
HETATM   21  H   UNL     1     -13.864   8.474  73.016  1.00  0.00     0.000 HD 
HETATM   22  C   UNL     1     -11.240   9.469  70.259  1.00  0.00    -0.307 A  
HETATM   23  H   UNL     1     -14.382  11.722  72.924  1.00  0.00     0.000 HD 
HETATM   24  C   UNL     1     -12.927  11.234  71.586  1.00  0.00    -0.432 A  
HETATM   25  C   UNL     1     -12.133   8.983  71.218  1.00  0.00    -0.375 A  
HETATM   26  O   UNL     1     -13.777  12.057  72.273  1.00  0.00    -0.300 OA 
HETATM   27  C   UNL     1     -12.967   9.872  71.876  1.00  0.00    -0.448 A  
HETATM   28  O   UNL     1     -13.836   9.402  72.819  1.00  0.00    -0.359 OA 
ENDBRANCH   3  19
TORSDOF 8
ENDMDL
MODEL       94
REMARK 921   NORMALIZED FREE ENERGY PREDICTED BY IDOCK:   -5.40 KCAL/MOL
REMARK 922        TOTAL FREE ENERGY PREDICTED BY IDOCK:   -9.13 KCAL/MOL
REMARK 923 INTER-LIGAND FREE ENERGY PREDICTED BY IDOCK:   -8.23 KCAL/MOL
REMARK 924 INTRA-LIGAND FREE ENERGY PREDICTED BY IDOCK:   -0.90 KCAL/MOL
REMARK 927      BINDING AFFINITY PREDICTED BY RF-SCORE:    0.00 PKD
ROOT
HETATM    1  O   UNL     1     -12.233   7.179  72.310  1.00  0.00    -0.451 OA 
HETATM    2  H   UNL     1     -11.932   6.314  72.057  1.00  0.00     0.000 HD 
HETATM    3  C   UNL     1     -12.264   8.031  71.158  1.00  0.00    -0.245 C  
ENDROOT
BRANCH   3   4
HETATM    4  C   UNL     1     -12.753   9.440  71.571  1.00  0.00    -0.361 C  
BRANCH   4   5
HETATM    5  N   UNL     1     -12.884  10.340  70.404  1.00  0.00    -0.546 NA 
HETATM    6  H   UNL     1     -13.846  10.392  70.067  1.00  0.00     0.000 HD 
BRANCH   5   7
HETATM    7  C   UNL     1     -12.343  11.665  70.726  1.00  0.00    -0.358 C  
BRANCH   7   8
HETATM    8  C   UNL     1     -11.810  12.337  69.458  1.00  0.00    -0.380 C  
BRANCH   8   9
HETATM    9  C   UNL     1     -11.918  11.393  68.259  1.00  0.00    -0.234 C  
BRANCH   9  10
HETATM   10  C   UNL     1     -10.781  11.612  67.258  1.00  0.00    -0.281 C  
BRANCH  10  11
HETATM   11  C   UNL     1     -11.040  12.831  66.405  1.00  0.00    -0.320 A  
HETATM   12  C   UNL     1     -12.247  12.965  65.703  1.00  0.00    -0.519 A  
HETATM   13  C   UNL     1     -12.467  14.065  64.872  1.00  0.00    -0.419 A  
HETATM   14  C   UNL     1     -11.475  15.032  64.741  1.00  0.00    -0.403 A  
HETATM   15  O   UNL     1     -11.640  16.113  63.926  1.00  0.00    -1.369 OA 
HETATM   16  C   UNL     1     -10.277  14.922  65.434  1.00  0.00    -0.409 A  
HETATM   17  H   UNL     1     -10.963  16.773  63.836  1.00  0.00     0.000 HD 
HETATM   18  C   UNL     1     -10.058  13.821  66.265  1.00  0.00    -0.304 A  
ENDBRANCH  10  11
ENDBRANCH   9  10
ENDBRANCH   8   9
ENDBRANCH   7   8
ENDBRANCH   5   7
ENDBRANCH   4   5
ENDBRANCH   3   4
BRANCH   3  19
HETATM   19  C   UNL     1     -10.890   8.089  70.521  1.00  0.00    -0.241 A  
HETATM   20  C   UNL     1      -9.957   9.077  70.880  1.00  0.00    -0.326 A  
HETATM   21  H   UNL     1      -6.954   7.617  67.979  1.00  0.00     0.000 HD 
HETATM   22  C   UNL     1     -10.543   7.159  69.522  1.00  0.00    -0.247 A  
HETATM   23  H   UNL     1      -6.934  10.097  70.142  1.00  0.00     0.000 HD 
HETATM   24  C   UNL     1      -8.717   9.121  70.253  1.00  0.00    -0.200 A  
HETATM   25  C   UNL     1      -9.296   7.209  68.896  1.00  0.00    -0.139 A  
HETATM   26  O   UNL     1      -7.781  10.067  70.570  1.00  0.00    -0.264 OA 
HETATM   27  C   UNL     1      -8.393   8.193  69.266  1.00  0.00    -0.130 A  
HETATM   28  O   UNL     1      -7.175   8.250  68.652  1.00  0.00    -0.083 OA 
ENDBRANCH   3  19
TORSDOF 8
ENDMDL
MODEL       95
REMARK 921   NORMALIZED FREE ENERGY PREDICTED BY IDOCK:   -5.40 KCAL/MOL
REMARK 922        TOTAL FREE ENERGY PREDICTED BY IDOCK:   -9.13 KCAL/MOL
REMARK 923 INTER-LIGAND FREE ENERGY PREDICTED BY IDOCK:   -8.60 KCAL/MOL
REMARK 924 INTRA-LIGAND FREE ENERGY PREDICTED BY IDOCK:   -0.52 KCAL/MOL
REMARK 927      BINDING AFFINITY PREDICTED BY RF-SCORE:    0.00 PKD
ROOT
HETATM    1  O   UNL     1     -11.943  13.281  70.725  1.00  0.00    -0.501 OA 
HETATM    2  H   UNL     1     -12.528  13.224  71.472  1.00  0.00     0.000 HD 
HETATM    3  C   UNL     1     -12.224  12.213  69.813  1.00  0.00    -0.144 C  
ENDROOT
BRANCH   3   4
HETATM    4  C   UNL     1     -11.271  12.307  68.597  1.00  0.00    -0.259 C  
BRANCH   4   5
HETATM    5  N   UNL     1     -12.012  12.304  67.316  1.00  0.00    -0.559 NA 
HETATM    6  H   UNL     1     -13.005  12.111  67.450  1.00  0.00     0.000 HD 
BRANCH   5   7
HETATM    7  C   UNL     1     -11.789  13.567  66.603  1.00  0.00    -0.407 C  
BRANCH   7   8
HETATM    8  C   UNL     1     -11.033  14.551  67.499  1.00  0.00    -0.297 C  
BRANCH   8   9
HETATM    9  C   UNL     1      -9.891  15.216  66.728  1.00  0.00    -0.251 C  
BRANCH   9  10
HETATM   10  C   UNL     1     -10.394  16.354  65.836  1.00  0.00    -0.378 C  
BRANCH  10  11
HETATM   11  C   UNL     1      -9.766  17.668  66.233  1.00  0.00    -0.275 A  
HETATM   12  C   UNL     1     -10.529  18.846  66.246  1.00  0.00    -0.510 A  
HETATM   13  C   UNL     1      -9.937  20.071  66.561  1.00  0.00    -0.603 A  
HETATM   14  C   UNL     1      -8.579  20.118  66.859  1.00  0.00    -0.324 A  
HETATM   15  O   UNL     1      -7.957  21.296  67.154  1.00  0.00    -0.693 OA 
HETATM   16  C   UNL     1      -7.810  18.963  66.859  1.00  0.00    -0.256 A  
HETATM   17  H   UNL     1      -7.030  21.328  67.357  1.00  0.00     0.000 HD 
HETATM   18  C   UNL     1      -8.402  17.738  66.544  1.00  0.00    -0.294 A  
ENDBRANCH  10  11
ENDBRANCH   9  10
ENDBRANCH   8   9
ENDBRANCH   7   8
ENDBRANCH   5   7
ENDBRANCH   4   5
ENDBRANCH   3   4
BRANCH   3  19
HETATM   19  C   UNL     1     -12.085  10.879  70.520  1.00  0.00    -0.464 A  
HETATM   20  C   UNL     1     -10.983  10.038  70.288  1.00  0.00    -0.377 A  
HETATM   21  H   UNL     1     -12.512   6.906  73.012  1.00  0.00     0.000 HD 
HETATM   22  C   UNL     1     -13.094  10.449  71.404  1.00  0.00    -0.512 A  
HETATM   23  H   UNL     1      -9.795   7.116  71.167  1.00  0.00     0.000 HD 
HETATM   24  C   UNL     1     -10.903   8.808  70.928  1.00  0.00    -0.238 A  
HETATM   25  C   UNL     1     -13.006   9.211  72.044  1.00  0.00    -0.496 A  
HETATM   26  O   UNL     1      -9.850   7.957  70.729  1.00  0.00    -0.179 OA 
HETATM   27  C   UNL     1     -11.911   8.399  71.798  1.00  0.00    -0.325 A  
HETATM   28  O   UNL     1     -11.825   7.185  72.418  1.00  0.00    -0.259 OA 
ENDBRANCH   3  19
TORSDOF 8
ENDMDL
MODEL       96
REMARK 921   NORMALIZED FREE ENERGY PREDICTED BY IDOCK:   -5.39 KCAL/MOL
REMARK 922        TOTAL FREE ENERGY PREDICTED BY IDOCK:   -9.12 KCAL/MOL
REMARK 923 INTER-LIGAND FREE ENERGY PREDICTED BY IDOCK:   -7.93 KCAL/MOL
REMARK 924 INTRA-LIGAND FREE ENERGY PREDICTED BY IDOCK:   -1.19 KCAL/MOL
REMARK 927      BINDING AFFINITY PREDICTED BY RF-SCORE:    0.00 PKD
ROOT
HETATM    1  O   UNL     1     -12.030  11.635  67.490  1.00  0.00    -0.622 OA 
HETATM    2  H   UNL     1     -12.875  11.209  67.580  1.00  0.00     0.000 HD 
HETATM    3  C   UNL     1     -10.986  10.672  67.684  1.00  0.00    -0.310 C  
ENDROOT
BRANCH   3   4
HETATM    4  C   UNL     1      -9.610  11.365  67.537  1.00  0.00    -0.167 C  
BRANCH   4   5
HETATM    5  N   UNL     1      -9.378  12.358  68.609  1.00  0.00    -0.399 NA 
HETATM    6  H   UNL     1      -8.972  11.932  69.443  1.00  0.00     0.000 HD 
BRANCH   5   7
HETATM    7  C   UNL     1      -8.557  13.464  68.102  1.00  0.00    -0.174 C  
BRANCH   7   8
HETATM    8  C   UNL     1      -9.437  14.472  67.359  1.00  0.00    -0.202 C  
BRANCH   8   9
HETATM    9  C   UNL     1     -10.020  15.501  68.331  1.00  0.00    -0.214 C  
BRANCH   9  10
HETATM   10  C   UNL     1     -11.538  15.360  68.463  1.00  0.00    -0.373 C  
BRANCH  10  11
HETATM   11  C   UNL     1     -11.947  15.260  69.913  1.00  0.00    -0.373 A  
HETATM   12  C   UNL     1     -11.625  16.285  70.816  1.00  0.00    -0.282 A  
HETATM   13  C   UNL     1     -11.954  16.170  72.168  1.00  0.00    -0.623 A  
HETATM   14  C   UNL     1     -12.604  15.026  72.618  1.00  0.00    -0.370 A  
HETATM   15  O   UNL     1     -12.927  14.863  73.933  1.00  0.00    -0.529 OA 
HETATM   16  C   UNL     1     -12.938  14.004  71.739  1.00  0.00    -0.435 A  
HETATM   17  H   UNL     1     -13.371  14.082  74.241  1.00  0.00     0.000 HD 
HETATM   18  C   UNL     1     -12.608  14.120  70.388  1.00  0.00    -0.397 A  
ENDBRANCH  10  11
ENDBRANCH   9  10
ENDBRANCH   8   9
ENDBRANCH   7   8
ENDBRANCH   5   7
ENDBRANCH   4   5
ENDBRANCH   3   4
BRANCH   3  19
HETATM   19  C   UNL     1     -11.132  10.019  69.044  1.00  0.00    -0.221 A  
HETATM   20  C   UNL     1     -10.486   8.807  69.348  1.00  0.00    -0.228 A  
HETATM   21  H   UNL     1     -12.222   8.641  73.413  1.00  0.00     0.000 HD 
HETATM   22  C   UNL     1     -11.957  10.612  70.019  1.00  0.00    -0.408 A  
HETATM   23  H   UNL     1     -10.183   6.638  71.782  1.00  0.00     0.000 HD 
HETATM   24  C   UNL     1     -10.667   8.219  70.594  1.00  0.00    -0.220 A  
HETATM   25  C   UNL     1     -12.133  10.015  71.270  1.00  0.00    -0.487 A  
HETATM   26  O   UNL     1     -10.061   7.040  70.931  1.00  0.00    -0.193 OA 
HETATM   27  C   UNL     1     -11.487   8.820  71.545  1.00  0.00    -0.305 A  
HETATM   28  O   UNL     1     -11.663   8.230  72.764  1.00  0.00    -0.397 OA 
ENDBRANCH   3  19
TORSDOF 8
ENDMDL
MODEL       97
REMARK 921   NORMALIZED FREE ENERGY PREDICTED BY IDOCK:   -5.38 KCAL/MOL
REMARK 922        TOTAL FREE ENERGY PREDICTED BY IDOCK:   -9.09 KCAL/MOL
REMARK 923 INTER-LIGAND FREE ENERGY PREDICTED BY IDOCK:   -8.51 KCAL/MOL
REMARK 924 INTRA-LIGAND FREE ENERGY PREDICTED BY IDOCK:   -0.58 KCAL/MOL
REMARK 927      BINDING AFFINITY PREDICTED BY RF-SCORE:    0.00 PKD
ROOT
HETATM    1  O   UNL     1     -13.989   8.732  73.209  1.00  0.00    -1.160 OA 
HETATM    2  H   UNL     1     -14.142   7.865  73.569  1.00  0.00     0.000 HD 
HETATM    3  C   UNL     1     -13.511   8.614  71.863  1.00  0.00    -0.397 C  
ENDROOT
BRANCH   3   4
HETATM    4  C   UNL     1     -13.263  10.024  71.278  1.00  0.00    -0.383 C  
BRANCH   4   5
HETATM    5  N   UNL     1     -13.314  11.070  72.323  1.00  0.00    -0.562 NA 
HETATM    6  H   UNL     1     -12.757  10.820  73.141  1.00  0.00     0.000 HD 
BRANCH   5   7
HETATM    7  C   UNL     1     -12.913  12.365  71.761  1.00  0.00    -0.316 C  
BRANCH   7   8
HETATM    8  C   UNL     1     -12.151  12.155  70.450  1.00  0.00    -0.395 C  
BRANCH   8   9
HETATM    9  C   UNL     1     -12.122  13.446  69.629  1.00  0.00    -0.349 C  
BRANCH   9  10
HETATM   10  C   UNL     1     -11.914  13.167  68.138  1.00  0.00    -0.333 C  
BRANCH  10  11
HETATM   11  C   UNL     1     -11.262  14.344  67.455  1.00  0.00    -0.337 A  
HETATM   12  C   UNL     1     -11.239  15.603  68.073  1.00  0.00    -0.339 A  
HETATM   13  C   UNL     1     -10.684  16.705  67.420  1.00  0.00    -0.253 A  
HETATM   14  C   UNL     1     -10.154  16.548  66.143  1.00  0.00    -0.348 A  
HETATM   15  O   UNL     1      -9.619  17.601  65.461  1.00  0.00    -0.346 OA 
HETATM   16  C   UNL     1     -10.160  15.308  65.518  1.00  0.00    -0.408 A  
HETATM   17  H   UNL     1      -9.257  17.493  64.590  1.00  0.00     0.000 HD 
HETATM   18  C   UNL     1     -10.715  14.207  66.172  1.00  0.00    -0.297 A  
ENDBRANCH  10  11
ENDBRANCH   9  10
ENDBRANCH   8   9
ENDBRANCH   7   8
ENDBRANCH   5   7
ENDBRANCH   4   5
ENDBRANCH   3   4
BRANCH   3  19
HETATM   19  C   UNL     1     -12.249   7.775  71.835  1.00  0.00    -0.341 A  
HETATM   20  C   UNL     1     -11.967   6.912  70.762  1.00  0.00    -0.424 A  
HETATM   21  H   UNL     1      -8.217   5.469  72.612  1.00  0.00     0.000 HD 
HETATM   22  C   UNL     1     -11.351   7.828  72.918  1.00  0.00    -0.406 A  
HETATM   23  H   UNL     1      -9.718   4.747  69.774  1.00  0.00     0.000 HD 
HETATM   24  C   UNL     1     -10.816   6.133  70.782  1.00  0.00    -0.288 A  
HETATM   25  C   UNL     1     -10.196   7.042  72.931  1.00  0.00    -0.243 A  
HETATM   26  O   UNL     1     -10.504   5.279  69.760  1.00  0.00    -0.291 OA 
HETATM   27  C   UNL     1      -9.940   6.199  71.863  1.00  0.00    -0.164 A  
HETATM   28  O   UNL     1      -8.815   5.424  71.875  1.00  0.00    -0.133 OA 
ENDBRANCH   3  19
TORSDOF 8
ENDMDL
MODEL       98
REMARK 921   NORMALIZED FREE ENERGY PREDICTED BY IDOCK:   -5.38 KCAL/MOL
REMARK 922        TOTAL FREE ENERGY PREDICTED BY IDOCK:   -9.09 KCAL/MOL
REMARK 923 INTER-LIGAND FREE ENERGY PREDICTED BY IDOCK:   -7.97 KCAL/MOL
REMARK 924 INTRA-LIGAND FREE ENERGY PREDICTED BY IDOCK:   -1.12 KCAL/MOL
REMARK 927      BINDING AFFINITY PREDICTED BY RF-SCORE:    0.00 PKD
ROOT
HETATM    1  O   UNL     1     -14.401   8.279  70.741  1.00  0.00    -0.527 OA 
HETATM    2  H   UNL     1     -15.164   8.826  70.891  1.00  0.00     0.000 HD 
HETATM    3  C   UNL     1     -13.341   8.686  71.616  1.00  0.00    -0.350 C  
ENDROOT
BRANCH   3   4
HETATM    4  C   UNL     1     -12.099   7.796  71.371  1.00  0.00    -0.311 C  
BRANCH   4   5
HETATM    5  N   UNL     1     -12.206   7.038  70.106  1.00  0.00    -0.615 NA 
HETATM    6  H   UNL     1     -12.470   7.637  69.322  1.00  0.00     0.000 HD 
BRANCH   5   7
HETATM    7  C   UNL     1     -10.959   6.310  69.846  1.00  0.00    -0.370 C  
BRANCH   7   8
HETATM    8  C   UNL     1      -9.891   7.271  69.317  1.00  0.00    -0.166 C  
BRANCH   8   9
HETATM    9  C   UNL     1      -9.972   7.384  67.793  1.00  0.00    -0.208 C  
BRANCH   9  10
HETATM   10  C   UNL     1      -8.920   8.347  67.237  1.00  0.00    -0.142 C  
BRANCH  10  11
HETATM   11  C   UNL     1      -9.571   9.486  66.491  1.00  0.00    -0.259 A  
HETATM   12  C   UNL     1      -9.535   9.532  65.089  1.00  0.00    -0.305 A  
HETATM   13  C   UNL     1     -10.090  10.612  64.400  1.00  0.00    -0.418 A  
HETATM   14  C   UNL     1     -10.679  11.650  65.115  1.00  0.00    -0.296 A  
HETATM   15  O   UNL     1     -11.216  12.733  64.483  1.00  0.00    -0.305 OA 
HETATM   16  C   UNL     1     -10.731  11.619  66.502  1.00  0.00    -0.313 A  
HETATM   17  H   UNL     1     -11.618  13.441  64.971  1.00  0.00     0.000 HD 
HETATM   18  C   UNL     1     -10.176  10.539  67.191  1.00  0.00    -0.270 A  
ENDBRANCH  10  11
ENDBRANCH   9  10
ENDBRANCH   8   9
ENDBRANCH   7   8
ENDBRANCH   5   7
ENDBRANCH   4   5
ENDBRANCH   3   4
BRANCH   3  19
HETATM   19  C   UNL     1     -13.021  10.151  71.394  1.00  0.00    -0.528 A  
HETATM   20  C   UNL     1     -13.597  11.155  72.192  1.00  0.00    -0.074 A  
HETATM   21  H   UNL     1     -11.595  14.400  69.949  1.00  0.00     0.000 HD 
HETATM   22  C   UNL     1     -12.158  10.527  70.347  1.00  0.00    -0.418 A  
HETATM   23  H   UNL     1     -13.649  14.413  72.519  1.00  0.00     0.000 HD 
HETATM   24  C   UNL     1     -13.307  12.491  71.941  1.00  0.00    -0.368 A  
HETATM   25  C   UNL     1     -11.871  11.872  70.101  1.00  0.00    -0.390 A  
HETATM   26  O   UNL     1     -13.847  13.500  72.690  1.00  0.00    -0.724 OA 
HETATM   27  C   UNL     1     -12.452  12.844  70.900  1.00  0.00    -0.296 A  
HETATM   28  O   UNL     1     -12.179  14.160  70.658  1.00  0.00    -0.316 OA 
ENDBRANCH   3  19
TORSDOF 8
ENDMDL
MODEL       99
REMARK 921   NORMALIZED FREE ENERGY PREDICTED BY IDOCK:   -5.37 KCAL/MOL
REMARK 922        TOTAL FREE ENERGY PREDICTED BY IDOCK:   -9.09 KCAL/MOL
REMARK 923 INTER-LIGAND FREE ENERGY PREDICTED BY IDOCK:   -8.49 KCAL/MOL
REMARK 924 INTRA-LIGAND FREE ENERGY PREDICTED BY IDOCK:   -0.60 KCAL/MOL
REMARK 927      BINDING AFFINITY PREDICTED BY RF-SCORE:    0.00 PKD
ROOT
HETATM    1  O   UNL     1     -12.178  15.422  67.874  1.00  0.00    -0.344 OA 
HETATM    2  H   UNL     1     -12.660  16.110  67.429  1.00  0.00     0.000 HD 
HETATM    3  C   UNL     1     -11.304  16.004  68.850  1.00  0.00    -0.370 C  
ENDROOT
BRANCH   3   4
HETATM    4  C   UNL     1     -10.519  14.884  69.573  1.00  0.00    -0.201 C  
BRANCH   4   5
HETATM    5  N   UNL     1     -10.767  13.558  68.965  1.00  0.00    -0.390 NA 
HETATM    6  H   UNL     1     -11.711  13.482  68.585  1.00  0.00     0.000 HD 
BRANCH   5   7
HETATM    7  C   UNL     1      -9.744  13.267  67.955  1.00  0.00    -0.224 C  
BRANCH   7   8
HETATM    8  C   UNL     1      -9.214  11.842  68.139  1.00  0.00    -0.187 C  
BRANCH   8   9
HETATM    9  C   UNL     1     -10.321  10.914  68.643  1.00  0.00    -0.206 C  
BRANCH   9  10
HETATM   10  C   UNL     1      -9.840  10.028  69.795  1.00  0.00    -0.270 C  
BRANCH  10  11
HETATM   11  C   UNL     1     -10.966   9.734  70.756  1.00  0.00    -0.406 A  
HETATM   12  C   UNL     1     -10.963   8.557  71.518  1.00  0.00    -0.337 A  
HETATM   13  C   UNL     1     -12.029   8.258  72.369  1.00  0.00    -0.447 A  
HETATM   14  C   UNL     1     -13.103   9.138  72.454  1.00  0.00    -0.423 A  
HETATM   15  O   UNL     1     -14.174   8.876  73.257  1.00  0.00    -1.197 OA 
HETATM   16  C   UNL     1     -13.121  10.313  71.714  1.00  0.00    -0.570 A  
HETATM   17  H   UNL     1     -14.907   9.477  73.314  1.00  0.00     0.000 HD 
HETATM   18  C   UNL     1     -12.055  10.610  70.864  1.00  0.00    -0.489 A  
ENDBRANCH  10  11
ENDBRANCH   9  10
ENDBRANCH   8   9
ENDBRANCH   7   8
ENDBRANCH   5   7
ENDBRANCH   4   5
ENDBRANCH   3   4
BRANCH   3  19
HETATM   19  C   UNL     1     -10.367  16.991  68.182  1.00  0.00    -0.347 A  
HETATM   20  C   UNL     1     -10.857  18.092  67.459  1.00  0.00    -0.252 A  
HETATM   21  H   UNL     1      -6.799  19.453  66.343  1.00  0.00     0.000 HD 
HETATM   22  C   UNL     1      -8.975  16.790  68.253  1.00  0.00    -0.228 A  
HETATM   23  H   UNL     1      -9.799  20.635  65.688  1.00  0.00     0.000 HD 
HETATM   24  C   UNL     1      -9.971  18.960  66.832  1.00  0.00    -0.345 A  
HETATM   25  C   UNL     1      -8.090  17.667  67.621  1.00  0.00    -0.218 A  
HETATM   26  O   UNL     1     -10.404  20.042  66.116  1.00  0.00    -0.466 OA 
HETATM   27  C   UNL     1      -8.597  18.744  66.913  1.00  0.00    -0.284 A  
HETATM   28  O   UNL     1      -7.736  19.600  66.288  1.00  0.00    -0.283 OA 
ENDBRANCH   3  19
TORSDOF 8
ENDMDL
MODEL      100
REMARK 921   NORMALIZED FREE ENERGY PREDICTED BY IDOCK:   -5.37 KCAL/MOL
REMARK 922        TOTAL FREE ENERGY PREDICTED BY IDOCK:   -9.09 KCAL/MOL
REMARK 923 INTER-LIGAND FREE ENERGY PREDICTED BY IDOCK:   -7.36 KCAL/MOL
REMARK 924 INTRA-LIGAND FREE ENERGY PREDICTED BY IDOCK:   -1.73 KCAL/MOL
REMARK 927      BINDING AFFINITY PREDICTED BY RF-SCORE:    0.00 PKD
ROOT
HETATM    1  O   UNL     1     -11.441   7.537  73.137  1.00  0.00    -0.601 OA 
HETATM    2  H   UNL     1     -10.598   7.166  73.373  1.00  0.00     0.000 HD 
HETATM    3  C   UNL     1     -12.019   6.771  72.072  1.00  0.00    -0.317 C  
ENDROOT
BRANCH   3   4
HETATM    4  C   UNL     1     -13.391   7.375  71.688  1.00  0.00    -0.364 C  
BRANCH   4   5
HETATM    5  N   UNL     1     -13.729   8.548  72.524  1.00  0.00    -0.633 NA 
HETATM    6  H   UNL     1     -13.057   8.685  73.280  1.00  0.00     0.000 HD 
BRANCH   5   7
HETATM    7  C   UNL     1     -13.864   9.744  71.685  1.00  0.00    -0.116 C  
BRANCH   7   8
HETATM    8  C   UNL     1     -12.609  10.613  71.804  1.00  0.00    -0.411 C  
BRANCH   8   9
HETATM    9  C   UNL     1     -11.721  10.453  70.568  1.00  0.00    -0.434 C  
BRANCH   9  10
HETATM   10  C   UNL     1     -12.035  11.505  69.502  1.00  0.00    -0.402 C  
BRANCH  10  11
HETATM   11  C   UNL     1     -11.412  11.135  68.178  1.00  0.00    -0.373 A  
HETATM   12  C   UNL     1     -11.530  11.989  67.072  1.00  0.00    -0.402 A  
HETATM   13  C   UNL     1     -11.001  11.624  65.833  1.00  0.00    -0.334 A  
HETATM   14  C   UNL     1     -10.355  10.399  65.699  1.00  0.00    -0.190 A  
HETATM   15  O   UNL     1      -9.840   9.994  64.503  1.00  0.00    -0.350 OA 
HETATM   16  C   UNL     1     -10.221   9.543  66.784  1.00  0.00    -0.313 A  
HETATM   17  H   UNL     1      -9.400   9.157  64.412  1.00  0.00     0.000 HD 
HETATM   18  C   UNL     1     -10.751   9.909  68.023  1.00  0.00    -0.296 A  
ENDBRANCH  10  11
ENDBRANCH   9  10
ENDBRANCH   8   9
ENDBRANCH   7   8
ENDBRANCH   5   7
ENDBRANCH   4   5
ENDBRANCH   3   4
BRANCH   3  19
HETATM   19  C   UNL     1     -11.077   6.743  70.885  1.00  0.00    -0.322 A  
HETATM   20  C   UNL     1     -11.489   6.248  69.635  1.00  0.00    -0.425 A  
HETATM   21  H   UNL     1      -7.511   6.901  67.813  1.00  0.00     0.000 HD 
HETATM   22  C   UNL     1      -9.749   7.187  71.036  1.00  0.00    -0.165 A  
HETATM   23  H   UNL     1     -10.334   5.702  66.620  1.00  0.00     0.000 HD 
HETATM   24  C   UNL     1     -10.591   6.206  68.576  1.00  0.00    -0.271 A  
HETATM   25  C   UNL     1      -8.852   7.143  69.966  1.00  0.00    -0.142 A  
HETATM   26  O   UNL     1     -10.948   5.731  67.344  1.00  0.00    -0.249 OA 
HETATM   27  C   UNL     1      -9.281   6.649  68.744  1.00  0.00    -0.129 A  
HETATM   28  O   UNL     1      -8.404   6.598  67.698  1.00  0.00    -0.121 OA 
ENDBRANCH   3  19
TORSDOF 8
ENDMDL
MODEL      101
REMARK 921   NORMALIZED FREE ENERGY PREDICTED BY IDOCK:   -5.37 KCAL/MOL
REMARK 922        TOTAL FREE ENERGY PREDICTED BY IDOCK:   -9.09 KCAL/MOL
REMARK 923 INTER-LIGAND FREE ENERGY PREDICTED BY IDOCK:   -8.29 KCAL/MOL
REMARK 924 INTRA-LIGAND FREE ENERGY PREDICTED BY IDOCK:   -0.80 KCAL/MOL
REMARK 927      BINDING AFFINITY PREDICTED BY RF-SCORE:    0.00 PKD
ROOT
HETATM    1  O   UNL     1     -12.073  11.528  67.652  1.00  0.00    -0.623 OA 
HETATM    2  H   UNL     1     -12.196  12.275  68.227  1.00  0.00     0.000 HD 
HETATM    3  C   UNL     1     -10.915  11.739  66.834  1.00  0.00    -0.285 C  
ENDROOT
BRANCH   3   4
HETATM    4  C   UNL     1     -10.715  10.522  65.899  1.00  0.00     0.009 C  
BRANCH   4   5
HETATM    5  N   UNL     1      -9.504   9.749  66.254  1.00  0.00    -0.181 NA 
HETATM    6  H   UNL     1      -8.737  10.355  66.546  1.00  0.00     0.000 HD 
BRANCH   5   7
HETATM    7  C   UNL     1      -9.828   8.743  67.271  1.00  0.00    -0.201 C  
BRANCH   7   8
HETATM    8  C   UNL     1      -8.752   8.732  68.361  1.00  0.00    -0.135 C  
BRANCH   8   9
HETATM    9  C   UNL     1      -9.051   9.789  69.426  1.00  0.00    -0.209 C  
BRANCH   9  10
HETATM   10  C   UNL     1      -9.126   9.178  70.828  1.00  0.00    -0.313 C  
BRANCH  10  11
HETATM   11  C   UNL     1     -10.541   8.772  71.164  1.00  0.00    -0.310 A  
HETATM   12  C   UNL     1     -11.505   9.742  71.474  1.00  0.00    -0.393 A  
HETATM   13  C   UNL     1     -12.800   9.366  71.838  1.00  0.00    -0.497 A  
HETATM   14  C   UNL     1     -13.129   8.015  71.894  1.00  0.00    -0.311 A  
HETATM   15  O   UNL     1     -14.376   7.602  72.263  1.00  0.00    -0.584 OA 
HETATM   16  C   UNL     1     -12.191   7.040  71.583  1.00  0.00    -0.395 A  
HETATM   17  H   UNL     1     -14.600   6.681  72.302  1.00  0.00     0.000 HD 
HETATM   18  C   UNL     1     -10.896   7.417  71.220  1.00  0.00    -0.258 A  
ENDBRANCH  10  11
ENDBRANCH   9  10
ENDBRANCH   8   9
ENDBRANCH   7   8
ENDBRANCH   5   7
ENDBRANCH   4   5
ENDBRANCH   3   4
BRANCH   3  19
HETATM   19  C   UNL     1     -11.068  13.022  66.043  1.00  0.00    -0.301 A  
HETATM   20  C   UNL     1     -10.414  14.204  66.432  1.00  0.00    -0.283 A  
HETATM   21  H   UNL     1     -12.187  16.541  63.120  1.00  0.00     0.000 HD 
HETATM   22  C   UNL     1     -11.907  13.051  64.912  1.00  0.00    -0.404 A  
HETATM   23  H   UNL     1     -10.114  17.343  65.548  1.00  0.00     0.000 HD 
HETATM   24  C   UNL     1     -10.601  15.372  65.702  1.00  0.00    -0.364 A  
HETATM   25  C   UNL     1     -12.090  14.228  64.183  1.00  0.00    -0.423 A  
HETATM   26  O   UNL     1      -9.987  16.545  66.046  1.00  0.00    -0.313 OA 
HETATM   27  C   UNL     1     -11.436  15.381  64.587  1.00  0.00    -0.337 A  
HETATM   28  O   UNL     1     -11.618  16.536  63.881  1.00  0.00    -1.175 OA 
ENDBRANCH   3  19
TORSDOF 8
ENDMDL
MODEL      102
REMARK 921   NORMALIZED FREE ENERGY PREDICTED BY IDOCK:   -5.37 KCAL/MOL
REMARK 922        TOTAL FREE ENERGY PREDICTED BY IDOCK:   -9.08 KCAL/MOL
REMARK 923 INTER-LIGAND FREE ENERGY PREDICTED BY IDOCK:   -8.50 KCAL/MOL
REMARK 924 INTRA-LIGAND FREE ENERGY PREDICTED BY IDOCK:   -0.58 KCAL/MOL
REMARK 927      BINDING AFFINITY PREDICTED BY RF-SCORE:    0.00 PKD
ROOT
HETATM    1  O   UNL     1     -14.166   9.612  72.757  1.00  0.00    -0.743 OA 
HETATM    2  H   UNL     1     -14.528   8.738  72.852  1.00  0.00     0.000 HD 
HETATM    3  C   UNL     1     -13.357   9.669  71.575  1.00  0.00    -0.388 C  
ENDROOT
BRANCH   3   4
HETATM    4  C   UNL     1     -12.768  11.091  71.420  1.00  0.00    -0.429 C  
BRANCH   4   5
HETATM    5  N   UNL     1     -13.515  12.086  72.222  1.00  0.00    -0.551 NA 
HETATM    6  H   UNL     1     -13.687  11.757  73.173  1.00  0.00     0.000 HD 
BRANCH   5   7
HETATM    7  C   UNL     1     -12.815  13.375  72.205  1.00  0.00    -0.211 C  
BRANCH   7   8
HETATM    8  C   UNL     1     -13.093  14.106  70.889  1.00  0.00    -0.338 C  
BRANCH   8   9
HETATM    9  C   UNL     1     -11.784  14.520  70.213  1.00  0.00    -0.356 C  
BRANCH   9  10
HETATM   10  C   UNL     1     -12.025  15.488  69.052  1.00  0.00    -0.323 C  
BRANCH  10  11
HETATM   11  C   UNL     1     -11.452  14.943  67.767  1.00  0.00    -0.353 A  
HETATM   12  C   UNL     1     -10.504  15.679  67.041  1.00  0.00    -0.303 A  
HETATM   13  C   UNL     1     -10.013  15.200  65.824  1.00  0.00    -0.375 A  
HETATM   14  C   UNL     1     -10.475  13.983  65.332  1.00  0.00    -0.351 A  
HETATM   15  O   UNL     1     -10.037  13.488  64.139  1.00  0.00    -0.760 OA 
HETATM   16  C   UNL     1     -11.407  13.237  66.040  1.00  0.00    -0.329 A  
HETATM   17  H   UNL     1     -10.352  12.657  63.803  1.00  0.00     0.000 HD 
HETATM   18  C   UNL     1     -11.898  13.716  67.256  1.00  0.00    -0.429 A  
ENDBRANCH  10  11
ENDBRANCH   9  10
ENDBRANCH   8   9
ENDBRANCH   7   8
ENDBRANCH   5   7
ENDBRANCH   4   5
ENDBRANCH   3   4
BRANCH   3  19
HETATM   19  C   UNL     1     -12.262   8.624  71.646  1.00  0.00    -0.388 A  
HETATM   20  C   UNL     1     -10.928   8.977  71.915  1.00  0.00    -0.423 A  
HETATM   21  H   UNL     1      -9.512   4.802  71.559  1.00  0.00     0.000 HD 
HETATM   22  C   UNL     1     -12.571   7.270  71.406  1.00  0.00    -0.423 A  
HETATM   23  H   UNL     1      -7.959   7.628  72.215  1.00  0.00     0.000 HD 
HETATM   24  C   UNL     1      -9.943   7.998  71.942  1.00  0.00    -0.195 A  
HETATM   25  C   UNL     1     -11.575   6.291  71.435  1.00  0.00    -0.338 A  
HETATM   26  O   UNL     1      -8.633   8.298  72.197  1.00  0.00    -0.154 OA 
HETATM   27  C   UNL     1     -10.268   6.665  71.701  1.00  0.00    -0.192 A  
HETATM   28  O   UNL     1      -9.290   5.711  71.723  1.00  0.00    -0.145 OA 
ENDBRANCH   3  19
TORSDOF 8
ENDMDL
MODEL      103
REMARK 921   NORMALIZED FREE ENERGY PREDICTED BY IDOCK:   -5.37 KCAL/MOL
REMARK 922        TOTAL FREE ENERGY PREDICTED BY IDOCK:   -9.08 KCAL/MOL
REMARK 923 INTER-LIGAND FREE ENERGY PREDICTED BY IDOCK:   -8.15 KCAL/MOL
REMARK 924 INTRA-LIGAND FREE ENERGY PREDICTED BY IDOCK:   -0.92 KCAL/MOL
REMARK 927      BINDING AFFINITY PREDICTED BY RF-SCORE:    0.00 PKD
ROOT
HETATM    1  O   UNL     1     -12.430  14.400  67.615  1.00  0.00    -0.596 OA 
HETATM    2  H   UNL     1     -13.361  14.492  67.782  1.00  0.00     0.000 HD 
HETATM    3  C   UNL     1     -11.838  13.588  68.636  1.00  0.00    -0.369 C  
ENDROOT
BRANCH   3   4
HETATM    4  C   UNL     1     -10.322  13.438  68.363  1.00  0.00    -0.251 C  
BRANCH   4   5
HETATM    5  N   UNL     1      -9.740  12.297  69.104  1.00  0.00    -0.272 NA 
HETATM    6  H   UNL     1      -9.752  12.450  70.113  1.00  0.00     0.000 HD 
BRANCH   5   7
HETATM    7  C   UNL     1     -10.421  11.053  68.728  1.00  0.00    -0.198 C  
BRANCH   7   8
HETATM    8  C   UNL     1      -9.408   9.908  68.635  1.00  0.00    -0.149 C  
BRANCH   8   9
HETATM    9  C   UNL     1      -8.624   9.772  69.941  1.00  0.00    -0.236 C  
BRANCH   9  10
HETATM   10  C   UNL     1      -8.727   8.359  70.522  1.00  0.00    -0.152 C  
BRANCH  10  11
HETATM   11  C   UNL     1     -10.150   8.036  70.905  1.00  0.00    -0.211 A  
HETATM   12  C   UNL     1     -10.890   8.919  71.706  1.00  0.00    -0.436 A  
HETATM   13  C   UNL     1     -12.189   8.597  72.106  1.00  0.00    -0.453 A  
HETATM   14  C   UNL     1     -12.747   7.387  71.706  1.00  0.00    -0.334 A  
HETATM   15  O   UNL     1     -14.004   7.024  72.089  1.00  0.00    -0.562 OA 
HETATM   16  C   UNL     1     -12.034   6.503  70.907  1.00  0.00    -0.353 A  
HETATM   17  H   UNL     1     -14.385   6.198  71.817  1.00  0.00     0.000 HD 
HETATM   18  C   UNL     1     -10.735   6.826  70.508  1.00  0.00    -0.277 A  
ENDBRANCH  10  11
ENDBRANCH   9  10
ENDBRANCH   8   9
ENDBRANCH   7   8
ENDBRANCH   5   7
ENDBRANCH   4   5
ENDBRANCH   3   4
BRANCH   3  19
HETATM   19  C   UNL     1     -12.095  14.200  69.998  1.00  0.00    -0.409 A  
HETATM   20  C   UNL     1     -12.994  13.616  70.907  1.00  0.00    -0.256 A  
HETATM   21  H   UNL     1     -12.387  16.807  73.910  1.00  0.00     0.000 HD 
HETATM   22  C   UNL     1     -11.450  15.400  70.358  1.00  0.00    -0.355 A  
HETATM   23  H   UNL     1     -14.261  14.102  73.887  1.00  0.00     0.000 HD 
HETATM   24  C   UNL     1     -13.231  14.221  72.135  1.00  0.00    -0.402 A  
HETATM   25  C   UNL     1     -11.692  16.002  71.594  1.00  0.00    -0.583 A  
HETATM   26  O   UNL     1     -14.099  13.688  73.048  1.00  0.00    -0.389 OA 
HETATM   27  C   UNL     1     -12.584  15.408  72.472  1.00  0.00    -0.385 A  
HETATM   28  O   UNL     1     -12.829  15.998  73.679  1.00  0.00    -0.526 OA 
ENDBRANCH   3  19
TORSDOF 8
ENDMDL
MODEL      104
REMARK 921   NORMALIZED FREE ENERGY PREDICTED BY IDOCK:   -5.36 KCAL/MOL
REMARK 922        TOTAL FREE ENERGY PREDICTED BY IDOCK:   -9.07 KCAL/MOL
REMARK 923 INTER-LIGAND FREE ENERGY PREDICTED BY IDOCK:   -8.20 KCAL/MOL
REMARK 924 INTRA-LIGAND FREE ENERGY PREDICTED BY IDOCK:   -0.87 KCAL/MOL
REMARK 927      BINDING AFFINITY PREDICTED BY RF-SCORE:    0.00 PKD
ROOT
HETATM    1  O   UNL     1     -11.825  13.006  70.605  1.00  0.00    -0.524 OA 
HETATM    2  H   UNL     1     -12.408  13.012  71.356  1.00  0.00     0.000 HD 
HETATM    3  C   UNL     1     -12.080  11.840  69.811  1.00  0.00    -0.269 C  
ENDROOT
BRANCH   3   4
HETATM    4  C   UNL     1     -11.132  11.831  68.589  1.00  0.00    -0.238 C  
BRANCH   4   5
HETATM    5  N   UNL     1     -11.834  11.427  67.350  1.00  0.00    -0.601 NA 
HETATM    6  H   UNL     1     -12.681  11.975  67.196  1.00  0.00     0.000 HD 
BRANCH   5   7
HETATM    7  C   UNL     1     -10.919  11.496  66.206  1.00  0.00    -0.275 C  
BRANCH   7   8
HETATM    8  C   UNL     1     -11.649  12.052  64.981  1.00  0.00    -0.323 C  
BRANCH   8   9
HETATM    9  C   UNL     1     -11.836  13.566  65.105  1.00  0.00    -0.363 C  
BRANCH   9  10
HETATM   10  C   UNL     1     -10.495  14.298  65.202  1.00  0.00    -0.432 C  
BRANCH  10  11
HETATM   11  C   UNL     1     -10.514  15.312  66.320  1.00  0.00    -0.313 A  
HETATM   12  C   UNL     1      -9.615  16.389  66.320  1.00  0.00    -0.338 A  
HETATM   13  C   UNL     1      -9.595  17.298  67.381  1.00  0.00    -0.252 A  
HETATM   14  C   UNL     1     -10.475  17.127  68.445  1.00  0.00    -0.376 A  
HETATM   15  O   UNL     1     -10.477  17.979  69.509  1.00  0.00    -0.351 OA 
HETATM   16  C   UNL     1     -11.378  16.072  68.459  1.00  0.00    -0.382 A  
HETATM   17  H   UNL     1     -11.078  17.862  70.235  1.00  0.00     0.000 HD 
HETATM   18  C   UNL     1     -11.397  15.164  67.399  1.00  0.00    -0.309 A  
ENDBRANCH  10  11
ENDBRANCH   9  10
ENDBRANCH   8   9
ENDBRANCH   7   8
ENDBRANCH   5   7
ENDBRANCH   4   5
ENDBRANCH   3   4
BRANCH   3  19
HETATM   19  C   UNL     1     -11.906  10.592  70.653  1.00  0.00    -0.463 A  
HETATM   20  C   UNL     1     -10.737   9.816  70.580  1.00  0.00    -0.381 A  
HETATM   21  H   UNL     1     -12.251   6.849  73.490  1.00  0.00     0.000 HD 
HETATM   22  C   UNL     1     -12.946  10.174  71.506  1.00  0.00    -0.547 A  
HETATM   23  H   UNL     1      -9.425   7.084  71.821  1.00  0.00     0.000 HD 
HETATM   24  C   UNL     1     -10.622   8.660  71.342  1.00  0.00    -0.264 A  
HETATM   25  C   UNL     1     -12.824   9.011  72.270  1.00  0.00    -0.474 A  
HETATM   26  O   UNL     1      -9.504   7.874  71.299  1.00  0.00    -0.154 OA 
HETATM   27  C   UNL     1     -11.662   8.262  72.179  1.00  0.00    -0.365 A  
HETATM   28  O   UNL     1     -11.542   7.120  72.919  1.00  0.00    -0.201 OA 
ENDBRANCH   3  19
TORSDOF 8
ENDMDL
MODEL      105
REMARK 921   NORMALIZED FREE ENERGY PREDICTED BY IDOCK:   -5.35 KCAL/MOL
REMARK 922        TOTAL FREE ENERGY PREDICTED BY IDOCK:   -9.06 KCAL/MOL
REMARK 923 INTER-LIGAND FREE ENERGY PREDICTED BY IDOCK:   -8.09 KCAL/MOL
REMARK 924 INTRA-LIGAND FREE ENERGY PREDICTED BY IDOCK:   -0.97 KCAL/MOL
REMARK 927      BINDING AFFINITY PREDICTED BY RF-SCORE:    0.00 PKD
ROOT
HETATM    1  O   UNL     1      -8.267  10.966  63.488  1.00  0.00    -0.364 OA 
HETATM    2  H   UNL     1      -8.546  11.095  62.588  1.00  0.00     0.000 HD 
HETATM    3  C   UNL     1      -9.419  10.817  64.328  1.00  0.00    -0.264 C  
ENDROOT
BRANCH   3   4
HETATM    4  C   UNL     1      -8.966  10.608  65.793  1.00  0.00    -0.182 C  
BRANCH   4   5
HETATM    5  N   UNL     1      -7.715  11.340  66.091  1.00  0.00    -0.353 NA 
HETATM    6  H   UNL     1      -7.624  12.187  65.528  1.00  0.00     0.000 HD 
BRANCH   5   7
HETATM    7  C   UNL     1      -7.628  11.624  67.528  1.00  0.00    -0.128 C  
BRANCH   7   8
HETATM    8  C   UNL     1      -9.016  11.535  68.166  1.00  0.00    -0.172 C  
BRANCH   8   9
HETATM    9  C   UNL     1      -9.646  12.925  68.287  1.00  0.00    -0.212 C  
BRANCH   9  10
HETATM   10  C   UNL     1     -11.162  12.882  68.079  1.00  0.00    -0.305 C  
BRANCH  10  11
HETATM   11  C   UNL     1     -11.890  12.968  69.398  1.00  0.00    -0.380 A  
HETATM   12  C   UNL     1     -12.140  11.811  70.150  1.00  0.00    -0.398 A  
HETATM   13  C   UNL     1     -12.861  11.882  71.345  1.00  0.00    -0.411 A  
HETATM   14  C   UNL     1     -13.335  13.113  71.785  1.00  0.00    -0.389 A  
HETATM   15  O   UNL     1     -14.059  13.226  72.935  1.00  0.00    -0.638 OA 
HETATM   16  C   UNL     1     -13.091  14.271  71.059  1.00  0.00    -0.394 A  
HETATM   17  H   UNL     1     -14.383  14.066  73.236  1.00  0.00     0.000 HD 
HETATM   18  C   UNL     1     -12.371  14.199  69.865  1.00  0.00    -0.382 A  
ENDBRANCH  10  11
ENDBRANCH   9  10
ENDBRANCH   8   9
ENDBRANCH   7   8
ENDBRANCH   5   7
ENDBRANCH   4   5
ENDBRANCH   3   4
BRANCH   3  19
HETATM   19  C   UNL     1     -10.316  12.031  64.196  1.00  0.00    -0.381 A  
HETATM   20  C   UNL     1      -9.950  13.274  64.740  1.00  0.00    -0.150 A  
HETATM   21  H   UNL     1     -13.716  15.202  63.447  1.00  0.00     0.000 HD 
HETATM   22  C   UNL     1     -11.561  11.913  63.547  1.00  0.00    -0.537 A  
HETATM   23  H   UNL     1     -11.085  16.329  65.070  1.00  0.00     0.000 HD 
HETATM   24  C   UNL     1     -10.811  14.360  64.629  1.00  0.00    -0.346 A  
HETATM   25  C   UNL     1     -12.420  13.009  63.439  1.00  0.00    -0.359 A  
HETATM   26  O   UNL     1     -10.497  15.587  65.146  1.00  0.00    -0.393 OA 
HETATM   27  C   UNL     1     -12.038  14.224  63.985  1.00  0.00    -0.316 A  
HETATM   28  O   UNL     1     -12.880  15.295  63.887  1.00  0.00    -0.637 OA 
ENDBRANCH   3  19
TORSDOF 8
ENDMDL
MODEL      106
REMARK 921   NORMALIZED FREE ENERGY PREDICTED BY IDOCK:   -5.34 KCAL/MOL
REMARK 922        TOTAL FREE ENERGY PREDICTED BY IDOCK:   -9.04 KCAL/MOL
REMARK 923 INTER-LIGAND FREE ENERGY PREDICTED BY IDOCK:   -8.34 KCAL/MOL
REMARK 924 INTRA-LIGAND FREE ENERGY PREDICTED BY IDOCK:   -0.70 KCAL/MOL
REMARK 927      BINDING AFFINITY PREDICTED BY RF-SCORE:    0.00 PKD
ROOT
HETATM    1  O   UNL     1     -11.301   5.795  66.388  1.00  0.00    -0.723 OA 
HETATM    2  H   UNL     1     -11.040   4.882  66.435  1.00  0.00     0.000 HD 
HETATM    3  C   UNL     1     -10.453   6.580  67.235  1.00  0.00    -0.272 C  
ENDROOT
BRANCH   3   4
HETATM    4  C   UNL     1     -10.878   8.066  67.158  1.00  0.00    -0.080 C  
BRANCH   4   5
HETATM    5  N   UNL     1      -9.821   8.910  66.558  1.00  0.00    -0.253 NA 
HETATM    6  H   UNL     1      -9.754   8.779  65.548  1.00  0.00     0.000 HD 
BRANCH   5   7
HETATM    7  C   UNL     1     -10.034  10.316  66.917  1.00  0.00    -0.208 C  
BRANCH   7   8
HETATM    8  C   UNL     1     -10.959  10.414  68.132  1.00  0.00    -0.334 C  
BRANCH   8   9
HETATM    9  C   UNL     1     -11.643  11.782  68.183  1.00  0.00    -0.391 C  
BRANCH   9  10
HETATM   10  C   UNL     1     -10.628  12.927  68.136  1.00  0.00    -0.249 C  
BRANCH  10  11
HETATM   11  C   UNL     1     -10.861  13.805  66.931  1.00  0.00    -0.286 A  
HETATM   12  C   UNL     1      -9.905  14.758  66.550  1.00  0.00    -0.287 A  
HETATM   13  C   UNL     1     -10.142  15.608  65.467  1.00  0.00    -0.395 A  
HETATM   14  C   UNL     1     -11.340  15.506  64.767  1.00  0.00    -0.357 A  
HETATM   15  O   UNL     1     -11.620  16.328  63.716  1.00  0.00    -1.539 OA 
HETATM   16  C   UNL     1     -12.295  14.564  65.124  1.00  0.00    -0.324 A  
HETATM   17  H   UNL     1     -12.438  16.259  63.239  1.00  0.00     0.000 HD 
HETATM   18  C   UNL     1     -12.057  13.715  66.207  1.00  0.00    -0.477 A  
ENDBRANCH  10  11
ENDBRANCH   9  10
ENDBRANCH   8   9
ENDBRANCH   7   8
ENDBRANCH   5   7
ENDBRANCH   4   5
ENDBRANCH   3   4
BRANCH   3  19
HETATM   19  C   UNL     1     -10.521   6.061  68.658  1.00  0.00    -0.297 A  
HETATM   20  C   UNL     1     -11.383   6.637  69.607  1.00  0.00    -0.387 A  
HETATM   21  H   UNL     1     -10.003   3.938  72.829  1.00  0.00     0.000 HD 
HETATM   22  C   UNL     1      -9.681   5.003  69.056  1.00  0.00    -0.238 A  
HETATM   23  H   UNL     1     -12.227   6.362  72.760  1.00  0.00     0.000 HD 
HETATM   24  C   UNL     1     -11.396   6.158  70.912  1.00  0.00    -0.287 A  
HETATM   25  C   UNL     1      -9.700   4.526  70.369  1.00  0.00    -0.287 A  
HETATM   26  O   UNL     1     -12.217   6.690  71.868  1.00  0.00    -0.336 OA 
HETATM   27  C   UNL     1     -10.558   5.111  71.287  1.00  0.00    -0.133 A  
HETATM   28  O   UNL     1     -10.575   4.652  72.573  1.00  0.00    -0.200 OA 
ENDBRANCH   3  19
TORSDOF 8
ENDMDL
MODEL      107
REMARK 921   NORMALIZED FREE ENERGY PREDICTED BY IDOCK:   -5.33 KCAL/MOL
REMARK 922        TOTAL FREE ENERGY PREDICTED BY IDOCK:   -9.03 KCAL/MOL
REMARK 923 INTER-LIGAND FREE ENERGY PREDICTED BY IDOCK:   -7.31 KCAL/MOL
REMARK 924 INTRA-LIGAND FREE ENERGY PREDICTED BY IDOCK:   -1.73 KCAL/MOL
REMARK 927      BINDING AFFINITY PREDICTED BY RF-SCORE:    0.00 PKD
ROOT
HETATM    1  O   UNL     1     -13.962  13.613  72.678  1.00  0.00    -0.733 OA 
HETATM    2  H   UNL     1     -14.670  12.980  72.664  1.00  0.00     0.000 HD 
HETATM    3  C   UNL     1     -13.273  13.590  71.422  1.00  0.00    -0.271 C  
ENDROOT
BRANCH   3   4
HETATM    4  C   UNL     1     -12.120  14.622  71.445  1.00  0.00    -0.355 C  
BRANCH   4   5
HETATM    5  N   UNL     1     -12.442  15.825  70.646  1.00  0.00    -0.437 NA 
HETATM    6  H   UNL     1     -11.962  16.655  70.994  1.00  0.00     0.000 HD 
BRANCH   5   7
HETATM    7  C   UNL     1     -12.157  15.579  69.228  1.00  0.00    -0.259 C  
BRANCH   7   8
HETATM    8  C   UNL     1     -10.648  15.445  69.011  1.00  0.00    -0.247 C  
BRANCH   8   9
HETATM    9  C   UNL     1     -10.353  14.632  67.749  1.00  0.00    -0.237 C  
BRANCH   9  10
HETATM   10  C   UNL     1      -9.060  13.824  67.882  1.00  0.00    -0.193 C  
BRANCH  10  11
HETATM   11  C   UNL     1      -9.203  12.466  67.238  1.00  0.00    -0.187 A  
HETATM   12  C   UNL     1     -10.135  12.261  66.209  1.00  0.00    -0.253 A  
HETATM   13  C   UNL     1     -10.307  10.994  65.649  1.00  0.00    -0.311 A  
HETATM   14  C   UNL     1      -9.548   9.928  66.122  1.00  0.00    -0.218 A  
HETATM   15  O   UNL     1      -9.697   8.670  65.616  1.00  0.00    -0.456 OA 
HETATM   16  C   UNL     1      -8.615  10.113  67.134  1.00  0.00    -0.125 A  
HETATM   17  H   UNL     1      -9.179   7.943  65.940  1.00  0.00     0.000 HD 
HETATM   18  C   UNL     1      -8.444  11.380  67.693  1.00  0.00    -0.130 A  
ENDBRANCH  10  11
ENDBRANCH   9  10
ENDBRANCH   8   9
ENDBRANCH   7   8
ENDBRANCH   5   7
ENDBRANCH   4   5
ENDBRANCH   3   4
BRANCH   3  19
HETATM   19  C   UNL     1     -12.756  12.193  71.141  1.00  0.00    -0.351 A  
HETATM   20  C   UNL     1     -13.083  11.110  71.975  1.00  0.00    -0.433 A  
HETATM   21  H   UNL     1     -10.638   8.270  69.625  1.00  0.00     0.000 HD 
HETATM   22  C   UNL     1     -11.901  11.972  70.044  1.00  0.00    -0.392 A  
HETATM   23  H   UNL     1     -12.503   7.904  72.311  1.00  0.00     0.000 HD 
HETATM   24  C   UNL     1     -12.566   9.848  71.708  1.00  0.00    -0.414 A  
HETATM   25  C   UNL     1     -11.386  10.701  69.781  1.00  0.00    -0.371 A  
HETATM   26  O   UNL     1     -12.856   8.767  72.494  1.00  0.00    -0.399 OA 
HETATM   27  C   UNL     1     -11.721   9.649  70.618  1.00  0.00    -0.280 A  
HETATM   28  O   UNL     1     -11.214   8.406  70.368  1.00  0.00    -0.256 OA 
ENDBRANCH   3  19
TORSDOF 8
ENDMDL
MODEL      108
REMARK 921   NORMALIZED FREE ENERGY PREDICTED BY IDOCK:   -5.30 KCAL/MOL
REMARK 922        TOTAL FREE ENERGY PREDICTED BY IDOCK:   -8.98 KCAL/MOL
REMARK 923 INTER-LIGAND FREE ENERGY PREDICTED BY IDOCK:   -7.66 KCAL/MOL
REMARK 924 INTRA-LIGAND FREE ENERGY PREDICTED BY IDOCK:   -1.33 KCAL/MOL
REMARK 927      BINDING AFFINITY PREDICTED BY RF-SCORE:    0.00 PKD
ROOT
HETATM    1  O   UNL     1     -11.885  14.315  66.742  1.00  0.00    -0.393 OA 
HETATM    2  H   UNL     1     -12.809  14.091  66.711  1.00  0.00     0.000 HD 
HETATM    3  C   UNL     1     -11.202  13.406  67.615  1.00  0.00    -0.276 C  
ENDROOT
BRANCH   3   4
HETATM    4  C   UNL     1      -9.699  13.771  67.666  1.00  0.00    -0.227 C  
BRANCH   4   5
HETATM    5  N   UNL     1      -8.958  13.210  66.515  1.00  0.00    -0.436 NA 
HETATM    6  H   UNL     1      -7.951  13.200  66.678  1.00  0.00     0.000 HD 
BRANCH   5   7
HETATM    7  C   UNL     1      -9.474  11.877  66.185  1.00  0.00    -0.231 C  
BRANCH   7   8
HETATM    8  C   UNL     1      -8.769  10.815  67.034  1.00  0.00    -0.136 C  
BRANCH   8   9
HETATM    9  C   UNL     1      -9.706   9.638  67.314  1.00  0.00    -0.213 C  
BRANCH   9  10
HETATM   10  C   UNL     1      -9.064   8.611  68.250  1.00  0.00    -0.141 C  
BRANCH  10  11
HETATM   11  C   UNL     1      -9.910   8.402  69.483  1.00  0.00    -0.181 A  
HETATM   12  C   UNL     1     -10.824   7.340  69.546  1.00  0.00    -0.224 A  
HETATM   13  C   UNL     1     -11.646   7.177  70.664  1.00  0.00    -0.354 A  
HETATM   14  C   UNL     1     -11.555   8.080  71.718  1.00  0.00    -0.285 A  
HETATM   15  O   UNL     1     -12.351   7.969  72.819  1.00  0.00    -0.605 OA 
HETATM   16  C   UNL     1     -10.650   9.132  71.677  1.00  0.00    -0.427 A  
HETATM   17  H   UNL     1     -12.289   8.586  73.539  1.00  0.00     0.000 HD 
HETATM   18  C   UNL     1      -9.829   9.295  70.559  1.00  0.00    -0.310 A  
ENDBRANCH  10  11
ENDBRANCH   9  10
ENDBRANCH   8   9
ENDBRANCH   7   8
ENDBRANCH   5   7
ENDBRANCH   4   5
ENDBRANCH   3   4
BRANCH   3  19
HETATM   19  C   UNL     1     -11.826  13.448  68.996  1.00  0.00    -0.378 A  
HETATM   20  C   UNL     1     -12.181  14.665  69.603  1.00  0.00    -0.325 A  
HETATM   21  H   UNL     1     -13.570  12.676  73.302  1.00  0.00     0.000 HD 
HETATM   22  C   UNL     1     -12.028  12.250  69.708  1.00  0.00    -0.365 A  
HETATM   23  H   UNL     1     -13.449  15.835  72.387  1.00  0.00     0.000 HD 
HETATM   24  C   UNL     1     -12.722  14.670  70.883  1.00  0.00    -0.348 A  
HETATM   25  C   UNL     1     -12.572  12.262  70.994  1.00  0.00    -0.352 A  
HETATM   26  O   UNL     1     -13.079  15.831  71.512  1.00  0.00    -0.484 OA 
HETATM   27  C   UNL     1     -12.913  13.475  71.572  1.00  0.00    -0.355 A  
HETATM   28  O   UNL     1     -13.439  13.491  72.832  1.00  0.00    -0.611 OA 
ENDBRANCH   3  19
TORSDOF 8
ENDMDL
MODEL      109
REMARK 921   NORMALIZED FREE ENERGY PREDICTED BY IDOCK:   -5.30 KCAL/MOL
REMARK 922        TOTAL FREE ENERGY PREDICTED BY IDOCK:   -8.98 KCAL/MOL
REMARK 923 INTER-LIGAND FREE ENERGY PREDICTED BY IDOCK:   -7.91 KCAL/MOL
REMARK 924 INTRA-LIGAND FREE ENERGY PREDICTED BY IDOCK:   -1.06 KCAL/MOL
REMARK 927      BINDING AFFINITY PREDICTED BY RF-SCORE:    0.00 PKD
ROOT
HETATM    1  O   UNL     1     -11.609   6.477  66.842  1.00  0.00    -0.725 OA 
HETATM    2  H   UNL     1     -12.125   5.687  66.951  1.00  0.00     0.000 HD 
HETATM    3  C   UNL     1     -10.385   6.356  67.579  1.00  0.00    -0.196 C  
ENDROOT
BRANCH   3   4
HETATM    4  C   UNL     1      -9.545   7.643  67.401  1.00  0.00    -0.147 C  
BRANCH   4   5
HETATM    5  N   UNL     1     -10.267   8.666  66.612  1.00  0.00    -0.289 NA 
HETATM    6  H   UNL     1     -11.273   8.495  66.594  1.00  0.00     0.000 HD 
BRANCH   5   7
HETATM    7  C   UNL     1      -9.948  10.007  67.114  1.00  0.00    -0.201 C  
BRANCH   7   8
HETATM    8  C   UNL     1     -10.287  10.105  68.604  1.00  0.00    -0.208 C  
BRANCH   8   9
HETATM    9  C   UNL     1     -11.686  10.692  68.802  1.00  0.00    -0.259 C  
BRANCH   9  10
HETATM   10  C   UNL     1     -12.081  10.732  70.281  1.00  0.00    -0.433 C  
BRANCH  10  11
HETATM   11  C   UNL     1     -12.403  12.142  70.715  1.00  0.00    -0.391 A  
HETATM   12  C   UNL     1     -11.912  13.239  69.992  1.00  0.00    -0.399 A  
HETATM   13  C   UNL     1     -12.163  14.543  70.422  1.00  0.00    -0.394 A  
HETATM   14  C   UNL     1     -12.905  14.750  71.581  1.00  0.00    -0.332 A  
HETATM   15  O   UNL     1     -13.159  16.006  72.048  1.00  0.00    -0.430 OA 
HETATM   16  C   UNL     1     -13.407  13.677  72.306  1.00  0.00    -0.622 A  
HETATM   17  H   UNL     1     -13.665  16.147  72.839  1.00  0.00     0.000 HD 
HETATM   18  C   UNL     1     -13.154  12.373  71.875  1.00  0.00    -0.471 A  
ENDBRANCH  10  11
ENDBRANCH   9  10
ENDBRANCH   8   9
ENDBRANCH   7   8
ENDBRANCH   5   7
ENDBRANCH   4   5
ENDBRANCH   3   4
BRANCH   3  19
HETATM   19  C   UNL     1     -10.686   6.091  69.040  1.00  0.00    -0.393 A  
HETATM   20  C   UNL     1     -11.659   6.832  69.733  1.00  0.00    -0.284 A  
HETATM   21  H   UNL     1     -10.884   4.715  73.539  1.00  0.00     0.000 HD 
HETATM   22  C   UNL     1      -9.956   5.109  69.737  1.00  0.00    -0.313 A  
HETATM   23  H   UNL     1     -12.980   7.115  72.717  1.00  0.00     0.000 HD 
HETATM   24  C   UNL     1     -11.888   6.585  71.082  1.00  0.00    -0.325 A  
HETATM   25  C   UNL     1     -10.192   4.866  71.092  1.00  0.00    -0.261 A  
HETATM   26  O   UNL     1     -12.823   7.284  71.795  1.00  0.00    -0.339 OA 
HETATM   27  C   UNL     1     -11.155   5.610  71.754  1.00  0.00    -0.199 A  
HETATM   28  O   UNL     1     -11.383   5.380  73.081  1.00  0.00    -0.302 OA 
ENDBRANCH   3  19
TORSDOF 8
ENDMDL
MODEL      110
REMARK 921   NORMALIZED FREE ENERGY PREDICTED BY IDOCK:   -5.30 KCAL/MOL
REMARK 922        TOTAL FREE ENERGY PREDICTED BY IDOCK:   -8.97 KCAL/MOL
REMARK 923 INTER-LIGAND FREE ENERGY PREDICTED BY IDOCK:   -7.57 KCAL/MOL
REMARK 924 INTRA-LIGAND FREE ENERGY PREDICTED BY IDOCK:   -1.40 KCAL/MOL
REMARK 927      BINDING AFFINITY PREDICTED BY RF-SCORE:    0.00 PKD
ROOT
HETATM    1  O   UNL     1      -6.928  18.969  65.034  1.00  0.00    -0.451 OA 
HETATM    2  H   UNL     1      -6.468  18.236  64.640  1.00  0.00     0.000 HD 
HETATM    3  C   UNL     1      -6.311  19.306  66.283  1.00  0.00    -0.180 C  
ENDROOT
BRANCH   3   4
HETATM    4  C   UNL     1      -7.060  20.499  66.923  1.00  0.00    -0.290 C  
BRANCH   4   5
HETATM    5  N   UNL     1      -8.471  20.562  66.484  1.00  0.00    -0.542 NA 
HETATM    6  H   UNL     1      -8.617  20.080  65.597  1.00  0.00     0.000 HD 
BRANCH   5   7
HETATM    7  C   UNL     1      -9.350  20.047  67.540  1.00  0.00    -0.367 C  
BRANCH   7   8
HETATM    8  C   UNL     1     -10.534  19.300  66.920  1.00  0.00    -0.547 C  
BRANCH   8   9
HETATM    9  C   UNL     1     -10.071  17.991  66.278  1.00  0.00    -0.363 C  
BRANCH   9  10
HETATM   10  C   UNL     1     -10.326  16.788  67.191  1.00  0.00    -0.297 C  
BRANCH  10  11
HETATM   11  C   UNL     1     -11.022  15.679  66.440  1.00  0.00    -0.197 A  
HETATM   12  C   UNL     1     -11.032  15.666  65.037  1.00  0.00    -0.445 A  
HETATM   13  C   UNL     1     -11.720  14.670  64.341  1.00  0.00    -0.358 A  
HETATM   14  C   UNL     1     -12.404  13.688  65.050  1.00  0.00    -0.427 A  
HETATM   15  O   UNL     1     -13.105  12.708  64.411  1.00  0.00    -0.752 OA 
HETATM   16  C   UNL     1     -12.399  13.679  66.439  1.00  0.00    -0.441 A  
HETATM   17  H   UNL     1     -13.572  12.038  64.895  1.00  0.00     0.000 HD 
HETATM   18  C   UNL     1     -11.711  14.675  67.134  1.00  0.00    -0.392 A  
ENDBRANCH  10  11
ENDBRANCH   9  10
ENDBRANCH   8   9
ENDBRANCH   7   8
ENDBRANCH   5   7
ENDBRANCH   4   5
ENDBRANCH   3   4
BRANCH   3  19
HETATM   19  C   UNL     1      -6.309  18.100  67.200  1.00  0.00    -0.187 A  
HETATM   20  C   UNL     1      -5.857  18.190  68.528  1.00  0.00    -0.184 A  
HETATM   21  H   UNL     1      -6.526  13.884  69.288  1.00  0.00     0.000 HD 
HETATM   22  C   UNL     1      -6.736  16.850  66.712  1.00  0.00    -0.262 A  
HETATM   23  H   UNL     1      -5.391  16.326  71.180  1.00  0.00     0.000 HD 
HETATM   24  C   UNL     1      -5.838  17.058  69.333  1.00  0.00    -0.202 A  
HETATM   25  C   UNL     1      -6.715  15.716  67.527  1.00  0.00    -0.221 A  
HETATM   26  O   UNL     1      -5.404  17.100  70.629  1.00  0.00    -0.240 OA 
HETATM   27  C   UNL     1      -6.263  15.830  68.832  1.00  0.00    -0.114 A  
HETATM   28  O   UNL     1      -6.235  14.722  69.630  1.00  0.00    -0.113 OA 
ENDBRANCH   3  19
TORSDOF 8
ENDMDL
MODEL      111
REMARK 921   NORMALIZED FREE ENERGY PREDICTED BY IDOCK:   -5.29 KCAL/MOL
REMARK 922        TOTAL FREE ENERGY PREDICTED BY IDOCK:   -8.97 KCAL/MOL
REMARK 923 INTER-LIGAND FREE ENERGY PREDICTED BY IDOCK:   -7.90 KCAL/MOL
REMARK 924 INTRA-LIGAND FREE ENERGY PREDICTED BY IDOCK:   -1.07 KCAL/MOL
REMARK 927      BINDING AFFINITY PREDICTED BY RF-SCORE:    0.00 PKD
ROOT
HETATM    1  O   UNL     1     -11.911  15.704  63.473  1.00  0.00    -0.776 OA 
HETATM    2  H   UNL     1     -12.070  16.600  63.750  1.00  0.00     0.000 HD 
HETATM    3  C   UNL     1     -12.151  14.814  64.571  1.00  0.00    -0.446 C  
ENDROOT
BRANCH   3   4
HETATM    4  C   UNL     1     -11.892  13.357  64.120  1.00  0.00    -0.442 C  
BRANCH   4   5
HETATM    5  N   UNL     1     -10.506  13.169  63.637  1.00  0.00    -0.523 NA 
HETATM    6  H   UNL     1      -9.889  13.922  63.943  1.00  0.00     0.000 HD 
BRANCH   5   7
HETATM    7  C   UNL     1     -10.006  11.850  64.041  1.00  0.00    -0.293 C  
BRANCH   7   8
HETATM    8  C   UNL     1     -11.006  11.175  64.983  1.00  0.00    -0.174 C  
BRANCH   8   9
HETATM    9  C   UNL     1     -10.437  11.086  66.401  1.00  0.00    -0.312 C  
BRANCH   9  10
HETATM   10  C   UNL     1     -11.485  11.444  67.457  1.00  0.00    -0.336 C  
BRANCH  10  11
HETATM   11  C   UNL     1     -11.175  10.774  68.774  1.00  0.00    -0.331 A  
HETATM   12  C   UNL     1      -9.978  10.063  68.947  1.00  0.00    -0.198 A  
HETATM   13  C   UNL     1      -9.714   9.398  70.145  1.00  0.00    -0.274 A  
HETATM   14  C   UNL     1     -10.652   9.440  71.172  1.00  0.00    -0.333 A  
HETATM   15  O   UNL     1     -10.443   8.789  72.352  1.00  0.00    -0.305 OA 
HETATM   16  C   UNL     1     -11.838  10.145  71.024  1.00  0.00    -0.475 A  
HETATM   17  H   UNL     1     -11.083   8.818  73.053  1.00  0.00     0.000 HD 
HETATM   18  C   UNL     1     -12.102  10.810  69.824  1.00  0.00    -0.389 A  
ENDBRANCH  10  11
ENDBRANCH   9  10
ENDBRANCH   8   9
ENDBRANCH   7   8
ENDBRANCH   5   7
ENDBRANCH   4   5
ENDBRANCH   3   4
BRANCH   3  19
HETATM   19  C   UNL     1     -11.270  15.193  65.745  1.00  0.00    -0.287 A  
HETATM   20  C   UNL     1     -11.515  14.693  67.035  1.00  0.00    -0.379 A  
HETATM   21  H   UNL     1      -8.155  16.966  68.799  1.00  0.00     0.000 HD 
HETATM   22  C   UNL     1     -10.202  16.091  65.556  1.00  0.00    -0.389 A  
HETATM   23  H   UNL     1     -10.359  14.894  70.093  1.00  0.00     0.000 HD 
HETATM   24  C   UNL     1     -10.707  15.086  68.096  1.00  0.00    -0.256 A  
HETATM   25  C   UNL     1      -9.394  16.481  66.626  1.00  0.00    -0.279 A  
HETATM   26  O   UNL     1     -10.912  14.626  69.368  1.00  0.00    -0.248 OA 
HETATM   27  C   UNL     1      -9.656  15.976  67.889  1.00  0.00    -0.219 A  
HETATM   28  O   UNL     1      -8.872  16.360  68.940  1.00  0.00    -0.241 OA 
ENDBRANCH   3  19
TORSDOF 8
ENDMDL
MODEL      112
REMARK 921   NORMALIZED FREE ENERGY PREDICTED BY IDOCK:   -5.26 KCAL/MOL
REMARK 922        TOTAL FREE ENERGY PREDICTED BY IDOCK:   -8.92 KCAL/MOL
REMARK 923 INTER-LIGAND FREE ENERGY PREDICTED BY IDOCK:   -7.19 KCAL/MOL
REMARK 924 INTRA-LIGAND FREE ENERGY PREDICTED BY IDOCK:   -1.73 KCAL/MOL
REMARK 927      BINDING AFFINITY PREDICTED BY RF-SCORE:    0.00 PKD
ROOT
HETATM    1  O   UNL     1     -11.289  17.253  64.308  1.00  0.00    -1.027 OA 
HETATM    2  H   UNL     1     -11.681  18.085  64.547  1.00  0.00     0.000 HD 
HETATM    3  C   UNL     1     -10.923  16.538  65.495  1.00  0.00    -0.092 C  
ENDROOT
BRANCH   3   4
HETATM    4  C   UNL     1     -10.286  15.183  65.106  1.00  0.00    -0.351 C  
BRANCH   4   5
HETATM    5  N   UNL     1     -11.147  14.415  64.179  1.00  0.00    -0.549 NA 
HETATM    6  H   UNL     1     -10.623  13.702  63.672  1.00  0.00     0.000 HD 
BRANCH   5   7
HETATM    7  C   UNL     1     -12.288  13.847  64.906  1.00  0.00    -0.420 C  
BRANCH   7   8
HETATM    8  C   UNL     1     -12.056  12.355  65.163  1.00  0.00    -0.464 C  
BRANCH   8   9
HETATM    9  C   UNL     1     -11.737  12.105  66.639  1.00  0.00    -0.385 C  
BRANCH   9  10
HETATM   10  C   UNL     1     -10.249  11.818  66.857  1.00  0.00    -0.236 C  
BRANCH  10  11
HETATM   11  C   UNL     1      -9.572  12.976  67.548  1.00  0.00    -0.204 A  
HETATM   12  C   UNL     1      -8.194  13.191  67.392  1.00  0.00    -0.187 A  
HETATM   13  C   UNL     1      -7.556  14.230  68.073  1.00  0.00    -0.144 A  
HETATM   14  C   UNL     1      -8.297  15.054  68.913  1.00  0.00    -0.183 A  
HETATM   15  O   UNL     1      -7.711  16.069  69.610  1.00  0.00    -0.152 OA 
HETATM   16  C   UNL     1      -9.663  14.863  69.073  1.00  0.00    -0.212 A  
HETATM   17  H   UNL     1      -8.218  16.632  70.184  1.00  0.00     0.000 HD 
HETATM   18  C   UNL     1     -10.300  13.824  68.393  1.00  0.00    -0.247 A  
ENDBRANCH  10  11
ENDBRANCH   9  10
ENDBRANCH   8   9
ENDBRANCH   7   8
ENDBRANCH   5   7
ENDBRANCH   4   5
ENDBRANCH   3   4
BRANCH   3  19
HETATM   19  C   UNL     1      -9.974  17.373  66.330  1.00  0.00    -0.322 A  
HETATM   20  C   UNL     1      -8.583  17.311  66.141  1.00  0.00    -0.207 A  
HETATM   21  H   UNL     1      -7.782  20.178  69.414  1.00  0.00     0.000 HD 
HETATM   22  C   UNL     1     -10.485  18.207  67.344  1.00  0.00    -0.414 A  
HETATM   23  H   UNL     1      -5.803  18.552  67.348  1.00  0.00     0.000 HD 
HETATM   24  C   UNL     1      -7.739  18.067  66.946  1.00  0.00    -0.223 A  
HETATM   25  C   UNL     1      -9.631  18.965  68.149  1.00  0.00    -0.386 A  
HETATM   26  O   UNL     1      -6.380  18.035  66.798  1.00  0.00    -0.165 OA 
HETATM   27  C   UNL     1      -8.263  18.885  67.944  1.00  0.00    -0.277 A  
HETATM   28  O   UNL     1      -7.425  19.619  68.734  1.00  0.00    -0.339 OA 
ENDBRANCH   3  19
TORSDOF 8
ENDMDL
MODEL      113
REMARK 921   NORMALIZED FREE ENERGY PREDICTED BY IDOCK:   -5.25 KCAL/MOL
REMARK 922        TOTAL FREE ENERGY PREDICTED BY IDOCK:   -8.91 KCAL/MOL
REMARK 923 INTER-LIGAND FREE ENERGY PREDICTED BY IDOCK:   -8.01 KCAL/MOL
REMARK 924 INTRA-LIGAND FREE ENERGY PREDICTED BY IDOCK:   -0.90 KCAL/MOL
REMARK 927      BINDING AFFINITY PREDICTED BY RF-SCORE:    0.00 PKD
ROOT
HETATM    1  O   UNL     1      -9.742   6.204  68.765  1.00  0.00    -0.126 OA 
HETATM    2  H   UNL     1      -9.992   5.560  69.418  1.00  0.00     0.000 HD 
HETATM    3  C   UNL     1      -9.509   7.467  69.401  1.00  0.00    -0.155 C  
ENDROOT
BRANCH   3   4
HETATM    4  C   UNL     1      -9.102   8.514  68.337  1.00  0.00    -0.139 C  
BRANCH   4   5
HETATM    5  N   UNL     1      -7.784   9.117  68.634  1.00  0.00    -0.091 NA 
HETATM    6  H   UNL     1      -7.037   8.693  68.083  1.00  0.00     0.000 HD 
BRANCH   5   7
HETATM    7  C   UNL     1      -7.843  10.572  68.453  1.00  0.00    -0.110 C  
BRANCH   7   8
HETATM    8  C   UNL     1      -8.876  10.926  67.382  1.00  0.00    -0.133 C  
BRANCH   8   9
HETATM    9  C   UNL     1      -9.883  11.946  67.918  1.00  0.00    -0.190 C  
BRANCH   9  10
HETATM   10  C   UNL     1     -11.186  11.936  67.115  1.00  0.00    -0.377 C  
BRANCH  10  11
HETATM   11  C   UNL     1     -11.301  13.171  66.255  1.00  0.00    -0.348 A  
HETATM   12  C   UNL     1     -12.494  13.457  65.575  1.00  0.00    -0.534 A  
HETATM   13  C   UNL     1     -12.584  14.571  64.737  1.00  0.00    -0.232 A  
HETATM   14  C   UNL     1     -11.477  15.398  64.577  1.00  0.00    -0.311 A  
HETATM   15  O   UNL     1     -11.515  16.484  63.754  1.00  0.00    -1.615 OA 
HETATM   16  C   UNL     1     -10.290  15.136  65.248  1.00  0.00    -0.425 A  
HETATM   17  H   UNL     1     -10.759  17.049  63.645  1.00  0.00     0.000 HD 
HETATM   18  C   UNL     1     -10.200  14.022  66.085  1.00  0.00    -0.308 A  
ENDBRANCH  10  11
ENDBRANCH   9  10
ENDBRANCH   8   9
ENDBRANCH   7   8
ENDBRANCH   5   7
ENDBRANCH   4   5
ENDBRANCH   3   4
BRANCH   3  19
HETATM   19  C   UNL     1     -10.748   7.902  70.157  1.00  0.00    -0.244 A  
HETATM   20  C   UNL     1     -11.028   9.261  70.384  1.00  0.00    -0.302 A  
HETATM   21  H   UNL     1     -14.701   8.353  72.676  1.00  0.00     0.000 HD 
HETATM   22  C   UNL     1     -11.627   6.931  70.676  1.00  0.00    -0.402 A  
HETATM   23  H   UNL     1     -13.237  11.183  71.851  1.00  0.00     0.000 HD 
HETATM   24  C   UNL     1     -12.157   9.624  71.109  1.00  0.00    -0.362 A  
HETATM   25  C   UNL     1     -12.760   7.304  71.402  1.00  0.00    -0.427 A  
HETATM   26  O   UNL     1     -12.465  10.934  71.356  1.00  0.00    -0.367 OA 
HETATM   27  C   UNL     1     -13.013   8.650  71.615  1.00  0.00    -0.344 A  
HETATM   28  O   UNL     1     -14.117   9.018  72.331  1.00  0.00    -0.469 OA 
ENDBRANCH   3  19
TORSDOF 8
ENDMDL
MODEL      114
REMARK 921   NORMALIZED FREE ENERGY PREDICTED BY IDOCK:   -5.24 KCAL/MOL
REMARK 922        TOTAL FREE ENERGY PREDICTED BY IDOCK:   -8.90 KCAL/MOL
REMARK 923 INTER-LIGAND FREE ENERGY PREDICTED BY IDOCK:   -7.59 KCAL/MOL
REMARK 924 INTRA-LIGAND FREE ENERGY PREDICTED BY IDOCK:   -1.31 KCAL/MOL
REMARK 927      BINDING AFFINITY PREDICTED BY RF-SCORE:    0.00 PKD
ROOT
HETATM    1  O   UNL     1      -9.012   8.176  69.013  1.00  0.00    -0.143 OA 
HETATM    2  H   UNL     1      -8.509   8.592  69.704  1.00  0.00     0.000 HD 
HETATM    3  C   UNL     1      -9.826   9.156  68.357  1.00  0.00    -0.164 C  
ENDROOT
BRANCH   3   4
HETATM    4  C   UNL     1     -10.644   8.478  67.232  1.00  0.00    -0.245 C  
BRANCH   4   5
HETATM    5  N   UNL     1      -9.950   8.550  65.927  1.00  0.00    -0.432 NA 
HETATM    6  H   UNL     1     -10.562   8.287  65.154  1.00  0.00     0.000 HD 
BRANCH   5   7
HETATM    7  C   UNL     1      -9.370   9.885  65.738  1.00  0.00    -0.204 C  
BRANCH   7   8
HETATM    8  C   UNL     1     -10.234  10.702  64.775  1.00  0.00    -0.401 C  
BRANCH   8   9
HETATM    9  C   UNL     1     -10.905  11.867  65.507  1.00  0.00    -0.343 C  
BRANCH   9  10
HETATM   10  C   UNL     1     -10.699  13.194  64.772  1.00  0.00    -0.381 C  
BRANCH  10  11
HETATM   11  C   UNL     1     -10.719  14.354  65.738  1.00  0.00    -0.312 A  
HETATM   12  C   UNL     1     -10.041  15.544  65.435  1.00  0.00    -0.387 A  
HETATM   13  C   UNL     1     -10.014  16.598  66.351  1.00  0.00    -0.316 A  
HETATM   14  C   UNL     1     -10.664  16.459  67.573  1.00  0.00    -0.298 A  
HETATM   15  O   UNL     1     -10.647  17.456  68.504  1.00  0.00    -0.364 OA 
HETATM   16  C   UNL     1     -11.347  15.292  67.888  1.00  0.00    -0.339 A  
HETATM   17  H   UNL     1     -11.090  17.361  69.338  1.00  0.00     0.000 HD 
HETATM   18  C   UNL     1     -11.373  14.238  66.972  1.00  0.00    -0.354 A  
ENDBRANCH  10  11
ENDBRANCH   9  10
ENDBRANCH   8   9
ENDBRANCH   7   8
ENDBRANCH   5   7
ENDBRANCH   4   5
ENDBRANCH   3   4
BRANCH   3  19
HETATM   19  C   UNL     1     -10.731   9.835  69.365  1.00  0.00    -0.250 A  
HETATM   20  C   UNL     1     -11.174   9.166  70.519  1.00  0.00    -0.309 A  
HETATM   21  H   UNL     1     -13.593  12.617  71.865  1.00  0.00     0.000 HD 
HETATM   22  C   UNL     1     -11.172  11.152  69.132  1.00  0.00    -0.328 A  
HETATM   23  H   UNL     1     -13.072   9.631  73.147  1.00  0.00     0.000 HD 
HETATM   24  C   UNL     1     -12.030   9.807  71.407  1.00  0.00    -0.411 A  
HETATM   25  C   UNL     1     -12.032  11.790  70.029  1.00  0.00    -0.421 A  
HETATM   26  O   UNL     1     -12.487   9.193  72.540  1.00  0.00    -0.308 OA 
HETATM   27  C   UNL     1     -12.456  11.110  71.158  1.00  0.00    -0.393 A  
HETATM   28  O   UNL     1     -13.302  11.728  72.034  1.00  0.00    -0.487 OA 
ENDBRANCH   3  19
TORSDOF 8
ENDMDL
MODEL      115
REMARK 921   NORMALIZED FREE ENERGY PREDICTED BY IDOCK:   -5.22 KCAL/MOL
REMARK 922        TOTAL FREE ENERGY PREDICTED BY IDOCK:   -8.87 KCAL/MOL
REMARK 923 INTER-LIGAND FREE ENERGY PREDICTED BY IDOCK:   -7.70 KCAL/MOL
REMARK 924 INTRA-LIGAND FREE ENERGY PREDICTED BY IDOCK:   -1.17 KCAL/MOL
REMARK 927      BINDING AFFINITY PREDICTED BY RF-SCORE:    0.00 PKD
ROOT
HETATM    1  O   UNL     1     -11.105  12.002  69.284  1.00  0.00    -0.315 OA 
HETATM    2  H   UNL     1     -11.529  11.204  68.986  1.00  0.00     0.000 HD 
HETATM    3  C   UNL     1     -11.770  13.138  68.716  1.00  0.00    -0.324 C  
ENDROOT
BRANCH   3   4
HETATM    4  C   UNL     1     -11.080  14.435  69.201  1.00  0.00    -0.265 C  
BRANCH   4   5
HETATM    5  N   UNL     1      -9.624  14.414  68.937  1.00  0.00    -0.346 NA 
HETATM    6  H   UNL     1      -9.416  14.319  67.943  1.00  0.00     0.000 HD 
BRANCH   5   7
HETATM    7  C   UNL     1      -8.989  15.603  69.519  1.00  0.00    -0.231 C  
BRANCH   7   8
HETATM    8  C   UNL     1      -7.496  15.619  69.182  1.00  0.00    -0.201 C  
BRANCH   8   9
HETATM    9  C   UNL     1      -7.266  15.212  67.725  1.00  0.00    -0.185 C  
BRANCH   9  10
HETATM   10  C   UNL     1      -6.907  16.415  66.848  1.00  0.00    -0.231 C  
BRANCH  10  11
HETATM   11  C   UNL     1      -8.123  17.268  66.578  1.00  0.00    -0.313 A  
HETATM   12  C   UNL     1      -9.344  16.675  66.227  1.00  0.00    -0.323 A  
HETATM   13  C   UNL     1     -10.456  17.465  65.925  1.00  0.00    -0.256 A  
HETATM   14  C   UNL     1     -10.343  18.851  65.971  1.00  0.00    -0.429 A  
HETATM   15  O   UNL     1     -11.397  19.660  65.665  1.00  0.00    -0.083 OA 
HETATM   16  C   UNL     1      -9.145  19.456  66.324  1.00  0.00    -0.380 A  
HETATM   17  H   UNL     1     -11.320  20.606  65.696  1.00  0.00     0.000 HD 
HETATM   18  C   UNL     1      -8.034  18.666  66.626  1.00  0.00    -0.280 A  
ENDBRANCH  10  11
ENDBRANCH   9  10
ENDBRANCH   8   9
ENDBRANCH   7   8
ENDBRANCH   5   7
ENDBRANCH   4   5
ENDBRANCH   3   4
BRANCH   3  19
HETATM   19  C   UNL     1     -11.760  13.040  67.204  1.00  0.00    -0.439 A  
HETATM   20  C   UNL     1     -12.215  14.098  66.399  1.00  0.00    -0.473 A  
HETATM   21  H   UNL     1     -11.503  11.854  62.654  1.00  0.00     0.000 HD 
HETATM   22  C   UNL     1     -11.321  11.855  66.583  1.00  0.00    -0.400 A  
HETATM   23  H   UNL     1     -12.665  14.875  63.249  1.00  0.00     0.000 HD 
HETATM   24  C   UNL     1     -12.223  13.964  65.015  1.00  0.00    -0.425 A  
HETATM   25  C   UNL     1     -11.331  11.726  65.192  1.00  0.00    -0.281 A  
HETATM   26  O   UNL     1     -12.660  14.967  64.194  1.00  0.00    -0.785 OA 
HETATM   27  C   UNL     1     -11.785  12.783  64.420  1.00  0.00    -0.368 A  
HETATM   28  O   UNL     1     -11.803  12.659  63.060  1.00  0.00    -0.369 OA 
ENDBRANCH   3  19
TORSDOF 8
ENDMDL
MODEL      116
REMARK 921   NORMALIZED FREE ENERGY PREDICTED BY IDOCK:   -5.22 KCAL/MOL
REMARK 922        TOTAL FREE ENERGY PREDICTED BY IDOCK:   -8.86 KCAL/MOL
REMARK 923 INTER-LIGAND FREE ENERGY PREDICTED BY IDOCK:   -7.90 KCAL/MOL
REMARK 924 INTRA-LIGAND FREE ENERGY PREDICTED BY IDOCK:   -0.96 KCAL/MOL
REMARK 927      BINDING AFFINITY PREDICTED BY RF-SCORE:    0.00 PKD
ROOT
HETATM    1  O   UNL     1     -10.019  12.149  68.707  1.00  0.00    -0.366 OA 
HETATM    2  H   UNL     1     -10.845  12.479  69.041  1.00  0.00     0.000 HD 
HETATM    3  C   UNL     1      -9.398  13.151  67.892  1.00  0.00    -0.215 C  
ENDROOT
BRANCH   3   4
HETATM    4  C   UNL     1      -8.053  12.612  67.347  1.00  0.00    -0.182 C  
BRANCH   4   5
HETATM    5  N   UNL     1      -8.249  11.708  66.193  1.00  0.00    -0.378 NA 
HETATM    6  H   UNL     1      -7.759  12.039  65.361  1.00  0.00     0.000 HD 
BRANCH   5   7
HETATM    7  C   UNL     1      -7.861  10.340  66.552  1.00  0.00    -0.116 C  
BRANCH   7   8
HETATM    8  C   UNL     1      -8.887   9.342  66.009  1.00  0.00    -0.185 C  
BRANCH   8   9
HETATM    9  C   UNL     1      -9.902   8.967  67.091  1.00  0.00    -0.262 C  
BRANCH   9  10
HETATM   10  C   UNL     1      -9.257   8.904  68.478  1.00  0.00    -0.137 C  
BRANCH  10  11
HETATM   11  C   UNL     1     -10.234   8.383  69.504  1.00  0.00    -0.207 A  
HETATM   12  C   UNL     1     -10.428   9.068  70.713  1.00  0.00    -0.304 A  
HETATM   13  C   UNL     1     -11.291   8.559  71.686  1.00  0.00    -0.362 A  
HETATM   14  C   UNL     1     -11.958   7.361  71.450  1.00  0.00    -0.310 A  
HETATM   15  O   UNL     1     -12.795   6.819  72.380  1.00  0.00    -0.518 OA 
HETATM   16  C   UNL     1     -11.785   6.674  70.257  1.00  0.00    -0.432 A  
HETATM   17  H   UNL     1     -13.250   6.001  72.219  1.00  0.00     0.000 HD 
HETATM   18  C   UNL     1     -10.921   7.182  69.284  1.00  0.00    -0.163 A  
ENDBRANCH  10  11
ENDBRANCH   9  10
ENDBRANCH   8   9
ENDBRANCH   7   8
ENDBRANCH   5   7
ENDBRANCH   4   5
ENDBRANCH   3   4
BRANCH   3  19
HETATM   19  C   UNL     1     -10.329  13.550  66.764  1.00  0.00    -0.264 A  
HETATM   20  C   UNL     1     -11.403  12.731  66.376  1.00  0.00    -0.369 A  
HETATM   21  H   UNL     1     -12.613  15.473  63.123  1.00  0.00     0.000 HD 
HETATM   22  C   UNL     1     -10.100  14.748  66.060  1.00  0.00    -0.327 A  
HETATM   23  H   UNL     1     -13.830  12.604  64.181  1.00  0.00     0.000 HD 
HETATM   24  C   UNL     1     -12.218  13.112  65.317  1.00  0.00    -0.455 A  
HETATM   25  C   UNL     1     -10.923  15.125  64.997  1.00  0.00    -0.443 A  
HETATM   26  O   UNL     1     -13.273  12.344  64.905  1.00  0.00    -0.714 OA 
HETATM   27  C   UNL     1     -11.975  14.300  64.633  1.00  0.00    -0.455 A  
HETATM   28  O   UNL     1     -12.779  14.662  63.589  1.00  0.00    -0.735 OA 
ENDBRANCH   3  19
TORSDOF 8
ENDMDL
MODEL      117
REMARK 921   NORMALIZED FREE ENERGY PREDICTED BY IDOCK:   -5.21 KCAL/MOL
REMARK 922        TOTAL FREE ENERGY PREDICTED BY IDOCK:   -8.84 KCAL/MOL
REMARK 923 INTER-LIGAND FREE ENERGY PREDICTED BY IDOCK:   -7.79 KCAL/MOL
REMARK 924 INTRA-LIGAND FREE ENERGY PREDICTED BY IDOCK:   -1.06 KCAL/MOL
REMARK 927      BINDING AFFINITY PREDICTED BY RF-SCORE:    0.00 PKD
ROOT
HETATM    1  O   UNL     1     -11.224   6.221  72.354  1.00  0.00    -0.253 OA 
HETATM    2  H   UNL     1     -11.184   5.306  72.099  1.00  0.00     0.000 HD 
HETATM    3  C   UNL     1     -11.667   7.009  71.241  1.00  0.00    -0.317 C  
ENDROOT
BRANCH   3   4
HETATM    4  C   UNL     1     -11.733   8.498  71.656  1.00  0.00    -0.306 C  
BRANCH   4   5
HETATM    5  N   UNL     1     -12.568   9.291  70.728  1.00  0.00    -0.507 NA 
HETATM    6  H   UNL     1     -13.523   9.402  71.072  1.00  0.00     0.000 HD 
BRANCH   5   7
HETATM    7  C   UNL     1     -11.930  10.584  70.454  1.00  0.00    -0.335 C  
BRANCH   7   8
HETATM    8  C   UNL     1     -10.607  10.371  69.714  1.00  0.00    -0.302 C  
BRANCH   8   9
HETATM    9  C   UNL     1     -10.491  11.331  68.528  1.00  0.00    -0.218 C  
BRANCH   9  10
HETATM   10  C   UNL     1     -10.728  10.619  67.194  1.00  0.00    -0.327 C  
BRANCH  10  11
HETATM   11  C   UNL     1     -11.168  11.597  66.132  1.00  0.00    -0.314 A  
HETATM   12  C   UNL     1     -11.914  12.734  66.476  1.00  0.00    -0.428 A  
HETATM   13  C   UNL     1     -12.368  13.611  65.489  1.00  0.00    -0.519 A  
HETATM   14  C   UNL     1     -12.078  13.348  64.154  1.00  0.00    -0.433 A  
HETATM   15  O   UNL     1     -12.518  14.167  63.156  1.00  0.00    -1.126 OA 
HETATM   16  C   UNL     1     -11.335  12.232  63.794  1.00  0.00    -0.534 A  
HETATM   17  H   UNL     1     -12.321  13.987  62.245  1.00  0.00     0.000 HD 
HETATM   18  C   UNL     1     -10.881  11.355  64.782  1.00  0.00    -0.339 A  
ENDBRANCH  10  11
ENDBRANCH   9  10
ENDBRANCH   8   9
ENDBRANCH   7   8
ENDBRANCH   5   7
ENDBRANCH   4   5
ENDBRANCH   3   4
BRANCH   3  19
HETATM   19  C   UNL     1     -10.737   6.806  70.062  1.00  0.00    -0.287 A  
HETATM   20  C   UNL     1      -9.350   7.001  70.181  1.00  0.00    -0.162 A  
HETATM   21  H   UNL     1      -8.627   6.092  65.913  1.00  0.00     0.000 HD 
HETATM   22  C   UNL     1     -11.267   6.449  68.807  1.00  0.00    -0.358 A  
HETATM   23  H   UNL     1      -6.613   6.907  68.384  1.00  0.00     0.000 HD 
HETATM   24  C   UNL     1      -8.528   6.837  69.072  1.00  0.00    -0.128 A  
HETATM   25  C   UNL     1     -10.436   6.286  67.696  1.00  0.00    -0.288 A  
HETATM   26  O   UNL     1      -7.175   7.019  69.142  1.00  0.00    -0.084 OA 
HETATM   27  C   UNL     1      -9.072   6.485  67.838  1.00  0.00    -0.113 A  
HETATM   28  O   UNL     1      -8.257   6.333  66.753  1.00  0.00    -0.108 OA 
ENDBRANCH   3  19
TORSDOF 8
ENDMDL
MODEL      118
REMARK 921   NORMALIZED FREE ENERGY PREDICTED BY IDOCK:   -5.20 KCAL/MOL
REMARK 922        TOTAL FREE ENERGY PREDICTED BY IDOCK:   -8.83 KCAL/MOL
REMARK 923 INTER-LIGAND FREE ENERGY PREDICTED BY IDOCK:   -7.99 KCAL/MOL
REMARK 924 INTRA-LIGAND FREE ENERGY PREDICTED BY IDOCK:   -0.84 KCAL/MOL
REMARK 927      BINDING AFFINITY PREDICTED BY RF-SCORE:    0.00 PKD
ROOT
HETATM    1  O   UNL     1     -12.261   9.887  69.835  1.00  0.00    -0.476 OA 
HETATM    2  H   UNL     1     -12.416  10.351  69.020  1.00  0.00     0.000 HD 
HETATM    3  C   UNL     1     -13.098  10.433  70.863  1.00  0.00    -0.330 C  
ENDROOT
BRANCH   3   4
HETATM    4  C   UNL     1     -12.846   9.678  72.189  1.00  0.00    -0.375 C  
BRANCH   4   5
HETATM    5  N   UNL     1     -13.801   8.563  72.377  1.00  0.00    -0.602 NA 
HETATM    6  H   UNL     1     -14.744   8.812  72.076  1.00  0.00     0.000 HD 
BRANCH   5   7
HETATM    7  C   UNL     1     -13.309   7.358  71.701  1.00  0.00    -0.364 C  
BRANCH   7   8
HETATM    8  C   UNL     1     -11.803   7.204  71.931  1.00  0.00    -0.336 C  
BRANCH   8   9
HETATM    9  C   UNL     1     -11.298   5.884  71.344  1.00  0.00    -0.247 C  
BRANCH   9  10
HETATM   10  C   UNL     1      -9.901   6.030  70.736  1.00  0.00    -0.221 C  
BRANCH  10  11
HETATM   11  C   UNL     1      -9.951   6.823  69.452  1.00  0.00    -0.167 A  
HETATM   12  C   UNL     1     -10.979   6.607  68.522  1.00  0.00    -0.314 A  
HETATM   13  C   UNL     1     -10.997   7.301  67.310  1.00  0.00    -0.284 A  
HETATM   14  C   UNL     1      -9.982   8.210  67.028  1.00  0.00    -0.259 A  
HETATM   15  O   UNL     1      -9.951   8.895  65.849  1.00  0.00    -0.441 OA 
HETATM   16  C   UNL     1      -8.962   8.444  67.939  1.00  0.00    -0.138 A  
HETATM   17  H   UNL     1      -9.258   9.516  65.656  1.00  0.00     0.000 HD 
HETATM   18  C   UNL     1      -8.944   7.749  69.150  1.00  0.00    -0.145 A  
ENDBRANCH  10  11
ENDBRANCH   9  10
ENDBRANCH   8   9
ENDBRANCH   7   8
ENDBRANCH   5   7
ENDBRANCH   4   5
ENDBRANCH   3   4
BRANCH   3  19
HETATM   19  C   UNL     1     -12.830  11.917  71.014  1.00  0.00    -0.291 A  
HETATM   20  C   UNL     1     -13.368  12.654  72.083  1.00  0.00    -0.570 A  
HETATM   21  H   UNL     1     -11.611  16.451  70.649  1.00  0.00     0.000 HD 
HETATM   22  C   UNL     1     -12.054  12.589  70.049  1.00  0.00    -0.337 A  
HETATM   23  H   UNL     1     -13.472  15.708  73.259  1.00  0.00     0.000 HD 
HETATM   24  C   UNL     1     -13.129  14.020  72.175  1.00  0.00    -0.411 A  
HETATM   25  C   UNL     1     -11.817  13.961  70.148  1.00  0.00    -0.368 A  
HETATM   26  O   UNL     1     -13.636  14.775  73.196  1.00  0.00    -0.552 OA 
HETATM   27  C   UNL     1     -12.360  14.666  71.210  1.00  0.00    -0.341 A  
HETATM   28  O   UNL     1     -12.136  16.010  71.306  1.00  0.00    -0.417 OA 
ENDBRANCH   3  19
TORSDOF 8
ENDMDL
MODEL      119
REMARK 921   NORMALIZED FREE ENERGY PREDICTED BY IDOCK:   -5.19 KCAL/MOL
REMARK 922        TOTAL FREE ENERGY PREDICTED BY IDOCK:   -8.82 KCAL/MOL
REMARK 923 INTER-LIGAND FREE ENERGY PREDICTED BY IDOCK:   -6.64 KCAL/MOL
REMARK 924 INTRA-LIGAND FREE ENERGY PREDICTED BY IDOCK:   -2.19 KCAL/MOL
REMARK 927      BINDING AFFINITY PREDICTED BY RF-SCORE:    0.00 PKD
ROOT
HETATM    1  O   UNL     1      -6.939  14.628  69.189  1.00  0.00    -0.117 OA 
HETATM    2  H   UNL     1      -6.898  13.893  69.791  1.00  0.00     0.000 HD 
HETATM    3  C   UNL     1      -8.243  15.221  69.245  1.00  0.00    -0.244 C  
ENDROOT
BRANCH   3   4
HETATM    4  C   UNL     1      -8.309  16.417  68.266  1.00  0.00    -0.189 C  
BRANCH   4   5
HETATM    5  N   UNL     1      -9.127  17.525  68.806  1.00  0.00    -0.250 NA 
HETATM    6  H   UNL     1      -8.556  18.333  69.058  1.00  0.00     0.000 HD 
BRANCH   5   7
HETATM    7  C   UNL     1     -10.188  17.878  67.857  1.00  0.00    -0.371 C  
BRANCH   7   8
HETATM    8  C   UNL     1      -9.701  17.664  66.421  1.00  0.00    -0.303 C  
BRANCH   8   9
HETATM    9  C   UNL     1     -10.783  16.982  65.580  1.00  0.00    -0.146 C  
BRANCH   9  10
HETATM   10  C   UNL     1     -11.458  15.838  66.340  1.00  0.00     0.268 C  
BRANCH  10  11
HETATM   11  C   UNL     1     -11.503  14.585  65.501  1.00  0.00    -0.343 A  
HETATM   12  C   UNL     1     -10.367  14.157  64.799  1.00  0.00    -0.387 A  
HETATM   13  C   UNL     1     -10.422  13.027  63.979  1.00  0.00    -0.337 A  
HETATM   14  C   UNL     1     -11.618  12.327  63.859  1.00  0.00    -0.444 A  
HETATM   15  O   UNL     1     -11.721  11.230  63.055  1.00  0.00    -0.863 OA 
HETATM   16  C   UNL     1     -12.751  12.731  64.552  1.00  0.00    -0.405 A  
HETATM   17  H   UNL     1     -12.538  10.753  62.973  1.00  0.00     0.000 HD 
HETATM   18  C   UNL     1     -12.696  13.860  65.371  1.00  0.00    -0.525 A  
ENDBRANCH  10  11
ENDBRANCH   9  10
ENDBRANCH   8   9
ENDBRANCH   7   8
ENDBRANCH   5   7
ENDBRANCH   4   5
ENDBRANCH   3   4
BRANCH   3  19
HETATM   19  C   UNL     1      -9.297  14.182  68.919  1.00  0.00    -0.014 A  
HETATM   20  C   UNL     1      -9.000  13.060  68.127  1.00  0.00    -0.198 A  
HETATM   21  H   UNL     1     -13.156  11.555  68.297  1.00  0.00     0.000 HD 
HETATM   22  C   UNL     1     -10.615  14.354  69.385  1.00  0.00    -0.140 A  
HETATM   23  H   UNL     1     -10.435  10.412  66.841  1.00  0.00     0.000 HD 
HETATM   24  C   UNL     1      -9.998  12.143  67.820  1.00  0.00    -0.198 A  
HETATM   25  C   UNL     1     -11.614  13.428  69.073  1.00  0.00    -0.358 A  
HETATM   26  O   UNL     1      -9.753  11.039  67.050  1.00  0.00    -0.179 OA 
HETATM   27  C   UNL     1     -11.296  12.331  68.289  1.00  0.00    -0.289 A  
HETATM   28  O   UNL     1     -12.271  11.427  67.977  1.00  0.00    -0.607 OA 
ENDBRANCH   3  19
TORSDOF 8
ENDMDL
MODEL      120
REMARK 921   NORMALIZED FREE ENERGY PREDICTED BY IDOCK:   -5.18 KCAL/MOL
REMARK 922        TOTAL FREE ENERGY PREDICTED BY IDOCK:   -8.81 KCAL/MOL
REMARK 923 INTER-LIGAND FREE ENERGY PREDICTED BY IDOCK:   -7.23 KCAL/MOL
REMARK 924 INTRA-LIGAND FREE ENERGY PREDICTED BY IDOCK:   -1.58 KCAL/MOL
REMARK 927      BINDING AFFINITY PREDICTED BY RF-SCORE:    0.00 PKD
ROOT
HETATM    1  O   UNL     1     -12.324   5.900  72.462  1.00  0.00    -0.514 OA 
HETATM    2  H   UNL     1     -12.483   5.163  71.882  1.00  0.00     0.000 HD 
HETATM    3  C   UNL     1     -12.319   7.115  71.701  1.00  0.00    -0.362 C  
ENDROOT
BRANCH   3   4
HETATM    4  C   UNL     1     -12.060   8.314  72.644  1.00  0.00    -0.263 C  
BRANCH   4   5
HETATM    5  N   UNL     1     -13.313   9.019  72.993  1.00  0.00    -0.885 NA 
HETATM    6  H   UNL     1     -13.212   9.583  73.838  1.00  0.00     0.000 HD 
BRANCH   5   7
HETATM    7  C   UNL     1     -13.777   9.817  71.853  1.00  0.00    -0.253 C  
BRANCH   7   8
HETATM    8  C   UNL     1     -12.700  10.827  71.446  1.00  0.00    -0.544 C  
BRANCH   8   9
HETATM    9  C   UNL     1     -12.549  10.873  69.924  1.00  0.00    -0.211 C  
BRANCH   9  10
HETATM   10  C   UNL     1     -11.100  10.641  69.490  1.00  0.00    -0.328 C  
BRANCH  10  11
HETATM   11  C   UNL     1     -10.856  11.196  68.107  1.00  0.00    -0.266 A  
HETATM   12  C   UNL     1     -10.028  10.514  67.203  1.00  0.00    -0.234 A  
HETATM   13  C   UNL     1      -9.758  11.053  65.943  1.00  0.00    -0.267 A  
HETATM   14  C   UNL     1     -10.316  12.277  65.588  1.00  0.00    -0.257 A  
HETATM   15  O   UNL     1     -10.064  12.848  64.376  1.00  0.00    -0.543 OA 
HETATM   16  C   UNL     1     -11.144  12.962  66.466  1.00  0.00    -0.318 A  
HETATM   17  H   UNL     1     -10.444  13.684  64.134  1.00  0.00     0.000 HD 
HETATM   18  C   UNL     1     -11.413  12.424  67.726  1.00  0.00    -0.383 A  
ENDBRANCH  10  11
ENDBRANCH   9  10
ENDBRANCH   8   9
ENDBRANCH   7   8
ENDBRANCH   5   7
ENDBRANCH   4   5
ENDBRANCH   3   4
BRANCH   3  19
HETATM   19  C   UNL     1     -11.271   7.037  70.609  1.00  0.00    -0.327 A  
HETATM   20  C   UNL     1      -9.963   7.512  70.813  1.00  0.00    -0.182 A  
HETATM   21  H   UNL     1      -8.719   6.528  66.684  1.00  0.00     0.000 HD 
HETATM   22  C   UNL     1     -11.613   6.511  69.348  1.00  0.00    -0.249 A  
HETATM   23  H   UNL     1      -7.119   7.868  69.229  1.00  0.00     0.000 HD 
HETATM   24  C   UNL     1      -9.035   7.454  69.780  1.00  0.00    -0.141 A  
HETATM   25  C   UNL     1     -10.675   6.456  68.315  1.00  0.00    -0.351 A  
HETATM   26  O   UNL     1      -7.754   7.907  69.934  1.00  0.00    -0.093 OA 
HETATM   27  C   UNL     1      -9.393   6.931  68.540  1.00  0.00    -0.134 A  
HETATM   28  O   UNL     1      -8.475   6.885  67.530  1.00  0.00    -0.121 OA 
ENDBRANCH   3  19
TORSDOF 8
ENDMDL
MODEL      121
REMARK 921   NORMALIZED FREE ENERGY PREDICTED BY IDOCK:   -5.17 KCAL/MOL
REMARK 922        TOTAL FREE ENERGY PREDICTED BY IDOCK:   -8.79 KCAL/MOL
REMARK 923 INTER-LIGAND FREE ENERGY PREDICTED BY IDOCK:   -7.29 KCAL/MOL
REMARK 924 INTRA-LIGAND FREE ENERGY PREDICTED BY IDOCK:   -1.51 KCAL/MOL
REMARK 927      BINDING AFFINITY PREDICTED BY RF-SCORE:    0.00 PKD
ROOT
HETATM    1  O   UNL     1      -8.698  12.058  68.912  1.00  0.00    -0.365 OA 
HETATM    2  H   UNL     1      -9.144  12.629  69.527  1.00  0.00     0.000 HD 
HETATM    3  C   UNL     1      -9.621  11.085  68.406  1.00  0.00    -0.181 C  
ENDROOT
BRANCH   3   4
HETATM    4  C   UNL     1      -8.895  10.155  67.405  1.00  0.00    -0.131 C  
BRANCH   4   5
HETATM    5  N   UNL     1      -9.642  10.025  66.134  1.00  0.00    -0.195 NA 
HETATM    6  H   UNL     1     -10.620   9.781  66.290  1.00  0.00     0.000 HD 
BRANCH   5   7
HETATM    7  C   UNL     1      -9.501  11.249  65.339  1.00  0.00    -0.225 C  
BRANCH   7   8
HETATM    8  C   UNL     1     -10.776  11.499  64.528  1.00  0.00    -0.390 C  
BRANCH   8   9
HETATM    9  C   UNL     1     -11.698  12.477  65.259  1.00  0.00    -0.430 C  
BRANCH   9  10
HETATM   10  C   UNL     1     -11.038  13.845  65.452  1.00  0.00    -0.310 C  
BRANCH  10  11
HETATM   11  C   UNL     1     -11.036  14.242  66.909  1.00  0.00    -0.304 A  
HETATM   12  C   UNL     1     -10.014  15.054  67.424  1.00  0.00    -0.226 A  
HETATM   13  C   UNL     1      -9.982  15.378  68.782  1.00  0.00    -0.208 A  
HETATM   14  C   UNL     1     -10.972  14.886  69.626  1.00  0.00    -0.274 A  
HETATM   15  O   UNL     1     -10.968  15.162  70.962  1.00  0.00    -0.501 OA 
HETATM   16  C   UNL     1     -11.995  14.087  69.134  1.00  0.00    -0.400 A  
HETATM   17  H   UNL     1     -11.643  14.825  71.539  1.00  0.00     0.000 HD 
HETATM   18  C   UNL     1     -12.027  13.763  67.776  1.00  0.00    -0.391 A  
ENDBRANCH  10  11
ENDBRANCH   9  10
ENDBRANCH   8   9
ENDBRANCH   7   8
ENDBRANCH   5   7
ENDBRANCH   4   5
ENDBRANCH   3   4
BRANCH   3  19
HETATM   19  C   UNL     1     -10.221  10.297  69.553  1.00  0.00    -0.261 A  
HETATM   20  C   UNL     1     -11.562  10.469  69.938  1.00  0.00    -0.384 A  
HETATM   21  H   UNL     1     -11.218   7.570  73.262  1.00  0.00     0.000 HD 
HETATM   22  C   UNL     1      -9.417   9.396  70.278  1.00  0.00    -0.294 A  
HETATM   23  H   UNL     1     -13.719   9.404  72.161  1.00  0.00     0.000 HD 
HETATM   24  C   UNL     1     -12.072   9.754  71.015  1.00  0.00    -0.346 A  
HETATM   25  C   UNL     1      -9.937   8.680  71.359  1.00  0.00    -0.324 A  
HETATM   26  O   UNL     1     -13.370   9.893  71.425  1.00  0.00    -0.383 OA 
HETATM   27  C   UNL     1     -11.261   8.868  71.720  1.00  0.00    -0.362 A  
HETATM   28  O   UNL     1     -11.771   8.175  72.781  1.00  0.00    -0.403 OA 
ENDBRANCH   3  19
TORSDOF 8
ENDMDL
MODEL      122
REMARK 921   NORMALIZED FREE ENERGY PREDICTED BY IDOCK:   -5.17 KCAL/MOL
REMARK 922        TOTAL FREE ENERGY PREDICTED BY IDOCK:   -8.79 KCAL/MOL
REMARK 923 INTER-LIGAND FREE ENERGY PREDICTED BY IDOCK:   -8.11 KCAL/MOL
REMARK 924 INTRA-LIGAND FREE ENERGY PREDICTED BY IDOCK:   -0.68 KCAL/MOL
REMARK 927      BINDING AFFINITY PREDICTED BY RF-SCORE:    0.00 PKD
ROOT
HETATM    1  O   UNL     1     -14.087   7.048  72.297  1.00  0.00    -0.574 OA 
HETATM    2  H   UNL     1     -14.389   6.249  71.881  1.00  0.00     0.000 HD 
HETATM    3  C   UNL     1     -13.086   7.666  71.478  1.00  0.00    -0.338 C  
ENDROOT
BRANCH   3   4
HETATM    4  C   UNL     1     -12.594   8.967  72.156  1.00  0.00    -0.399 C  
BRANCH   4   5
HETATM    5  N   UNL     1     -11.410   9.530  71.470  1.00  0.00    -0.390 NA 
HETATM    6  H   UNL     1     -10.681   8.830  71.329  1.00  0.00     0.000 HD 
BRANCH   5   7
HETATM    7  C   UNL     1     -11.812  10.168  70.211  1.00  0.00    -0.261 C  
BRANCH   7   8
HETATM    8  C   UNL     1     -12.090  11.655  70.441  1.00  0.00    -0.462 C  
BRANCH   8   9
HETATM    9  C   UNL     1     -11.762  12.467  69.185  1.00  0.00    -0.376 C  
BRANCH   9  10
HETATM   10  C   UNL     1     -10.516  11.934  68.473  1.00  0.00    -0.240 C  
BRANCH  10  11
HETATM   11  C   UNL     1     -10.776  11.747  66.998  1.00  0.00    -0.286 A  
HETATM   12  C   UNL     1      -9.894  10.995  66.210  1.00  0.00    -0.257 A  
HETATM   13  C   UNL     1     -10.103  10.866  64.835  1.00  0.00    -0.374 A  
HETATM   14  C   UNL     1     -11.197  11.494  64.248  1.00  0.00    -0.283 A  
HETATM   15  O   UNL     1     -11.429  11.411  62.907  1.00  0.00    -0.827 OA 
HETATM   16  C   UNL     1     -12.086  12.237  65.013  1.00  0.00    -0.392 A  
HETATM   17  H   UNL     1     -12.175  11.840  62.506  1.00  0.00     0.000 HD 
HETATM   18  C   UNL     1     -11.875  12.366  66.387  1.00  0.00    -0.421 A  
ENDBRANCH  10  11
ENDBRANCH   9  10
ENDBRANCH   8   9
ENDBRANCH   7   8
ENDBRANCH   5   7
ENDBRANCH   4   5
ENDBRANCH   3   4
BRANCH   3  19
HETATM   19  C   UNL     1     -11.941   6.700  71.244  1.00  0.00    -0.409 A  
HETATM   20  C   UNL     1     -11.271   6.086  72.315  1.00  0.00    -0.341 A  
HETATM   21  H   UNL     1      -8.458   3.968  69.636  1.00  0.00     0.000 HD 
HETATM   22  C   UNL     1     -11.511   6.432  69.930  1.00  0.00    -0.483 A  
HETATM   23  H   UNL     1      -8.793   4.027  72.909  1.00  0.00     0.000 HD 
HETATM   24  C   UNL     1     -10.204   5.230  72.067  1.00  0.00    -0.203 A  
HETATM   25  C   UNL     1     -10.438   5.570  69.687  1.00  0.00    -0.379 A  
HETATM   26  O   UNL     1      -9.522   4.613  73.079  1.00  0.00    -0.128 OA 
HETATM   27  C   UNL     1      -9.792   4.978  70.760  1.00  0.00    -0.208 A  
HETATM   28  O   UNL     1      -8.739   4.140  70.527  1.00  0.00    -0.075 OA 
ENDBRANCH   3  19
TORSDOF 8
ENDMDL
MODEL      123
REMARK 921   NORMALIZED FREE ENERGY PREDICTED BY IDOCK:   -5.16 KCAL/MOL
REMARK 922        TOTAL FREE ENERGY PREDICTED BY IDOCK:   -8.77 KCAL/MOL
REMARK 923 INTER-LIGAND FREE ENERGY PREDICTED BY IDOCK:   -7.59 KCAL/MOL
REMARK 924 INTRA-LIGAND FREE ENERGY PREDICTED BY IDOCK:   -1.18 KCAL/MOL
REMARK 927      BINDING AFFINITY PREDICTED BY RF-SCORE:    0.00 PKD
ROOT
HETATM    1  O   UNL     1     -10.702  18.307  65.337  1.00  0.00    -0.610 OA 
HETATM    2  H   UNL     1     -10.841  18.969  66.006  1.00  0.00     0.000 HD 
HETATM    3  C   UNL     1     -10.708  17.008  65.942  1.00  0.00    -0.139 C  
ENDROOT
BRANCH   3   4
HETATM    4  C   UNL     1     -10.483  15.931  64.853  1.00  0.00    -0.144 C  
BRANCH   4   5
HETATM    5  N   UNL     1     -11.573  15.924  63.853  1.00  0.00    -1.124 NA 
HETATM    6  H   UNL     1     -11.215  15.887  62.898  1.00  0.00     0.000 HD 
BRANCH   5   7
HETATM    7  C   UNL     1     -12.507  14.828  64.133  1.00  0.00    -0.111 C  
BRANCH   7   8
HETATM    8  C   UNL     1     -12.088  13.572  63.363  1.00  0.00    -0.351 C  
BRANCH   8   9
HETATM    9  C   UNL     1     -12.215  12.329  64.247  1.00  0.00    -0.514 C  
BRANCH   9  10
HETATM   10  C   UNL     1     -10.891  11.980  64.931  1.00  0.00    -0.349 C  
BRANCH  10  11
HETATM   11  C   UNL     1     -11.070  11.864  66.426  1.00  0.00    -0.359 A  
HETATM   12  C   UNL     1     -10.614  10.728  67.111  1.00  0.00    -0.306 A  
HETATM   13  C   UNL     1     -10.827  10.594  68.485  1.00  0.00    -0.275 A  
HETATM   14  C   UNL     1     -11.500  11.599  69.173  1.00  0.00    -0.300 A  
HETATM   15  O   UNL     1     -11.746  11.501  70.511  1.00  0.00    -0.455 OA 
HETATM   16  C   UNL     1     -11.952  12.734  68.514  1.00  0.00    -0.265 A  
HETATM   17  H   UNL     1     -12.206  12.186  70.981  1.00  0.00     0.000 HD 
HETATM   18  C   UNL     1     -11.739  12.867  67.141  1.00  0.00    -0.437 A  
ENDBRANCH  10  11
ENDBRANCH   9  10
ENDBRANCH   8   9
ENDBRANCH   7   8
ENDBRANCH   5   7
ENDBRANCH   4   5
ENDBRANCH   3   4
BRANCH   3  19
HETATM   19  C   UNL     1      -9.644  16.934  67.019  1.00  0.00    -0.252 A  
HETATM   20  C   UNL     1      -9.002  18.090  67.494  1.00  0.00    -0.249 A  
HETATM   21  H   UNL     1      -6.407  15.791  70.242  1.00  0.00     0.000 HD 
HETATM   22  C   UNL     1      -9.259  15.681  67.535  1.00  0.00    -0.203 A  
HETATM   23  H   UNL     1      -6.676  19.009  69.609  1.00  0.00     0.000 HD 
HETATM   24  C   UNL     1      -8.007  17.984  68.460  1.00  0.00    -0.303 A  
HETATM   25  C   UNL     1      -8.259  15.582  68.506  1.00  0.00    -0.148 A  
HETATM   26  O   UNL     1      -7.355  19.082  68.949  1.00  0.00    -0.316 OA 
HETATM   27  C   UNL     1      -7.639  16.736  68.958  1.00  0.00    -0.218 A  
HETATM   28  O   UNL     1      -6.657  16.642  69.902  1.00  0.00    -0.160 OA 
ENDBRANCH   3  19
TORSDOF 8
ENDMDL
MODEL      124
REMARK 921   NORMALIZED FREE ENERGY PREDICTED BY IDOCK:   -5.16 KCAL/MOL
REMARK 922        TOTAL FREE ENERGY PREDICTED BY IDOCK:   -8.77 KCAL/MOL
REMARK 923 INTER-LIGAND FREE ENERGY PREDICTED BY IDOCK:   -7.59 KCAL/MOL
REMARK 924 INTRA-LIGAND FREE ENERGY PREDICTED BY IDOCK:   -1.18 KCAL/MOL
REMARK 927      BINDING AFFINITY PREDICTED BY RF-SCORE:    0.00 PKD
ROOT
HETATM    1  O   UNL     1      -7.846   8.225  70.532  1.00  0.00    -0.081 OA 
HETATM    2  H   UNL     1      -7.604   9.063  70.910  1.00  0.00     0.000 HD 
HETATM    3  C   UNL     1      -8.838   8.425  69.517  1.00  0.00    -0.145 C  
ENDROOT
BRANCH   3   4
HETATM    4  C   UNL     1      -9.232   7.061  68.903  1.00  0.00    -0.136 C  
BRANCH   4   5
HETATM    5  N   UNL     1      -9.250   7.108  67.424  1.00  0.00    -0.126 NA 
HETATM    6  H   UNL     1      -9.967   7.743  67.072  1.00  0.00     0.000 HD 
BRANCH   5   7
HETATM    7  C   UNL     1      -7.917   7.446  66.914  1.00  0.00    -0.115 C  
BRANCH   7   8
HETATM    8  C   UNL     1      -7.974   8.757  66.124  1.00  0.00    -0.103 C  
BRANCH   8   9
HETATM    9  C   UNL     1      -9.399   9.037  65.644  1.00  0.00    -0.289 C  
BRANCH   9  10
HETATM   10  C   UNL     1      -9.420  10.001  64.455  1.00  0.00    -0.349 C  
BRANCH  10  11
HETATM   11  C   UNL     1     -10.419  11.111  64.677  1.00  0.00    -0.400 A  
HETATM   12  C   UNL     1     -10.775  11.498  65.977  1.00  0.00    -0.332 A  
HETATM   13  C   UNL     1     -11.739  12.487  66.185  1.00  0.00    -0.466 A  
HETATM   14  C   UNL     1     -12.350  13.087  65.089  1.00  0.00    -0.484 A  
HETATM   15  O   UNL     1     -13.309  14.044  65.245  1.00  0.00    -0.741 OA 
HETATM   16  C   UNL     1     -12.005  12.723  63.794  1.00  0.00    -0.585 A  
HETATM   17  H   UNL     1     -13.727  14.453  64.497  1.00  0.00     0.000 HD 
HETATM   18  C   UNL     1     -11.042  11.734  63.587  1.00  0.00    -0.518 A  
ENDBRANCH  10  11
ENDBRANCH   9  10
ENDBRANCH   8   9
ENDBRANCH   7   8
ENDBRANCH   5   7
ENDBRANCH   4   5
ENDBRANCH   3   4
BRANCH   3  19
HETATM   19  C   UNL     1     -10.042   9.133  70.104  1.00  0.00    -0.233 A  
HETATM   20  C   UNL     1     -10.805   8.553  71.132  1.00  0.00    -0.298 A  
HETATM   21  H   UNL     1     -13.654  11.935  71.240  1.00  0.00     0.000 HD 
HETATM   22  C   UNL     1     -10.435  10.385  69.592  1.00  0.00    -0.279 A  
HETATM   23  H   UNL     1     -13.457   9.138  72.962  1.00  0.00     0.000 HD 
HETATM   24  C   UNL     1     -11.922   9.215  71.626  1.00  0.00    -0.367 A  
HETATM   25  C   UNL     1     -11.560  11.045  70.093  1.00  0.00    -0.421 A  
HETATM   26  O   UNL     1     -12.694   8.685  72.624  1.00  0.00    -0.365 OA 
HETATM   27  C   UNL     1     -12.296  10.452  71.106  1.00  0.00    -0.400 A  
HETATM   28  O   UNL     1     -13.400  11.091  71.594  1.00  0.00    -0.363 OA 
ENDBRANCH   3  19
TORSDOF 8
ENDMDL
MODEL      125
REMARK 921   NORMALIZED FREE ENERGY PREDICTED BY IDOCK:   -5.16 KCAL/MOL
REMARK 922        TOTAL FREE ENERGY PREDICTED BY IDOCK:   -8.77 KCAL/MOL
REMARK 923 INTER-LIGAND FREE ENERGY PREDICTED BY IDOCK:   -7.15 KCAL/MOL
REMARK 924 INTRA-LIGAND FREE ENERGY PREDICTED BY IDOCK:   -1.63 KCAL/MOL
REMARK 927      BINDING AFFINITY PREDICTED BY RF-SCORE:    0.00 PKD
ROOT
HETATM    1  O   UNL     1     -11.652  12.814  70.234  1.00  0.00    -0.530 OA 
HETATM    2  H   UNL     1     -12.103  12.937  71.062  1.00  0.00     0.000 HD 
HETATM    3  C   UNL     1     -12.050  11.565  69.653  1.00  0.00    -0.296 C  
ENDROOT
BRANCH   3   4
HETATM    4  C   UNL     1     -11.316  11.365  68.306  1.00  0.00    -0.286 C  
BRANCH   4   5
HETATM    5  N   UNL     1     -11.887  12.215  67.237  1.00  0.00    -0.579 NA 
HETATM    6  H   UNL     1     -11.900  13.201  67.499  1.00  0.00     0.000 HD 
BRANCH   5   7
HETATM    7  C   UNL     1     -11.170  11.991  65.977  1.00  0.00    -0.335 C  
BRANCH   7   8
HETATM    8  C   UNL     1      -9.667  12.199  66.184  1.00  0.00    -0.254 C  
BRANCH   8   9
HETATM    9  C   UNL     1      -8.874  11.028  65.599  1.00  0.00    -0.187 C  
BRANCH   9  10
HETATM   10  C   UNL     1      -9.749   9.786  65.411  1.00  0.00    -0.383 C  
BRANCH  10  11
HETATM   11  C   UNL     1      -9.546   8.807  66.541  1.00  0.00    -0.302 A  
HETATM   12  C   UNL     1      -8.289   8.673  67.150  1.00  0.00    -0.107 A  
HETATM   13  C   UNL     1      -8.085   7.730  68.159  1.00  0.00    -0.123 A  
HETATM   14  C   UNL     1      -9.141   6.916  68.557  1.00  0.00    -0.127 A  
HETATM   15  O   UNL     1      -8.981   5.968  69.525  1.00  0.00    -0.129 OA 
HETATM   16  C   UNL     1     -10.394   7.038  67.973  1.00  0.00    -0.234 A  
HETATM   17  H   UNL     1      -9.702   5.413  69.797  1.00  0.00     0.000 HD 
HETATM   18  C   UNL     1     -10.597   7.982  66.963  1.00  0.00    -0.364 A  
ENDBRANCH  10  11
ENDBRANCH   9  10
ENDBRANCH   8   9
ENDBRANCH   7   8
ENDBRANCH   5   7
ENDBRANCH   4   5
ENDBRANCH   3   4
BRANCH   3  19
HETATM   19  C   UNL     1     -11.756  10.431  70.614  1.00  0.00    -0.444 A  
HETATM   20  C   UNL     1     -10.485   9.833  70.674  1.00  0.00    -0.358 A  
HETATM   21  H   UNL     1     -11.750   6.926  73.760  1.00  0.00     0.000 HD 
HETATM   22  C   UNL     1     -12.780   9.936  71.445  1.00  0.00    -0.503 A  
HETATM   23  H   UNL     1      -8.883   7.436  72.228  1.00  0.00     0.000 HD 
HETATM   24  C   UNL     1     -10.258   8.773  71.545  1.00  0.00    -0.300 A  
HETATM   25  C   UNL     1     -12.544   8.871  72.318  1.00  0.00    -0.455 A  
HETATM   26  O   UNL     1      -9.038   8.160  71.633  1.00  0.00    -0.139 OA 
HETATM   27  C   UNL     1     -11.284   8.297  72.358  1.00  0.00    -0.381 A  
HETATM   28  O   UNL     1     -11.051   7.251  73.205  1.00  0.00    -0.331 OA 
ENDBRANCH   3  19
TORSDOF 8
ENDMDL
MODEL      126
REMARK 921   NORMALIZED FREE ENERGY PREDICTED BY IDOCK:   -5.15 KCAL/MOL
REMARK 922        TOTAL FREE ENERGY PREDICTED BY IDOCK:   -8.76 KCAL/MOL
REMARK 923 INTER-LIGAND FREE ENERGY PREDICTED BY IDOCK:   -7.82 KCAL/MOL
REMARK 924 INTRA-LIGAND FREE ENERGY PREDICTED BY IDOCK:   -0.94 KCAL/MOL
REMARK 927      BINDING AFFINITY PREDICTED BY RF-SCORE:    0.00 PKD
ROOT
HETATM    1  O   UNL     1     -10.212   9.435  65.340  1.00  0.00    -0.306 OA 
HETATM    2  H   UNL     1      -9.778   8.772  65.866  1.00  0.00     0.000 HD 
HETATM    3  C   UNL     1     -10.030  10.721  65.947  1.00  0.00    -0.250 C  
ENDROOT
BRANCH   3   4
HETATM    4  C   UNL     1     -10.735  11.800  65.091  1.00  0.00    -0.291 C  
BRANCH   4   5
HETATM    5  N   UNL     1      -9.789  12.838  64.625  1.00  0.00    -0.549 NA 
HETATM    6  H   UNL     1      -9.760  12.898  63.607  1.00  0.00     0.000 HD 
BRANCH   5   7
HETATM    7  C   UNL     1     -10.113  14.129  65.242  1.00  0.00    -0.335 C  
BRANCH   7   8
HETATM    8  C   UNL     1      -9.347  14.289  66.558  1.00  0.00    -0.292 C  
BRANCH   8   9
HETATM    9  C   UNL     1     -10.061  15.277  67.483  1.00  0.00    -0.232 C  
BRANCH   9  10
HETATM   10  C   UNL     1     -10.744  16.399  66.696  1.00  0.00    -0.173 C  
BRANCH  10  11
HETATM   11  C   UNL     1      -9.978  17.694  66.828  1.00  0.00    -0.320 A  
HETATM   12  C   UNL     1     -10.648  18.890  67.126  1.00  0.00    -0.531 A  
HETATM   13  C   UNL     1      -9.949  20.097  67.195  1.00  0.00    -0.595 A  
HETATM   14  C   UNL     1      -8.577  20.107  66.964  1.00  0.00    -0.336 A  
HETATM   15  O   UNL     1      -7.859  21.266  67.003  1.00  0.00    -0.717 OA 
HETATM   16  C   UNL     1      -7.895  18.932  66.676  1.00  0.00    -0.271 A  
HETATM   17  H   UNL     1      -6.923  21.273  66.844  1.00  0.00     0.000 HD 
HETATM   18  C   UNL     1      -8.595  17.726  66.606  1.00  0.00    -0.280 A  
ENDBRANCH  10  11
ENDBRANCH   9  10
ENDBRANCH   8   9
ENDBRANCH   7   8
ENDBRANCH   5   7
ENDBRANCH   4   5
ENDBRANCH   3   4
BRANCH   3  19
HETATM   19  C   UNL     1     -10.565  10.705  67.364  1.00  0.00    -0.304 A  
HETATM   20  C   UNL     1     -10.189   9.705  68.278  1.00  0.00    -0.216 A  
HETATM   21  H   UNL     1     -12.779  11.333  71.473  1.00  0.00     0.000 HD 
HETATM   22  C   UNL     1     -11.486  11.688  67.775  1.00  0.00    -0.373 A  
HETATM   23  H   UNL     1     -10.753   8.743  71.357  1.00  0.00     0.000 HD 
HETATM   24  C   UNL     1     -10.724   9.701  69.561  1.00  0.00    -0.232 A  
HETATM   25  C   UNL     1     -12.019  11.678  69.066  1.00  0.00    -0.368 A  
HETATM   26  O   UNL     1     -10.388   8.745  70.480  1.00  0.00    -0.190 OA 
HETATM   27  C   UNL     1     -11.634  10.681  69.948  1.00  0.00    -0.316 A  
HETATM   28  O   UNL     1     -12.158  10.664  71.209  1.00  0.00    -0.345 OA 
ENDBRANCH   3  19
TORSDOF 8
ENDMDL
MODEL      127
REMARK 921   NORMALIZED FREE ENERGY PREDICTED BY IDOCK:   -5.10 KCAL/MOL
REMARK 922        TOTAL FREE ENERGY PREDICTED BY IDOCK:   -8.69 KCAL/MOL
REMARK 923 INTER-LIGAND FREE ENERGY PREDICTED BY IDOCK:   -8.09 KCAL/MOL
REMARK 924 INTRA-LIGAND FREE ENERGY PREDICTED BY IDOCK:   -0.60 KCAL/MOL
REMARK 927      BINDING AFFINITY PREDICTED BY RF-SCORE:    0.00 PKD
ROOT
HETATM    1  O   UNL     1      -8.918   9.392  71.347  1.00  0.00    -0.284 OA 
HETATM    2  H   UNL     1      -8.306   9.128  72.026  1.00  0.00     0.000 HD 
HETATM    3  C   UNL     1     -10.251   9.047  71.745  1.00  0.00    -0.319 C  
ENDROOT
BRANCH   3   4
HETATM    4  C   UNL     1     -11.246   9.477  70.641  1.00  0.00    -0.302 C  
BRANCH   4   5
HETATM    5  N   UNL     1     -11.405  10.947  70.585  1.00  0.00    -0.410 NA 
HETATM    6  H   UNL     1     -10.751  11.425  71.205  1.00  0.00     0.000 HD 
BRANCH   5   7
HETATM    7  C   UNL     1     -11.291  11.414  69.199  1.00  0.00    -0.288 C  
BRANCH   7   8
HETATM    8  C   UNL     1      -9.855  11.231  68.699  1.00  0.00    -0.208 C  
BRANCH   8   9
HETATM    9  C   UNL     1      -9.783  11.415  67.182  1.00  0.00    -0.200 C  
BRANCH   9  10
HETATM   10  C   UNL     1     -11.170  11.619  66.568  1.00  0.00    -0.356 C  
BRANCH  10  11
HETATM   11  C   UNL     1     -11.230  12.910  65.788  1.00  0.00    -0.324 A  
HETATM   12  C   UNL     1     -10.215  13.869  65.920  1.00  0.00    -0.326 A  
HETATM   13  C   UNL     1     -10.296  15.087  65.241  1.00  0.00    -0.424 A  
HETATM   14  C   UNL     1     -11.397  15.346  64.430  1.00  0.00    -0.238 A  
HETATM   15  O   UNL     1     -11.525  16.529  63.764  1.00  0.00    -1.615 OA 
HETATM   16  C   UNL     1     -12.407  14.406  64.280  1.00  0.00    -0.402 A  
HETATM   17  H   UNL     1     -12.277  16.706  63.211  1.00  0.00     0.000 HD 
HETATM   18  C   UNL     1     -12.326  13.189  64.960  1.00  0.00    -0.511 A  
ENDBRANCH  10  11
ENDBRANCH   9  10
ENDBRANCH   8   9
ENDBRANCH   7   8
ENDBRANCH   5   7
ENDBRANCH   4   5
ENDBRANCH   3   4
BRANCH   3  19
HETATM   19  C   UNL     1     -10.340   7.559  72.019  1.00  0.00    -0.236 A  
HETATM   20  C   UNL     1     -10.077   6.612  71.014  1.00  0.00    -0.207 A  
HETATM   21  H   UNL     1     -10.970   3.199  73.682  1.00  0.00     0.000 HD 
HETATM   22  C   UNL     1     -10.728   7.106  73.295  1.00  0.00    -0.403 A  
HETATM   23  H   UNL     1     -10.039   3.373  70.531  1.00  0.00     0.000 HD 
HETATM   24  C   UNL     1     -10.199   5.256  71.290  1.00  0.00    -0.224 A  
HETATM   25  C   UNL     1     -10.848   5.741  73.566  1.00  0.00    -0.272 A  
HETATM   26  O   UNL     1      -9.956   4.301  70.342  1.00  0.00    -0.211 OA 
HETATM   27  C   UNL     1     -10.585   4.827  72.558  1.00  0.00    -0.200 A  
HETATM   28  O   UNL     1     -10.708   3.491  72.817  1.00  0.00    -0.137 OA 
ENDBRANCH   3  19
TORSDOF 8
ENDMDL
MODEL      128
REMARK 921   NORMALIZED FREE ENERGY PREDICTED BY IDOCK:   -5.10 KCAL/MOL
REMARK 922        TOTAL FREE ENERGY PREDICTED BY IDOCK:   -8.69 KCAL/MOL
REMARK 923 INTER-LIGAND FREE ENERGY PREDICTED BY IDOCK:   -8.02 KCAL/MOL
REMARK 924 INTRA-LIGAND FREE ENERGY PREDICTED BY IDOCK:   -0.67 KCAL/MOL
REMARK 927      BINDING AFFINITY PREDICTED BY RF-SCORE:    0.00 PKD
ROOT
HETATM    1  O   UNL     1      -9.740  13.880  64.854  1.00  0.00    -0.581 OA 
HETATM    2  H   UNL     1      -9.000  14.349  64.486  1.00  0.00     0.000 HD 
HETATM    3  C   UNL     1     -10.866  14.761  64.951  1.00  0.00    -0.416 C  
ENDROOT
BRANCH   3   4
HETATM    4  C   UNL     1     -12.070  13.997  65.551  1.00  0.00    -0.410 C  
BRANCH   4   5
HETATM    5  N   UNL     1     -11.734  12.587  65.849  1.00  0.00    -0.408 NA 
HETATM    6  H   UNL     1     -10.839  12.314  65.442  1.00  0.00     0.000 HD 
BRANCH   5   7
HETATM    7  C   UNL     1     -11.772  12.356  67.297  1.00  0.00    -0.349 C  
BRANCH   7   8
HETATM    8  C   UNL     1     -10.438  11.771  67.771  1.00  0.00    -0.219 C  
BRANCH   8   9
HETATM    9  C   UNL     1     -10.669  10.524  68.627  1.00  0.00    -0.247 C  
BRANCH   9  10
HETATM   10  C   UNL     1     -11.262  10.874  69.994  1.00  0.00    -0.340 C  
BRANCH  10  11
HETATM   11  C   UNL     1     -11.247   9.675  70.911  1.00  0.00    -0.422 A  
HETATM   12  C   UNL     1     -10.037   9.193  71.433  1.00  0.00    -0.392 A  
HETATM   13  C   UNL     1     -10.016   8.052  72.238  1.00  0.00    -0.304 A  
HETATM   14  C   UNL     1     -11.207   7.391  72.519  1.00  0.00    -0.317 A  
HETATM   15  O   UNL     1     -11.230   6.263  73.286  1.00  0.00    -0.450 OA 
HETATM   16  C   UNL     1     -12.415   7.858  72.019  1.00  0.00    -0.338 A  
HETATM   17  H   UNL     1     -12.043   5.812  73.477  1.00  0.00     0.000 HD 
HETATM   18  C   UNL     1     -12.436   8.998  71.214  1.00  0.00    -0.346 A  
ENDBRANCH  10  11
ENDBRANCH   9  10
ENDBRANCH   8   9
ENDBRANCH   7   8
ENDBRANCH   5   7
ENDBRANCH   4   5
ENDBRANCH   3   4
BRANCH   3  19
HETATM   19  C   UNL     1     -10.506  15.969  65.792  1.00  0.00    -0.391 A  
HETATM   20  C   UNL     1     -10.765  17.277  65.345  1.00  0.00    -0.074 A  
HETATM   21  H   UNL     1      -8.963  19.107  68.946  1.00  0.00     0.000 HD 
HETATM   22  C   UNL     1      -9.867  15.791  67.034  1.00  0.00    -0.238 A  
HETATM   23  H   UNL     1     -10.370  20.395  66.264  1.00  0.00     0.000 HD 
HETATM   24  C   UNL     1     -10.393  18.364  66.127  1.00  0.00    -0.407 A  
HETATM   25  C   UNL     1      -9.496  16.888  67.815  1.00  0.00    -0.237 A  
HETATM   26  O   UNL     1     -10.623  19.652  65.730  1.00  0.00    -0.522 OA 
HETATM   27  C   UNL     1      -9.761  18.167  67.353  1.00  0.00    -0.296 A  
HETATM   28  O   UNL     1      -9.394  19.242  68.111  1.00  0.00    -0.315 OA 
ENDBRANCH   3  19
TORSDOF 8
ENDMDL
MODEL      129
REMARK 921   NORMALIZED FREE ENERGY PREDICTED BY IDOCK:   -5.08 KCAL/MOL
REMARK 922        TOTAL FREE ENERGY PREDICTED BY IDOCK:   -8.67 KCAL/MOL
REMARK 923 INTER-LIGAND FREE ENERGY PREDICTED BY IDOCK:   -6.29 KCAL/MOL
REMARK 924 INTRA-LIGAND FREE ENERGY PREDICTED BY IDOCK:   -2.38 KCAL/MOL
REMARK 927      BINDING AFFINITY PREDICTED BY RF-SCORE:    0.00 PKD
ROOT
HETATM    1  O   UNL     1     -11.070  15.194  66.374  1.00  0.00    -0.339 OA 
HETATM    2  H   UNL     1     -10.574  15.568  67.093  1.00  0.00     0.000 HD 
HETATM    3  C   UNL     1     -11.929  14.160  66.872  1.00  0.00    -0.449 C  
ENDROOT
BRANCH   3   4
HETATM    4  C   UNL     1     -12.736  13.551  65.700  1.00  0.00    -0.421 C  
BRANCH   4   5
HETATM    5  N   UNL     1     -12.587  14.343  64.459  1.00  0.00    -0.673 NA 
HETATM    6  H   UNL     1     -12.020  15.179  64.605  1.00  0.00     0.000 HD 
BRANCH   5   7
HETATM    7  C   UNL     1     -12.056  13.499  63.383  1.00  0.00    -0.289 C  
BRANCH   7   8
HETATM    8  C   UNL     1     -12.167  12.022  63.770  1.00  0.00    -0.600 C  
BRANCH   8   9
HETATM    9  C   UNL     1     -10.887  11.269  63.404  1.00  0.00    -0.311 C  
BRANCH   9  10
HETATM   10  C   UNL     1      -9.712  11.677  64.296  1.00  0.00    -0.196 C  
BRANCH  10  11
HETATM   11  C   UNL     1      -9.248  10.516  65.141  1.00  0.00    -0.243 A  
HETATM   12  C   UNL     1      -7.879  10.262  65.313  1.00  0.00    -0.145 A  
HETATM   13  C   UNL     1      -7.448   9.157  66.050  1.00  0.00    -0.095 A  
HETATM   14  C   UNL     1      -8.389   8.302  66.613  1.00  0.00    -0.111 A  
HETATM   15  O   UNL     1      -8.013   7.201  67.325  1.00  0.00    -0.108 OA 
HETATM   16  C   UNL     1      -9.748   8.541  66.462  1.00  0.00    -0.330 A  
HETATM   17  H   UNL     1      -8.655   6.617  67.709  1.00  0.00     0.000 HD 
HETATM   18  C   UNL     1     -10.178   9.645  65.725  1.00  0.00    -0.172 A  
ENDBRANCH  10  11
ENDBRANCH   9  10
ENDBRANCH   8   9
ENDBRANCH   7   8
ENDBRANCH   5   7
ENDBRANCH   4   5
ENDBRANCH   3   4
BRANCH   3  19
HETATM   19  C   UNL     1     -11.107  13.103  67.582  1.00  0.00    -0.295 A  
HETATM   20  C   UNL     1     -11.717  12.019  68.237  1.00  0.00    -0.396 A  
HETATM   21  H   UNL     1      -7.846  10.387  69.623  1.00  0.00     0.000 HD 
HETATM   22  C   UNL     1      -9.704  13.219  67.623  1.00  0.00    -0.219 A  
HETATM   23  H   UNL     1     -10.953   9.378  70.017  1.00  0.00     0.000 HD 
HETATM   24  C   UNL     1     -10.936  11.085  68.907  1.00  0.00    -0.227 A  
HETATM   25  C   UNL     1      -8.925  12.276  68.297  1.00  0.00    -0.182 A  
HETATM   26  O   UNL     1     -11.487  10.017  69.559  1.00  0.00    -0.208 OA 
HETATM   27  C   UNL     1      -9.549  11.217  68.937  1.00  0.00    -0.105 A  
HETATM   28  O   UNL     1      -8.791  10.297  69.603  1.00  0.00    -0.175 OA 
ENDBRANCH   3  19
TORSDOF 8
ENDMDL
MODEL      130
REMARK 921   NORMALIZED FREE ENERGY PREDICTED BY IDOCK:   -5.08 KCAL/MOL
REMARK 922        TOTAL FREE ENERGY PREDICTED BY IDOCK:   -8.66 KCAL/MOL
REMARK 923 INTER-LIGAND FREE ENERGY PREDICTED BY IDOCK:   -7.33 KCAL/MOL
REMARK 924 INTRA-LIGAND FREE ENERGY PREDICTED BY IDOCK:   -1.33 KCAL/MOL
REMARK 927      BINDING AFFINITY PREDICTED BY RF-SCORE:    0.00 PKD
ROOT
HETATM    1  O   UNL     1      -8.961   9.499  70.959  1.00  0.00    -0.286 OA 
HETATM    2  H   UNL     1      -8.054   9.256  70.809  1.00  0.00     0.000 HD 
HETATM    3  C   UNL     1      -9.818   8.653  70.182  1.00  0.00    -0.180 C  
ENDROOT
BRANCH   3   4
HETATM    4  C   UNL     1     -11.294   9.049  70.428  1.00  0.00    -0.210 C  
BRANCH   4   5
HETATM    5  N   UNL     1     -11.418  10.079  71.483  1.00  0.00    -0.270 NA 
HETATM    6  H   UNL     1     -10.519  10.295  71.914  1.00  0.00     0.000 HD 
BRANCH   5   7
HETATM    7  C   UNL     1     -12.071  11.277  70.944  1.00  0.00    -0.301 C  
BRANCH   7   8
HETATM    8  C   UNL     1     -12.143  11.194  69.417  1.00  0.00    -0.396 C  
BRANCH   8   9
HETATM    9  C   UNL     1     -11.413  12.375  68.775  1.00  0.00    -0.350 C  
BRANCH   9  10
HETATM   10  C   UNL     1     -10.893  12.032  67.377  1.00  0.00    -0.285 C  
BRANCH  10  11
HETATM   11  C   UNL     1     -11.110  13.182  66.423  1.00  0.00    -0.311 A  
HETATM   12  C   UNL     1     -12.313  13.299  65.711  1.00  0.00    -0.505 A  
HETATM   13  C   UNL     1     -12.495  14.332  64.789  1.00  0.00    -0.390 A  
HETATM   14  C   UNL     1     -11.468  15.247  64.576  1.00  0.00    -0.315 A  
HETATM   15  O   UNL     1     -11.596  16.259  63.672  1.00  0.00    -1.424 OA 
HETATM   16  C   UNL     1     -10.274  15.152  65.277  1.00  0.00    -0.400 A  
HETATM   17  H   UNL     1     -10.895  16.884  63.526  1.00  0.00     0.000 HD 
HETATM   18  C   UNL     1     -10.093  14.119  66.199  1.00  0.00    -0.324 A  
ENDBRANCH  10  11
ENDBRANCH   9  10
ENDBRANCH   8   9
ENDBRANCH   7   8
ENDBRANCH   5   7
ENDBRANCH   4   5
ENDBRANCH   3   4
BRANCH   3  19
HETATM   19  C   UNL     1      -9.457   8.760  68.714  1.00  0.00    -0.142 A  
HETATM   20  C   UNL     1      -8.439   9.622  68.271  1.00  0.00    -0.118 A  
HETATM   21  H   UNL     1      -9.081   8.564  64.024  1.00  0.00     0.000 HD 
HETATM   22  C   UNL     1     -10.173   8.008  67.762  1.00  0.00    -0.282 A  
HETATM   23  H   UNL     1      -6.980  10.613  65.512  1.00  0.00     0.000 HD 
HETATM   24  C   UNL     1      -8.154   9.719  66.914  1.00  0.00    -0.113 A  
HETATM   25  C   UNL     1      -9.881   8.110  66.400  1.00  0.00    -0.261 A  
HETATM   26  O   UNL     1      -7.175  10.547  66.439  1.00  0.00    -0.114 OA 
HETATM   27  C   UNL     1      -8.874   8.968  65.987  1.00  0.00    -0.175 A  
HETATM   28  O   UNL     1      -8.591   9.076  64.656  1.00  0.00    -0.173 OA 
ENDBRANCH   3  19
TORSDOF 8
ENDMDL
MODEL      131
REMARK 921   NORMALIZED FREE ENERGY PREDICTED BY IDOCK:   -5.08 KCAL/MOL
REMARK 922        TOTAL FREE ENERGY PREDICTED BY IDOCK:   -8.66 KCAL/MOL
REMARK 923 INTER-LIGAND FREE ENERGY PREDICTED BY IDOCK:   -7.10 KCAL/MOL
REMARK 924 INTRA-LIGAND FREE ENERGY PREDICTED BY IDOCK:   -1.56 KCAL/MOL
REMARK 927      BINDING AFFINITY PREDICTED BY RF-SCORE:    0.00 PKD
ROOT
HETATM    1  O   UNL     1     -10.202   8.588  65.924  1.00  0.00    -0.367 OA 
HETATM    2  H   UNL     1     -10.923   8.512  66.539  1.00  0.00     0.000 HD 
HETATM    3  C   UNL     1      -9.566   9.862  66.089  1.00  0.00    -0.218 C  
ENDROOT
BRANCH   3   4
HETATM    4  C   UNL     1      -8.392   9.986  65.088  1.00  0.00    -0.153 C  
BRANCH   4   5
HETATM    5  N   UNL     1      -7.548  11.168  65.375  1.00  0.00    -0.335 NA 
HETATM    6  H   UNL     1      -8.107  11.992  65.596  1.00  0.00     0.000 HD 
BRANCH   5   7
HETATM    7  C   UNL     1      -6.587  10.855  66.438  1.00  0.00    -0.134 C  
BRANCH   7   8
HETATM    8  C   UNL     1      -6.589  11.965  67.492  1.00  0.00    -0.110 C  
BRANCH   8   9
HETATM    9  C   UNL     1      -7.707  12.972  67.214  1.00  0.00    -0.112 C  
BRANCH   9  10
HETATM   10  C   UNL     1      -8.142  13.704  68.486  1.00  0.00    -0.118 C  
BRANCH  10  11
HETATM   11  C   UNL     1      -8.817  15.012  68.152  1.00  0.00    -0.167 A  
HETATM   12  C   UNL     1      -8.594  15.632  66.913  1.00  0.00    -0.281 A  
HETATM   13  C   UNL     1      -9.175  16.869  66.623  1.00  0.00    -0.278 A  
HETATM   14  C   UNL     1      -9.977  17.487  67.576  1.00  0.00    -0.315 A  
HETATM   15  O   UNL     1     -10.549  18.703  67.342  1.00  0.00    -0.416 OA 
HETATM   16  C   UNL     1     -10.216  16.886  68.805  1.00  0.00    -0.311 A  
HETATM   17  H   UNL     1     -11.096  19.126  67.993  1.00  0.00     0.000 HD 
HETATM   18  C   UNL     1      -9.635  15.650  69.094  1.00  0.00    -0.251 A  
ENDBRANCH  10  11
ENDBRANCH   9  10
ENDBRANCH   8   9
ENDBRANCH   7   8
ENDBRANCH   5   7
ENDBRANCH   4   5
ENDBRANCH   3   4
BRANCH   3  19
HETATM   19  C   UNL     1     -10.577  10.974  65.892  1.00  0.00    -0.270 A  
HETATM   20  C   UNL     1     -11.112  11.262  64.624  1.00  0.00    -0.223 A  
HETATM   21  H   UNL     1     -13.527  14.635  66.159  1.00  0.00     0.000 HD 
HETATM   22  C   UNL     1     -10.970  11.764  66.990  1.00  0.00    -0.333 A  
HETATM   23  H   UNL     1     -13.173  13.340  63.155  1.00  0.00     0.000 HD 
HETATM   24  C   UNL     1     -12.014  12.309  64.473  1.00  0.00    -0.383 A  
HETATM   25  C   UNL     1     -11.877  12.814  66.831  1.00  0.00    -0.440 A  
HETATM   26  O   UNL     1     -12.557  12.625  63.258  1.00  0.00    -0.669 OA 
HETATM   27  C   UNL     1     -12.389  13.079  65.571  1.00  0.00    -0.472 A  
HETATM   28  O   UNL     1     -13.271  14.110  65.411  1.00  0.00    -0.741 OA 
ENDBRANCH   3  19
TORSDOF 8
ENDMDL
MODEL      132
REMARK 921   NORMALIZED FREE ENERGY PREDICTED BY IDOCK:   -5.07 KCAL/MOL
REMARK 922        TOTAL FREE ENERGY PREDICTED BY IDOCK:   -8.64 KCAL/MOL
REMARK 923 INTER-LIGAND FREE ENERGY PREDICTED BY IDOCK:   -7.88 KCAL/MOL
REMARK 924 INTRA-LIGAND FREE ENERGY PREDICTED BY IDOCK:   -0.76 KCAL/MOL
REMARK 927      BINDING AFFINITY PREDICTED BY RF-SCORE:    0.00 PKD
ROOT
HETATM    1  O   UNL     1      -9.612  17.117  65.679  1.00  0.00    -0.535 OA 
HETATM    2  H   UNL     1      -9.429  17.718  64.965  1.00  0.00     0.000 HD 
HETATM    3  C   UNL     1      -9.898  17.862  66.870  1.00  0.00    -0.321 C  
ENDROOT
BRANCH   3   4
HETATM    4  C   UNL     1     -10.197  16.885  68.031  1.00  0.00    -0.310 C  
BRANCH   4   5
HETATM    5  N   UNL     1      -9.358  15.668  67.955  1.00  0.00    -0.192 NA 
HETATM    6  H   UNL     1      -8.558  15.715  68.588  1.00  0.00     0.000 HD 
BRANCH   5   7
HETATM    7  C   UNL     1     -10.177  14.475  68.194  1.00  0.00    -0.230 C  
BRANCH   7   8
HETATM    8  C   UNL     1     -11.649  14.782  67.907  1.00  0.00    -0.373 C  
BRANCH   8   9
HETATM    9  C   UNL     1     -12.241  13.745  66.950  1.00  0.00    -0.408 C  
BRANCH   9  10
HETATM   10  C   UNL     1     -11.709  13.916  65.525  1.00  0.00    -0.356 C  
BRANCH  10  11
HETATM   11  C   UNL     1     -11.071  12.641  65.030  1.00  0.00    -0.326 A  
HETATM   12  C   UNL     1     -10.728  11.621  65.930  1.00  0.00    -0.328 A  
HETATM   13  C   UNL     1     -10.089  10.463  65.481  1.00  0.00    -0.352 A  
HETATM   14  C   UNL     1      -9.789  10.328  64.130  1.00  0.00    -0.250 A  
HETATM   15  O   UNL     1      -9.149   9.223  63.651  1.00  0.00    -0.423 OA 
HETATM   16  C   UNL     1     -10.128  11.323  63.223  1.00  0.00    -0.428 A  
HETATM   17  H   UNL     1      -8.944   9.131  62.729  1.00  0.00     0.000 HD 
HETATM   18  C   UNL     1     -10.766  12.480  63.672  1.00  0.00    -0.469 A  
ENDBRANCH  10  11
ENDBRANCH   9  10
ENDBRANCH   8   9
ENDBRANCH   7   8
ENDBRANCH   5   7
ENDBRANCH   4   5
ENDBRANCH   3   4
BRANCH   3  19
HETATM   19  C   UNL     1      -8.733  18.773  67.202  1.00  0.00    -0.288 A  
HETATM   20  C   UNL     1      -8.232  18.873  68.511  1.00  0.00    -0.388 A  
HETATM   21  H   UNL     1      -5.220  21.905  67.367  1.00  0.00     0.000 HD 
HETATM   22  C   UNL     1      -8.157  19.567  66.191  1.00  0.00    -0.342 A  
HETATM   23  H   UNL     1      -5.949  20.467  70.236  1.00  0.00     0.000 HD 
HETATM   24  C   UNL     1      -7.183  19.742  68.787  1.00  0.00    -0.317 A  
HETATM   25  C   UNL     1      -7.103  20.438  66.476  1.00  0.00    -0.300 A  
HETATM   26  O   UNL     1      -6.666  19.873  70.047  1.00  0.00    -0.328 OA 
HETATM   27  C   UNL     1      -6.626  20.520  67.774  1.00  0.00    -0.301 A  
HETATM   28  O   UNL     1      -5.600  21.375  68.058  1.00  0.00    -0.317 OA 
ENDBRANCH   3  19
TORSDOF 8
ENDMDL
MODEL      133
REMARK 921   NORMALIZED FREE ENERGY PREDICTED BY IDOCK:   -5.07 KCAL/MOL
REMARK 922        TOTAL FREE ENERGY PREDICTED BY IDOCK:   -8.64 KCAL/MOL
REMARK 923 INTER-LIGAND FREE ENERGY PREDICTED BY IDOCK:   -7.96 KCAL/MOL
REMARK 924 INTRA-LIGAND FREE ENERGY PREDICTED BY IDOCK:   -0.67 KCAL/MOL
REMARK 927      BINDING AFFINITY PREDICTED BY RF-SCORE:    0.00 PKD
ROOT
HETATM    1  O   UNL     1     -10.471  17.360  67.470  1.00  0.00    -0.343 OA 
HETATM    2  H   UNL     1     -10.900  18.174  67.230  1.00  0.00     0.000 HD 
HETATM    3  C   UNL     1      -9.462  17.623  68.454  1.00  0.00    -0.298 C  
ENDROOT
BRANCH   3   4
HETATM    4  C   UNL     1      -8.765  16.298  68.845  1.00  0.00    -0.253 C  
BRANCH   4   5
HETATM    5  N   UNL     1      -8.409  15.492  67.656  1.00  0.00    -0.148 NA 
HETATM    6  H   UNL     1      -7.411  15.539  67.448  1.00  0.00     0.000 HD 
BRANCH   5   7
HETATM    7  C   UNL     1      -8.870  14.110  67.828  1.00  0.00    -0.185 C  
BRANCH   7   8
HETATM    8  C   UNL     1     -10.400  14.062  67.821  1.00  0.00    -0.236 C  
BRANCH   8   9
HETATM    9  C   UNL     1     -10.928  13.460  69.125  1.00  0.00    -0.213 C  
BRANCH   9  10
HETATM   10  C   UNL     1     -12.403  13.800  69.352  1.00  0.00    -0.219 C  
BRANCH  10  11
HETATM   11  C   UNL     1     -12.593  14.533  70.658  1.00  0.00    -0.416 A  
HETATM   12  C   UNL     1     -13.701  14.259  71.473  1.00  0.00    -0.428 A  
HETATM   13  C   UNL     1     -13.907  14.974  72.655  1.00  0.00    -0.537 A  
HETATM   14  C   UNL     1     -13.004  15.967  73.020  1.00  0.00    -0.530 A  
HETATM   15  O   UNL     1     -13.176  16.701  74.156  1.00  0.00    -0.753 OA 
HETATM   16  C   UNL     1     -11.896  16.246  72.231  1.00  0.00    -0.601 A  
HETATM   17  H   UNL     1     -12.560  17.379  74.405  1.00  0.00     0.000 HD 
HETATM   18  C   UNL     1     -11.691  15.532  71.049  1.00  0.00    -0.423 A  
ENDBRANCH  10  11
ENDBRANCH   9  10
ENDBRANCH   8   9
ENDBRANCH   7   8
ENDBRANCH   5   7
ENDBRANCH   4   5
ENDBRANCH   3   4
BRANCH   3  19
HETATM   19  C   UNL     1      -8.467  18.632  67.916  1.00  0.00    -0.297 A  
HETATM   20  C   UNL     1      -8.247  18.780  66.536  1.00  0.00    -0.303 A  
HETATM   21  H   UNL     1      -5.140  21.872  67.134  1.00  0.00     0.000 HD 
HETATM   22  C   UNL     1      -7.715  19.417  68.812  1.00  0.00    -0.397 A  
HETATM   23  H   UNL     1      -6.411  20.491  64.431  1.00  0.00     0.000 HD 
HETATM   24  C   UNL     1      -7.303  19.692  66.078  1.00  0.00    -0.298 A  
HETATM   25  C   UNL     1      -6.769  20.332  68.345  1.00  0.00    -0.316 A  
HETATM   26  O   UNL     1      -7.056  19.867  64.744  1.00  0.00    -0.283 OA 
HETATM   27  C   UNL     1      -6.569  20.460  66.980  1.00  0.00    -0.237 A  
HETATM   28  O   UNL     1      -5.640  21.348  66.519  1.00  0.00    -0.250 OA 
ENDBRANCH   3  19
TORSDOF 8
ENDMDL
MODEL      134
REMARK 921   NORMALIZED FREE ENERGY PREDICTED BY IDOCK:   -5.06 KCAL/MOL
REMARK 922        TOTAL FREE ENERGY PREDICTED BY IDOCK:   -8.63 KCAL/MOL
REMARK 923 INTER-LIGAND FREE ENERGY PREDICTED BY IDOCK:   -7.47 KCAL/MOL
REMARK 924 INTRA-LIGAND FREE ENERGY PREDICTED BY IDOCK:   -1.16 KCAL/MOL
REMARK 927      BINDING AFFINITY PREDICTED BY RF-SCORE:    0.00 PKD
ROOT
HETATM    1  O   UNL     1      -7.446  17.765  65.738  1.00  0.00    -0.526 OA 
HETATM    2  H   UNL     1      -6.981  16.958  65.928  1.00  0.00     0.000 HD 
HETATM    3  C   UNL     1      -6.618  18.886  66.075  1.00  0.00    -0.232 C  
ENDROOT
BRANCH   3   4
HETATM    4  C   UNL     1      -7.376  20.199  65.766  1.00  0.00    -0.267 C  
BRANCH   4   5
HETATM    5  N   UNL     1      -8.836  19.981  65.668  1.00  0.00    -0.473 NA 
HETATM    6  H   UNL     1      -9.067  18.997  65.526  1.00  0.00     0.000 HD 
BRANCH   5   7
HETATM    7  C   UNL     1      -9.509  20.539  66.846  1.00  0.00    -0.334 C  
BRANCH   7   8
HETATM    8  C   UNL     1     -10.715  19.673  67.222  1.00  0.00    -0.583 C  
BRANCH   8   9
HETATM    9  C   UNL     1     -10.479  18.215  66.822  1.00  0.00    -0.363 C  
BRANCH   9  10
HETATM   10  C   UNL     1     -10.141  17.341  68.032  1.00  0.00    -0.324 C  
BRANCH  10  11
HETATM   11  C   UNL     1     -10.557  15.909  67.797  1.00  0.00    -0.302 A  
HETATM   12  C   UNL     1      -9.916  15.133  66.820  1.00  0.00    -0.246 A  
HETATM   13  C   UNL     1     -10.335  13.826  66.564  1.00  0.00    -0.286 A  
HETATM   14  C   UNL     1     -11.400  13.296  67.285  1.00  0.00    -0.314 A  
HETATM   15  O   UNL     1     -11.854  12.031  67.054  1.00  0.00    -0.573 OA 
HETATM   16  C   UNL     1     -12.042  14.045  68.262  1.00  0.00    -0.312 A  
HETATM   17  H   UNL     1     -12.581  11.669  67.546  1.00  0.00     0.000 HD 
HETATM   18  C   UNL     1     -11.622  15.352  68.517  1.00  0.00    -0.373 A  
ENDBRANCH  10  11
ENDBRANCH   9  10
ENDBRANCH   8   9
ENDBRANCH   7   8
ENDBRANCH   5   7
ENDBRANCH   4   5
ENDBRANCH   3   4
BRANCH   3  19
HETATM   19  C   UNL     1      -6.216  18.812  67.534  1.00  0.00    -0.183 A  
HETATM   20  C   UNL     1      -5.873  17.590  68.138  1.00  0.00    -0.153 A  
HETATM   21  H   UNL     1      -5.230  19.467  72.092  1.00  0.00     0.000 HD 
HETATM   22  C   UNL     1      -6.217  19.981  68.319  1.00  0.00    -0.300 A  
HETATM   23  H   UNL     1      -4.975  16.360  71.038  1.00  0.00     0.000 HD 
HETATM   24  C   UNL     1      -5.540  17.553  69.487  1.00  0.00    -0.212 A  
HETATM   25  C   UNL     1      -5.881  19.936  69.674  1.00  0.00    -0.325 A  
HETATM   26  O   UNL     1      -5.203  16.386  70.116  1.00  0.00    -0.152 OA 
HETATM   27  C   UNL     1      -5.548  18.720  70.248  1.00  0.00    -0.225 A  
HETATM   28  O   UNL     1      -5.225  18.671  71.574  1.00  0.00    -0.409 OA 
ENDBRANCH   3  19
TORSDOF 8
ENDMDL
MODEL      135
REMARK 921   NORMALIZED FREE ENERGY PREDICTED BY IDOCK:   -5.04 KCAL/MOL
REMARK 922        TOTAL FREE ENERGY PREDICTED BY IDOCK:   -8.59 KCAL/MOL
REMARK 923 INTER-LIGAND FREE ENERGY PREDICTED BY IDOCK:   -8.06 KCAL/MOL
REMARK 924 INTRA-LIGAND FREE ENERGY PREDICTED BY IDOCK:   -0.53 KCAL/MOL
REMARK 927      BINDING AFFINITY PREDICTED BY RF-SCORE:    0.00 PKD
ROOT
HETATM    1  O   UNL     1     -14.272   8.967  73.179  1.00  0.00    -1.144 OA 
HETATM    2  H   UNL     1     -14.525   8.090  73.446  1.00  0.00     0.000 HD 
HETATM    3  C   UNL     1     -13.648   8.914  71.890  1.00  0.00    -0.425 C  
ENDROOT
BRANCH   3   4
HETATM    4  C   UNL     1     -13.236  10.341  71.457  1.00  0.00    -0.386 C  
BRANCH   4   5
HETATM    5  N   UNL     1     -13.428  11.323  72.547  1.00  0.00    -0.363 NA 
HETATM    6  H   UNL     1     -12.753  11.193  73.301  1.00  0.00     0.000 HD 
BRANCH   5   7
HETATM    7  C   UNL     1     -13.393  12.687  72.008  1.00  0.00    -0.454 C  
BRANCH   7   8
HETATM    8  C   UNL     1     -12.476  12.745  70.783  1.00  0.00    -0.357 C  
BRANCH   8   9
HETATM    9  C   UNL     1     -12.378  14.175  70.248  1.00  0.00    -0.421 C  
BRANCH   9  10
HETATM   10  C   UNL     1     -11.768  14.217  68.845  1.00  0.00    -0.369 C  
BRANCH  10  11
HETATM   11  C   UNL     1     -10.745  15.321  68.733  1.00  0.00    -0.241 A  
HETATM   12  C   UNL     1     -11.101  16.571  68.205  1.00  0.00    -0.321 A  
HETATM   13  C   UNL     1     -10.143  17.576  68.052  1.00  0.00    -0.332 A  
HETATM   14  C   UNL     1      -8.826  17.328  68.425  1.00  0.00    -0.269 A  
HETATM   15  O   UNL     1      -7.855  18.274  68.275  1.00  0.00    -0.277 OA 
HETATM   16  C   UNL     1      -8.456  16.100  68.957  1.00  0.00    -0.251 A  
HETATM   17  H   UNL     1      -6.956  18.105  68.529  1.00  0.00     0.000 HD 
HETATM   18  C   UNL     1      -9.414  15.096  69.110  1.00  0.00    -0.221 A  
ENDBRANCH  10  11
ENDBRANCH   9  10
ENDBRANCH   8   9
ENDBRANCH   7   8
ENDBRANCH   5   7
ENDBRANCH   4   5
ENDBRANCH   3   4
BRANCH   3  19
HETATM   19  C   UNL     1     -12.453   7.983  71.932  1.00  0.00    -0.364 A  
HETATM   20  C   UNL     1     -11.449   8.124  72.906  1.00  0.00    -0.274 A  
HETATM   21  H   UNL     1      -9.066   4.781  71.257  1.00  0.00     0.000 HD 
HETATM   22  C   UNL     1     -12.317   6.975  70.958  1.00  0.00    -0.402 A  
HETATM   23  H   UNL     1      -8.598   6.795  73.817  1.00  0.00     0.000 HD 
HETATM   24  C   UNL     1     -10.349   7.274  72.896  1.00  0.00    -0.262 A  
HETATM   25  C   UNL     1     -11.210   6.124  70.954  1.00  0.00    -0.365 A  
HETATM   26  O   UNL     1      -9.349   7.376  73.823  1.00  0.00    -0.227 OA 
HETATM   27  C   UNL     1     -10.233   6.283  71.924  1.00  0.00    -0.201 A  
HETATM   28  O   UNL     1      -9.145   5.457  71.920  1.00  0.00    -0.137 OA 
ENDBRANCH   3  19
TORSDOF 8
ENDMDL
MODEL      136
REMARK 921   NORMALIZED FREE ENERGY PREDICTED BY IDOCK:   -5.03 KCAL/MOL
REMARK 922        TOTAL FREE ENERGY PREDICTED BY IDOCK:   -8.59 KCAL/MOL
REMARK 923 INTER-LIGAND FREE ENERGY PREDICTED BY IDOCK:   -7.68 KCAL/MOL
REMARK 924 INTRA-LIGAND FREE ENERGY PREDICTED BY IDOCK:   -0.90 KCAL/MOL
REMARK 927      BINDING AFFINITY PREDICTED BY RF-SCORE:    0.00 PKD
ROOT
HETATM    1  O   UNL     1     -12.014  11.490  68.043  1.00  0.00    -0.595 OA 
HETATM    2  H   UNL     1     -12.702  11.137  68.597  1.00  0.00     0.000 HD 
HETATM    3  C   UNL     1     -11.032  10.476  67.795  1.00  0.00    -0.313 C  
ENDROOT
BRANCH   3   4
HETATM    4  C   UNL     1      -9.914  11.050  66.892  1.00  0.00    -0.196 C  
BRANCH   4   5
HETATM    5  N   UNL     1      -9.902  10.412  65.558  1.00  0.00    -0.250 NA 
HETATM    6  H   UNL     1     -10.688   9.773  65.433  1.00  0.00     0.000 HD 
BRANCH   5   7
HETATM    7  C   UNL     1      -9.856  11.437  64.509  1.00  0.00    -0.260 C  
BRANCH   7   8
HETATM    8  C   UNL     1     -11.199  11.500  63.776  1.00  0.00    -0.456 C  
BRANCH   8   9
HETATM    9  C   UNL     1     -11.721  12.938  63.729  1.00  0.00    -0.557 C  
BRANCH   9  10
HETATM   10  C   UNL     1     -12.405  13.338  65.039  1.00  0.00    -0.499 C  
BRANCH  10  11
HETATM   11  C   UNL     1     -11.562  14.326  65.808  1.00  0.00    -0.346 A  
HETATM   12  C   UNL     1     -11.812  14.569  67.166  1.00  0.00    -0.412 A  
HETATM   13  C   UNL     1     -11.068  15.522  67.866  1.00  0.00    -0.321 A  
HETATM   14  C   UNL     1     -10.074  16.235  67.203  1.00  0.00    -0.268 A  
HETATM   15  O   UNL     1      -9.337  17.188  67.842  1.00  0.00    -0.241 OA 
HETATM   16  C   UNL     1      -9.807  16.003  65.861  1.00  0.00    -0.380 A  
HETATM   17  H   UNL     1      -8.659  17.675  67.390  1.00  0.00     0.000 HD 
HETATM   18  C   UNL     1     -10.551  15.050  65.162  1.00  0.00    -0.440 A  
ENDBRANCH  10  11
ENDBRANCH   9  10
ENDBRANCH   8   9
ENDBRANCH   7   8
ENDBRANCH   5   7
ENDBRANCH   4   5
ENDBRANCH   3   4
BRANCH   3  19
HETATM   19  C   UNL     1     -10.473   9.965  69.107  1.00  0.00    -0.235 A  
HETATM   20  C   UNL     1     -11.317   9.601  70.171  1.00  0.00    -0.275 A  
HETATM   21  H   UNL     1      -7.919   8.619  72.828  1.00  0.00     0.000 HD 
HETATM   22  C   UNL     1      -9.078   9.882  69.288  1.00  0.00    -0.196 A  
HETATM   23  H   UNL     1     -11.180   8.509  73.255  1.00  0.00     0.000 HD 
HETATM   24  C   UNL     1     -10.770   9.167  71.373  1.00  0.00    -0.343 A  
HETATM   25  C   UNL     1      -8.536   9.444  70.498  1.00  0.00    -0.251 A  
HETATM   26  O   UNL     1     -11.553   8.806  72.434  1.00  0.00    -0.352 OA 
HETATM   27  C   UNL     1      -9.388   9.093  71.532  1.00  0.00    -0.125 A  
HETATM   28  O   UNL     1      -8.861   8.671  72.720  1.00  0.00    -0.374 OA 
ENDBRANCH   3  19
TORSDOF 8
ENDMDL
MODEL      137
REMARK 921   NORMALIZED FREE ENERGY PREDICTED BY IDOCK:   -5.03 KCAL/MOL
REMARK 922        TOTAL FREE ENERGY PREDICTED BY IDOCK:   -8.58 KCAL/MOL
REMARK 923 INTER-LIGAND FREE ENERGY PREDICTED BY IDOCK:   -7.22 KCAL/MOL
REMARK 924 INTRA-LIGAND FREE ENERGY PREDICTED BY IDOCK:   -1.36 KCAL/MOL
REMARK 927      BINDING AFFINITY PREDICTED BY RF-SCORE:    0.00 PKD
ROOT
HETATM    1  O   UNL     1     -11.869  12.581  70.566  1.00  0.00    -0.525 OA 
HETATM    2  H   UNL     1     -12.468  12.590  71.304  1.00  0.00     0.000 HD 
HETATM    3  C   UNL     1     -11.965  11.323  69.887  1.00  0.00    -0.365 C  
ENDROOT
BRANCH   3   4
HETATM    4  C   UNL     1     -10.990  11.310  68.685  1.00  0.00    -0.218 C  
BRANCH   4   5
HETATM    5  N   UNL     1     -11.501  10.481  67.571  1.00  0.00    -0.541 NA 
HETATM    6  H   UNL     1     -12.357  10.866  67.170  1.00  0.00     0.000 HD 
BRANCH   5   7
HETATM    7  C   UNL     1     -10.456  10.295  66.559  1.00  0.00    -0.173 C  
BRANCH   7   8
HETATM    8  C   UNL     1      -9.914   8.865  66.619  1.00  0.00    -0.346 C  
BRANCH   8   9
HETATM    9  C   UNL     1     -10.849   7.966  67.431  1.00  0.00    -0.172 C  
BRANCH   9  10
HETATM   10  C   UNL     1     -10.773   6.507  66.974  1.00  0.00    -0.434 C  
BRANCH  10  11
HETATM   11  C   UNL     1     -10.329   5.611  68.105  1.00  0.00    -0.254 A  
HETATM   12  C   UNL     1      -9.599   4.442  67.842  1.00  0.00    -0.205 A  
HETATM   13  C   UNL     1      -9.234   3.584  68.882  1.00  0.00    -0.227 A  
HETATM   14  C   UNL     1      -9.602   3.895  70.187  1.00  0.00    -0.197 A  
HETATM   15  O   UNL     1      -9.283   3.076  71.230  1.00  0.00    -0.100 OA 
HETATM   16  C   UNL     1     -10.317   5.052  70.468  1.00  0.00    -0.285 A  
HETATM   17  H   UNL     1      -9.535   3.289  72.120  1.00  0.00     0.000 HD 
HETATM   18  C   UNL     1     -10.682   5.909  69.428  1.00  0.00    -0.406 A  
ENDBRANCH  10  11
ENDBRANCH   9  10
ENDBRANCH   8   9
ENDBRANCH   7   8
ENDBRANCH   5   7
ENDBRANCH   4   5
ENDBRANCH   3   4
BRANCH   3  19
HETATM   19  C   UNL     1     -11.667  10.191  70.850  1.00  0.00    -0.468 A  
HETATM   20  C   UNL     1     -10.396   9.596  70.910  1.00  0.00    -0.334 A  
HETATM   21  H   UNL     1     -11.653   6.693  74.002  1.00  0.00     0.000 HD 
HETATM   22  C   UNL     1     -12.690   9.696  71.682  1.00  0.00    -0.499 A  
HETATM   23  H   UNL     1      -8.787   7.206  72.468  1.00  0.00     0.000 HD 
HETATM   24  C   UNL     1     -10.166   8.538  71.782  1.00  0.00    -0.282 A  
HETATM   25  C   UNL     1     -12.451   8.633  72.557  1.00  0.00    -0.372 A  
HETATM   26  O   UNL     1      -8.945   7.928  71.872  1.00  0.00    -0.121 OA 
HETATM   27  C   UNL     1     -11.190   8.061  72.597  1.00  0.00    -0.397 A  
HETATM   28  O   UNL     1     -10.955   7.018  73.446  1.00  0.00    -0.304 OA 
ENDBRANCH   3  19
TORSDOF 8
ENDMDL
MODEL      138
REMARK 921   NORMALIZED FREE ENERGY PREDICTED BY IDOCK:   -5.02 KCAL/MOL
REMARK 922        TOTAL FREE ENERGY PREDICTED BY IDOCK:   -8.57 KCAL/MOL
REMARK 923 INTER-LIGAND FREE ENERGY PREDICTED BY IDOCK:   -7.52 KCAL/MOL
REMARK 924 INTRA-LIGAND FREE ENERGY PREDICTED BY IDOCK:   -1.06 KCAL/MOL
REMARK 927      BINDING AFFINITY PREDICTED BY RF-SCORE:    0.00 PKD
ROOT
HETATM    1  O   UNL     1      -8.230   9.284  71.000  1.00  0.00    -0.252 OA 
HETATM    2  H   UNL     1      -8.417  10.135  71.380  1.00  0.00     0.000 HD 
HETATM    3  C   UNL     1      -9.262   8.938  70.068  1.00  0.00    -0.174 C  
ENDROOT
BRANCH   3   4
HETATM    4  C   UNL     1      -8.957   7.553  69.450  1.00  0.00    -0.139 C  
BRANCH   4   5
HETATM    5  N   UNL     1      -9.507   7.429  68.081  1.00  0.00    -0.138 NA 
HETATM    6  H   UNL     1     -10.484   7.718  68.034  1.00  0.00     0.000 HD 
BRANCH   5   7
HETATM    7  C   UNL     1      -8.669   8.171  67.132  1.00  0.00    -0.127 C  
BRANCH   7   8
HETATM    8  C   UNL     1      -9.549   8.937  66.142  1.00  0.00    -0.335 C  
BRANCH   8   9
HETATM    9  C   UNL     1      -9.770  10.375  66.616  1.00  0.00    -0.236 C  
BRANCH   9  10
HETATM   10  C   UNL     1     -11.157  10.563  67.235  1.00  0.00    -0.284 C  
BRANCH  10  11
HETATM   11  C   UNL     1     -11.410  12.014  67.564  1.00  0.00    -0.387 A  
HETATM   12  C   UNL     1     -11.393  12.986  66.553  1.00  0.00    -0.359 A  
HETATM   13  C   UNL     1     -11.573  14.336  66.862  1.00  0.00    -0.405 A  
HETATM   14  C   UNL     1     -11.767  14.714  68.187  1.00  0.00    -0.330 A  
HETATM   15  O   UNL     1     -11.928  16.023  68.536  1.00  0.00    -0.411 OA 
HETATM   16  C   UNL     1     -11.795  13.766  69.201  1.00  0.00    -0.398 A  
HETATM   17  H   UNL     1     -12.060  16.281  69.440  1.00  0.00     0.000 HD 
HETATM   18  C   UNL     1     -11.615  12.417  68.890  1.00  0.00    -0.364 A  
ENDBRANCH  10  11
ENDBRANCH   9  10
ENDBRANCH   8   9
ENDBRANCH   7   8
ENDBRANCH   5   7
ENDBRANCH   4   5
ENDBRANCH   3   4
BRANCH   3  19
HETATM   19  C   UNL     1     -10.610   8.948  70.762  1.00  0.00    -0.281 A  
HETATM   20  C   UNL     1     -11.329  10.141  70.949  1.00  0.00    -0.420 A  
HETATM   21  H   UNL     1     -14.605   8.092  73.103  1.00  0.00     0.000 HD 
HETATM   22  C   UNL     1     -11.145   7.745  71.263  1.00  0.00    -0.271 A  
HETATM   23  H   UNL     1     -14.111  11.240  72.282  1.00  0.00     0.000 HD 
HETATM   24  C   UNL     1     -12.547  10.118  71.618  1.00  0.00    -0.434 A  
HETATM   25  C   UNL     1     -12.371   7.730  71.934  1.00  0.00    -0.342 A  
HETATM   26  O   UNL     1     -13.278  11.255  71.825  1.00  0.00    -0.450 OA 
HETATM   27  C   UNL     1     -13.060   8.919  72.108  1.00  0.00    -0.421 A  
HETATM   28  O   UNL     1     -14.255   8.909  72.769  1.00  0.00    -0.557 OA 
ENDBRANCH   3  19
TORSDOF 8
ENDMDL
MODEL      139
REMARK 921   NORMALIZED FREE ENERGY PREDICTED BY IDOCK:   -5.02 KCAL/MOL
REMARK 922        TOTAL FREE ENERGY PREDICTED BY IDOCK:   -8.57 KCAL/MOL
REMARK 923 INTER-LIGAND FREE ENERGY PREDICTED BY IDOCK:   -8.10 KCAL/MOL
REMARK 924 INTRA-LIGAND FREE ENERGY PREDICTED BY IDOCK:   -0.48 KCAL/MOL
REMARK 927      BINDING AFFINITY PREDICTED BY RF-SCORE:    0.00 PKD
ROOT
HETATM    1  O   UNL     1     -13.178  11.510  72.043  1.00  0.00    -0.509 OA 
HETATM    2  H   UNL     1     -13.614  10.976  72.698  1.00  0.00     0.000 HD 
HETATM    3  C   UNL     1     -12.750  10.680  70.956  1.00  0.00    -0.415 C  
ENDROOT
BRANCH   3   4
HETATM    4  C   UNL     1     -12.040  11.550  69.891  1.00  0.00    -0.316 C  
BRANCH   4   5
HETATM    5  N   UNL     1     -11.759  12.913  70.392  1.00  0.00    -0.546 NA 
HETATM    6  H   UNL     1     -10.796  13.012  70.712  1.00  0.00     0.000 HD 
BRANCH   5   7
HETATM    7  C   UNL     1     -12.102  13.907  69.368  1.00  0.00    -0.337 C  
BRANCH   7   8
HETATM    8  C   UNL     1     -12.297  15.281  70.015  1.00  0.00    -0.366 C  
BRANCH   8   9
HETATM    9  C   UNL     1     -11.212  16.256  69.550  1.00  0.00    -0.308 C  
BRANCH   9  10
HETATM   10  C   UNL     1     -11.046  16.238  68.029  1.00  0.00    -0.299 C  
BRANCH  10  11
HETATM   11  C   UNL     1     -10.253  17.433  67.559  1.00  0.00    -0.332 A  
HETATM   12  C   UNL     1     -10.785  18.727  67.666  1.00  0.00    -0.449 A  
HETATM   13  C   UNL     1     -10.075  19.829  67.183  1.00  0.00    -0.553 A  
HETATM   14  C   UNL     1      -8.833  19.635  66.588  1.00  0.00    -0.353 A  
HETATM   15  O   UNL     1      -8.114  20.679  66.086  1.00  0.00    -0.509 OA 
HETATM   16  C   UNL     1      -8.286  18.363  66.480  1.00  0.00    -0.290 A  
HETATM   17  H   UNL     1      -7.266  20.547  65.679  1.00  0.00     0.000 HD 
HETATM   18  C   UNL     1      -8.997  17.262  66.963  1.00  0.00    -0.245 A  
ENDBRANCH  10  11
ENDBRANCH   9  10
ENDBRANCH   8   9
ENDBRANCH   7   8
ENDBRANCH   5   7
ENDBRANCH   4   5
ENDBRANCH   3   4
BRANCH   3  19
HETATM   19  C   UNL     1     -11.837   9.585  71.470  1.00  0.00    -0.478 A  
HETATM   20  C   UNL     1     -10.540   9.411  70.957  1.00  0.00    -0.400 A  
HETATM   21  H   UNL     1      -9.752   5.895  73.523  1.00  0.00     0.000 HD 
HETATM   22  C   UNL     1     -12.302   8.695  72.458  1.00  0.00    -0.378 A  
HETATM   23  H   UNL     1      -7.928   7.462  71.277  1.00  0.00     0.000 HD 
HETATM   24  C   UNL     1      -9.741   8.376  71.428  1.00  0.00    -0.199 A  
HETATM   25  C   UNL     1     -11.492   7.658  72.927  1.00  0.00    -0.342 A  
HETATM   26  O   UNL     1      -8.474   8.169  70.955  1.00  0.00    -0.120 OA 
HETATM   27  C   UNL     1     -10.218   7.506  72.405  1.00  0.00    -0.212 A  
HETATM   28  O   UNL     1      -9.427   6.488  72.857  1.00  0.00    -0.143 OA 
ENDBRANCH   3  19
TORSDOF 8
ENDMDL
MODEL      140
REMARK 921   NORMALIZED FREE ENERGY PREDICTED BY IDOCK:   -5.02 KCAL/MOL
REMARK 922        TOTAL FREE ENERGY PREDICTED BY IDOCK:   -8.57 KCAL/MOL
REMARK 923 INTER-LIGAND FREE ENERGY PREDICTED BY IDOCK:   -6.75 KCAL/MOL
REMARK 924 INTRA-LIGAND FREE ENERGY PREDICTED BY IDOCK:   -1.82 KCAL/MOL
REMARK 927      BINDING AFFINITY PREDICTED BY RF-SCORE:    0.00 PKD
ROOT
HETATM    1  O   UNL     1     -11.751  10.340  68.338  1.00  0.00    -0.652 OA 
HETATM    2  H   UNL     1     -12.191  11.134  68.620  1.00  0.00     0.000 HD 
HETATM    3  C   UNL     1     -10.613  10.681  67.536  1.00  0.00    -0.252 C  
ENDROOT
BRANCH   3   4
HETATM    4  C   UNL     1      -9.898   9.387  67.078  1.00  0.00    -0.201 C  
BRANCH   4   5
HETATM    5  N   UNL     1      -8.582   9.224  67.735  1.00  0.00    -0.117 NA 
HETATM    6  H   UNL     1      -7.840   9.032  67.061  1.00  0.00     0.000 HD 
BRANCH   5   7
HETATM    7  C   UNL     1      -8.282  10.399  68.561  1.00  0.00    -0.119 C  
BRANCH   7   8
HETATM    8  C   UNL     1      -6.900  10.953  68.205  1.00  0.00    -0.067 C  
BRANCH   8   9
HETATM    9  C   UNL     1      -7.007  12.006  67.101  1.00  0.00    -0.134 C  
BRANCH   9  10
HETATM   10  C   UNL     1      -6.670  13.407  67.616  1.00  0.00    -0.174 C  
BRANCH  10  11
HETATM   11  C   UNL     1      -7.905  14.273  67.673  1.00  0.00    -0.191 A  
HETATM   12  C   UNL     1      -8.464  14.638  68.907  1.00  0.00    -0.136 A  
HETATM   13  C   UNL     1      -9.637  15.394  68.960  1.00  0.00    -0.236 A  
HETATM   14  C   UNL     1     -10.254  15.783  67.776  1.00  0.00    -0.251 A  
HETATM   15  O   UNL     1     -11.411  16.505  67.782  1.00  0.00    -0.172 OA 
HETATM   16  C   UNL     1      -9.713  15.438  66.545  1.00  0.00    -0.292 A  
HETATM   17  H   UNL     1     -11.832  16.770  66.973  1.00  0.00     0.000 HD 
HETATM   18  C   UNL     1      -8.540  14.682  66.492  1.00  0.00    -0.023 A  
ENDBRANCH  10  11
ENDBRANCH   9  10
ENDBRANCH   8   9
ENDBRANCH   7   8
ENDBRANCH   5   7
ENDBRANCH   4   5
ENDBRANCH   3   4
BRANCH   3  19
HETATM   19  C   UNL     1     -11.048  11.519  66.351  1.00  0.00    -0.328 A  
HETATM   20  C   UNL     1     -11.880  12.640  66.513  1.00  0.00    -0.463 A  
HETATM   21  H   UNL     1     -12.008  13.455  62.166  1.00  0.00     0.000 HD 
HETATM   22  C   UNL     1     -10.644  11.155  65.051  1.00  0.00    -0.340 A  
HETATM   23  H   UNL     1     -13.376  14.962  64.752  1.00  0.00     0.000 HD 
HETATM   24  C   UNL     1     -12.287  13.368  65.401  1.00  0.00    -0.477 A  
HETATM   25  C   UNL     1     -11.056  11.892  63.939  1.00  0.00    -0.483 A  
HETATM   26  O   UNL     1     -13.098  14.464  65.512  1.00  0.00    -0.553 OA 
HETATM   27  C   UNL     1     -11.878  12.992  64.124  1.00  0.00    -0.416 A  
HETATM   28  O   UNL     1     -12.288  13.711  63.037  1.00  0.00    -0.672 OA 
ENDBRANCH   3  19
TORSDOF 8
ENDMDL
MODEL      141
REMARK 921   NORMALIZED FREE ENERGY PREDICTED BY IDOCK:   -5.02 KCAL/MOL
REMARK 922        TOTAL FREE ENERGY PREDICTED BY IDOCK:   -8.57 KCAL/MOL
REMARK 923 INTER-LIGAND FREE ENERGY PREDICTED BY IDOCK:   -7.74 KCAL/MOL
REMARK 924 INTRA-LIGAND FREE ENERGY PREDICTED BY IDOCK:   -0.83 KCAL/MOL
REMARK 927      BINDING AFFINITY PREDICTED BY RF-SCORE:    0.00 PKD
ROOT
HETATM    1  O   UNL     1     -12.264  15.491  68.892  1.00  0.00    -0.590 OA 
HETATM    2  H   UNL     1     -12.261  16.096  69.626  1.00  0.00     0.000 HD 
HETATM    3  C   UNL     1     -10.915  15.204  68.502  1.00  0.00    -0.262 C  
ENDROOT
BRANCH   3   4
HETATM    4  C   UNL     1     -10.921  14.220  67.309  1.00  0.00    -0.297 C  
BRANCH   4   5
HETATM    5  N   UNL     1     -12.254  14.135  66.672  1.00  0.00    -0.483 NA 
HETATM    6  H   UNL     1     -12.860  14.907  66.951  1.00  0.00     0.000 HD 
BRANCH   5   7
HETATM    7  C   UNL     1     -12.111  14.047  65.214  1.00  0.00    -0.408 C  
BRANCH   7   8
HETATM    8  C   UNL     1     -12.724  12.740  64.704  1.00  0.00    -0.439 C  
BRANCH   8   9
HETATM    9  C   UNL     1     -11.702  11.948  63.885  1.00  0.00    -0.509 C  
BRANCH   9  10
HETATM   10  C   UNL     1     -10.315  11.969  64.532  1.00  0.00    -0.334 C  
BRANCH  10  11
HETATM   11  C   UNL     1     -10.050  10.686  65.283  1.00  0.00    -0.363 A  
HETATM   12  C   UNL     1     -10.622  10.469  66.545  1.00  0.00    -0.240 A  
HETATM   13  C   UNL     1     -10.335   9.306  67.264  1.00  0.00    -0.332 A  
HETATM   14  C   UNL     1      -9.471   8.361  66.719  1.00  0.00    -0.197 A  
HETATM   15  O   UNL     1      -9.149   7.221  67.394  1.00  0.00    -0.121 OA 
HETATM   16  C   UNL     1      -8.902   8.555  65.468  1.00  0.00    -0.196 A  
HETATM   17  H   UNL     1      -8.559   6.576  67.023  1.00  0.00     0.000 HD 
HETATM   18  C   UNL     1      -9.189   9.717  64.750  1.00  0.00    -0.319 A  
ENDBRANCH  10  11
ENDBRANCH   9  10
ENDBRANCH   8   9
ENDBRANCH   7   8
ENDBRANCH   5   7
ENDBRANCH   4   5
ENDBRANCH   3   4
BRANCH   3  19
HETATM   19  C   UNL     1     -10.194  16.491  68.152  1.00  0.00    -0.271 A  
HETATM   20  C   UNL     1      -9.311  16.562  67.061  1.00  0.00    -0.242 A  
HETATM   21  H   UNL     1      -8.303  20.794  67.861  1.00  0.00     0.000 HD 
HETATM   22  C   UNL     1     -10.379  17.635  68.952  1.00  0.00    -0.323 A  
HETATM   23  H   UNL     1      -7.315  18.672  65.548  1.00  0.00     0.000 HD 
HETATM   24  C   UNL     1      -8.642  17.748  66.786  1.00  0.00    -0.252 A  
HETATM   25  C   UNL     1      -9.703  18.825  68.669  1.00  0.00    -0.437 A  
HETATM   26  O   UNL     1      -7.772  17.861  65.736  1.00  0.00    -0.538 OA 
HETATM   27  C   UNL     1      -8.837  18.870  67.589  1.00  0.00    -0.288 A  
HETATM   28  O   UNL     1      -8.169  20.029  67.314  1.00  0.00    -0.302 OA 
ENDBRANCH   3  19
TORSDOF 8
ENDMDL
MODEL      142
REMARK 921   NORMALIZED FREE ENERGY PREDICTED BY IDOCK:   -5.00 KCAL/MOL
REMARK 922        TOTAL FREE ENERGY PREDICTED BY IDOCK:   -8.55 KCAL/MOL
REMARK 923 INTER-LIGAND FREE ENERGY PREDICTED BY IDOCK:   -8.36 KCAL/MOL
REMARK 924 INTRA-LIGAND FREE ENERGY PREDICTED BY IDOCK:   -0.19 KCAL/MOL
REMARK 927      BINDING AFFINITY PREDICTED BY RF-SCORE:    0.00 PKD
ROOT
HETATM    1  O   UNL     1     -13.322  15.646  70.498  1.00  0.00    -0.789 OA 
HETATM    2  H   UNL     1     -13.068  16.558  70.415  1.00  0.00     0.000 HD 
HETATM    3  C   UNL     1     -12.199  14.807  70.202  1.00  0.00    -0.337 C  
ENDROOT
BRANCH   3   4
HETATM    4  C   UNL     1     -12.613  13.323  70.338  1.00  0.00    -0.141 C  
BRANCH   4   5
HETATM    5  N   UNL     1     -11.455  12.413  70.187  1.00  0.00    -0.520 NA 
HETATM    6  H   UNL     1     -10.811  12.481  70.976  1.00  0.00     0.000 HD 
BRANCH   5   7
HETATM    7  C   UNL     1     -11.919  11.038  69.973  1.00  0.00    -0.351 C  
BRANCH   7   8
HETATM    8  C   UNL     1     -12.779  10.583  71.156  1.00  0.00    -0.518 C  
BRANCH   8   9
HETATM    9  C   UNL     1     -12.166   9.353  71.828  1.00  0.00    -0.465 C  
BRANCH   9  10
HETATM   10  C   UNL     1     -12.830   8.057  71.355  1.00  0.00    -0.289 C  
BRANCH  10  11
HETATM   11  C   UNL     1     -11.814   6.950  71.214  1.00  0.00    -0.385 A  
HETATM   12  C   UNL     1     -11.425   6.497  69.945  1.00  0.00    -0.467 A  
HETATM   13  C   UNL     1     -10.526   5.437  69.814  1.00  0.00    -0.378 A  
HETATM   14  C   UNL     1     -10.017   4.826  70.956  1.00  0.00    -0.209 A  
HETATM   15  O   UNL     1      -9.151   3.776  70.874  1.00  0.00    -0.093 OA 
HETATM   16  C   UNL     1     -10.384   5.265  72.221  1.00  0.00    -0.265 A  
HETATM   17  H   UNL     1      -8.804   3.359  71.654  1.00  0.00     0.000 HD 
HETATM   18  C   UNL     1     -11.283   6.325  72.351  1.00  0.00    -0.320 A  
ENDBRANCH  10  11
ENDBRANCH   9  10
ENDBRANCH   8   9
ENDBRANCH   7   8
ENDBRANCH   5   7
ENDBRANCH   4   5
ENDBRANCH   3   4
BRANCH   3  19
HETATM   19  C   UNL     1     -11.680  15.110  68.810  1.00  0.00    -0.366 A  
HETATM   20  C   UNL     1     -10.963  16.287  68.536  1.00  0.00    -0.345 A  
HETATM   21  H   UNL     1     -10.564  15.311  64.240  1.00  0.00     0.000 HD 
HETATM   22  C   UNL     1     -11.946  14.215  67.756  1.00  0.00    -0.389 A  
HETATM   23  H   UNL     1      -9.534  17.862  66.045  1.00  0.00     0.000 HD 
HETATM   24  C   UNL     1     -10.529  16.549  67.242  1.00  0.00    -0.304 A  
HETATM   25  C   UNL     1     -11.507  14.485  66.458  1.00  0.00    -0.366 A  
HETATM   26  O   UNL     1      -9.830  17.683  66.930  1.00  0.00    -0.281 OA 
HETATM   27  C   UNL     1     -10.803  15.652  66.211  1.00  0.00    -0.262 A  
HETATM   28  O   UNL     1     -10.377  15.922  64.942  1.00  0.00    -0.517 OA 
ENDBRANCH   3  19
TORSDOF 8
ENDMDL
MODEL      143
REMARK 921   NORMALIZED FREE ENERGY PREDICTED BY IDOCK:   -5.00 KCAL/MOL
REMARK 922        TOTAL FREE ENERGY PREDICTED BY IDOCK:   -8.54 KCAL/MOL
REMARK 923 INTER-LIGAND FREE ENERGY PREDICTED BY IDOCK:   -8.05 KCAL/MOL
REMARK 924 INTRA-LIGAND FREE ENERGY PREDICTED BY IDOCK:   -0.49 KCAL/MOL
REMARK 927      BINDING AFFINITY PREDICTED BY RF-SCORE:    0.00 PKD
ROOT
HETATM    1  O   UNL     1     -12.107   6.794  69.711  1.00  0.00    -0.648 OA 
HETATM    2  H   UNL     1     -12.390   6.432  70.544  1.00  0.00     0.000 HD 
HETATM    3  C   UNL     1     -10.703   6.561  69.542  1.00  0.00    -0.270 C  
ENDROOT
BRANCH   3   4
HETATM    4  C   UNL     1     -10.242   7.149  68.187  1.00  0.00    -0.188 C  
BRANCH   4   5
HETATM    5  N   UNL     1     -10.935   8.418  67.874  1.00  0.00    -0.476 NA 
HETATM    6  H   UNL     1     -10.902   9.074  68.655  1.00  0.00     0.000 HD 
BRANCH   5   7
HETATM    7  C   UNL     1     -10.389   9.001  66.643  1.00  0.00    -0.219 C  
BRANCH   7   8
HETATM    8  C   UNL     1     -10.170  10.505  66.826  1.00  0.00    -0.288 C  
BRANCH   8   9
HETATM    9  C   UNL     1     -11.332  11.130  67.601  1.00  0.00    -0.356 C  
BRANCH   9  10
HETATM   10  C   UNL     1     -10.998  12.543  68.085  1.00  0.00    -0.260 C  
BRANCH  10  11
HETATM   11  C   UNL     1     -11.193  13.552  66.979  1.00  0.00    -0.330 A  
HETATM   12  C   UNL     1     -12.237  13.402  66.055  1.00  0.00    -0.491 A  
HETATM   13  C   UNL     1     -12.387  14.305  65.000  1.00  0.00    -0.434 A  
HETATM   14  C   UNL     1     -11.488  15.358  64.868  1.00  0.00    -0.311 A  
HETATM   15  O   UNL     1     -11.585  16.251  63.842  1.00  0.00    -1.489 OA 
HETATM   16  C   UNL     1     -10.453  15.528  65.778  1.00  0.00    -0.378 A  
HETATM   17  H   UNL     1     -10.971  16.970  63.752  1.00  0.00     0.000 HD 
HETATM   18  C   UNL     1     -10.303  14.625  66.832  1.00  0.00    -0.264 A  
ENDBRANCH  10  11
ENDBRANCH   9  10
ENDBRANCH   8   9
ENDBRANCH   7   8
ENDBRANCH   5   7
ENDBRANCH   4   5
ENDBRANCH   3   4
BRANCH   3  19
HETATM   19  C   UNL     1      -9.934   7.170  70.697  1.00  0.00    -0.195 A  
HETATM   20  C   UNL     1     -10.048   6.661  72.002  1.00  0.00    -0.198 A  
HETATM   21  H   UNL     1      -7.323   9.719  73.674  1.00  0.00     0.000 HD 
HETATM   22  C   UNL     1      -9.112   8.292  70.474  1.00  0.00    -0.154 A  
HETATM   23  H   UNL     1      -8.963   7.215  75.042  1.00  0.00     0.000 HD 
HETATM   24  C   UNL     1      -9.354   7.264  73.044  1.00  0.00    -0.162 A  
HETATM   25  C   UNL     1      -8.417   8.893  71.527  1.00  0.00    -0.182 A  
HETATM   26  O   UNL     1      -9.437   6.804  74.330  1.00  0.00    -0.212 OA 
HETATM   27  C   UNL     1      -8.546   8.374  72.805  1.00  0.00    -0.170 A  
HETATM   28  O   UNL     1      -7.874   8.962  73.837  1.00  0.00    -0.377 OA 
ENDBRANCH   3  19
TORSDOF 8
ENDMDL
MODEL      144
REMARK 921   NORMALIZED FREE ENERGY PREDICTED BY IDOCK:   -5.00 KCAL/MOL
REMARK 922        TOTAL FREE ENERGY PREDICTED BY IDOCK:   -8.54 KCAL/MOL
REMARK 923 INTER-LIGAND FREE ENERGY PREDICTED BY IDOCK:   -5.98 KCAL/MOL
REMARK 924 INTRA-LIGAND FREE ENERGY PREDICTED BY IDOCK:   -2.56 KCAL/MOL
REMARK 927      BINDING AFFINITY PREDICTED BY RF-SCORE:    0.00 PKD
ROOT
HETATM    1  O   UNL     1     -12.924   7.981  70.895  1.00  0.00    -0.515 OA 
HETATM    2  H   UNL     1     -13.441   8.427  70.234  1.00  0.00     0.000 HD 
HETATM    3  C   UNL     1     -12.016   8.910  71.500  1.00  0.00    -0.333 C  
ENDROOT
BRANCH   3   4
HETATM    4  C   UNL     1     -11.174   8.183  72.576  1.00  0.00    -0.391 C  
BRANCH   4   5
HETATM    5  N   UNL     1     -11.806   6.915  73.004  1.00  0.00    -0.383 NA 
HETATM    6  H   UNL     1     -12.628   6.690  72.444  1.00  0.00     0.000 HD 
BRANCH   5   7
HETATM    7  C   UNL     1     -10.818   5.830  72.991  1.00  0.00    -0.271 C  
BRANCH   7   8
HETATM    8  C   UNL     1      -9.478   6.346  72.460  1.00  0.00    -0.145 C  
BRANCH   8   9
HETATM    9  C   UNL     1      -9.055   5.567  71.212  1.00  0.00    -0.158 C  
BRANCH   9  10
HETATM   10  C   UNL     1     -10.206   5.425  70.213  1.00  0.00    -0.338 C  
BRANCH  10  11
HETATM   11  C   UNL     1      -9.924   6.202  68.951  1.00  0.00    -0.185 A  
HETATM   12  C   UNL     1     -10.978   6.674  68.155  1.00  0.00    -0.323 A  
HETATM   13  C   UNL     1     -10.718   7.347  66.959  1.00  0.00    -0.389 A  
HETATM   14  C   UNL     1      -9.401   7.544  66.557  1.00  0.00    -0.181 A  
HETATM   15  O   UNL     1      -9.103   8.179  65.387  1.00  0.00    -0.388 OA 
HETATM   16  C   UNL     1      -8.344   7.091  67.335  1.00  0.00    -0.122 A  
HETATM   17  H   UNL     1      -8.204   8.313  65.113  1.00  0.00     0.000 HD 
HETATM   18  C   UNL     1      -8.605   6.419  68.531  1.00  0.00    -0.122 A  
ENDBRANCH  10  11
ENDBRANCH   9  10
ENDBRANCH   8   9
ENDBRANCH   7   8
ENDBRANCH   5   7
ENDBRANCH   4   5
ENDBRANCH   3   4
BRANCH   3  19
HETATM   19  C   UNL     1     -11.132   9.535  70.439  1.00  0.00    -0.330 A  
HETATM   20  C   UNL     1      -9.732   9.422  70.492  1.00  0.00    -0.331 A  
HETATM   21  H   UNL     1      -9.172  11.864  66.846  1.00  0.00     0.000 HD 
HETATM   22  C   UNL     1     -11.715  10.276  69.392  1.00  0.00    -0.166 A  
HETATM   23  H   UNL     1      -7.050  10.371  68.870  1.00  0.00     0.000 HD 
HETATM   24  C   UNL     1      -8.950  10.034  69.520  1.00  0.00    -0.205 A  
HETATM   25  C   UNL     1     -10.923  10.888  68.419  1.00  0.00    -0.288 A  
HETATM   26  O   UNL     1      -7.585   9.952  69.534  1.00  0.00    -0.096 OA 
HETATM   27  C   UNL     1      -9.545  10.764  68.493  1.00  0.00    -0.183 A  
HETATM   28  O   UNL     1      -8.766  11.367  67.546  1.00  0.00    -0.135 OA 
ENDBRANCH   3  19
TORSDOF 8
ENDMDL
MODEL      145
REMARK 921   NORMALIZED FREE ENERGY PREDICTED BY IDOCK:   -4.97 KCAL/MOL
REMARK 922        TOTAL FREE ENERGY PREDICTED BY IDOCK:   -8.49 KCAL/MOL
REMARK 923 INTER-LIGAND FREE ENERGY PREDICTED BY IDOCK:   -7.84 KCAL/MOL
REMARK 924 INTRA-LIGAND FREE ENERGY PREDICTED BY IDOCK:   -0.65 KCAL/MOL
REMARK 927      BINDING AFFINITY PREDICTED BY RF-SCORE:    0.00 PKD
ROOT
HETATM    1  O   UNL     1      -9.453  15.366  68.318  1.00  0.00    -0.196 OA 
HETATM    2  H   UNL     1      -9.262  16.070  67.709  1.00  0.00     0.000 HD 
HETATM    3  C   UNL     1      -9.206  14.104  67.685  1.00  0.00    -0.193 C  
ENDROOT
BRANCH   3   4
HETATM    4  C   UNL     1      -9.517  12.958  68.677  1.00  0.00     0.004 C  
BRANCH   4   5
HETATM    5  N   UNL     1     -10.667  13.284  69.549  1.00  0.00    -0.425 NA 
HETATM    6  H   UNL     1     -10.752  14.288  69.710  1.00  0.00     0.000 HD 
BRANCH   5   7
HETATM    7  C   UNL     1     -11.898  12.710  68.995  1.00  0.00    -0.294 C  
BRANCH   7   8
HETATM    8  C   UNL     1     -11.884  11.187  69.151  1.00  0.00    -0.419 C  
BRANCH   8   9
HETATM    9  C   UNL     1     -12.820  10.750  70.280  1.00  0.00    -0.226 C  
BRANCH   9  10
HETATM   10  C   UNL     1     -12.054  10.454  71.572  1.00  0.00    -0.364 C  
BRANCH  10  11
HETATM   11  C   UNL     1     -11.656   9.000  71.642  1.00  0.00    -0.426 A  
HETATM   12  C   UNL     1     -12.633   7.993  71.632  1.00  0.00    -0.346 A  
HETATM   13  C   UNL     1     -12.269   6.650  71.751  1.00  0.00    -0.400 A  
HETATM   14  C   UNL     1     -10.926   6.314  71.884  1.00  0.00    -0.256 A  
HETATM   15  O   UNL     1     -10.528   5.017  72.022  1.00  0.00    -0.212 OA 
HETATM   16  C   UNL     1      -9.944   7.296  71.888  1.00  0.00    -0.184 A  
HETATM   17  H   UNL     1      -9.611   4.788  72.113  1.00  0.00     0.000 HD 
HETATM   18  C   UNL     1     -10.308   8.638  71.769  1.00  0.00    -0.386 A  
ENDBRANCH  10  11
ENDBRANCH   9  10
ENDBRANCH   8   9
ENDBRANCH   7   8
ENDBRANCH   5   7
ENDBRANCH   4   5
ENDBRANCH   3   4
BRANCH   3  19
HETATM   19  C   UNL     1     -10.041  13.985  66.426  1.00  0.00    -0.299 A  
HETATM   20  C   UNL     1     -10.515  15.123  65.751  1.00  0.00    -0.355 A  
HETATM   21  H   UNL     1     -12.641  12.713  62.711  1.00  0.00     0.000 HD 
HETATM   22  C   UNL     1     -10.383  12.711  65.932  1.00  0.00    -0.295 A  
HETATM   23  H   UNL     1     -12.330  15.959  63.156  1.00  0.00     0.000 HD 
HETATM   24  C   UNL     1     -11.305  14.978  64.617  1.00  0.00    -0.352 A  
HETATM   25  C   UNL     1     -11.178  12.573  64.792  1.00  0.00    -0.344 A  
HETATM   26  O   UNL     1     -11.790  16.058  63.931  1.00  0.00    -0.810 OA 
HETATM   27  C   UNL     1     -11.634  13.709  64.145  1.00  0.00    -0.352 A  
HETATM   28  O   UNL     1     -12.417  13.578  63.033  1.00  0.00    -0.709 OA 
ENDBRANCH   3  19
TORSDOF 8
ENDMDL
MODEL      146
REMARK 921   NORMALIZED FREE ENERGY PREDICTED BY IDOCK:   -4.93 KCAL/MOL
REMARK 922        TOTAL FREE ENERGY PREDICTED BY IDOCK:   -8.44 KCAL/MOL
REMARK 923 INTER-LIGAND FREE ENERGY PREDICTED BY IDOCK:   -6.58 KCAL/MOL
REMARK 924 INTRA-LIGAND FREE ENERGY PREDICTED BY IDOCK:   -1.86 KCAL/MOL
REMARK 927      BINDING AFFINITY PREDICTED BY RF-SCORE:    0.00 PKD
ROOT
HETATM    1  O   UNL     1      -7.898  10.615  64.131  1.00  0.00    -0.345 OA 
HETATM    2  H   UNL     1      -7.139  10.922  64.615  1.00  0.00     0.000 HD 
HETATM    3  C   UNL     1      -9.092  11.108  64.751  1.00  0.00    -0.080 C  
ENDROOT
BRANCH   3   4
HETATM    4  C   UNL     1     -10.327  10.609  63.964  1.00  0.00    -0.191 C  
BRANCH   4   5
HETATM    5  N   UNL     1     -10.875  11.658  63.076  1.00  0.00    -0.696 NA 
HETATM    6  H   UNL     1     -10.862  11.375  62.096  1.00  0.00     0.000 HD 
BRANCH   5   7
HETATM    7  C   UNL     1     -12.220  12.041  63.519  1.00  0.00    -0.547 C  
BRANCH   7   8
HETATM    8  C   UNL     1     -12.286  13.552  63.755  1.00  0.00    -0.449 C  
BRANCH   8   9
HETATM    9  C   UNL     1     -12.760  13.857  65.177  1.00  0.00    -0.434 C  
BRANCH   9  10
HETATM   10  C   UNL     1     -11.947  13.091  66.224  1.00  0.00    -0.477 C  
BRANCH  10  11
HETATM   11  C   UNL     1     -10.904  13.981  66.855  1.00  0.00    -0.290 A  
HETATM   12  C   UNL     1      -9.895  14.561  66.071  1.00  0.00    -0.342 A  
HETATM   13  C   UNL     1      -8.898  15.340  66.661  1.00  0.00    -0.328 A  
HETATM   14  C   UNL     1      -8.908  15.537  68.038  1.00  0.00    -0.165 A  
HETATM   15  O   UNL     1      -7.944  16.276  68.657  1.00  0.00    -0.189 OA 
HETATM   16  C   UNL     1      -9.903  14.978  68.829  1.00  0.00    -0.233 A  
HETATM   17  H   UNL     1      -7.951  16.410  69.597  1.00  0.00     0.000 HD 
HETATM   18  C   UNL     1     -10.899  14.199  68.239  1.00  0.00    -0.259 A  
ENDBRANCH  10  11
ENDBRANCH   9  10
ENDBRANCH   8   9
ENDBRANCH   7   8
ENDBRANCH   5   7
ENDBRANCH   4   5
ENDBRANCH   3   4
BRANCH   3  19
HETATM   19  C   UNL     1      -9.145  10.664  66.199  1.00  0.00    -0.190 A  
HETATM   20  C   UNL     1      -9.871   9.525  66.589  1.00  0.00    -0.293 A  
HETATM   21  H   UNL     1      -8.880  10.082  70.864  1.00  0.00     0.000 HD 
HETATM   22  C   UNL     1      -8.484  11.419  67.186  1.00  0.00    -0.153 A  
HETATM   23  H   UNL     1     -10.659   7.818  69.271  1.00  0.00     0.000 HD 
HETATM   24  C   UNL     1      -9.925   9.163  67.930  1.00  0.00    -0.186 A  
HETATM   25  C   UNL     1      -8.542  11.049  68.532  1.00  0.00    -0.158 A  
HETATM   26  O   UNL     1     -10.622   8.066  68.355  1.00  0.00    -0.186 OA 
HETATM   27  C   UNL     1      -9.266   9.924  68.893  1.00  0.00    -0.160 A  
HETATM   28  O   UNL     1      -9.330   9.563  70.208  1.00  0.00    -0.229 OA 
ENDBRANCH   3  19
TORSDOF 8
ENDMDL
MODEL      147
REMARK 921   NORMALIZED FREE ENERGY PREDICTED BY IDOCK:   -4.93 KCAL/MOL
REMARK 922        TOTAL FREE ENERGY PREDICTED BY IDOCK:   -8.44 KCAL/MOL
REMARK 923 INTER-LIGAND FREE ENERGY PREDICTED BY IDOCK:   -7.52 KCAL/MOL
REMARK 924 INTRA-LIGAND FREE ENERGY PREDICTED BY IDOCK:   -0.92 KCAL/MOL
REMARK 927      BINDING AFFINITY PREDICTED BY RF-SCORE:    0.00 PKD
ROOT
HETATM    1  O   UNL     1     -13.136   7.276  72.239  1.00  0.00    -0.507 OA 
HETATM    2  H   UNL     1     -13.639   7.819  72.836  1.00  0.00     0.000 HD 
HETATM    3  C   UNL     1     -11.845   7.862  72.033  1.00  0.00    -0.318 C  
ENDROOT
BRANCH   3   4
HETATM    4  C   UNL     1     -11.026   6.978  71.062  1.00  0.00    -0.251 C  
BRANCH   4   5
HETATM    5  N   UNL     1     -11.842   6.519  69.916  1.00  0.00    -0.615 NA 
HETATM    6  H   UNL     1     -12.409   7.272  69.525  1.00  0.00     0.000 HD 
BRANCH   5   7
HETATM    7  C   UNL     1     -10.983   5.896  68.903  1.00  0.00    -0.267 C  
BRANCH   7   8
HETATM    8  C   UNL     1      -9.737   6.754  68.670  1.00  0.00    -0.131 C  
BRANCH   8   9
HETATM    9  C   UNL     1     -10.012   7.832  67.619  1.00  0.00    -0.230 C  
BRANCH   9  10
HETATM   10  C   UNL     1      -9.128   7.658  66.382  1.00  0.00    -0.214 C  
BRANCH  10  11
HETATM   11  C   UNL     1      -9.215   8.867  65.482  1.00  0.00    -0.242 A  
HETATM   12  C   UNL     1      -8.443   8.941  64.313  1.00  0.00    -0.165 A  
HETATM   13  C   UNL     1      -8.482  10.081  63.507  1.00  0.00    -0.187 A  
HETATM   14  C   UNL     1      -9.293  11.151  63.875  1.00  0.00    -0.179 A  
HETATM   15  O   UNL     1      -9.347  12.290  63.128  1.00  0.00    -0.601 OA 
HETATM   16  C   UNL     1     -10.070  11.093  65.024  1.00  0.00    -0.338 A  
HETATM   17  H   UNL     1      -9.900  13.020  63.379  1.00  0.00     0.000 HD 
HETATM   18  C   UNL     1     -10.030   9.952  65.829  1.00  0.00    -0.347 A  
ENDBRANCH  10  11
ENDBRANCH   9  10
ENDBRANCH   8   9
ENDBRANCH   7   8
ENDBRANCH   5   7
ENDBRANCH   4   5
ENDBRANCH   3   4
BRANCH   3  19
HETATM   19  C   UNL     1     -11.996   9.273  71.501  1.00  0.00    -0.439 A  
HETATM   20  C   UNL     1     -11.175   9.757  70.467  1.00  0.00    -0.381 A  
HETATM   21  H   UNL     1     -13.047  13.764  70.554  1.00  0.00     0.000 HD 
HETATM   22  C   UNL     1     -12.952  10.136  72.070  1.00  0.00    -0.508 A  
HETATM   23  H   UNL     1     -10.638  12.475  68.720  1.00  0.00     0.000 HD 
HETATM   24  C   UNL     1     -11.318  11.067  70.024  1.00  0.00    -0.277 A  
HETATM   25  C   UNL     1     -13.091  11.450  71.619  1.00  0.00    -0.498 A  
HETATM   26  O   UNL     1     -10.540  11.580  69.024  1.00  0.00    -0.210 OA 
HETATM   27  C   UNL     1     -12.270  11.906  70.600  1.00  0.00    -0.331 A  
HETATM   28  O   UNL     1     -12.398  13.193  70.162  1.00  0.00    -0.289 OA 
ENDBRANCH   3  19
TORSDOF 8
ENDMDL
MODEL      148
REMARK 921   NORMALIZED FREE ENERGY PREDICTED BY IDOCK:   -4.93 KCAL/MOL
REMARK 922        TOTAL FREE ENERGY PREDICTED BY IDOCK:   -8.44 KCAL/MOL
REMARK 923 INTER-LIGAND FREE ENERGY PREDICTED BY IDOCK:   -7.66 KCAL/MOL
REMARK 924 INTRA-LIGAND FREE ENERGY PREDICTED BY IDOCK:   -0.78 KCAL/MOL
REMARK 927      BINDING AFFINITY PREDICTED BY RF-SCORE:    0.00 PKD
ROOT
HETATM    1  O   UNL     1      -8.775  10.212  70.099  1.00  0.00    -0.360 OA 
HETATM    2  H   UNL     1      -8.760  10.692  70.920  1.00  0.00     0.000 HD 
HETATM    3  C   UNL     1     -10.036  10.414  69.449  1.00  0.00    -0.229 C  
ENDROOT
BRANCH   3   4
HETATM    4  C   UNL     1     -10.060   9.632  68.114  1.00  0.00    -0.175 C  
BRANCH   4   5
HETATM    5  N   UNL     1     -11.054  10.187  67.169  1.00  0.00    -0.178 NA 
HETATM    6  H   UNL     1     -12.002   9.878  67.385  1.00  0.00     0.000 HD 
BRANCH   5   7
HETATM    7  C   UNL     1     -10.950  11.650  67.130  1.00  0.00    -0.280 C  
BRANCH   7   8
HETATM    8  C   UNL     1     -12.145  12.242  66.378  1.00  0.00    -0.123 C  
BRANCH   8   9
HETATM    9  C   UNL     1     -11.999  13.760  66.241  1.00  0.00    -0.462 C  
BRANCH   9  10
HETATM   10  C   UNL     1     -11.815  14.438  67.601  1.00  0.00    -0.412 C  
BRANCH  10  11
HETATM   11  C   UNL     1     -10.943  15.664  67.478  1.00  0.00    -0.309 A  
HETATM   12  C   UNL     1     -10.929  16.632  68.494  1.00  0.00    -0.339 A  
HETATM   13  C   UNL     1     -10.164  17.793  68.358  1.00  0.00    -0.384 A  
HETATM   14  C   UNL     1      -9.415  17.987  67.201  1.00  0.00    -0.264 A  
HETATM   15  O   UNL     1      -8.669  19.114  67.019  1.00  0.00    -0.281 OA 
HETATM   16  C   UNL     1      -9.410  17.037  66.189  1.00  0.00    -0.245 A  
HETATM   17  H   UNL     1      -8.158  19.246  66.229  1.00  0.00     0.000 HD 
HETATM   18  C   UNL     1     -10.175  15.877  66.325  1.00  0.00    -0.324 A  
ENDBRANCH  10  11
ENDBRANCH   9  10
ENDBRANCH   8   9
ENDBRANCH   7   8
ENDBRANCH   5   7
ENDBRANCH   4   5
ENDBRANCH   3   4
BRANCH   3  19
HETATM   19  C   UNL     1     -11.165   9.979  70.363  1.00  0.00    -0.393 A  
HETATM   20  C   UNL     1     -11.428   8.620  70.606  1.00  0.00    -0.256 A  
HETATM   21  H   UNL     1     -14.899   9.522  73.195  1.00  0.00     0.000 HD 
HETATM   22  C   UNL     1     -11.995  10.949  70.958  1.00  0.00    -0.375 A  
HETATM   23  H   UNL     1     -13.510   6.694  72.244  1.00  0.00     0.000 HD 
HETATM   24  C   UNL     1     -12.491   8.254  71.423  1.00  0.00    -0.292 A  
HETATM   25  C   UNL     1     -13.061  10.574  71.779  1.00  0.00    -0.570 A  
HETATM   26  O   UNL     1     -12.784   6.944  71.685  1.00  0.00    -0.365 OA 
HETATM   27  C   UNL     1     -13.301   9.228  72.003  1.00  0.00    -0.450 A  
HETATM   28  O   UNL     1     -14.347   8.858  72.800  1.00  0.00    -0.600 OA 
ENDBRANCH   3  19
TORSDOF 8
ENDMDL
MODEL      149
REMARK 921   NORMALIZED FREE ENERGY PREDICTED BY IDOCK:   -4.93 KCAL/MOL
REMARK 922        TOTAL FREE ENERGY PREDICTED BY IDOCK:   -8.43 KCAL/MOL
REMARK 923 INTER-LIGAND FREE ENERGY PREDICTED BY IDOCK:   -7.77 KCAL/MOL
REMARK 924 INTRA-LIGAND FREE ENERGY PREDICTED BY IDOCK:   -0.67 KCAL/MOL
REMARK 927      BINDING AFFINITY PREDICTED BY RF-SCORE:    0.00 PKD
ROOT
HETATM    1  O   UNL     1     -10.335  12.898  68.778  1.00  0.00    -0.358 OA 
HETATM    2  H   UNL     1     -10.442  13.751  69.183  1.00  0.00     0.000 HD 
HETATM    3  C   UNL     1      -9.528  13.026  67.600  1.00  0.00    -0.201 C  
ENDROOT
BRANCH   3   4
HETATM    4  C   UNL     1      -9.354  11.638  66.940  1.00  0.00    -0.188 C  
BRANCH   4   5
HETATM    5  N   UNL     1      -8.672  10.682  67.841  1.00  0.00    -0.126 NA 
HETATM    6  H   UNL     1      -8.726  10.973  68.817  1.00  0.00     0.000 HD 
BRANCH   5   7
HETATM    7  C   UNL     1      -9.206   9.330  67.639  1.00  0.00    -0.124 C  
BRANCH   7   8
HETATM    8  C   UNL     1      -9.648   8.735  68.979  1.00  0.00    -0.162 C  
BRANCH   8   9
HETATM    9  C   UNL     1      -9.421   9.734  70.115  1.00  0.00    -0.277 C  
BRANCH   9  10
HETATM   10  C   UNL     1     -10.637   9.831  71.039  1.00  0.00    -0.295 C  
BRANCH  10  11
HETATM   11  C   UNL     1     -11.011   8.473  71.583  1.00  0.00    -0.362 A  
HETATM   12  C   UNL     1     -12.220   7.865  71.212  1.00  0.00    -0.314 A  
HETATM   13  C   UNL     1     -12.592   6.634  71.755  1.00  0.00    -0.323 A  
HETATM   14  C   UNL     1     -11.754   6.011  72.674  1.00  0.00    -0.175 A  
HETATM   15  O   UNL     1     -12.087   4.817  73.243  1.00  0.00    -0.367 OA 
HETATM   16  C   UNL     1     -10.550   6.592  73.048  1.00  0.00    -0.276 A  
HETATM   17  H   UNL     1     -11.515   4.392  73.871  1.00  0.00     0.000 HD 
HETATM   18  C   UNL     1     -10.179   7.823  72.505  1.00  0.00    -0.320 A  
ENDBRANCH  10  11
ENDBRANCH   9  10
ENDBRANCH   8   9
ENDBRANCH   7   8
ENDBRANCH   5   7
ENDBRANCH   4   5
ENDBRANCH   3   4
BRANCH   3  19
HETATM   19  C   UNL     1     -10.163  14.015  66.643  1.00  0.00    -0.275 A  
HETATM   20  C   UNL     1     -11.087  13.602  65.669  1.00  0.00    -0.300 A  
HETATM   21  H   UNL     1     -11.531  17.688  64.032  1.00  0.00     0.000 HD 
HETATM   22  C   UNL     1      -9.799  15.375  66.701  1.00  0.00    -0.269 A  
HETATM   23  H   UNL     1     -12.896  14.806  63.218  1.00  0.00     0.000 HD 
HETATM   24  C   UNL     1     -11.626  14.530  64.786  1.00  0.00    -0.413 A  
HETATM   25  C   UNL     1     -10.345  16.303  65.811  1.00  0.00    -0.393 A  
HETATM   26  O   UNL     1     -12.527  14.171  63.821  1.00  0.00    -0.791 OA 
HETATM   27  C   UNL     1     -11.254  15.871  64.858  1.00  0.00    -0.337 A  
HETATM   28  O   UNL     1     -11.785  16.774  63.982  1.00  0.00    -1.120 OA 
ENDBRANCH   3  19
TORSDOF 8
ENDMDL
MODEL      150
REMARK 921   NORMALIZED FREE ENERGY PREDICTED BY IDOCK:   -4.91 KCAL/MOL
REMARK 922        TOTAL FREE ENERGY PREDICTED BY IDOCK:   -8.41 KCAL/MOL
REMARK 923 INTER-LIGAND FREE ENERGY PREDICTED BY IDOCK:   -7.89 KCAL/MOL
REMARK 924 INTRA-LIGAND FREE ENERGY PREDICTED BY IDOCK:   -0.52 KCAL/MOL
REMARK 927      BINDING AFFINITY PREDICTED BY RF-SCORE:    0.00 PKD
ROOT
HETATM    1  O   UNL     1     -11.618   6.716  68.592  1.00  0.00    -0.567 OA 
HETATM    2  H   UNL     1     -11.414   5.828  68.320  1.00  0.00     0.000 HD 
HETATM    3  C   UNL     1     -10.669   7.145  69.576  1.00  0.00    -0.239 C  
ENDROOT
BRANCH   3   4
HETATM    4  C   UNL     1     -11.002   8.590  70.018  1.00  0.00    -0.196 C  
BRANCH   4   5
HETATM    5  N   UNL     1     -10.415   9.594  69.104  1.00  0.00    -0.207 NA 
HETATM    6  H   UNL     1     -10.534   9.335  68.124  1.00  0.00     0.000 HD 
BRANCH   5   7
HETATM    7  C   UNL     1     -10.968  10.922  69.392  1.00  0.00    -0.252 C  
BRANCH   7   8
HETATM    8  C   UNL     1     -10.397  11.953  68.414  1.00  0.00    -0.216 C  
BRANCH   8   9
HETATM    9  C   UNL     1     -10.648  13.375  68.919  1.00  0.00    -0.181 C  
BRANCH   9  10
HETATM   10  C   UNL     1     -12.141  13.654  69.112  1.00  0.00    -0.361 C  
BRANCH  10  11
HETATM   11  C   UNL     1     -12.403  14.278  70.462  1.00  0.00    -0.430 A  
HETATM   12  C   UNL     1     -11.885  15.544  70.773  1.00  0.00    -0.406 A  
HETATM   13  C   UNL     1     -12.081  16.100  72.039  1.00  0.00    -0.572 A  
HETATM   14  C   UNL     1     -12.794  15.385  72.997  1.00  0.00    -0.463 A  
HETATM   15  O   UNL     1     -12.993  15.882  74.251  1.00  0.00    -0.860 OA 
HETATM   16  C   UNL     1     -13.322  14.135  72.705  1.00  0.00    -0.638 A  
HETATM   17  H   UNL     1     -13.480  15.394  74.905  1.00  0.00     0.000 HD 
HETATM   18  C   UNL     1     -13.125  13.579  71.439  1.00  0.00    -0.385 A  
ENDBRANCH  10  11
ENDBRANCH   9  10
ENDBRANCH   8   9
ENDBRANCH   7   8
ENDBRANCH   5   7
ENDBRANCH   4   5
ENDBRANCH   3   4
BRANCH   3  19
HETATM   19  C   UNL     1     -10.679   6.192  70.754  1.00  0.00    -0.326 A  
HETATM   20  C   UNL     1      -9.825   5.077  70.801  1.00  0.00    -0.279 A  
HETATM   21  H   UNL     1     -11.451   3.711  74.682  1.00  0.00     0.000 HD 
HETATM   22  C   UNL     1     -11.584   6.400  71.814  1.00  0.00    -0.367 A  
HETATM   23  H   UNL     1      -9.111   2.510  72.706  1.00  0.00     0.000 HD 
HETATM   24  C   UNL     1      -9.882   4.204  71.882  1.00  0.00    -0.181 A  
HETATM   25  C   UNL     1     -11.635   5.520  72.897  1.00  0.00    -0.280 A  
HETATM   26  O   UNL     1      -9.072   3.106  71.967  1.00  0.00    -0.095 OA 
HETATM   27  C   UNL     1     -10.784   4.426  72.920  1.00  0.00    -0.186 A  
HETATM   28  O   UNL     1     -10.837   3.560  73.974  1.00  0.00    -0.207 OA 
ENDBRANCH   3  19
TORSDOF 8
ENDMDL
MODEL      151
REMARK 921   NORMALIZED FREE ENERGY PREDICTED BY IDOCK:   -4.91 KCAL/MOL
REMARK 922        TOTAL FREE ENERGY PREDICTED BY IDOCK:   -8.41 KCAL/MOL
REMARK 923 INTER-LIGAND FREE ENERGY PREDICTED BY IDOCK:   -7.71 KCAL/MOL
REMARK 924 INTRA-LIGAND FREE ENERGY PREDICTED BY IDOCK:   -0.70 KCAL/MOL
REMARK 927      BINDING AFFINITY PREDICTED BY RF-SCORE:    0.00 PKD
ROOT
HETATM    1  O   UNL     1     -12.548   7.426  70.579  1.00  0.00    -0.559 OA 
HETATM    2  H   UNL     1     -13.151   6.953  71.142  1.00  0.00     0.000 HD 
HETATM    3  C   UNL     1     -11.635   6.501  69.974  1.00  0.00    -0.390 C  
ENDROOT
BRANCH   3   4
HETATM    4  C   UNL     1     -10.653   7.271  69.057  1.00  0.00    -0.201 C  
BRANCH   4   5
HETATM    5  N   UNL     1     -11.185   7.420  67.685  1.00  0.00    -0.490 NA 
HETATM    6  H   UNL     1     -12.176   7.665  67.684  1.00  0.00     0.000 HD 
BRANCH   5   7
HETATM    7  C   UNL     1     -10.379   8.388  66.934  1.00  0.00    -0.307 C  
BRANCH   7   8
HETATM    8  C   UNL     1     -10.093   9.618  67.800  1.00  0.00    -0.232 C  
BRANCH   8   9
HETATM    9  C   UNL     1     -11.244  10.622  67.710  1.00  0.00    -0.383 C  
BRANCH   9  10
HETATM   10  C   UNL     1     -10.886  11.959  68.364  1.00  0.00    -0.263 C  
BRANCH  10  11
HETATM   11  C   UNL     1     -11.705  12.186  69.611  1.00  0.00    -0.396 A  
HETATM   12  C   UNL     1     -12.139  11.101  70.385  1.00  0.00    -0.475 A  
HETATM   13  C   UNL     1     -12.943  11.306  71.509  1.00  0.00    -0.520 A  
HETATM   14  C   UNL     1     -13.315  12.601  71.856  1.00  0.00    -0.387 A  
HETATM   15  O   UNL     1     -14.114  12.845  72.934  1.00  0.00    -0.614 OA 
HETATM   16  C   UNL     1     -12.889  13.689  71.107  1.00  0.00    -0.399 A  
HETATM   17  H   UNL     1     -14.368  13.729  73.171  1.00  0.00     0.000 HD 
HETATM   18  C   UNL     1     -12.086  13.483  69.983  1.00  0.00    -0.411 A  
ENDBRANCH  10  11
ENDBRANCH   9  10
ENDBRANCH   8   9
ENDBRANCH   7   8
ENDBRANCH   5   7
ENDBRANCH   4   5
ENDBRANCH   3   4
BRANCH   3  19
HETATM   19  C   UNL     1     -10.895   5.728  71.047  1.00  0.00    -0.316 A  
HETATM   20  C   UNL     1      -9.814   4.887  70.730  1.00  0.00    -0.285 A  
HETATM   21  H   UNL     1      -9.271   3.623  74.934  1.00  0.00     0.000 HD 
HETATM   22  C   UNL     1     -11.314   5.819  72.389  1.00  0.00    -0.348 A  
HETATM   23  H   UNL     1      -7.689   2.843  72.156  1.00  0.00     0.000 HD 
HETATM   24  C   UNL     1      -9.178   4.167  71.734  1.00  0.00    -0.127 A  
HETATM   25  C   UNL     1     -10.669   5.093  73.393  1.00  0.00    -0.331 A  
HETATM   26  O   UNL     1      -8.124   3.335  71.470  1.00  0.00    -0.059 OA 
HETATM   27  C   UNL     1      -9.607   4.269  73.055  1.00  0.00    -0.126 A  
HETATM   28  O   UNL     1      -8.979   3.553  74.033  1.00  0.00    -0.087 OA 
ENDBRANCH   3  19
TORSDOF 8
ENDMDL
MODEL      152
REMARK 921   NORMALIZED FREE ENERGY PREDICTED BY IDOCK:   -4.89 KCAL/MOL
REMARK 922        TOTAL FREE ENERGY PREDICTED BY IDOCK:   -8.38 KCAL/MOL
REMARK 923 INTER-LIGAND FREE ENERGY PREDICTED BY IDOCK:   -7.13 KCAL/MOL
REMARK 924 INTRA-LIGAND FREE ENERGY PREDICTED BY IDOCK:   -1.26 KCAL/MOL
REMARK 927      BINDING AFFINITY PREDICTED BY RF-SCORE:    0.00 PKD
ROOT
HETATM    1  O   UNL     1     -10.368  17.140  65.481  1.00  0.00    -0.599 OA 
HETATM    2  H   UNL     1     -10.373  17.223  64.534  1.00  0.00     0.000 HD 
HETATM    3  C   UNL     1      -9.804  15.875  65.849  1.00  0.00    -0.351 C  
ENDROOT
BRANCH   3   4
HETATM    4  C   UNL     1      -9.797  15.741  67.390  1.00  0.00    -0.233 C  
BRANCH   4   5
HETATM    5  N   UNL     1     -11.121  16.048  67.975  1.00  0.00    -0.346 NA 
HETATM    6  H   UNL     1     -11.852  16.090  67.265  1.00  0.00     0.000 HD 
BRANCH   5   7
HETATM    7  C   UNL     1     -11.439  15.086  69.036  1.00  0.00    -0.304 C  
BRANCH   7   8
HETATM    8  C   UNL     1     -11.957  13.782  68.424  1.00  0.00    -0.395 C  
BRANCH   8   9
HETATM    9  C   UNL     1     -11.580  12.586  69.301  1.00  0.00    -0.378 C  
BRANCH   9  10
HETATM   10  C   UNL     1     -11.897  11.255  68.615  1.00  0.00    -0.369 C  
BRANCH  10  11
HETATM   11  C   UNL     1     -10.665  10.387  68.526  1.00  0.00    -0.255 A  
HETATM   12  C   UNL     1     -10.567   9.388  67.547  1.00  0.00    -0.333 A  
HETATM   13  C   UNL     1      -9.451   8.549  67.498  1.00  0.00    -0.182 A  
HETATM   14  C   UNL     1      -8.433   8.709  68.432  1.00  0.00    -0.131 A  
HETATM   15  O   UNL     1      -7.336   7.900  68.433  1.00  0.00    -0.096 OA 
HETATM   16  C   UNL     1      -8.509   9.697  69.404  1.00  0.00    -0.156 A  
HETATM   17  H   UNL     1      -6.641   8.008  69.071  1.00  0.00     0.000 HD 
HETATM   18  C   UNL     1      -9.624  10.535  69.453  1.00  0.00    -0.170 A  
ENDBRANCH  10  11
ENDBRANCH   9  10
ENDBRANCH   8   9
ENDBRANCH   7   8
ENDBRANCH   5   7
ENDBRANCH   4   5
ENDBRANCH   3   4
BRANCH   3  19
HETATM   19  C   UNL     1     -10.589  14.751  65.202  1.00  0.00    -0.439 A  
HETATM   20  C   UNL     1     -10.073  13.446  65.125  1.00  0.00    -0.266 A  
HETATM   21  H   UNL     1     -13.606  11.933  62.936  1.00  0.00     0.000 HD 
HETATM   22  C   UNL     1     -11.849  15.017  64.632  1.00  0.00    -0.378 A  
HETATM   23  H   UNL     1     -10.840  10.480  63.968  1.00  0.00     0.000 HD 
HETATM   24  C   UNL     1     -10.805  12.446  64.497  1.00  0.00    -0.321 A  
HETATM   25  C   UNL     1     -12.580  14.007  64.002  1.00  0.00    -0.076 A  
HETATM   26  O   UNL     1     -10.339  11.164  64.397  1.00  0.00    -0.298 OA 
HETATM   27  C   UNL     1     -12.049  12.729  63.938  1.00  0.00    -0.486 A  
HETATM   28  O   UNL     1     -12.758  11.740  63.317  1.00  0.00    -0.567 OA 
ENDBRANCH   3  19
TORSDOF 8
ENDMDL
MODEL      153
REMARK 921   NORMALIZED FREE ENERGY PREDICTED BY IDOCK:   -4.88 KCAL/MOL
REMARK 922        TOTAL FREE ENERGY PREDICTED BY IDOCK:   -8.36 KCAL/MOL
REMARK 923 INTER-LIGAND FREE ENERGY PREDICTED BY IDOCK:   -7.78 KCAL/MOL
REMARK 924 INTRA-LIGAND FREE ENERGY PREDICTED BY IDOCK:   -0.57 KCAL/MOL
REMARK 927      BINDING AFFINITY PREDICTED BY RF-SCORE:    0.00 PKD
ROOT
HETATM    1  O   UNL     1     -11.311  16.024  64.008  1.00  0.00    -1.093 OA 
HETATM    2  H   UNL     1     -12.020  16.656  64.041  1.00  0.00     0.000 HD 
HETATM    3  C   UNL     1     -11.088  15.488  65.319  1.00  0.00    -0.338 C  
ENDROOT
BRANCH   3   4
HETATM    4  C   UNL     1      -9.934  14.458  65.265  1.00  0.00    -0.280 C  
BRANCH   4   5
HETATM    5  N   UNL     1     -10.041  13.572  64.085  1.00  0.00    -0.761 NA 
HETATM    6  H   UNL     1      -9.129  13.233  63.777  1.00  0.00     0.000 HD 
BRANCH   5   7
HETATM    7  C   UNL     1     -10.971  12.472  64.363  1.00  0.00    -0.340 C  
BRANCH   7   8
HETATM    8  C   UNL     1     -10.481  11.187  63.690  1.00  0.00    -0.438 C  
BRANCH   8   9
HETATM    9  C   UNL     1      -9.979  10.187  64.734  1.00  0.00    -0.334 C  
BRANCH   9  10
HETATM   10  C   UNL     1     -10.624  10.422  66.102  1.00  0.00    -0.160 C  
BRANCH  10  11
HETATM   11  C   UNL     1     -10.184   9.371  67.093  1.00  0.00    -0.319 A  
HETATM   12  C   UNL     1     -10.471   9.517  68.459  1.00  0.00    -0.247 A  
HETATM   13  C   UNL     1     -10.018   8.573  69.383  1.00  0.00    -0.194 A  
HETATM   14  C   UNL     1      -9.276   7.483  68.940  1.00  0.00    -0.142 A  
HETATM   15  O   UNL     1      -8.798   6.548  69.811  1.00  0.00    -0.141 OA 
HETATM   16  C   UNL     1      -8.989   7.317  67.592  1.00  0.00    -0.126 A  
HETATM   17  H   UNL     1      -8.291   5.804  69.508  1.00  0.00     0.000 HD 
HETATM   18  C   UNL     1      -9.441   8.262  66.668  1.00  0.00    -0.271 A  
ENDBRANCH  10  11
ENDBRANCH   9  10
ENDBRANCH   8   9
ENDBRANCH   7   8
ENDBRANCH   5   7
ENDBRANCH   4   5
ENDBRANCH   3   4
BRANCH   3  19
HETATM   19  C   UNL     1     -10.781  16.609  66.291  1.00  0.00    -0.119 A  
HETATM   20  C   UNL     1     -10.432  17.894  65.840  1.00  0.00    -0.253 A  
HETATM   21  H   UNL     1      -9.873  19.430  69.951  1.00  0.00     0.000 HD 
HETATM   22  C   UNL     1     -10.810  16.360  67.677  1.00  0.00    -0.280 A  
HETATM   23  H   UNL     1      -9.570  20.836  66.992  1.00  0.00     0.000 HD 
HETATM   24  C   UNL     1     -10.126  18.891  66.758  1.00  0.00    -0.375 A  
HETATM   25  C   UNL     1     -10.502  17.367  68.594  1.00  0.00    -0.355 A  
HETATM   26  O   UNL     1      -9.779  20.154  66.364  1.00  0.00    -0.411 OA 
HETATM   27  C   UNL     1     -10.159  18.625  68.125  1.00  0.00    -0.378 A  
HETATM   28  O   UNL     1      -9.850  19.611  69.019  1.00  0.00    -0.431 OA 
ENDBRANCH   3  19
TORSDOF 8
ENDMDL
MODEL      154
REMARK 921   NORMALIZED FREE ENERGY PREDICTED BY IDOCK:   -4.87 KCAL/MOL
REMARK 922        TOTAL FREE ENERGY PREDICTED BY IDOCK:   -8.35 KCAL/MOL
REMARK 923 INTER-LIGAND FREE ENERGY PREDICTED BY IDOCK:   -6.91 KCAL/MOL
REMARK 924 INTRA-LIGAND FREE ENERGY PREDICTED BY IDOCK:   -1.44 KCAL/MOL
REMARK 927      BINDING AFFINITY PREDICTED BY RF-SCORE:    0.00 PKD
ROOT
HETATM    1  O   UNL     1     -10.544   6.100  66.202  1.00  0.00    -0.459 OA 
HETATM    2  H   UNL     1     -10.687   6.510  65.356  1.00  0.00     0.000 HD 
HETATM    3  C   UNL     1     -10.987   6.983  67.241  1.00  0.00    -0.302 C  
ENDROOT
BRANCH   3   4
HETATM    4  C   UNL     1     -10.755   6.315  68.618  1.00  0.00    -0.298 C  
BRANCH   4   5
HETATM    5  N   UNL     1     -11.881   6.564  69.546  1.00  0.00    -0.589 NA 
HETATM    6  H   UNL     1     -12.559   5.802  69.536  1.00  0.00     0.000 HD 
BRANCH   5   7
HETATM    7  C   UNL     1     -11.372   6.830  70.896  1.00  0.00    -0.315 C  
BRANCH   7   8
HETATM    8  C   UNL     1     -10.504   8.091  70.892  1.00  0.00    -0.223 C  
BRANCH   8   9
HETATM    9  C   UNL     1     -11.173   9.210  71.692  1.00  0.00    -0.447 C  
BRANCH   9  10
HETATM   10  C   UNL     1     -12.485   9.665  71.046  1.00  0.00    -0.382 C  
BRANCH  10  11
HETATM   11  C   UNL     1     -12.417  11.122  70.657  1.00  0.00    -0.448 A  
HETATM   12  C   UNL     1     -11.861  11.505  69.427  1.00  0.00    -0.417 A  
HETATM   13  C   UNL     1     -11.749  12.855  69.088  1.00  0.00    -0.376 A  
HETATM   14  C   UNL     1     -12.191  13.824  69.984  1.00  0.00    -0.342 A  
HETATM   15  O   UNL     1     -12.083  15.154  69.702  1.00  0.00    -0.341 OA 
HETATM   16  C   UNL     1     -12.751  13.465  71.202  1.00  0.00    -0.411 A  
HETATM   17  H   UNL     1     -12.384  15.815  70.313  1.00  0.00     0.000 HD 
HETATM   18  C   UNL     1     -12.862  12.115  71.540  1.00  0.00    -0.394 A  
ENDBRANCH  10  11
ENDBRANCH   9  10
ENDBRANCH   8   9
ENDBRANCH   7   8
ENDBRANCH   5   7
ENDBRANCH   4   5
ENDBRANCH   3   4
BRANCH   3  19
HETATM   19  C   UNL     1     -10.257   8.307  67.141  1.00  0.00    -0.365 A  
HETATM   20  C   UNL     1      -8.978   8.483  67.698  1.00  0.00    -0.141 A  
HETATM   21  H   UNL     1      -8.787  12.733  66.487  1.00  0.00     0.000 HD 
HETATM   22  C   UNL     1     -10.878   9.401  66.507  1.00  0.00     0.131 A  
HETATM   23  H   UNL     1      -6.679  10.781  68.091  1.00  0.00     0.000 HD 
HETATM   24  C   UNL     1      -8.350   9.720  67.616  1.00  0.00    -0.114 A  
HETATM   25  C   UNL     1     -10.240  10.641  66.428  1.00  0.00    -0.291 A  
HETATM   26  O   UNL     1      -7.108   9.936  68.147  1.00  0.00    -0.076 OA 
HETATM   27  C   UNL     1      -8.981  10.790  66.987  1.00  0.00    -0.141 A  
HETATM   28  O   UNL     1      -8.358  12.003  66.917  1.00  0.00    -0.171 OA 
ENDBRANCH   3  19
TORSDOF 8
ENDMDL
MODEL      155
REMARK 921   NORMALIZED FREE ENERGY PREDICTED BY IDOCK:   -4.86 KCAL/MOL
REMARK 922        TOTAL FREE ENERGY PREDICTED BY IDOCK:   -8.33 KCAL/MOL
REMARK 923 INTER-LIGAND FREE ENERGY PREDICTED BY IDOCK:   -7.68 KCAL/MOL
REMARK 924 INTRA-LIGAND FREE ENERGY PREDICTED BY IDOCK:   -0.66 KCAL/MOL
REMARK 927      BINDING AFFINITY PREDICTED BY RF-SCORE:    0.00 PKD
ROOT
HETATM    1  O   UNL     1     -11.463   6.249  66.580  1.00  0.00    -0.680 OA 
HETATM    2  H   UNL     1     -12.110   5.576  66.760  1.00  0.00     0.000 HD 
HETATM    3  C   UNL     1     -10.215   5.888  67.185  1.00  0.00    -0.203 C  
ENDROOT
BRANCH   3   4
HETATM    4  C   UNL     1      -9.162   6.983  66.891  1.00  0.00    -0.150 C  
BRANCH   4   5
HETATM    5  N   UNL     1      -9.720   8.073  66.061  1.00  0.00    -0.450 NA 
HETATM    6  H   UNL     1     -10.354   8.671  66.591  1.00  0.00     0.000 HD 
BRANCH   5   7
HETATM    7  C   UNL     1      -8.634   8.839  65.439  1.00  0.00    -0.178 C  
BRANCH   7   8
HETATM    8  C   UNL     1      -9.032   9.261  64.023  1.00  0.00    -0.107 C  
BRANCH   8   9
HETATM    9  C   UNL     1      -9.160  10.783  63.927  1.00  0.00    -0.207 C  
BRANCH   9  10
HETATM   10  C   UNL     1     -10.616  11.221  63.748  1.00  0.00    -0.455 C  
BRANCH  10  11
HETATM   11  C   UNL     1     -11.034  12.169  64.846  1.00  0.00    -0.355 A  
HETATM   12  C   UNL     1     -10.285  12.262  66.028  1.00  0.00    -0.267 A  
HETATM   13  C   UNL     1     -10.699  13.099  67.067  1.00  0.00    -0.270 A  
HETATM   14  C   UNL     1     -11.868  13.840  66.923  1.00  0.00    -0.413 A  
HETATM   15  O   UNL     1     -12.319  14.654  67.920  1.00  0.00    -0.614 OA 
HETATM   16  C   UNL     1     -12.618  13.767  65.758  1.00  0.00    -0.525 A  
HETATM   17  H   UNL     1     -13.117  15.160  67.822  1.00  0.00     0.000 HD 
HETATM   18  C   UNL     1     -12.203  12.930  64.720  1.00  0.00    -0.499 A  
ENDBRANCH  10  11
ENDBRANCH   9  10
ENDBRANCH   8   9
ENDBRANCH   7   8
ENDBRANCH   5   7
ENDBRANCH   4   5
ENDBRANCH   3   4
BRANCH   3  19
HETATM   19  C   UNL     1     -10.402   5.689  68.676  1.00  0.00    -0.277 A  
HETATM   20  C   UNL     1     -11.365   6.415  69.397  1.00  0.00    -0.443 A  
HETATM   21  H   UNL     1     -10.222   4.552  73.242  1.00  0.00     0.000 HD 
HETATM   22  C   UNL     1      -9.574   4.784  69.369  1.00  0.00    -0.249 A  
HETATM   23  H   UNL     1     -12.496   6.794  72.447  1.00  0.00     0.000 HD 
HETATM   24  C   UNL     1     -11.489   6.232  70.769  1.00  0.00    -0.316 A  
HETATM   25  C   UNL     1      -9.705   4.604  70.748  1.00  0.00    -0.269 A  
HETATM   26  O   UNL     1     -12.411   6.920  71.510  1.00  0.00    -0.343 OA 
HETATM   27  C   UNL     1     -10.661   5.333  71.437  1.00  0.00    -0.177 A  
HETATM   28  O   UNL     1     -10.786   5.165  72.787  1.00  0.00    -0.228 OA 
ENDBRANCH   3  19
TORSDOF 8
ENDMDL
MODEL      156
REMARK 921   NORMALIZED FREE ENERGY PREDICTED BY IDOCK:   -4.85 KCAL/MOL
REMARK 922        TOTAL FREE ENERGY PREDICTED BY IDOCK:   -8.32 KCAL/MOL
REMARK 923 INTER-LIGAND FREE ENERGY PREDICTED BY IDOCK:   -7.83 KCAL/MOL
REMARK 924 INTRA-LIGAND FREE ENERGY PREDICTED BY IDOCK:   -0.48 KCAL/MOL
REMARK 927      BINDING AFFINITY PREDICTED BY RF-SCORE:    0.00 PKD
ROOT
HETATM    1  O   UNL     1     -11.145   4.993  65.652  1.00  0.00    -0.778 OA 
HETATM    2  H   UNL     1     -11.861   4.480  66.011  1.00  0.00     0.000 HD 
HETATM    3  C   UNL     1      -9.954   4.747  66.410  1.00  0.00    -0.241 C  
ENDROOT
BRANCH   3   4
HETATM    4  C   UNL     1      -8.789   5.582  65.825  1.00  0.00    -0.153 C  
BRANCH   4   5
HETATM    5  N   UNL     1      -9.177   6.994  65.613  1.00  0.00    -0.374 NA 
HETATM    6  H   UNL     1      -9.627   7.394  66.437  1.00  0.00     0.000 HD 
BRANCH   5   7
HETATM    7  C   UNL     1      -8.012   7.778  65.188  1.00  0.00    -0.129 C  
BRANCH   7   8
HETATM    8  C   UNL     1      -7.885   9.039  66.047  1.00  0.00    -0.102 C  
BRANCH   8   9
HETATM    9  C   UNL     1      -8.148  10.292  65.210  1.00  0.00    -0.151 C  
BRANCH   9  10
HETATM   10  C   UNL     1      -9.304  10.088  64.227  1.00  0.00    -0.345 C  
BRANCH  10  11
HETATM   11  C   UNL     1     -10.411  11.081  64.483  1.00  0.00    -0.411 A  
HETATM   12  C   UNL     1     -11.120  11.647  63.413  1.00  0.00    -0.422 A  
HETATM   13  C   UNL     1     -12.109  12.606  63.645  1.00  0.00    -0.632 A  
HETATM   14  C   UNL     1     -12.386  13.001  64.950  1.00  0.00    -0.459 A  
HETATM   15  O   UNL     1     -13.330  13.947  65.220  1.00  0.00    -0.732 OA 
HETATM   16  C   UNL     1     -11.701  12.446  66.022  1.00  0.00    -0.469 A  
HETATM   17  H   UNL     1     -13.519  14.217  66.111  1.00  0.00     0.000 HD 
HETATM   18  C   UNL     1     -10.712  11.488  65.790  1.00  0.00    -0.325 A  
ENDBRANCH  10  11
ENDBRANCH   9  10
ENDBRANCH   8   9
ENDBRANCH   7   8
ENDBRANCH   5   7
ENDBRANCH   4   5
ENDBRANCH   3   4
BRANCH   3  19
HETATM   19  C   UNL     1     -10.191   5.079  67.869  1.00  0.00    -0.147 A  
HETATM   20  C   UNL     1      -9.617   4.312  68.898  1.00  0.00    -0.227 A  
HETATM   21  H   UNL     1     -11.542   6.716  72.073  1.00  0.00     0.000 HD 
HETATM   22  C   UNL     1     -11.032   6.156  68.213  1.00  0.00    -0.397 A  
HETATM   23  H   UNL     1      -9.525   4.117  72.166  1.00  0.00     0.000 HD 
HETATM   24  C   UNL     1      -9.881   4.624  70.226  1.00  0.00    -0.243 A  
HETATM   25  C   UNL     1     -11.292   6.464  69.550  1.00  0.00    -0.460 A  
HETATM   26  O   UNL     1      -9.345   3.904  71.258  1.00  0.00    -0.120 OA 
HETATM   27  C   UNL     1     -10.715   5.692  70.546  1.00  0.00    -0.274 A  
HETATM   28  O   UNL     1     -10.973   5.987  71.855  1.00  0.00    -0.243 OA 
ENDBRANCH   3  19
TORSDOF 8
ENDMDL
MODEL      157
REMARK 921   NORMALIZED FREE ENERGY PREDICTED BY IDOCK:   -4.84 KCAL/MOL
REMARK 922        TOTAL FREE ENERGY PREDICTED BY IDOCK:   -8.31 KCAL/MOL
REMARK 923 INTER-LIGAND FREE ENERGY PREDICTED BY IDOCK:   -7.45 KCAL/MOL
REMARK 924 INTRA-LIGAND FREE ENERGY PREDICTED BY IDOCK:   -0.86 KCAL/MOL
REMARK 927      BINDING AFFINITY PREDICTED BY RF-SCORE:    0.00 PKD
ROOT
HETATM    1  O   UNL     1     -10.886   7.285  72.853  1.00  0.00    -0.278 OA 
HETATM    2  H   UNL     1     -10.106   6.769  73.024  1.00  0.00     0.000 HD 
HETATM    3  C   UNL     1     -11.812   6.511  72.080  1.00  0.00    -0.329 C  
ENDROOT
BRANCH   3   4
HETATM    4  C   UNL     1     -13.081   7.351  71.802  1.00  0.00    -0.317 C  
BRANCH   4   5
HETATM    5  N   UNL     1     -13.198   8.495  72.733  1.00  0.00    -0.653 NA 
HETATM    6  H   UNL     1     -12.440   8.511  73.416  1.00  0.00     0.000 HD 
BRANCH   5   7
HETATM    7  C   UNL     1     -13.286   9.751  71.980  1.00  0.00    -0.460 C  
BRANCH   7   8
HETATM    8  C   UNL     1     -11.980  10.001  71.222  1.00  0.00    -0.483 C  
BRANCH   8   9
HETATM    9  C   UNL     1     -12.220  10.914  70.018  1.00  0.00    -0.422 C  
BRANCH   9  10
HETATM   10  C   UNL     1     -11.048  10.877  69.033  1.00  0.00    -0.302 C  
BRANCH  10  11
HETATM   11  C   UNL     1     -10.840  12.228  68.392  1.00  0.00    -0.257 A  
HETATM   12  C   UNL     1      -9.552  12.657  68.039  1.00  0.00    -0.213 A  
HETATM   13  C   UNL     1      -9.350  13.927  67.495  1.00  0.00    -0.217 A  
HETATM   14  C   UNL     1     -10.440  14.771  67.308  1.00  0.00    -0.264 A  
HETATM   15  O   UNL     1     -10.287  16.027  66.798  1.00  0.00    -0.288 OA 
HETATM   16  C   UNL     1     -11.724  14.362  67.644  1.00  0.00    -0.421 A  
HETATM   17  H   UNL     1     -11.031  16.603  66.670  1.00  0.00     0.000 HD 
HETATM   18  C   UNL     1     -11.924  13.091  68.188  1.00  0.00    -0.322 A  
ENDBRANCH  10  11
ENDBRANCH   9  10
ENDBRANCH   8   9
ENDBRANCH   7   8
ENDBRANCH   5   7
ENDBRANCH   4   5
ENDBRANCH   3   4
BRANCH   3  19
HETATM   19  C   UNL     1     -11.157   6.059  70.790  1.00  0.00    -0.355 A  
HETATM   20  C   UNL     1     -11.495   6.638  69.555  1.00  0.00    -0.323 A  
HETATM   21  H   UNL     1      -8.758   3.988  67.307  1.00  0.00     0.000 HD 
HETATM   22  C   UNL     1     -10.213   5.014  70.814  1.00  0.00    -0.299 A  
HETATM   23  H   UNL     1     -10.793   6.396  66.365  1.00  0.00     0.000 HD 
HETATM   24  C   UNL     1     -10.899   6.178  68.387  1.00  0.00    -0.305 A  
HETATM   25  C   UNL     1      -9.617   4.557  69.637  1.00  0.00    -0.270 A  
HETATM   26  O   UNL     1     -11.201   6.710  67.163  1.00  0.00    -0.392 OA 
HETATM   27  C   UNL     1      -9.968   5.142  68.431  1.00  0.00    -0.149 A  
HETATM   28  O   UNL     1      -9.393   4.694  67.276  1.00  0.00    -0.127 OA 
ENDBRANCH   3  19
TORSDOF 8
ENDMDL
MODEL      158
REMARK 921   NORMALIZED FREE ENERGY PREDICTED BY IDOCK:   -4.83 KCAL/MOL
REMARK 922        TOTAL FREE ENERGY PREDICTED BY IDOCK:   -8.29 KCAL/MOL
REMARK 923 INTER-LIGAND FREE ENERGY PREDICTED BY IDOCK:   -7.70 KCAL/MOL
REMARK 924 INTRA-LIGAND FREE ENERGY PREDICTED BY IDOCK:   -0.60 KCAL/MOL
REMARK 927      BINDING AFFINITY PREDICTED BY RF-SCORE:    0.00 PKD
ROOT
HETATM    1  O   UNL     1     -12.011  11.160  67.928  1.00  0.00    -0.624 OA 
HETATM    2  H   UNL     1     -12.852  10.732  68.042  1.00  0.00     0.000 HD 
HETATM    3  C   UNL     1     -10.961  10.190  68.036  1.00  0.00    -0.270 C  
ENDROOT
BRANCH   3   4
HETATM    4  C   UNL     1      -9.593  10.887  67.849  1.00  0.00    -0.166 C  
BRANCH   4   5
HETATM    5  N   UNL     1      -9.466  12.087  68.706  1.00  0.00    -0.397 NA 
HETATM    6  H   UNL     1      -9.278  11.844  69.679  1.00  0.00     0.000 HD 
BRANCH   5   7
HETATM    7  C   UNL     1      -8.447  12.991  68.159  1.00  0.00    -0.176 C  
BRANCH   7   8
HETATM    8  C   UNL     1      -9.117  14.207  67.512  1.00  0.00    -0.195 C  
BRANCH   8   9
HETATM    9  C   UNL     1      -9.952  14.974  68.539  1.00  0.00    -0.219 C  
BRANCH   9  10
HETATM   10  C   UNL     1     -11.011  15.852  67.868  1.00  0.00    -0.327 C  
BRANCH  10  11
HETATM   11  C   UNL     1     -10.508  17.264  67.691  1.00  0.00    -0.363 A  
HETATM   12  C   UNL     1     -10.243  18.071  68.808  1.00  0.00    -0.362 A  
HETATM   13  C   UNL     1      -9.829  19.395  68.645  1.00  0.00    -0.522 A  
HETATM   14  C   UNL     1      -9.683  19.913  67.362  1.00  0.00    -0.389 A  
HETATM   15  O   UNL     1      -9.299  21.206  67.158  1.00  0.00    -0.656 OA 
HETATM   16  C   UNL     1      -9.933  19.128  66.245  1.00  0.00    -0.462 A  
HETATM   17  H   UNL     1      -9.200  21.560  66.282  1.00  0.00     0.000 HD 
HETATM   18  C   UNL     1     -10.347  17.805  66.408  1.00  0.00    -0.351 A  
ENDBRANCH  10  11
ENDBRANCH   9  10
ENDBRANCH   8   9
ENDBRANCH   7   8
ENDBRANCH   5   7
ENDBRANCH   4   5
ENDBRANCH   3   4
BRANCH   3  19
HETATM   19  C   UNL     1     -11.043   9.486  69.375  1.00  0.00    -0.136 A  
HETATM   20  C   UNL     1     -10.431   8.238  69.586  1.00  0.00    -0.221 A  
HETATM   21  H   UNL     1     -11.896   7.968  73.751  1.00  0.00     0.000 HD 
HETATM   22  C   UNL     1     -11.775  10.070  70.428  1.00  0.00    -0.365 A  
HETATM   23  H   UNL     1     -10.058   5.957  71.906  1.00  0.00     0.000 HD 
HETATM   24  C   UNL     1     -10.552   7.605  70.817  1.00  0.00    -0.221 A  
HETATM   25  C   UNL     1     -11.893   9.428  71.662  1.00  0.00    -0.464 A  
HETATM   26  O   UNL     1      -9.976   6.390  71.064  1.00  0.00    -0.179 OA 
HETATM   27  C   UNL     1     -11.281   8.198  71.845  1.00  0.00    -0.290 A  
HETATM   28  O   UNL     1     -11.400   7.564  73.049  1.00  0.00    -0.341 OA 
ENDBRANCH   3  19
TORSDOF 8
ENDMDL
MODEL      159
REMARK 921   NORMALIZED FREE ENERGY PREDICTED BY IDOCK:   -4.81 KCAL/MOL
REMARK 922        TOTAL FREE ENERGY PREDICTED BY IDOCK:   -8.26 KCAL/MOL
REMARK 923 INTER-LIGAND FREE ENERGY PREDICTED BY IDOCK:   -7.69 KCAL/MOL
REMARK 924 INTRA-LIGAND FREE ENERGY PREDICTED BY IDOCK:   -0.57 KCAL/MOL
REMARK 927      BINDING AFFINITY PREDICTED BY RF-SCORE:    0.00 PKD
ROOT
HETATM    1  O   UNL     1     -12.053  11.101  67.711  1.00  0.00    -0.626 OA 
HETATM    2  H   UNL     1     -12.110  10.194  67.430  1.00  0.00     0.000 HD 
HETATM    3  C   UNL     1     -10.917  11.266  68.569  1.00  0.00    -0.220 C  
ENDROOT
BRANCH   3   4
HETATM    4  C   UNL     1     -10.826  12.742  69.025  1.00  0.00    -0.148 C  
BRANCH   4   5
HETATM    5  N   UNL     1     -12.165  13.356  69.171  1.00  0.00    -0.246 NA 
HETATM    6  H   UNL     1     -12.913  12.674  69.049  1.00  0.00     0.000 HD 
BRANCH   5   7
HETATM    7  C   UNL     1     -12.262  14.053  70.459  1.00  0.00    -0.365 C  
BRANCH   7   8
HETATM    8  C   UNL     1     -12.443  15.556  70.230  1.00  0.00    -0.403 C  
BRANCH   8   9
HETATM    9  C   UNL     1     -11.086  16.252  70.113  1.00  0.00    -0.346 C  
BRANCH   9  10
HETATM   10  C   UNL     1     -10.708  16.520  68.653  1.00  0.00    -0.334 C  
BRANCH  10  11
HETATM   11  C   UNL     1      -9.601  17.541  68.561  1.00  0.00    -0.305 A  
HETATM   12  C   UNL     1      -8.257  17.140  68.603  1.00  0.00    -0.255 A  
HETATM   13  C   UNL     1      -7.232  18.087  68.572  1.00  0.00    -0.265 A  
HETATM   14  C   UNL     1      -7.552  19.439  68.502  1.00  0.00    -0.334 A  
HETATM   15  O   UNL     1      -6.583  20.399  68.488  1.00  0.00    -0.297 OA 
HETATM   16  C   UNL     1      -8.875  19.855  68.451  1.00  0.00    -0.234 A  
HETATM   17  H   UNL     1      -6.801  21.321  68.441  1.00  0.00     0.000 HD 
HETATM   18  C   UNL     1      -9.900  18.908  68.483  1.00  0.00    -0.455 A  
ENDBRANCH  10  11
ENDBRANCH   9  10
ENDBRANCH   8   9
ENDBRANCH   7   8
ENDBRANCH   5   7
ENDBRANCH   4   5
ENDBRANCH   3   4
BRANCH   3  19
HETATM   19  C   UNL     1     -11.024  10.328  69.754  1.00  0.00    -0.338 A  
HETATM   20  C   UNL     1     -12.244  10.126  70.422  1.00  0.00    -0.300 A  
HETATM   21  H   UNL     1     -10.433   7.377  73.376  1.00  0.00     0.000 HD 
HETATM   22  C   UNL     1      -9.873   9.666  70.226  1.00  0.00    -0.321 A  
HETATM   23  H   UNL     1     -13.503   8.484  72.960  1.00  0.00     0.000 HD 
HETATM   24  C   UNL     1     -12.300   9.284  71.525  1.00  0.00    -0.360 A  
HETATM   25  C   UNL     1      -9.937   8.820  71.336  1.00  0.00    -0.354 A  
HETATM   26  O   UNL     1     -13.465   9.061  72.206  1.00  0.00    -0.413 OA 
HETATM   27  C   UNL     1     -11.151   8.638  71.978  1.00  0.00    -0.367 A  
HETATM   28  O   UNL     1     -11.216   7.817  73.068  1.00  0.00    -0.405 OA 
ENDBRANCH   3  19
TORSDOF 8
ENDMDL
MODEL      160
REMARK 921   NORMALIZED FREE ENERGY PREDICTED BY IDOCK:   -4.81 KCAL/MOL
REMARK 922        TOTAL FREE ENERGY PREDICTED BY IDOCK:   -8.26 KCAL/MOL
REMARK 923 INTER-LIGAND FREE ENERGY PREDICTED BY IDOCK:   -7.57 KCAL/MOL
REMARK 924 INTRA-LIGAND FREE ENERGY PREDICTED BY IDOCK:   -0.69 KCAL/MOL
REMARK 927      BINDING AFFINITY PREDICTED BY RF-SCORE:    0.00 PKD
ROOT
HETATM    1  O   UNL     1     -11.050  16.753  67.451  1.00  0.00    -0.156 OA 
HETATM    2  H   UNL     1     -11.544  17.511  67.160  1.00  0.00     0.000 HD 
HETATM    3  C   UNL     1     -10.172  17.135  68.517  1.00  0.00    -0.346 C  
ENDROOT
BRANCH   3   4
HETATM    4  C   UNL     1      -9.368  15.900  68.991  1.00  0.00    -0.243 C  
BRANCH   4   5
HETATM    5  N   UNL     1      -8.338  15.503  68.005  1.00  0.00    -0.140 NA 
HETATM    6  H   UNL     1      -7.474  16.033  68.121  1.00  0.00     0.000 HD 
BRANCH   5   7
HETATM    7  C   UNL     1      -8.109  14.056  68.072  1.00  0.00    -0.152 C  
BRANCH   7   8
HETATM    8  C   UNL     1      -9.285  13.307  67.440  1.00  0.00    -0.216 C  
BRANCH   8   9
HETATM    9  C   UNL     1      -9.615  12.045  68.239  1.00  0.00    -0.204 C  
BRANCH   9  10
HETATM   10  C   UNL     1     -11.115  11.737  68.222  1.00  0.00    -0.291 C  
BRANCH  10  11
HETATM   11  C   UNL     1     -11.785  12.248  69.475  1.00  0.00    -0.398 A  
HETATM   12  C   UNL     1     -12.200  11.355  70.474  1.00  0.00    -0.478 A  
HETATM   13  C   UNL     1     -12.868  11.820  71.609  1.00  0.00    -0.433 A  
HETATM   14  C   UNL     1     -13.124  13.181  71.742  1.00  0.00    -0.383 A  
HETATM   15  O   UNL     1     -13.789  13.676  72.825  1.00  0.00    -0.727 OA 
HETATM   16  C   UNL     1     -12.713  14.081  70.768  1.00  0.00    -0.396 A  
HETATM   17  H   UNL     1     -13.964  14.605  72.915  1.00  0.00     0.000 HD 
HETATM   18  C   UNL     1     -12.046  13.615  69.633  1.00  0.00    -0.378 A  
ENDBRANCH  10  11
ENDBRANCH   9  10
ENDBRANCH   8   9
ENDBRANCH   7   8
ENDBRANCH   5   7
ENDBRANCH   4   5
ENDBRANCH   3   4
BRANCH   3  19
HETATM   19  C   UNL     1      -9.252  18.248  68.056  1.00  0.00    -0.300 A  
HETATM   20  C   UNL     1      -8.256  18.771  68.899  1.00  0.00    -0.255 A  
HETATM   21  H   UNL     1      -6.951  21.738  65.889  1.00  0.00     0.000 HD 
HETATM   22  C   UNL     1      -9.413  18.799  66.770  1.00  0.00    -0.335 A  
HETATM   23  H   UNL     1      -5.921  21.067  68.941  1.00  0.00     0.000 HD 
HETATM   24  C   UNL     1      -7.450  19.813  68.456  1.00  0.00    -0.312 A  
HETATM   25  C   UNL     1      -8.599  19.846  66.332  1.00  0.00    -0.386 A  
HETATM   26  O   UNL     1      -6.471  20.355  69.243  1.00  0.00    -0.289 OA 
HETATM   27  C   UNL     1      -7.625  20.347  67.181  1.00  0.00    -0.324 A  
HETATM   28  O   UNL     1      -6.832  21.375  66.758  1.00  0.00    -0.427 OA 
ENDBRANCH   3  19
TORSDOF 8
ENDMDL
MODEL      161
REMARK 921   NORMALIZED FREE ENERGY PREDICTED BY IDOCK:   -4.81 KCAL/MOL
REMARK 922        TOTAL FREE ENERGY PREDICTED BY IDOCK:   -8.26 KCAL/MOL
REMARK 923 INTER-LIGAND FREE ENERGY PREDICTED BY IDOCK:   -6.94 KCAL/MOL
REMARK 924 INTRA-LIGAND FREE ENERGY PREDICTED BY IDOCK:   -1.32 KCAL/MOL
REMARK 927      BINDING AFFINITY PREDICTED BY RF-SCORE:    0.00 PKD
ROOT
HETATM    1  O   UNL     1      -6.820  18.907  65.042  1.00  0.00    -0.491 OA 
HETATM    2  H   UNL     1      -6.167  18.292  64.727  1.00  0.00     0.000 HD 
HETATM    3  C   UNL     1      -6.425  19.407  66.326  1.00  0.00    -0.190 C  
ENDROOT
BRANCH   3   4
HETATM    4  C   UNL     1      -7.487  20.410  66.838  1.00  0.00    -0.298 C  
BRANCH   4   5
HETATM    5  N   UNL     1      -8.708  20.392  66.002  1.00  0.00    -0.569 NA 
HETATM    6  H   UNL     1      -8.581  19.843  65.152  1.00  0.00     0.000 HD 
BRANCH   5   7
HETATM    7  C   UNL     1      -9.853  19.923  66.792  1.00  0.00    -0.426 C  
BRANCH   7   8
HETATM    8  C   UNL     1     -10.528  18.743  66.089  1.00  0.00    -0.499 C  
BRANCH   8   9
HETATM    9  C   UNL     1      -9.628  17.506  66.124  1.00  0.00    -0.201 C  
BRANCH   9  10
HETATM   10  C   UNL     1     -10.425  16.217  65.905  1.00  0.00    -0.359 C  
BRANCH  10  11
HETATM   11  C   UNL     1     -10.792  15.579  67.223  1.00  0.00    -0.313 A  
HETATM   12  C   UNL     1     -10.162  15.984  68.410  1.00  0.00    -0.236 A  
HETATM   13  C   UNL     1     -10.461  15.359  69.622  1.00  0.00    -0.286 A  
HETATM   14  C   UNL     1     -11.390  14.323  69.646  1.00  0.00    -0.243 A  
HETATM   15  O   UNL     1     -11.698  13.672  70.804  1.00  0.00    -0.516 OA 
HETATM   16  C   UNL     1     -12.030  13.914  68.484  1.00  0.00    -0.394 A  
HETATM   17  H   UNL     1     -12.332  12.965  70.820  1.00  0.00     0.000 HD 
HETATM   18  C   UNL     1     -11.730  14.539  67.272  1.00  0.00    -0.429 A  
ENDBRANCH  10  11
ENDBRANCH   9  10
ENDBRANCH   8   9
ENDBRANCH   7   8
ENDBRANCH   5   7
ENDBRANCH   4   5
ENDBRANCH   3   4
BRANCH   3  19
HETATM   19  C   UNL     1      -6.242  18.256  67.295  1.00  0.00    -0.181 A  
HETATM   20  C   UNL     1      -5.928  18.480  68.646  1.00  0.00    -0.203 A  
HETATM   21  H   UNL     1      -5.726  14.154  69.548  1.00  0.00     0.000 HD 
HETATM   22  C   UNL     1      -6.352  16.930  66.833  1.00  0.00    -0.237 A  
HETATM   23  H   UNL     1      -5.294  16.835  71.406  1.00  0.00     0.000 HD 
HETATM   24  C   UNL     1      -5.735  17.401  69.501  1.00  0.00    -0.217 A  
HETATM   25  C   UNL     1      -6.157  15.851  67.698  1.00  0.00    -0.181 A  
HETATM   26  O   UNL     1      -5.426  17.572  70.822  1.00  0.00    -0.247 OA 
HETATM   27  C   UNL     1      -5.847  16.096  69.025  1.00  0.00    -0.121 A  
HETATM   28  O   UNL     1      -5.649  15.043  69.872  1.00  0.00    -0.106 OA 
ENDBRANCH   3  19
TORSDOF 8
ENDMDL
MODEL      162
REMARK 921   NORMALIZED FREE ENERGY PREDICTED BY IDOCK:   -4.79 KCAL/MOL
REMARK 922        TOTAL FREE ENERGY PREDICTED BY IDOCK:   -8.23 KCAL/MOL
REMARK 923 INTER-LIGAND FREE ENERGY PREDICTED BY IDOCK:   -7.02 KCAL/MOL
REMARK 924 INTRA-LIGAND FREE ENERGY PREDICTED BY IDOCK:   -1.21 KCAL/MOL
REMARK 927      BINDING AFFINITY PREDICTED BY RF-SCORE:    0.00 PKD
ROOT
HETATM    1  O   UNL     1     -10.051   4.570  71.806  1.00  0.00    -0.187 OA 
HETATM    2  H   UNL     1     -10.250   3.989  71.080  1.00  0.00     0.000 HD 
HETATM    3  C   UNL     1     -10.782   5.794  71.654  1.00  0.00    -0.256 C  
ENDROOT
BRANCH   3   4
HETATM    4  C   UNL     1     -10.457   6.739  72.835  1.00  0.00    -0.234 C  
BRANCH   4   5
HETATM    5  N   UNL     1     -11.648   7.502  73.272  1.00  0.00    -0.617 NA 
HETATM    6  H   UNL     1     -11.614   7.724  74.267  1.00  0.00     0.000 HD 
BRANCH   5   7
HETATM    7  C   UNL     1     -11.808   8.703  72.445  1.00  0.00    -0.331 C  
BRANCH   7   8
HETATM    8  C   UNL     1     -13.289   9.083  72.352  1.00  0.00    -0.516 C  
BRANCH   8   9
HETATM    9  C   UNL     1     -13.525  10.057  71.197  1.00  0.00    -0.299 C  
BRANCH   9  10
HETATM   10  C   UNL     1     -12.645  11.304  71.316  1.00  0.00    -0.487 C  
BRANCH  10  11
HETATM   11  C   UNL     1     -12.134  11.735  69.963  1.00  0.00    -0.387 A  
HETATM   12  C   UNL     1     -11.792  10.780  68.994  1.00  0.00    -0.325 A  
HETATM   13  C   UNL     1     -11.268  11.175  67.761  1.00  0.00    -0.359 A  
HETATM   14  C   UNL     1     -11.083  12.529  67.499  1.00  0.00    -0.267 A  
HETATM   15  O   UNL     1     -10.557  12.957  66.316  1.00  0.00    -0.261 OA 
HETATM   16  C   UNL     1     -11.422  13.489  68.442  1.00  0.00    -0.346 A  
HETATM   17  H   UNL     1     -10.430  13.881  66.137  1.00  0.00     0.000 HD 
HETATM   18  C   UNL     1     -11.946  13.094  69.675  1.00  0.00    -0.370 A  
ENDBRANCH  10  11
ENDBRANCH   9  10
ENDBRANCH   8   9
ENDBRANCH   7   8
ENDBRANCH   5   7
ENDBRANCH   4   5
ENDBRANCH   3   4
BRANCH   3  19
HETATM   19  C   UNL     1     -10.443   6.437  70.324  1.00  0.00    -0.270 A  
HETATM   20  C   UNL     1      -9.320   7.268  70.177  1.00  0.00    -0.155 A  
HETATM   21  H   UNL     1     -10.212   8.106  65.926  1.00  0.00     0.000 HD 
HETATM   22  C   UNL     1     -11.286   6.231  69.214  1.00  0.00    -0.458 A  
HETATM   23  H   UNL     1      -7.795   9.096  67.928  1.00  0.00     0.000 HD 
HETATM   24  C   UNL     1      -9.056   7.868  68.952  1.00  0.00    -0.141 A  
HETATM   25  C   UNL     1     -11.014   6.837  67.985  1.00  0.00    -0.289 A  
HETATM   26  O   UNL     1      -7.975   8.686  68.765  1.00  0.00    -0.110 OA 
HETATM   27  C   UNL     1      -9.901   7.653  67.865  1.00  0.00    -0.157 A  
HETATM   28  O   UNL     1      -9.636   8.253  66.667  1.00  0.00    -0.195 OA 
ENDBRANCH   3  19
TORSDOF 8
ENDMDL
MODEL      163
REMARK 921   NORMALIZED FREE ENERGY PREDICTED BY IDOCK:   -4.75 KCAL/MOL
REMARK 922        TOTAL FREE ENERGY PREDICTED BY IDOCK:   -8.18 KCAL/MOL
REMARK 923 INTER-LIGAND FREE ENERGY PREDICTED BY IDOCK:   -7.48 KCAL/MOL
REMARK 924 INTRA-LIGAND FREE ENERGY PREDICTED BY IDOCK:   -0.70 KCAL/MOL
REMARK 927      BINDING AFFINITY PREDICTED BY RF-SCORE:    0.00 PKD
ROOT
HETATM    1  O   UNL     1     -12.470  14.738  68.073  1.00  0.00    -0.571 OA 
HETATM    2  H   UNL     1     -12.615  15.035  68.964  1.00  0.00     0.000 HD 
HETATM    3  C   UNL     1     -11.081  14.433  67.892  1.00  0.00    -0.274 C  
ENDROOT
BRANCH   3   4
HETATM    4  C   UNL     1     -10.844  13.948  66.441  1.00  0.00    -0.291 C  
BRANCH   4   5
HETATM    5  N   UNL     1     -11.251  14.967  65.448  1.00  0.00    -0.354 NA 
HETATM    6  H   UNL     1     -10.446  15.429  65.024  1.00  0.00     0.000 HD 
BRANCH   5   7
HETATM    7  C   UNL     1     -12.133  14.366  64.441  1.00  0.00    -0.470 C  
BRANCH   7   8
HETATM    8  C   UNL     1     -12.385  12.893  64.775  1.00  0.00    -0.516 C  
BRANCH   8   9
HETATM    9  C   UNL     1     -11.919  11.992  63.630  1.00  0.00    -0.612 C  
BRANCH   9  10
HETATM   10  C   UNL     1     -10.426  12.167  63.340  1.00  0.00    -0.450 C  
BRANCH  10  11
HETATM   11  C   UNL     1      -9.667  10.894  63.626  1.00  0.00    -0.374 A  
HETATM   12  C   UNL     1      -9.039  10.191  62.588  1.00  0.00    -0.305 A  
HETATM   13  C   UNL     1      -8.383   8.985  62.843  1.00  0.00    -0.202 A  
HETATM   14  C   UNL     1      -8.357   8.480  64.139  1.00  0.00    -0.095 A  
HETATM   15  O   UNL     1      -7.744   7.298  64.429  1.00  0.00    -0.108 OA 
HETATM   16  C   UNL     1      -8.966   9.166  65.181  1.00  0.00    -0.238 A  
HETATM   17  H   UNL     1      -7.727   6.953  65.314  1.00  0.00     0.000 HD 
HETATM   18  C   UNL     1      -9.623  10.372  64.926  1.00  0.00    -0.348 A  
ENDBRANCH  10  11
ENDBRANCH   9  10
ENDBRANCH   8   9
ENDBRANCH   7   8
ENDBRANCH   5   7
ENDBRANCH   4   5
ENDBRANCH   3   4
BRANCH   3  19
HETATM   19  C   UNL     1     -10.238  15.651  68.210  1.00  0.00    -0.223 A  
HETATM   20  C   UNL     1     -10.779  16.948  68.167  1.00  0.00    -0.375 A  
HETATM   21  H   UNL     1      -6.916  18.837  69.205  1.00  0.00     0.000 HD 
HETATM   22  C   UNL     1      -8.874  15.494  68.523  1.00  0.00    -0.186 A  
HETATM   23  H   UNL     1      -9.901  20.075  68.583  1.00  0.00     0.000 HD 
HETATM   24  C   UNL     1      -9.970  18.046  68.434  1.00  0.00    -0.378 A  
HETATM   25  C   UNL     1      -8.066  16.602  68.791  1.00  0.00    -0.247 A  
HETATM   26  O   UNL     1     -10.453  19.325  68.401  1.00  0.00    -0.369 OA 
HETATM   27  C   UNL     1      -8.622  17.870  68.741  1.00  0.00    -0.201 A  
HETATM   28  O   UNL     1      -7.834  18.957  68.995  1.00  0.00    -0.297 OA 
ENDBRANCH   3  19
TORSDOF 8
ENDMDL
MODEL      164
REMARK 921   NORMALIZED FREE ENERGY PREDICTED BY IDOCK:   -4.75 KCAL/MOL
REMARK 922        TOTAL FREE ENERGY PREDICTED BY IDOCK:   -8.18 KCAL/MOL
REMARK 923 INTER-LIGAND FREE ENERGY PREDICTED BY IDOCK:   -7.40 KCAL/MOL
REMARK 924 INTRA-LIGAND FREE ENERGY PREDICTED BY IDOCK:   -0.77 KCAL/MOL
REMARK 927      BINDING AFFINITY PREDICTED BY RF-SCORE:    0.00 PKD
ROOT
HETATM    1  O   UNL     1      -7.947   9.846  65.712  1.00  0.00    -0.113 OA 
HETATM    2  H   UNL     1      -7.656  10.549  65.142  1.00  0.00     0.000 HD 
HETATM    3  C   UNL     1      -9.233   9.382  65.282  1.00  0.00    -0.238 C  
ENDROOT
BRANCH   3   4
HETATM    4  C   UNL     1      -9.706   8.238  66.210  1.00  0.00    -0.183 C  
BRANCH   4   5
HETATM    5  N   UNL     1      -9.009   6.967  65.915  1.00  0.00    -0.313 NA 
HETATM    6  H   UNL     1      -8.443   7.029  65.068  1.00  0.00     0.000 HD 
BRANCH   5   7
HETATM    7  C   UNL     1      -8.218   6.545  67.076  1.00  0.00    -0.113 C  
BRANCH   7   8
HETATM    8  C   UNL     1      -8.930   6.944  68.371  1.00  0.00    -0.121 C  
BRANCH   8   9
HETATM    9  C   UNL     1      -8.041   7.858  69.217  1.00  0.00    -0.126 C  
BRANCH   9  10
HETATM   10  C   UNL     1      -8.125   7.513  70.706  1.00  0.00    -0.108 C  
BRANCH  10  11
HETATM   11  C   UNL     1      -9.490   7.842  71.260  1.00  0.00    -0.173 A  
HETATM   12  C   UNL     1     -10.094   9.076  70.978  1.00  0.00    -0.352 A  
HETATM   13  C   UNL     1     -11.333   9.403  71.534  1.00  0.00    -0.464 A  
HETATM   14  C   UNL     1     -11.966   8.495  72.376  1.00  0.00    -0.364 A  
HETATM   15  O   UNL     1     -13.167   8.781  72.956  1.00  0.00    -0.805 OA 
HETATM   16  C   UNL     1     -11.387   7.265  72.661  1.00  0.00    -0.333 A  
HETATM   17  H   UNL     1     -13.599   8.161  73.531  1.00  0.00     0.000 HD 
HETATM   18  C   UNL     1     -10.149   6.939  72.105  1.00  0.00    -0.198 A  
ENDBRANCH  10  11
ENDBRANCH   9  10
ENDBRANCH   8   9
ENDBRANCH   7   8
ENDBRANCH   5   7
ENDBRANCH   4   5
ENDBRANCH   3   4
BRANCH   3  19
HETATM   19  C   UNL     1     -10.221  10.531  65.276  1.00  0.00    -0.352 A  
HETATM   20  C   UNL     1     -10.736  11.061  66.472  1.00  0.00    -0.298 A  
HETATM   21  H   UNL     1     -13.303  13.968  64.344  1.00  0.00     0.000 HD 
HETATM   22  C   UNL     1     -10.665  11.065  64.050  1.00  0.00    -0.331 A  
HETATM   23  H   UNL     1     -12.829  13.342  67.540  1.00  0.00     0.000 HD 
HETATM   24  C   UNL     1     -11.665  12.093  66.430  1.00  0.00    -0.324 A  
HETATM   25  C   UNL     1     -11.599  12.103  64.016  1.00  0.00    -0.504 A  
HETATM   26  O   UNL     1     -12.195  12.636  67.568  1.00  0.00    -0.389 OA 
HETATM   27  C   UNL     1     -12.093  12.607  65.208  1.00  0.00    -0.467 A  
HETATM   28  O   UNL     1     -13.011  13.618  65.177  1.00  0.00    -0.734 OA 
ENDBRANCH   3  19
TORSDOF 8
ENDMDL
MODEL      165
REMARK 921   NORMALIZED FREE ENERGY PREDICTED BY IDOCK:   -4.73 KCAL/MOL
REMARK 922        TOTAL FREE ENERGY PREDICTED BY IDOCK:   -8.15 KCAL/MOL
REMARK 923 INTER-LIGAND FREE ENERGY PREDICTED BY IDOCK:   -7.72 KCAL/MOL
REMARK 924 INTRA-LIGAND FREE ENERGY PREDICTED BY IDOCK:   -0.43 KCAL/MOL
REMARK 927      BINDING AFFINITY PREDICTED BY RF-SCORE:    0.00 PKD
ROOT
HETATM    1  O   UNL     1      -9.681  14.159  68.989  1.00  0.00    -0.388 OA 
HETATM    2  H   UNL     1      -9.751  15.084  68.780  1.00  0.00     0.000 HD 
HETATM    3  C   UNL     1      -9.196  13.446  67.844  1.00  0.00    -0.216 C  
ENDROOT
BRANCH   3   4
HETATM    4  C   UNL     1      -9.082  11.941  68.183  1.00  0.00    -0.190 C  
BRANCH   4   5
HETATM    5  N   UNL     1      -9.974  11.560  69.301  1.00  0.00    -0.414 NA 
HETATM    6  H   UNL     1     -10.819  12.132  69.327  1.00  0.00     0.000 HD 
BRANCH   5   7
HETATM    7  C   UNL     1     -10.282  10.127  69.234  1.00  0.00    -0.223 C  
BRANCH   7   8
HETATM    8  C   UNL     1      -9.828   9.431  70.520  1.00  0.00    -0.331 C  
BRANCH   8   9
HETATM    9  C   UNL     1     -10.878   8.421  70.988  1.00  0.00    -0.280 C  
BRANCH   9  10
HETATM   10  C   UNL     1     -10.800   8.178  72.497  1.00  0.00    -0.431 C  
BRANCH  10  11
HETATM   11  C   UNL     1     -10.615   6.710  72.798  1.00  0.00    -0.260 A  
HETATM   12  C   UNL     1     -10.627   5.764  71.763  1.00  0.00    -0.293 A  
HETATM   13  C   UNL     1     -10.510   4.401  72.045  1.00  0.00    -0.128 A  
HETATM   14  C   UNL     1     -10.385   3.985  73.366  1.00  0.00    -0.162 A  
HETATM   15  O   UNL     1     -10.287   2.663  73.688  1.00  0.00    -0.107 OA 
HETATM   16  C   UNL     1     -10.364   4.906  74.404  1.00  0.00    -0.325 A  
HETATM   17  H   UNL     1     -10.203   2.378  74.590  1.00  0.00     0.000 HD 
HETATM   18  C   UNL     1     -10.481   6.269  74.121  1.00  0.00    -0.250 A  
ENDBRANCH  10  11
ENDBRANCH   9  10
ENDBRANCH   8   9
ENDBRANCH   7   8
ENDBRANCH   5   7
ENDBRANCH   4   5
ENDBRANCH   3   4
BRANCH   3  19
HETATM   19  C   UNL     1     -10.119  13.676  66.663  1.00  0.00    -0.277 A  
HETATM   20  C   UNL     1     -10.246  14.943  66.069  1.00  0.00    -0.317 A  
HETATM   21  H   UNL     1     -13.268  13.528  63.165  1.00  0.00     0.000 HD 
HETATM   22  C   UNL     1     -10.895  12.611  66.165  1.00  0.00    -0.301 A  
HETATM   23  H   UNL     1     -11.883  16.469  63.678  1.00  0.00     0.000 HD 
HETATM   24  C   UNL     1     -11.125  15.127  65.008  1.00  0.00    -0.419 A  
HETATM   25  C   UNL     1     -11.775  12.803  65.098  1.00  0.00    -0.396 A  
HETATM   26  O   UNL     1     -11.283  16.343  64.403  1.00  0.00    -0.807 OA 
HETATM   27  C   UNL     1     -11.885  14.062  64.530  1.00  0.00    -0.434 A  
HETATM   28  O   UNL     1     -12.750  14.254  63.491  1.00  0.00    -0.767 OA 
ENDBRANCH   3  19
TORSDOF 8
ENDMDL
MODEL      166
REMARK 921   NORMALIZED FREE ENERGY PREDICTED BY IDOCK:   -4.70 KCAL/MOL
REMARK 922        TOTAL FREE ENERGY PREDICTED BY IDOCK:   -8.10 KCAL/MOL
REMARK 923 INTER-LIGAND FREE ENERGY PREDICTED BY IDOCK:   -6.74 KCAL/MOL
REMARK 924 INTRA-LIGAND FREE ENERGY PREDICTED BY IDOCK:   -1.36 KCAL/MOL
REMARK 927      BINDING AFFINITY PREDICTED BY RF-SCORE:    0.00 PKD
ROOT
HETATM    1  O   UNL     1      -8.689  13.292  66.244  1.00  0.00    -0.422 OA 
HETATM    2  H   UNL     1      -7.892  13.052  66.704  1.00  0.00     0.000 HD 
HETATM    3  C   UNL     1      -9.763  12.445  66.673  1.00  0.00    -0.225 C  
ENDROOT
BRANCH   3   4
HETATM    4  C   UNL     1     -11.060  12.836  65.925  1.00  0.00    -0.287 C  
BRANCH   4   5
HETATM    5  N   UNL     1     -12.213  12.949  66.845  1.00  0.00    -0.410 NA 
HETATM    6  H   UNL     1     -12.384  12.080  67.351  1.00  0.00     0.000 HD 
BRANCH   5   7
HETATM    7  C   UNL     1     -12.023  14.085  67.754  1.00  0.00    -0.357 C  
BRANCH   7   8
HETATM    8  C   UNL     1     -11.976  13.595  69.204  1.00  0.00    -0.394 C  
BRANCH   8   9
HETATM    9  C   UNL     1     -12.273  12.096  69.278  1.00  0.00    -0.106 C  
BRANCH   9  10
HETATM   10  C   UNL     1     -11.172  11.335  70.020  1.00  0.00    -0.213 C  
BRANCH  10  11
HETATM   11  C   UNL     1     -11.714  10.070  70.641  1.00  0.00    -0.421 A  
HETATM   12  C   UNL     1     -11.168   8.822  70.306  1.00  0.00    -0.212 A  
HETATM   13  C   UNL     1     -11.703   7.647  70.838  1.00  0.00    -0.291 A  
HETATM   14  C   UNL     1     -12.790   7.721  71.703  1.00  0.00    -0.340 A  
HETATM   15  O   UNL     1     -13.356   6.598  72.230  1.00  0.00    -0.540 OA 
HETATM   16  C   UNL     1     -13.339   8.947  72.053  1.00  0.00    -0.471 A  
HETATM   17  H   UNL     1     -14.098   6.648  72.821  1.00  0.00     0.000 HD 
HETATM   18  C   UNL     1     -12.804  10.122  71.521  1.00  0.00    -0.548 A  
ENDBRANCH  10  11
ENDBRANCH   9  10
ENDBRANCH   8   9
ENDBRANCH   7   8
ENDBRANCH   5   7
ENDBRANCH   4   5
ENDBRANCH   3   4
BRANCH   3  19
HETATM   19  C   UNL     1      -9.404  10.993  66.432  1.00  0.00    -0.204 A  
HETATM   20  C   UNL     1      -8.240  10.633  65.731  1.00  0.00    -0.161 A  
HETATM   21  H   UNL     1      -9.127   6.309  66.027  1.00  0.00     0.000 HD 
HETATM   22  C   UNL     1     -10.266   9.975  66.885  1.00  0.00    -0.299 A  
HETATM   23  H   UNL     1      -6.643   7.981  64.662  1.00  0.00     0.000 HD 
HETATM   24  C   UNL     1      -7.956   9.292  65.499  1.00  0.00    -0.104 A  
HETATM   25  C   UNL     1      -9.975   8.630  66.649  1.00  0.00    -0.357 A  
HETATM   26  O   UNL     1      -6.837   8.897  64.820  1.00  0.00    -0.072 OA 
HETATM   27  C   UNL     1      -8.822   8.300  65.955  1.00  0.00    -0.160 A  
HETATM   28  O   UNL     1      -8.537   6.985  65.716  1.00  0.00    -0.145 OA 
ENDBRANCH   3  19
TORSDOF 8
ENDMDL
MODEL      167
REMARK 921   NORMALIZED FREE ENERGY PREDICTED BY IDOCK:   -4.70 KCAL/MOL
REMARK 922        TOTAL FREE ENERGY PREDICTED BY IDOCK:   -8.10 KCAL/MOL
REMARK 923 INTER-LIGAND FREE ENERGY PREDICTED BY IDOCK:   -7.52 KCAL/MOL
REMARK 924 INTRA-LIGAND FREE ENERGY PREDICTED BY IDOCK:   -0.57 KCAL/MOL
REMARK 927      BINDING AFFINITY PREDICTED BY RF-SCORE:    0.00 PKD
ROOT
HETATM    1  O   UNL     1     -10.494   9.357  67.704  1.00  0.00    -0.238 OA 
HETATM    2  H   UNL     1     -11.200   8.786  67.422  1.00  0.00     0.000 HD 
HETATM    3  C   UNL     1     -10.009   8.923  68.981  1.00  0.00    -0.190 C  
ENDROOT
BRANCH   3   4
HETATM    4  C   UNL     1      -8.860   9.852  69.440  1.00  0.00    -0.187 C  
BRANCH   4   5
HETATM    5  N   UNL     1      -9.063  11.245  68.982  1.00  0.00    -0.389 NA 
HETATM    6  H   UNL     1      -9.269  11.876  69.757  1.00  0.00     0.000 HD 
BRANCH   5   7
HETATM    7  C   UNL     1      -7.903  11.693  68.202  1.00  0.00    -0.133 C  
BRANCH   7   8
HETATM    8  C   UNL     1      -7.471  13.089  68.659  1.00  0.00    -0.093 C  
BRANCH   8   9
HETATM    9  C   UNL     1      -7.880  14.145  67.629  1.00  0.00    -0.190 C  
BRANCH   9  10
HETATM   10  C   UNL     1      -9.294  14.672  67.886  1.00  0.00    -0.198 C  
BRANCH  10  11
HETATM   11  C   UNL     1     -10.145  14.560  66.644  1.00  0.00    -0.275 A  
HETATM   12  C   UNL     1     -10.304  15.660  65.789  1.00  0.00    -0.386 A  
HETATM   13  C   UNL     1     -11.134  15.574  64.669  1.00  0.00    -0.373 A  
HETATM   14  C   UNL     1     -11.809  14.386  64.407  1.00  0.00    -0.415 A  
HETATM   15  O   UNL     1     -12.644  14.265  63.335  1.00  0.00    -1.067 OA 
HETATM   16  C   UNL     1     -11.658  13.284  65.237  1.00  0.00    -0.335 A  
HETATM   17  H   UNL     1     -13.105  13.454  63.156  1.00  0.00     0.000 HD 
HETATM   18  C   UNL     1     -10.829  13.371  66.357  1.00  0.00    -0.294 A  
ENDBRANCH  10  11
ENDBRANCH   9  10
ENDBRANCH   8   9
ENDBRANCH   7   8
ENDBRANCH   5   7
ENDBRANCH   4   5
ENDBRANCH   3   4
BRANCH   3  19
HETATM   19  C   UNL     1     -11.142   8.910  69.988  1.00  0.00    -0.180 A  
HETATM   20  C   UNL     1     -11.569   7.716  70.595  1.00  0.00    -0.251 A  
HETATM   21  H   UNL     1     -14.773   9.751  72.866  1.00  0.00     0.000 HD 
HETATM   22  C   UNL     1     -11.812  10.109  70.302  1.00  0.00    -0.342 A  
HETATM   23  H   UNL     1     -13.808   6.609  72.713  1.00  0.00     0.000 HD 
HETATM   24  C   UNL     1     -12.632   7.735  71.490  1.00  0.00    -0.333 A  
HETATM   25  C   UNL     1     -12.879  10.120  71.202  1.00  0.00    -0.494 A  
HETATM   26  O   UNL     1     -13.082   6.597  72.101  1.00  0.00    -0.169 OA 
HETATM   27  C   UNL     1     -13.282   8.930  71.787  1.00  0.00    -0.378 A  
HETATM   28  O   UNL     1     -14.330   8.936  72.663  1.00  0.00    -0.613 OA 
ENDBRANCH   3  19
TORSDOF 8
ENDMDL
MODEL      168
REMARK 921   NORMALIZED FREE ENERGY PREDICTED BY IDOCK:   -4.70 KCAL/MOL
REMARK 922        TOTAL FREE ENERGY PREDICTED BY IDOCK:   -8.10 KCAL/MOL
REMARK 923 INTER-LIGAND FREE ENERGY PREDICTED BY IDOCK:   -7.11 KCAL/MOL
REMARK 924 INTRA-LIGAND FREE ENERGY PREDICTED BY IDOCK:   -0.99 KCAL/MOL
REMARK 927      BINDING AFFINITY PREDICTED BY RF-SCORE:    0.00 PKD
ROOT
HETATM    1  O   UNL     1     -13.602  15.413  71.005  1.00  0.00    -0.613 OA 
HETATM    2  H   UNL     1     -13.294  16.303  71.135  1.00  0.00     0.000 HD 
HETATM    3  C   UNL     1     -12.488  14.559  70.712  1.00  0.00    -0.351 C  
ENDROOT
BRANCH   3   4
HETATM    4  C   UNL     1     -12.990  13.111  70.501  1.00  0.00     0.172 C  
BRANCH   4   5
HETATM    5  N   UNL     1     -12.161  12.129  71.236  1.00  0.00    -0.217 NA 
HETATM    6  H   UNL     1     -12.185  12.288  72.243  1.00  0.00     0.000 HD 
BRANCH   5   7
HETATM    7  C   UNL     1     -12.567  10.764  70.885  1.00  0.00    -0.401 C  
BRANCH   7   8
HETATM    8  C   UNL     1     -11.343   9.845  70.848  1.00  0.00    -0.446 C  
BRANCH   8   9
HETATM    9  C   UNL     1     -10.345  10.316  69.789  1.00  0.00    -0.287 C  
BRANCH   9  10
HETATM   10  C   UNL     1     -10.274   9.349  68.604  1.00  0.00    -0.222 C  
BRANCH  10  11
HETATM   11  C   UNL     1     -10.123  10.100  67.303  1.00  0.00    -0.254 A  
HETATM   12  C   UNL     1     -10.020   9.406  66.088  1.00  0.00    -0.351 A  
HETATM   13  C   UNL     1      -9.826  10.097  64.890  1.00  0.00    -0.390 A  
HETATM   14  C   UNL     1      -9.732  11.485  64.908  1.00  0.00    -0.234 A  
HETATM   15  O   UNL     1      -9.524  12.198  63.765  1.00  0.00    -0.544 OA 
HETATM   16  C   UNL     1      -9.839  12.190  66.099  1.00  0.00    -0.254 A  
HETATM   17  H   UNL     1      -9.459  13.145  63.777  1.00  0.00     0.000 HD 
HETATM   18  C   UNL     1     -10.033  11.499  67.297  1.00  0.00    -0.212 A  
ENDBRANCH  10  11
ENDBRANCH   9  10
ENDBRANCH   8   9
ENDBRANCH   7   8
ENDBRANCH   5   7
ENDBRANCH   4   5
ENDBRANCH   3   4
BRANCH   3  19
HETATM   19  C   UNL     1     -11.751  15.071  69.491  1.00  0.00    -0.350 A  
HETATM   20  C   UNL     1     -10.854  16.150  69.576  1.00  0.00    -0.329 A  
HETATM   21  H   UNL     1     -10.013  16.085  65.234  1.00  0.00     0.000 HD 
HETATM   22  C   UNL     1     -11.990  14.483  68.234  1.00  0.00    -0.303 A  
HETATM   23  H   UNL     1      -8.905  17.981  67.685  1.00  0.00     0.000 HD 
HETATM   24  C   UNL     1     -10.218  16.615  68.431  1.00  0.00    -0.284 A  
HETATM   25  C   UNL     1     -11.347  14.956  67.087  1.00  0.00    -0.348 A  
HETATM   26  O   UNL     1      -9.340  17.663  68.467  1.00  0.00    -0.278 OA 
HETATM   27  C   UNL     1     -10.468  16.021  67.196  1.00  0.00    -0.308 A  
HETATM   28  O   UNL     1      -9.843  16.490  66.075  1.00  0.00    -0.309 OA 
ENDBRANCH   3  19
TORSDOF 8
ENDMDL
MODEL      169
REMARK 921   NORMALIZED FREE ENERGY PREDICTED BY IDOCK:   -4.69 KCAL/MOL
REMARK 922        TOTAL FREE ENERGY PREDICTED BY IDOCK:   -8.08 KCAL/MOL
REMARK 923 INTER-LIGAND FREE ENERGY PREDICTED BY IDOCK:   -6.39 KCAL/MOL
REMARK 924 INTRA-LIGAND FREE ENERGY PREDICTED BY IDOCK:   -1.70 KCAL/MOL
REMARK 927      BINDING AFFINITY PREDICTED BY RF-SCORE:    0.00 PKD
ROOT
HETATM    1  O   UNL     1      -8.240  11.920  69.125  1.00  0.00    -0.351 OA 
HETATM    2  H   UNL     1      -7.783  12.585  68.622  1.00  0.00     0.000 HD 
HETATM    3  C   UNL     1      -7.377  10.793  69.324  1.00  0.00    -0.129 C  
ENDROOT
BRANCH   3   4
HETATM    4  C   UNL     1      -8.121   9.712  70.144  1.00  0.00    -0.189 C  
BRANCH   4   5
HETATM    5  N   UNL     1      -9.582   9.947  70.167  1.00  0.00    -0.361 NA 
HETATM    6  H   UNL     1      -9.852  10.733  69.574  1.00  0.00     0.000 HD 
BRANCH   5   7
HETATM    7  C   UNL     1     -10.297   8.717  69.810  1.00  0.00    -0.211 C  
BRANCH   7   8
HETATM    8  C   UNL     1     -10.326   8.550  68.288  1.00  0.00    -0.246 C  
BRANCH   8   9
HETATM    9  C   UNL     1     -10.780   9.845  67.611  1.00  0.00    -0.339 C  
BRANCH   9  10
HETATM   10  C   UNL     1     -10.061  10.072  66.278  1.00  0.00    -0.310 C  
BRANCH  10  11
HETATM   11  C   UNL     1     -10.693  11.209  65.512  1.00  0.00    -0.251 A  
HETATM   12  C   UNL     1     -11.451  12.183  66.178  1.00  0.00    -0.429 A  
HETATM   13  C   UNL     1     -12.080  13.205  65.464  1.00  0.00    -0.490 A  
HETATM   14  C   UNL     1     -11.953  13.250  64.080  1.00  0.00    -0.465 A  
HETATM   15  O   UNL     1     -12.566  14.219  63.341  1.00  0.00    -1.067 OA 
HETATM   16  C   UNL     1     -11.200  12.300  63.403  1.00  0.00    -0.497 A  
HETATM   17  H   UNL     1     -12.479  14.250  62.396  1.00  0.00     0.000 HD 
HETATM   18  C   UNL     1     -10.571  11.279  64.117  1.00  0.00    -0.437 A  
ENDBRANCH  10  11
ENDBRANCH   9  10
ENDBRANCH   8   9
ENDBRANCH   7   8
ENDBRANCH   5   7
ENDBRANCH   4   5
ENDBRANCH   3   4
BRANCH   3  19
HETATM   19  C   UNL     1      -6.919  10.251  67.985  1.00  0.00    -0.082 A  
HETATM   20  C   UNL     1      -6.769   8.871  67.766  1.00  0.00    -0.066 A  
HETATM   21  H   UNL     1      -5.342   9.453  63.620  1.00  0.00     0.000 HD 
HETATM   22  C   UNL     1      -6.600  11.142  66.942  1.00  0.00    -0.124 A  
HETATM   23  H   UNL     1      -5.843   6.759  65.440  1.00  0.00     0.000 HD 
HETATM   24  C   UNL     1      -6.315   8.408  66.536  1.00  0.00    -0.055 A  
HETATM   25  C   UNL     1      -6.146  10.671  65.708  1.00  0.00    -0.134 A  
HETATM   26  O   UNL     1      -6.153   7.075  66.281  1.00  0.00    -0.033 OA 
HETATM   27  C   UNL     1      -6.004   9.306  65.517  1.00  0.00    -0.059 A  
HETATM   28  O   UNL     1      -5.554   8.842  64.314  1.00  0.00    -0.062 OA 
ENDBRANCH   3  19
TORSDOF 8
ENDMDL
MODEL      170
REMARK 921   NORMALIZED FREE ENERGY PREDICTED BY IDOCK:   -4.69 KCAL/MOL
REMARK 922        TOTAL FREE ENERGY PREDICTED BY IDOCK:   -8.08 KCAL/MOL
REMARK 923 INTER-LIGAND FREE ENERGY PREDICTED BY IDOCK:   -7.39 KCAL/MOL
REMARK 924 INTRA-LIGAND FREE ENERGY PREDICTED BY IDOCK:   -0.69 KCAL/MOL
REMARK 927      BINDING AFFINITY PREDICTED BY RF-SCORE:    0.00 PKD
ROOT
HETATM    1  O   UNL     1     -12.048  10.366  68.295  1.00  0.00    -0.747 OA 
HETATM    2  H   UNL     1     -12.669   9.647  68.254  1.00  0.00     0.000 HD 
HETATM    3  C   UNL     1     -10.985  10.134  67.362  1.00  0.00    -0.229 C  
ENDROOT
BRANCH   3   4
HETATM    4  C   UNL     1      -9.975  11.305  67.430  1.00  0.00    -0.182 C  
BRANCH   4   5
HETATM    5  N   UNL     1     -10.045  12.162  66.226  1.00  0.00    -0.220 NA 
HETATM    6  H   UNL     1     -10.800  11.880  65.600  1.00  0.00     0.000 HD 
BRANCH   5   7
HETATM    7  C   UNL     1     -10.154  13.572  66.617  1.00  0.00    -0.277 C  
BRANCH   7   8
HETATM    8  C   UNL     1     -11.614  14.028  66.536  1.00  0.00    -0.389 C  
BRANCH   8   9
HETATM    9  C   UNL     1     -12.205  14.198  67.937  1.00  0.00    -0.190 C  
BRANCH   9  10
HETATM   10  C   UNL     1     -11.151  14.657  68.948  1.00  0.00    -0.268 C  
BRANCH  10  11
HETATM   11  C   UNL     1     -11.780  14.952  70.288  1.00  0.00    -0.352 A  
HETATM   12  C   UNL     1     -12.885  14.212  70.734  1.00  0.00    -0.378 A  
HETATM   13  C   UNL     1     -13.501  14.519  71.949  1.00  0.00    -0.466 A  
HETATM   14  C   UNL     1     -13.013  15.571  72.717  1.00  0.00    -0.457 A  
HETATM   15  O   UNL     1     -13.596  15.917  73.900  1.00  0.00    -0.739 OA 
HETATM   16  C   UNL     1     -11.916  16.310  72.296  1.00  0.00    -0.605 A  
HETATM   17  H   UNL     1     -13.264  16.636  74.424  1.00  0.00     0.000 HD 
HETATM   18  C   UNL     1     -11.300  16.003  71.081  1.00  0.00    -0.413 A  
ENDBRANCH  10  11
ENDBRANCH   9  10
ENDBRANCH   8   9
ENDBRANCH   7   8
ENDBRANCH   5   7
ENDBRANCH   4   5
ENDBRANCH   3   4
BRANCH   3  19
HETATM   19  C   UNL     1     -10.313   8.809  67.662  1.00  0.00    -0.317 A  
HETATM   20  C   UNL     1     -10.278   7.774  66.712  1.00  0.00    -0.346 A  
HETATM   21  H   UNL     1      -8.161   5.023  69.453  1.00  0.00     0.000 HD 
HETATM   22  C   UNL     1      -9.740   8.587  68.930  1.00  0.00    -0.172 A  
HETATM   23  H   UNL     1      -9.220   4.695  66.355  1.00  0.00     0.000 HD 
HETATM   24  C   UNL     1      -9.682   6.560  67.031  1.00  0.00    -0.151 A  
HETATM   25  C   UNL     1      -9.142   7.364  69.243  1.00  0.00    -0.135 A  
HETATM   26  O   UNL     1      -9.628   5.525  66.137  1.00  0.00    -0.157 OA 
HETATM   27  C   UNL     1      -9.121   6.359  68.290  1.00  0.00    -0.114 A  
HETATM   28  O   UNL     1      -8.544   5.159  68.595  1.00  0.00    -0.088 OA 
ENDBRANCH   3  19
TORSDOF 8
ENDMDL
MODEL      171
REMARK 921   NORMALIZED FREE ENERGY PREDICTED BY IDOCK:   -4.67 KCAL/MOL
REMARK 922        TOTAL FREE ENERGY PREDICTED BY IDOCK:   -8.05 KCAL/MOL
REMARK 923 INTER-LIGAND FREE ENERGY PREDICTED BY IDOCK:   -6.64 KCAL/MOL
REMARK 924 INTRA-LIGAND FREE ENERGY PREDICTED BY IDOCK:   -1.42 KCAL/MOL
REMARK 927      BINDING AFFINITY PREDICTED BY RF-SCORE:    0.00 PKD
ROOT
HETATM    1  O   UNL     1     -10.657  10.434  66.012  1.00  0.00    -0.172 OA 
HETATM    2  H   UNL     1     -11.598  10.300  66.042  1.00  0.00     0.000 HD 
HETATM    3  C   UNL     1     -10.002   9.383  66.734  1.00  0.00    -0.239 C  
ENDROOT
BRANCH   3   4
HETATM    4  C   UNL     1      -8.470   9.601  66.685  1.00  0.00    -0.123 C  
BRANCH   4   5
HETATM    5  N   UNL     1      -8.026  10.603  67.678  1.00  0.00    -0.106 NA 
HETATM    6  H   UNL     1      -7.187  10.303  68.175  1.00  0.00     0.000 HD 
BRANCH   5   7
HETATM    7  C   UNL     1      -7.844  11.907  67.031  1.00  0.00    -0.152 C  
BRANCH   7   8
HETATM    8  C   UNL     1      -8.745  12.953  67.694  1.00  0.00    -0.185 C  
BRANCH   8   9
HETATM    9  C   UNL     1      -9.550  13.718  66.642  1.00  0.00    -0.295 C  
BRANCH   9  10
HETATM   10  C   UNL     1     -11.036  13.787  67.002  1.00  0.00    -0.313 C  
BRANCH  10  11
HETATM   11  C   UNL     1     -11.239  14.491  68.322  1.00  0.00    -0.295 A  
HETATM   12  C   UNL     1     -11.999  13.892  69.338  1.00  0.00    -0.402 A  
HETATM   13  C   UNL     1     -12.233  14.565  70.539  1.00  0.00    -0.399 A  
HETATM   14  C   UNL     1     -11.708  15.840  70.723  1.00  0.00    -0.399 A  
HETATM   15  O   UNL     1     -11.927  16.540  71.872  1.00  0.00    -0.650 OA 
HETATM   16  C   UNL     1     -10.947  16.446  69.732  1.00  0.00    -0.341 A  
HETATM   17  H   UNL     1     -11.570  17.411  71.997  1.00  0.00     0.000 HD 
HETATM   18  C   UNL     1     -10.714  15.773  68.531  1.00  0.00    -0.274 A  
ENDBRANCH  10  11
ENDBRANCH   9  10
ENDBRANCH   8   9
ENDBRANCH   7   8
ENDBRANCH   5   7
ENDBRANCH   4   5
ENDBRANCH   3   4
BRANCH   3  19
HETATM   19  C   UNL     1     -10.507   9.343  68.162  1.00  0.00    -0.267 A  
HETATM   20  C   UNL     1     -10.299   8.220  68.981  1.00  0.00    -0.233 A  
HETATM   21  H   UNL     1     -12.505  10.005  72.374  1.00  0.00     0.000 HD 
HETATM   22  C   UNL     1     -11.233  10.434  68.677  1.00  0.00    -0.305 A  
HETATM   23  H   UNL     1     -10.972   7.119  71.991  1.00  0.00     0.000 HD 
HETATM   24  C   UNL     1     -10.804   8.203  70.276  1.00  0.00    -0.244 A  
HETATM   25  C   UNL     1     -11.737  10.411  69.979  1.00  0.00    -0.366 A  
HETATM   26  O   UNL     1     -10.627   7.131  71.106  1.00  0.00    -0.221 OA 
HETATM   27  C   UNL     1     -11.520   9.292  70.767  1.00  0.00    -0.292 A  
HETATM   28  O   UNL     1     -12.018   9.262  72.039  1.00  0.00    -0.364 OA 
ENDBRANCH   3  19
TORSDOF 8
ENDMDL
MODEL      172
REMARK 921   NORMALIZED FREE ENERGY PREDICTED BY IDOCK:   -4.67 KCAL/MOL
REMARK 922        TOTAL FREE ENERGY PREDICTED BY IDOCK:   -8.05 KCAL/MOL
REMARK 923 INTER-LIGAND FREE ENERGY PREDICTED BY IDOCK:   -6.92 KCAL/MOL
REMARK 924 INTRA-LIGAND FREE ENERGY PREDICTED BY IDOCK:   -1.13 KCAL/MOL
REMARK 927      BINDING AFFINITY PREDICTED BY RF-SCORE:    0.00 PKD
ROOT
HETATM    1  O   UNL     1     -11.573  16.174  63.826  1.00  0.00    -1.390 OA 
HETATM    2  H   UNL     1     -11.617  17.046  64.201  1.00  0.00     0.000 HD 
HETATM    3  C   UNL     1     -12.018  15.214  64.793  1.00  0.00    -0.250 C  
ENDROOT
BRANCH   3   4
HETATM    4  C   UNL     1     -11.946  13.794  64.181  1.00  0.00    -0.432 C  
BRANCH   4   5
HETATM    5  N   UNL     1     -10.568  13.439  63.776  1.00  0.00    -0.494 NA 
HETATM    6  H   UNL     1      -9.879  14.090  64.154  1.00  0.00     0.000 HD 
BRANCH   5   7
HETATM    7  C   UNL     1     -10.274  12.051  64.151  1.00  0.00    -0.339 C  
BRANCH   7   8
HETATM    8  C   UNL     1     -11.162  11.623  65.322  1.00  0.00    -0.263 C  
BRANCH   8   9
HETATM    9  C   UNL     1     -10.333  11.462  66.598  1.00  0.00    -0.272 C  
BRANCH   9  10
HETATM   10  C   UNL     1     -11.016  10.534  67.606  1.00  0.00    -0.375 C  
BRANCH  10  11
HETATM   11  C   UNL     1     -10.053   9.488  68.114  1.00  0.00    -0.214 A  
HETATM   12  C   UNL     1     -10.433   8.608  69.138  1.00  0.00    -0.223 A  
HETATM   13  C   UNL     1      -9.527   7.675  69.646  1.00  0.00    -0.156 A  
HETATM   14  C   UNL     1      -8.236   7.625  69.129  1.00  0.00    -0.130 A  
HETATM   15  O   UNL     1      -7.313   6.742  69.608  1.00  0.00    -0.082 OA 
HETATM   16  C   UNL     1      -7.844   8.481  68.109  1.00  0.00    -0.103 A  
HETATM   17  H   UNL     1      -6.432   6.708  69.256  1.00  0.00     0.000 HD 
HETATM   18  C   UNL     1      -8.750   9.414  67.603  1.00  0.00    -0.116 A  
ENDBRANCH  10  11
ENDBRANCH   9  10
ENDBRANCH   8   9
ENDBRANCH   7   8
ENDBRANCH   5   7
ENDBRANCH   4   5
ENDBRANCH   3   4
BRANCH   3  19
HETATM   19  C   UNL     1     -11.176  15.316  66.049  1.00  0.00    -0.231 A  
HETATM   20  C   UNL     1      -9.996  16.078  66.079  1.00  0.00    -0.365 A  
HETATM   21  H   UNL     1      -9.129  14.984  70.277  1.00  0.00     0.000 HD 
HETATM   22  C   UNL     1     -11.558  14.609  67.205  1.00  0.00    -0.404 A  
HETATM   23  H   UNL     1      -7.550  16.884  68.103  1.00  0.00     0.000 HD 
HETATM   24  C   UNL     1      -9.230  16.125  67.238  1.00  0.00    -0.208 A  
HETATM   25  C   UNL     1     -10.784  14.661  68.367  1.00  0.00    -0.242 A  
HETATM   26  O   UNL     1      -8.073  16.851  67.311  1.00  0.00    -0.175 OA 
HETATM   27  C   UNL     1      -9.623  15.417  68.372  1.00  0.00    -0.200 A  
HETATM   28  O   UNL     1      -8.860  15.465  69.504  1.00  0.00    -0.258 OA 
ENDBRANCH   3  19
TORSDOF 8
ENDMDL
MODEL      173
REMARK 921   NORMALIZED FREE ENERGY PREDICTED BY IDOCK:   -4.64 KCAL/MOL
REMARK 922        TOTAL FREE ENERGY PREDICTED BY IDOCK:   -8.01 KCAL/MOL
REMARK 923 INTER-LIGAND FREE ENERGY PREDICTED BY IDOCK:   -6.39 KCAL/MOL
REMARK 924 INTRA-LIGAND FREE ENERGY PREDICTED BY IDOCK:   -1.62 KCAL/MOL
REMARK 927      BINDING AFFINITY PREDICTED BY RF-SCORE:    0.00 PKD
ROOT
HETATM    1  O   UNL     1     -12.028   6.596  69.413  1.00  0.00    -0.611 OA 
HETATM    2  H   UNL     1     -12.612   6.298  70.102  1.00  0.00     0.000 HD 
HETATM    3  C   UNL     1     -10.902   5.713  69.325  1.00  0.00    -0.239 C  
ENDROOT
BRANCH   3   4
HETATM    4  C   UNL     1      -9.952   6.198  68.204  1.00  0.00    -0.142 C  
BRANCH   4   5
HETATM    5  N   UNL     1     -10.235   7.596  67.811  1.00  0.00    -0.188 NA 
HETATM    6  H   UNL     1     -11.063   7.965  68.279  1.00  0.00     0.000 HD 
BRANCH   5   7
HETATM    7  C   UNL     1      -9.053   8.434  68.044  1.00  0.00    -0.137 C  
BRANCH   7   8
HETATM    8  C   UNL     1      -9.244   9.806  67.390  1.00  0.00    -0.151 C  
BRANCH   8   9
HETATM    9  C   UNL     1     -10.506  10.487  67.924  1.00  0.00    -0.247 C  
BRANCH   9  10
HETATM   10  C   UNL     1     -10.282  11.089  69.314  1.00  0.00    -0.153 C  
BRANCH  10  11
HETATM   11  C   UNL     1     -11.137  10.394  70.346  1.00  0.00    -0.371 A  
HETATM   12  C   UNL     1     -12.503  10.696  70.459  1.00  0.00    -0.445 A  
HETATM   13  C   UNL     1     -13.283  10.094  71.449  1.00  0.00    -0.474 A  
HETATM   14  C   UNL     1     -12.695   9.191  72.328  1.00  0.00    -0.377 A  
HETATM   15  O   UNL     1     -13.416   8.595  73.321  1.00  0.00    -0.835 OA 
HETATM   16  C   UNL     1     -11.347   8.873  72.227  1.00  0.00    -0.288 A  
HETATM   17  H   UNL     1     -13.014   7.978  73.921  1.00  0.00     0.000 HD 
HETATM   18  C   UNL     1     -10.568   9.476  71.238  1.00  0.00    -0.358 A  
ENDBRANCH  10  11
ENDBRANCH   9  10
ENDBRANCH   8   9
ENDBRANCH   7   8
ENDBRANCH   5   7
ENDBRANCH   4   5
ENDBRANCH   3   4
BRANCH   3  19
HETATM   19  C   UNL     1     -10.190   5.649  70.661  1.00  0.00    -0.292 A  
HETATM   20  C   UNL     1     -10.838   5.175  71.815  1.00  0.00    -0.149 A  
HETATM   21  H   UNL     1      -7.308   5.909  74.376  1.00  0.00     0.000 HD 
HETATM   22  C   UNL     1      -8.861   6.104  70.768  1.00  0.00    -0.140 A  
HETATM   23  H   UNL     1     -10.300   4.697  75.010  1.00  0.00     0.000 HD 
HETATM   24  C   UNL     1     -10.167   5.159  73.031  1.00  0.00    -0.183 A  
HETATM   25  C   UNL     1      -8.192   6.084  71.993  1.00  0.00    -0.107 A  
HETATM   26  O   UNL     1     -10.760   4.708  74.179  1.00  0.00    -0.276 OA 
HETATM   27  C   UNL     1      -8.853   5.614  73.117  1.00  0.00    -0.122 A  
HETATM   28  O   UNL     1      -8.203   5.599  74.318  1.00  0.00    -0.105 OA 
ENDBRANCH   3  19
TORSDOF 8
ENDMDL
MODEL      174
REMARK 921   NORMALIZED FREE ENERGY PREDICTED BY IDOCK:   -4.64 KCAL/MOL
REMARK 922        TOTAL FREE ENERGY PREDICTED BY IDOCK:   -8.01 KCAL/MOL
REMARK 923 INTER-LIGAND FREE ENERGY PREDICTED BY IDOCK:   -7.50 KCAL/MOL
REMARK 924 INTRA-LIGAND FREE ENERGY PREDICTED BY IDOCK:   -0.51 KCAL/MOL
REMARK 927      BINDING AFFINITY PREDICTED BY RF-SCORE:    0.00 PKD
ROOT
HETATM    1  O   UNL     1     -13.896   7.419  72.216  1.00  0.00    -0.522 OA 
HETATM    2  H   UNL     1     -14.294   6.673  71.782  1.00  0.00     0.000 HD 
HETATM    3  C   UNL     1     -12.715   7.813  71.506  1.00  0.00    -0.332 C  
ENDROOT
BRANCH   3   4
HETATM    4  C   UNL     1     -12.067   9.027  72.213  1.00  0.00    -0.288 C  
BRANCH   4   5
HETATM    5  N   UNL     1     -10.842   9.479  71.518  1.00  0.00    -0.330 NA 
HETATM    6  H   UNL     1     -10.152   8.731  71.435  1.00  0.00     0.000 HD 
BRANCH   5   7
HETATM    7  C   UNL     1     -11.186  10.056  70.214  1.00  0.00    -0.313 C  
BRANCH   7   8
HETATM    8  C   UNL     1     -12.125  11.251  70.400  1.00  0.00    -0.474 C  
BRANCH   8   9
HETATM    9  C   UNL     1     -11.962  12.250  69.253  1.00  0.00    -0.308 C  
BRANCH   9  10
HETATM   10  C   UNL     1     -11.757  13.678  69.768  1.00  0.00    -0.364 C  
BRANCH  10  11
HETATM   11  C   UNL     1     -11.378  14.608  68.641  1.00  0.00    -0.305 A  
HETATM   12  C   UNL     1     -11.091  14.101  67.365  1.00  0.00    -0.318 A  
HETATM   13  C   UNL     1     -10.688  14.955  66.336  1.00  0.00    -0.316 A  
HETATM   14  C   UNL     1     -10.568  16.318  66.585  1.00  0.00    -0.252 A  
HETATM   15  O   UNL     1     -10.159  17.185  65.615  1.00  0.00    -0.561 OA 
HETATM   16  C   UNL     1     -10.855  16.840  67.840  1.00  0.00    -0.311 A  
HETATM   17  H   UNL     1     -10.077  18.115  65.786  1.00  0.00     0.000 HD 
HETATM   18  C   UNL     1     -11.257  15.986  68.868  1.00  0.00    -0.353 A  
ENDBRANCH  10  11
ENDBRANCH   9  10
ENDBRANCH   8   9
ENDBRANCH   7   8
ENDBRANCH   5   7
ENDBRANCH   4   5
ENDBRANCH   3   4
BRANCH   3  19
HETATM   19  C   UNL     1     -11.751   6.646  71.420  1.00  0.00    -0.374 A  
HETATM   20  C   UNL     1     -11.396   5.904  72.559  1.00  0.00    -0.352 A  
HETATM   21  H   UNL     1      -8.630   3.308  70.284  1.00  0.00     0.000 HD 
HETATM   22  C   UNL     1     -11.167   6.313  70.183  1.00  0.00    -0.470 A  
HETATM   23  H   UNL     1      -9.485   3.401  73.460  1.00  0.00     0.000 HD 
HETATM   24  C   UNL     1     -10.484   4.861  72.451  1.00  0.00    -0.209 A  
HETATM   25  C   UNL     1     -10.252   5.262  70.081  1.00  0.00    -0.350 A  
HETATM   26  O   UNL     1     -10.108   4.114  73.534  1.00  0.00    -0.124 OA 
HETATM   27  C   UNL     1      -9.916   4.546  71.219  1.00  0.00    -0.188 A  
HETATM   28  O   UNL     1      -9.016   3.523  71.124  1.00  0.00    -0.085 OA 
ENDBRANCH   3  19
TORSDOF 8
ENDMDL
MODEL      175
REMARK 921   NORMALIZED FREE ENERGY PREDICTED BY IDOCK:   -4.64 KCAL/MOL
REMARK 922        TOTAL FREE ENERGY PREDICTED BY IDOCK:   -8.01 KCAL/MOL
REMARK 923 INTER-LIGAND FREE ENERGY PREDICTED BY IDOCK:   -7.46 KCAL/MOL
REMARK 924 INTRA-LIGAND FREE ENERGY PREDICTED BY IDOCK:   -0.54 KCAL/MOL
REMARK 927      BINDING AFFINITY PREDICTED BY RF-SCORE:    0.00 PKD
ROOT
HETATM    1  O   UNL     1     -13.301   6.568  72.223  1.00  0.00    -0.527 OA 
HETATM    2  H   UNL     1     -12.795   5.794  72.003  1.00  0.00     0.000 HD 
HETATM    3  C   UNL     1     -12.654   7.730  71.690  1.00  0.00    -0.332 C  
ENDROOT
BRANCH   3   4
HETATM    4  C   UNL     1     -13.479   8.990  72.048  1.00  0.00    -0.442 C  
BRANCH   4   5
HETATM    5  N   UNL     1     -13.205  10.109  71.119  1.00  0.00    -0.379 NA 
HETATM    6  H   UNL     1     -13.855  10.120  70.333  1.00  0.00     0.000 HD 
BRANCH   5   7
HETATM    7  C   UNL     1     -13.203  11.381  71.850  1.00  0.00    -0.380 C  
BRANCH   7   8
HETATM    8  C   UNL     1     -12.649  12.497  70.960  1.00  0.00    -0.350 C  
BRANCH   8   9
HETATM    9  C   UNL     1     -12.815  13.860  71.635  1.00  0.00    -0.432 C  
BRANCH   9  10
HETATM   10  C   UNL     1     -12.952  14.989  70.611  1.00  0.00    -0.394 C  
BRANCH  10  11
HETATM   11  C   UNL     1     -11.768  15.015  69.675  1.00  0.00    -0.353 A  
HETATM   12  C   UNL     1     -11.881  14.514  68.370  1.00  0.00    -0.351 A  
HETATM   13  C   UNL     1     -10.773  14.489  67.520  1.00  0.00    -0.276 A  
HETATM   14  C   UNL     1      -9.548  14.962  67.980  1.00  0.00    -0.207 A  
HETATM   15  O   UNL     1      -8.436  14.938  67.191  1.00  0.00    -0.193 OA 
HETATM   16  C   UNL     1      -9.418  15.469  69.266  1.00  0.00    -0.263 A  
HETATM   17  H   UNL     1      -7.600  15.261  67.505  1.00  0.00     0.000 HD 
HETATM   18  C   UNL     1     -10.526  15.494  70.115  1.00  0.00    -0.317 A  
ENDBRANCH  10  11
ENDBRANCH   9  10
ENDBRANCH   8   9
ENDBRANCH   7   8
ENDBRANCH   5   7
ENDBRANCH   4   5
ENDBRANCH   3   4
BRANCH   3  19
HETATM   19  C   UNL     1     -11.240   7.827  72.226  1.00  0.00    -0.365 A  
HETATM   20  C   UNL     1     -10.241   8.533  71.534  1.00  0.00    -0.320 A  
HETATM   21  H   UNL     1      -7.137   7.511  74.515  1.00  0.00     0.000 HD 
HETATM   22  C   UNL     1     -10.901   7.169  73.424  1.00  0.00    -0.360 A  
HETATM   23  H   UNL     1      -7.058   9.277  71.739  1.00  0.00     0.000 HD 
HETATM   24  C   UNL     1      -8.946   8.575  72.037  1.00  0.00    -0.231 A  
HETATM   25  C   UNL     1      -9.597   7.215  73.924  1.00  0.00    -0.319 A  
HETATM   26  O   UNL     1      -7.943   9.248  71.396  1.00  0.00    -0.335 OA 
HETATM   27  C   UNL     1      -8.629   7.917  73.224  1.00  0.00    -0.218 A  
HETATM   28  O   UNL     1      -7.352   7.959  73.706  1.00  0.00    -0.119 OA 
ENDBRANCH   3  19
TORSDOF 8
ENDMDL
MODEL      176
REMARK 921   NORMALIZED FREE ENERGY PREDICTED BY IDOCK:   -4.63 KCAL/MOL
REMARK 922        TOTAL FREE ENERGY PREDICTED BY IDOCK:   -7.99 KCAL/MOL
REMARK 923 INTER-LIGAND FREE ENERGY PREDICTED BY IDOCK:   -7.39 KCAL/MOL
REMARK 924 INTRA-LIGAND FREE ENERGY PREDICTED BY IDOCK:   -0.61 KCAL/MOL
REMARK 927      BINDING AFFINITY PREDICTED BY RF-SCORE:    0.00 PKD
ROOT
HETATM    1  O   UNL     1     -10.994  15.667  65.128  1.00  0.00    -0.384 OA 
HETATM    2  H   UNL     1     -11.570  16.388  65.356  1.00  0.00     0.000 HD 
HETATM    3  C   UNL     1     -11.389  14.492  65.847  1.00  0.00    -0.341 C  
ENDROOT
BRANCH   3   4
HETATM    4  C   UNL     1     -10.451  13.319  65.476  1.00  0.00    -0.288 C  
BRANCH   4   5
HETATM    5  N   UNL     1     -11.151  12.017  65.528  1.00  0.00    -0.305 NA 
HETATM    6  H   UNL     1     -11.341  11.647  64.596  1.00  0.00     0.000 HD 
BRANCH   5   7
HETATM    7  C   UNL     1     -10.391  11.068  66.350  1.00  0.00    -0.250 C  
BRANCH   7   8
HETATM    8  C   UNL     1     -11.278  10.511  67.466  1.00  0.00    -0.299 C  
BRANCH   8   9
HETATM    9  C   UNL     1     -10.430  10.062  68.658  1.00  0.00    -0.228 C  
BRANCH   9  10
HETATM   10  C   UNL     1     -10.404   8.538  68.795  1.00  0.00    -0.233 C  
BRANCH  10  11
HETATM   11  C   UNL     1     -10.601   8.122  70.232  1.00  0.00    -0.228 A  
HETATM   12  C   UNL     1      -9.906   8.771  71.263  1.00  0.00    -0.336 A  
HETATM   13  C   UNL     1     -10.047   8.352  72.588  1.00  0.00    -0.322 A  
HETATM   14  C   UNL     1     -10.882   7.279  72.881  1.00  0.00    -0.337 A  
HETATM   15  O   UNL     1     -11.034   6.825  74.158  1.00  0.00    -0.378 OA 
HETATM   16  C   UNL     1     -11.584   6.629  71.876  1.00  0.00    -0.344 A  
HETATM   17  H   UNL     1     -11.604   6.092  74.358  1.00  0.00     0.000 HD 
HETATM   18  C   UNL     1     -11.443   7.048  70.551  1.00  0.00    -0.363 A  
ENDBRANCH  10  11
ENDBRANCH   9  10
ENDBRANCH   8   9
ENDBRANCH   7   8
ENDBRANCH   5   7
ENDBRANCH   4   5
ENDBRANCH   3   4
BRANCH   3  19
HETATM   19  C   UNL     1     -11.366  14.765  67.338  1.00  0.00    -0.361 A  
HETATM   20  C   UNL     1     -11.792  13.800  68.266  1.00  0.00    -0.413 A  
HETATM   21  H   UNL     1     -11.086  16.478  71.716  1.00  0.00     0.000 HD 
HETATM   22  C   UNL     1     -10.944  16.023  67.811  1.00  0.00    -0.307 A  
HETATM   23  H   UNL     1     -12.193  13.387  71.490  1.00  0.00     0.000 HD 
HETATM   24  C   UNL     1     -11.788  14.094  69.624  1.00  0.00    -0.324 A  
HETATM   25  C   UNL     1     -10.942  16.312  69.177  1.00  0.00    -0.324 A  
HETATM   26  O   UNL     1     -12.196  13.186  70.562  1.00  0.00    -0.357 OA 
HETATM   27  C   UNL     1     -11.367  15.344  70.073  1.00  0.00    -0.306 A  
HETATM   28  O   UNL     1     -11.373  15.626  71.410  1.00  0.00    -0.359 OA 
ENDBRANCH   3  19
TORSDOF 8
ENDMDL
MODEL      177
REMARK 921   NORMALIZED FREE ENERGY PREDICTED BY IDOCK:   -4.62 KCAL/MOL
REMARK 922        TOTAL FREE ENERGY PREDICTED BY IDOCK:   -7.99 KCAL/MOL
REMARK 923 INTER-LIGAND FREE ENERGY PREDICTED BY IDOCK:   -7.35 KCAL/MOL
REMARK 924 INTRA-LIGAND FREE ENERGY PREDICTED BY IDOCK:   -0.64 KCAL/MOL
REMARK 927      BINDING AFFINITY PREDICTED BY RF-SCORE:    0.00 PKD
ROOT
HETATM    1  O   UNL     1      -9.933   6.599  71.287  1.00  0.00    -0.181 OA 
HETATM    2  H   UNL     1      -9.157   6.050  71.295  1.00  0.00     0.000 HD 
HETATM    3  C   UNL     1     -11.006   5.902  70.641  1.00  0.00    -0.287 C  
ENDROOT
BRANCH   3   4
HETATM    4  C   UNL     1     -12.269   6.796  70.628  1.00  0.00    -0.254 C  
BRANCH   4   5
HETATM    5  N   UNL     1     -12.897   6.879  71.965  1.00  0.00    -0.543 NA 
HETATM    6  H   UNL     1     -12.206   6.839  72.715  1.00  0.00     0.000 HD 
BRANCH   5   7
HETATM    7  C   UNL     1     -13.735   8.080  72.054  1.00  0.00    -0.261 C  
BRANCH   7   8
HETATM    8  C   UNL     1     -12.865   9.309  72.330  1.00  0.00    -0.459 C  
BRANCH   8   9
HETATM    9  C   UNL     1     -13.188  10.432  71.342  1.00  0.00    -0.459 C  
BRANCH   9  10
HETATM   10  C   UNL     1     -12.043  10.665  70.352  1.00  0.00    -0.430 C  
BRANCH  10  11
HETATM   11  C   UNL     1     -11.902  12.132  70.026  1.00  0.00    -0.383 A  
HETATM   12  C   UNL     1     -12.479  13.105  70.857  1.00  0.00    -0.407 A  
HETATM   13  C   UNL     1     -12.396  14.459  70.527  1.00  0.00    -0.413 A  
HETATM   14  C   UNL     1     -11.737  14.841  69.363  1.00  0.00    -0.323 A  
HETATM   15  O   UNL     1     -11.649  16.151  68.994  1.00  0.00    -0.353 OA 
HETATM   16  C   UNL     1     -11.153  13.894  68.532  1.00  0.00    -0.289 A  
HETATM   17  H   UNL     1     -11.199  16.411  68.198  1.00  0.00     0.000 HD 
HETATM   18  C   UNL     1     -11.237  12.540  68.862  1.00  0.00    -0.330 A  
ENDBRANCH  10  11
ENDBRANCH   9  10
ENDBRANCH   8   9
ENDBRANCH   7   8
ENDBRANCH   5   7
ENDBRANCH   4   5
ENDBRANCH   3   4
BRANCH   3  19
HETATM   19  C   UNL     1     -10.595   5.509  69.236  1.00  0.00    -0.325 A  
HETATM   20  C   UNL     1      -9.773   4.393  68.998  1.00  0.00    -0.223 A  
HETATM   21  H   UNL     1      -9.710   5.088  64.630  1.00  0.00     0.000 HD 
HETATM   22  C   UNL     1     -11.012   6.291  68.141  1.00  0.00    -0.412 A  
HETATM   23  H   UNL     1      -8.326   2.790  66.536  1.00  0.00     0.000 HD 
HETATM   24  C   UNL     1      -9.389   4.079  67.700  1.00  0.00    -0.181 A  
HETATM   25  C   UNL     1     -10.622   5.969  66.839  1.00  0.00    -0.384 A  
HETATM   26  O   UNL     1      -8.588   3.005  67.423  1.00  0.00    -0.092 OA 
HETATM   27  C   UNL     1      -9.810   4.866  66.630  1.00  0.00    -0.204 A  
HETATM   28  O   UNL     1      -9.422   4.552  65.359  1.00  0.00    -0.157 OA 
ENDBRANCH   3  19
TORSDOF 8
ENDMDL
MODEL      178
REMARK 921   NORMALIZED FREE ENERGY PREDICTED BY IDOCK:   -4.62 KCAL/MOL
REMARK 922        TOTAL FREE ENERGY PREDICTED BY IDOCK:   -7.98 KCAL/MOL
REMARK 923 INTER-LIGAND FREE ENERGY PREDICTED BY IDOCK:   -6.91 KCAL/MOL
REMARK 924 INTRA-LIGAND FREE ENERGY PREDICTED BY IDOCK:   -1.08 KCAL/MOL
REMARK 927      BINDING AFFINITY PREDICTED BY RF-SCORE:    0.00 PKD
ROOT
HETATM    1  O   UNL     1      -8.386   8.777  68.654  1.00  0.00    -0.125 OA 
HETATM    2  H   UNL     1      -7.866   9.572  68.612  1.00  0.00     0.000 HD 
HETATM    3  C   UNL     1      -8.926   8.489  67.358  1.00  0.00    -0.134 C  
ENDROOT
BRANCH   3   4
HETATM    4  C   UNL     1      -9.771   7.195  67.426  1.00  0.00    -0.148 C  
BRANCH   4   5
HETATM    5  N   UNL     1      -8.945   5.987  67.204  1.00  0.00    -0.114 NA 
HETATM    6  H   UNL     1      -8.049   6.211  66.771  1.00  0.00     0.000 HD 
BRANCH   5   7
HETATM    7  C   UNL     1      -8.780   5.251  68.462  1.00  0.00    -0.097 C  
BRANCH   7   8
HETATM    8  C   UNL     1     -10.106   5.209  69.225  1.00  0.00    -0.283 C  
BRANCH   8   9
HETATM    9  C   UNL     1      -9.986   5.945  70.561  1.00  0.00    -0.243 C  
BRANCH   9  10
HETATM   10  C   UNL     1     -11.324   5.999  71.303  1.00  0.00    -0.296 C  
BRANCH  10  11
HETATM   11  C   UNL     1     -11.814   7.422  71.427  1.00  0.00    -0.329 A  
HETATM   12  C   UNL     1     -13.164   7.688  71.701  1.00  0.00    -0.395 A  
HETATM   13  C   UNL     1     -13.629   9.003  71.764  1.00  0.00    -0.468 A  
HETATM   14  C   UNL     1     -12.743  10.054  71.547  1.00  0.00    -0.429 A  
HETATM   15  O   UNL     1     -13.159  11.352  71.580  1.00  0.00    -0.455 OA 
HETATM   16  C   UNL     1     -11.402   9.810  71.283  1.00  0.00    -0.445 A  
HETATM   17  H   UNL     1     -12.554  12.069  71.432  1.00  0.00     0.000 HD 
HETATM   18  C   UNL     1     -10.937   8.495  71.220  1.00  0.00    -0.316 A  
ENDBRANCH  10  11
ENDBRANCH   9  10
ENDBRANCH   8   9
ENDBRANCH   7   8
ENDBRANCH   5   7
ENDBRANCH   4   5
ENDBRANCH   3   4
BRANCH   3  19
HETATM   19  C   UNL     1      -9.753   9.662  66.870  1.00  0.00    -0.240 A  
HETATM   20  C   UNL     1     -10.563  10.403  67.748  1.00  0.00    -0.294 A  
HETATM   21  H   UNL     1     -12.062  13.024  64.516  1.00  0.00     0.000 HD 
HETATM   22  C   UNL     1      -9.743  10.004  65.504  1.00  0.00    -0.355 A  
HETATM   23  H   UNL     1     -12.664  12.915  67.749  1.00  0.00     0.000 HD 
HETATM   24  C   UNL     1     -11.333  11.452  67.263  1.00  0.00    -0.275 A  
HETATM   25  C   UNL     1     -10.520  11.060  65.023  1.00  0.00    -0.344 A  
HETATM   26  O   UNL     1     -12.137  12.197  68.081  1.00  0.00    -0.447 OA 
HETATM   27  C   UNL     1     -11.311  11.774  65.907  1.00  0.00    -0.263 A  
HETATM   28  O   UNL     1     -12.077  12.804  65.439  1.00  0.00    -0.413 OA 
ENDBRANCH   3  19
TORSDOF 8
ENDMDL
MODEL      179
REMARK 921   NORMALIZED FREE ENERGY PREDICTED BY IDOCK:   -4.60 KCAL/MOL
REMARK 922        TOTAL FREE ENERGY PREDICTED BY IDOCK:   -7.96 KCAL/MOL
REMARK 923 INTER-LIGAND FREE ENERGY PREDICTED BY IDOCK:   -6.33 KCAL/MOL
REMARK 924 INTRA-LIGAND FREE ENERGY PREDICTED BY IDOCK:   -1.63 KCAL/MOL
REMARK 927      BINDING AFFINITY PREDICTED BY RF-SCORE:    0.00 PKD
ROOT
HETATM    1  O   UNL     1      -7.049   8.729  68.891  1.00  0.00    -0.064 OA 
HETATM    2  H   UNL     1      -6.765   9.063  69.735  1.00  0.00     0.000 HD 
HETATM    3  C   UNL     1      -8.403   9.130  68.647  1.00  0.00    -0.126 C  
ENDROOT
BRANCH   3   4
HETATM    4  C   UNL     1      -8.863   8.586  67.274  1.00  0.00    -0.130 C  
BRANCH   4   5
HETATM    5  N   UNL     1      -9.597   9.608  66.495  1.00  0.00    -0.182 NA 
HETATM    6  H   UNL     1     -10.358  10.024  67.033  1.00  0.00     0.000 HD 
BRANCH   5   7
HETATM    7  C   UNL     1      -8.664  10.622  65.989  1.00  0.00    -0.177 C  
BRANCH   7   8
HETATM    8  C   UNL     1      -8.997  11.989  66.592  1.00  0.00    -0.204 C  
BRANCH   8   9
HETATM    9  C   UNL     1     -10.498  12.111  66.863  1.00  0.00    -0.250 C  
BRANCH   9  10
HETATM   10  C   UNL     1     -10.809  13.246  67.841  1.00  0.00    -0.260 C  
BRANCH  10  11
HETATM   11  C   UNL     1     -11.578  12.734  69.034  1.00  0.00    -0.366 A  
HETATM   12  C   UNL     1     -12.107  13.629  69.977  1.00  0.00    -0.417 A  
HETATM   13  C   UNL     1     -12.772  13.155  71.110  1.00  0.00    -0.386 A  
HETATM   14  C   UNL     1     -12.905  11.783  71.301  1.00  0.00    -0.308 A  
HETATM   15  O   UNL     1     -13.531  11.277  72.403  1.00  0.00    -0.586 OA 
HETATM   16  C   UNL     1     -12.396  10.883  70.376  1.00  0.00    -0.436 A  
HETATM   17  H   UNL     1     -13.621  10.341  72.533  1.00  0.00     0.000 HD 
HETATM   18  C   UNL     1     -11.731  11.357  69.243  1.00  0.00    -0.404 A  
ENDBRANCH  10  11
ENDBRANCH   9  10
ENDBRANCH   8   9
ENDBRANCH   7   8
ENDBRANCH   5   7
ENDBRANCH   4   5
ENDBRANCH   3   4
BRANCH   3  19
HETATM   19  C   UNL     1      -9.298   8.634  69.765  1.00  0.00    -0.165 A  
HETATM   20  C   UNL     1     -10.345   7.729  69.518  1.00  0.00    -0.219 A  
HETATM   21  H   UNL     1     -11.643   7.727  73.747  1.00  0.00     0.000 HD 
HETATM   22  C   UNL     1      -9.107   9.111  71.077  1.00  0.00    -0.305 A  
HETATM   23  H   UNL     1     -12.761   6.162  71.077  1.00  0.00     0.000 HD 
HETATM   24  C   UNL     1     -11.168   7.320  70.560  1.00  0.00    -0.279 A  
HETATM   25  C   UNL     1      -9.938   8.694  72.119  1.00  0.00    -0.386 A  
HETATM   26  O   UNL     1     -12.199   6.443  70.365  1.00  0.00    -0.224 OA 
HETATM   27  C   UNL     1     -10.964   7.803  71.851  1.00  0.00    -0.249 A  
HETATM   28  O   UNL     1     -11.782   7.398  72.867  1.00  0.00    -0.208 OA 
ENDBRANCH   3  19
TORSDOF 8
ENDMDL
MODEL      180
REMARK 921   NORMALIZED FREE ENERGY PREDICTED BY IDOCK:   -4.59 KCAL/MOL
REMARK 922        TOTAL FREE ENERGY PREDICTED BY IDOCK:   -7.94 KCAL/MOL
REMARK 923 INTER-LIGAND FREE ENERGY PREDICTED BY IDOCK:   -6.79 KCAL/MOL
REMARK 924 INTRA-LIGAND FREE ENERGY PREDICTED BY IDOCK:   -1.15 KCAL/MOL
REMARK 927      BINDING AFFINITY PREDICTED BY RF-SCORE:    0.00 PKD
ROOT
HETATM    1  O   UNL     1     -11.785  15.915  68.480  1.00  0.00    -0.383 OA 
HETATM    2  H   UNL     1     -11.474  16.283  69.300  1.00  0.00     0.000 HD 
HETATM    3  C   UNL     1     -11.439  14.526  68.416  1.00  0.00    -0.302 C  
ENDROOT
BRANCH   3   4
HETATM    4  C   UNL     1     -11.945  13.928  67.081  1.00  0.00    -0.420 C  
BRANCH   4   5
HETATM    5  N   UNL     1     -11.517  14.738  65.919  1.00  0.00    -0.344 NA 
HETATM    6  H   UNL     1     -10.510  14.685  65.766  1.00  0.00     0.000 HD 
BRANCH   5   7
HETATM    7  C   UNL     1     -12.275  14.346  64.725  1.00  0.00    -0.446 C  
BRANCH   7   8
HETATM    8  C   UNL     1     -12.751  12.897  64.857  1.00  0.00    -0.474 C  
BRANCH   8   9
HETATM    9  C   UNL     1     -12.231  12.050  63.694  1.00  0.00    -0.642 C  
BRANCH   9  10
HETATM   10  C   UNL     1     -10.709  12.145  63.557  1.00  0.00    -0.509 C  
BRANCH  10  11
HETATM   11  C   UNL     1     -10.037  10.936  64.161  1.00  0.00    -0.416 A  
HETATM   12  C   UNL     1     -10.201  10.636  65.521  1.00  0.00    -0.329 A  
HETATM   13  C   UNL     1      -9.537   9.549  66.094  1.00  0.00    -0.302 A  
HETATM   14  C   UNL     1      -8.703   8.764  65.305  1.00  0.00    -0.182 A  
HETATM   15  O   UNL     1      -8.021   7.705  65.827  1.00  0.00    -0.102 OA 
HETATM   16  C   UNL     1      -8.534   9.040  63.955  1.00  0.00    -0.171 A  
HETATM   17  H   UNL     1      -7.452   7.169  65.288  1.00  0.00     0.000 HD 
HETATM   18  C   UNL     1      -9.198  10.127  63.383  1.00  0.00    -0.324 A  
ENDBRANCH  10  11
ENDBRANCH   9  10
ENDBRANCH   8   9
ENDBRANCH   7   8
ENDBRANCH   5   7
ENDBRANCH   4   5
ENDBRANCH   3   4
BRANCH   3  19
HETATM   19  C   UNL     1      -9.940  14.359  68.561  1.00  0.00    -0.237 A  
HETATM   20  C   UNL     1      -9.128  15.408  69.027  1.00  0.00    -0.233 A  
HETATM   21  H   UNL     1      -5.420  13.037  68.580  1.00  0.00     0.000 HD 
HETATM   22  C   UNL     1      -9.333  13.143  68.191  1.00  0.00    -0.217 A  
HETATM   23  H   UNL     1      -5.984  16.106  69.624  1.00  0.00     0.000 HD 
HETATM   24  C   UNL     1      -7.752  15.232  69.117  1.00  0.00    -0.200 A  
HETATM   25  C   UNL     1      -7.950  12.974  68.285  1.00  0.00    -0.151 A  
HETATM   26  O   UNL     1      -6.925  16.226  69.562  1.00  0.00    -0.219 OA 
HETATM   27  C   UNL     1      -7.170  14.022  68.745  1.00  0.00    -0.113 A  
HETATM   28  O   UNL     1      -5.816  13.862  68.832  1.00  0.00    -0.079 OA 
ENDBRANCH   3  19
TORSDOF 8
ENDMDL
MODEL      181
REMARK 921   NORMALIZED FREE ENERGY PREDICTED BY IDOCK:   -4.57 KCAL/MOL
REMARK 922        TOTAL FREE ENERGY PREDICTED BY IDOCK:   -7.90 KCAL/MOL
REMARK 923 INTER-LIGAND FREE ENERGY PREDICTED BY IDOCK:   -6.57 KCAL/MOL
REMARK 924 INTRA-LIGAND FREE ENERGY PREDICTED BY IDOCK:   -1.34 KCAL/MOL
REMARK 927      BINDING AFFINITY PREDICTED BY RF-SCORE:    0.00 PKD
ROOT
HETATM    1  O   UNL     1      -9.605  13.644  68.353  1.00  0.00    -0.216 OA 
HETATM    2  H   UNL     1     -10.056  14.298  68.876  1.00  0.00     0.000 HD 
HETATM    3  C   UNL     1     -10.551  12.679  67.874  1.00  0.00    -0.220 C  
ENDROOT
BRANCH   3   4
HETATM    4  C   UNL     1      -9.817  11.615  67.024  1.00  0.00    -0.193 C  
BRANCH   4   5
HETATM    5  N   UNL     1      -8.584  12.156  66.411  1.00  0.00    -0.390 NA 
HETATM    6  H   UNL     1      -8.361  13.088  66.759  1.00  0.00     0.000 HD 
BRANCH   5   7
HETATM    7  C   UNL     1      -7.472  11.218  66.603  1.00  0.00    -0.133 C  
BRANCH   7   8
HETATM    8  C   UNL     1      -7.631  10.480  67.935  1.00  0.00    -0.092 C  
BRANCH   8   9
HETATM    9  C   UNL     1      -7.205   9.017  67.796  1.00  0.00    -0.083 C  
BRANCH   9  10
HETATM   10  C   UNL     1      -8.083   8.087  68.637  1.00  0.00    -0.125 C  
BRANCH  10  11
HETATM   11  C   UNL     1      -8.953   7.223  67.756  1.00  0.00    -0.126 A  
HETATM   12  C   UNL     1     -10.347   7.380  67.759  1.00  0.00    -0.273 A  
HETATM   13  C   UNL     1     -11.157   6.546  66.984  1.00  0.00    -0.411 A  
HETATM   14  C   UNL     1     -10.570   5.551  66.208  1.00  0.00    -0.161 A  
HETATM   15  O   UNL     1     -11.324   4.703  65.452  1.00  0.00    -0.960 OA 
HETATM   16  C   UNL     1      -9.192   5.386  66.186  1.00  0.00    -0.162 A  
HETATM   17  H   UNL     1     -10.924   4.024  64.923  1.00  0.00     0.000 HD 
HETATM   18  C   UNL     1      -8.383   6.220  66.961  1.00  0.00    -0.109 A  
ENDBRANCH  10  11
ENDBRANCH   9  10
ENDBRANCH   8   9
ENDBRANCH   7   8
ENDBRANCH   5   7
ENDBRANCH   4   5
ENDBRANCH   3   4
BRANCH   3  19
HETATM   19  C   UNL     1     -11.278  12.044  69.043  1.00  0.00    -0.313 A  
HETATM   20  C   UNL     1     -12.032  12.817  69.943  1.00  0.00    -0.368 A  
HETATM   21  H   UNL     1     -13.084   9.308  72.424  1.00  0.00     0.000 HD 
HETATM   22  C   UNL     1     -11.175  10.656  69.260  1.00  0.00    -0.332 A  
HETATM   23  H   UNL     1     -13.831  12.504  72.662  1.00  0.00     0.000 HD 
HETATM   24  C   UNL     1     -12.660  12.207  71.023  1.00  0.00    -0.263 A  
HETATM   25  C   UNL     1     -11.809  10.050  70.347  1.00  0.00    -0.343 A  
HETATM   26  O   UNL     1     -13.401  12.921  71.925  1.00  0.00    -0.458 OA 
HETATM   27  C   UNL     1     -12.545  10.833  71.221  1.00  0.00    -0.426 A  
HETATM   28  O   UNL     1     -13.162  10.245  72.289  1.00  0.00    -0.409 OA 
ENDBRANCH   3  19
TORSDOF 8
ENDMDL
MODEL      182
REMARK 921   NORMALIZED FREE ENERGY PREDICTED BY IDOCK:   -4.55 KCAL/MOL
REMARK 922        TOTAL FREE ENERGY PREDICTED BY IDOCK:   -7.89 KCAL/MOL
REMARK 923 INTER-LIGAND FREE ENERGY PREDICTED BY IDOCK:   -5.92 KCAL/MOL
REMARK 924 INTRA-LIGAND FREE ENERGY PREDICTED BY IDOCK:   -1.97 KCAL/MOL
REMARK 927      BINDING AFFINITY PREDICTED BY RF-SCORE:    0.00 PKD
ROOT
HETATM    1  O   UNL     1      -8.087  10.430  70.203  1.00  0.00    -0.359 OA 
HETATM    2  H   UNL     1      -8.690  10.768  69.551  1.00  0.00     0.000 HD 
HETATM    3  C   UNL     1      -8.438   9.077  70.523  1.00  0.00    -0.200 C  
ENDROOT
BRANCH   3   4
HETATM    4  C   UNL     1      -7.456   8.526  71.585  1.00  0.00    -0.105 C  
BRANCH   4   5
HETATM    5  N   UNL     1      -6.946   7.186  71.220  1.00  0.00    -0.060 NA 
HETATM    6  H   UNL     1      -5.954   7.206  70.985  1.00  0.00     0.000 HD 
BRANCH   5   7
HETATM    7  C   UNL     1      -7.238   6.227  72.292  1.00  0.00    -0.087 C  
BRANCH   7   8
HETATM    8  C   UNL     1      -8.046   5.050  71.739  1.00  0.00    -0.115 C  
BRANCH   8   9
HETATM    9  C   UNL     1      -7.945   4.995  70.213  1.00  0.00    -0.078 C  
BRANCH   9  10
HETATM   10  C   UNL     1      -9.325   4.940  69.553  1.00  0.00    -0.190 C  
BRANCH  10  11
HETATM   11  C   UNL     1      -9.455   5.999  68.485  1.00  0.00    -0.127 A  
HETATM   12  C   UNL     1      -8.352   6.347  67.691  1.00  0.00    -0.117 A  
HETATM   13  C   UNL     1      -8.456   7.364  66.739  1.00  0.00    -0.124 A  
HETATM   14  C   UNL     1      -9.664   8.035  66.584  1.00  0.00    -0.243 A  
HETATM   15  O   UNL     1      -9.805   9.047  65.680  1.00  0.00    -0.461 OA 
HETATM   16  C   UNL     1     -10.769   7.700  67.355  1.00  0.00    -0.318 A  
HETATM   17  H   UNL     1     -10.629   9.505  65.575  1.00  0.00     0.000 HD 
HETATM   18  C   UNL     1     -10.664   6.684  68.307  1.00  0.00    -0.317 A  
ENDBRANCH  10  11
ENDBRANCH   9  10
ENDBRANCH   8   9
ENDBRANCH   7   8
ENDBRANCH   5   7
ENDBRANCH   4   5
ENDBRANCH   3   4
BRANCH   3  19
HETATM   19  C   UNL     1      -9.871   9.016  71.012  1.00  0.00    -0.352 A  
HETATM   20  C   UNL     1     -10.859   9.870  70.493  1.00  0.00    -0.391 A  
HETATM   21  H   UNL     1     -13.986   8.247  73.168  1.00  0.00     0.000 HD 
HETATM   22  C   UNL     1     -10.223   8.111  72.032  1.00  0.00    -0.316 A  
HETATM   23  H   UNL     1     -14.035  10.583  70.851  1.00  0.00     0.000 HD 
HETATM   24  C   UNL     1     -12.156   9.810  70.987  1.00  0.00    -0.346 A  
HETATM   25  C   UNL     1     -11.529   8.055  72.523  1.00  0.00    -0.471 A  
HETATM   26  O   UNL     1     -13.148  10.625  70.514  1.00  0.00    -0.295 OA 
HETATM   27  C   UNL     1     -12.485   8.909  71.997  1.00  0.00    -0.392 A  
HETATM   28  O   UNL     1     -13.762   8.862  72.480  1.00  0.00    -0.451 OA 
ENDBRANCH   3  19
TORSDOF 8
ENDMDL
MODEL      183
REMARK 921   NORMALIZED FREE ENERGY PREDICTED BY IDOCK:   -4.55 KCAL/MOL
REMARK 922        TOTAL FREE ENERGY PREDICTED BY IDOCK:   -7.88 KCAL/MOL
REMARK 923 INTER-LIGAND FREE ENERGY PREDICTED BY IDOCK:   -7.36 KCAL/MOL
REMARK 924 INTRA-LIGAND FREE ENERGY PREDICTED BY IDOCK:   -0.52 KCAL/MOL
REMARK 927      BINDING AFFINITY PREDICTED BY RF-SCORE:    0.00 PKD
ROOT
HETATM    1  O   UNL     1     -12.378   6.488  69.890  1.00  0.00    -0.400 OA 
HETATM    2  H   UNL     1     -12.839   5.756  70.285  1.00  0.00     0.000 HD 
HETATM    3  C   UNL     1     -11.036   6.095  69.575  1.00  0.00    -0.420 C  
ENDROOT
BRANCH   3   4
HETATM    4  C   UNL     1     -10.287   7.286  68.932  1.00  0.00    -0.201 C  
BRANCH   4   5
HETATM    5  N   UNL     1     -10.889   8.584  69.311  1.00  0.00    -0.407 NA 
HETATM    6  H   UNL     1     -10.668   8.841  70.273  1.00  0.00     0.000 HD 
BRANCH   5   7
HETATM    7  C   UNL     1     -10.485   9.624  68.359  1.00  0.00    -0.223 C  
BRANCH   7   8
HETATM    8  C   UNL     1      -9.539  10.619  69.037  1.00  0.00    -0.207 C  
BRANCH   8   9
HETATM    9  C   UNL     1      -9.583  11.975  68.330  1.00  0.00    -0.204 C  
BRANCH   9  10
HETATM   10  C   UNL     1     -10.996  12.565  68.320  1.00  0.00    -0.270 C  
BRANCH  10  11
HETATM   11  C   UNL     1     -11.416  12.934  66.917  1.00  0.00    -0.393 A  
HETATM   12  C   UNL     1     -11.481  11.957  65.913  1.00  0.00    -0.340 A  
HETATM   13  C   UNL     1     -11.818  12.306  64.603  1.00  0.00    -0.435 A  
HETATM   14  C   UNL     1     -12.086  13.637  64.298  1.00  0.00    -0.434 A  
HETATM   15  O   UNL     1     -12.400  14.025  63.029  1.00  0.00    -1.101 OA 
HETATM   16  C   UNL     1     -12.035  14.617  65.280  1.00  0.00    -0.302 A  
HETATM   17  H   UNL     1     -12.583  14.933  62.820  1.00  0.00     0.000 HD 
HETATM   18  C   UNL     1     -11.698  14.267  66.589  1.00  0.00    -0.417 A  
ENDBRANCH  10  11
ENDBRANCH   9  10
ENDBRANCH   8   9
ENDBRANCH   7   8
ENDBRANCH   5   7
ENDBRANCH   4   5
ENDBRANCH   3   4
BRANCH   3  19
HETATM   19  C   UNL     1     -10.332   5.611  70.826  1.00  0.00    -0.310 A  
HETATM   20  C   UNL     1     -10.969   5.629  72.079  1.00  0.00    -0.302 A  
HETATM   21  H   UNL     1      -7.398   4.067  74.171  1.00  0.00     0.000 HD 
HETATM   22  C   UNL     1      -8.998   5.165  70.749  1.00  0.00    -0.162 A  
HETATM   23  H   UNL     1     -10.395   4.924  75.225  1.00  0.00     0.000 HD 
HETATM   24  C   UNL     1     -10.283   5.208  73.212  1.00  0.00    -0.186 A  
HETATM   25  C   UNL     1      -8.315   4.743  71.892  1.00  0.00    -0.114 A  
HETATM   26  O   UNL     1     -10.864   5.212  74.450  1.00  0.00    -0.323 OA 
HETATM   27  C   UNL     1      -8.964   4.771  73.116  1.00  0.00    -0.114 A  
HETATM   28  O   UNL     1      -8.297   4.365  74.236  1.00  0.00    -0.091 OA 
ENDBRANCH   3  19
TORSDOF 8
ENDMDL
MODEL      184
REMARK 921   NORMALIZED FREE ENERGY PREDICTED BY IDOCK:   -4.55 KCAL/MOL
REMARK 922        TOTAL FREE ENERGY PREDICTED BY IDOCK:   -7.88 KCAL/MOL
REMARK 923 INTER-LIGAND FREE ENERGY PREDICTED BY IDOCK:   -6.24 KCAL/MOL
REMARK 924 INTRA-LIGAND FREE ENERGY PREDICTED BY IDOCK:   -1.64 KCAL/MOL
REMARK 927      BINDING AFFINITY PREDICTED BY RF-SCORE:    0.00 PKD
ROOT
HETATM    1  O   UNL     1      -9.761   4.613  66.683  1.00  0.00    -0.164 OA 
HETATM    2  H   UNL     1      -9.754   4.730  65.740  1.00  0.00     0.000 HD 
HETATM    3  C   UNL     1     -10.509   5.674  67.291  1.00  0.00    -0.258 C  
ENDROOT
BRANCH   3   4
HETATM    4  C   UNL     1     -10.522   5.483  68.827  1.00  0.00    -0.191 C  
BRANCH   4   5
HETATM    5  N   UNL     1      -9.289   4.822  69.308  1.00  0.00    -0.122 NA 
HETATM    6  H   UNL     1      -8.584   4.745  68.574  1.00  0.00     0.000 HD 
BRANCH   5   7
HETATM    7  C   UNL     1      -8.773   5.518  70.493  1.00  0.00    -0.135 C  
BRANCH   7   8
HETATM    8  C   UNL     1      -8.094   6.826  70.079  1.00  0.00    -0.125 C  
BRANCH   8   9
HETATM    9  C   UNL     1      -8.327   7.912  71.131  1.00  0.00    -0.116 C  
BRANCH   9  10
HETATM   10  C   UNL     1      -9.082   9.112  70.551  1.00  0.00    -0.284 C  
BRANCH  10  11
HETATM   11  C   UNL     1     -10.472   9.206  71.131  1.00  0.00    -0.385 A  
HETATM   12  C   UNL     1     -10.931   8.241  72.041  1.00  0.00    -0.374 A  
HETATM   13  C   UNL     1     -12.235   8.297  72.537  1.00  0.00    -0.367 A  
HETATM   14  C   UNL     1     -13.083   9.317  72.119  1.00  0.00    -0.443 A  
HETATM   15  O   UNL     1     -14.370   9.398  72.563  1.00  0.00    -0.625 OA 
HETATM   16  C   UNL     1     -12.645  10.285  71.225  1.00  0.00    -0.522 A  
HETATM   17  H   UNL     1     -14.949  10.095  72.277  1.00  0.00     0.000 HD 
HETATM   18  C   UNL     1     -11.341  10.229  70.730  1.00  0.00    -0.421 A  
ENDBRANCH  10  11
ENDBRANCH   9  10
ENDBRANCH   8   9
ENDBRANCH   7   8
ENDBRANCH   5   7
ENDBRANCH   4   5
ENDBRANCH   3   4
BRANCH   3  19
HETATM   19  C   UNL     1      -9.913   7.013  66.907  1.00  0.00    -0.283 A  
HETATM   20  C   UNL     1     -10.599   8.216  67.146  1.00  0.00    -0.355 A  
HETATM   21  H   UNL     1      -7.412  10.665  65.298  1.00  0.00     0.000 HD 
HETATM   22  C   UNL     1      -8.660   7.062  66.266  1.00  0.00    -0.142 A  
HETATM   23  H   UNL     1     -10.288  11.445  66.693  1.00  0.00     0.000 HD 
HETATM   24  C   UNL     1     -10.038   9.425  66.752  1.00  0.00    -0.256 A  
HETATM   25  C   UNL     1      -8.101   8.281  65.873  1.00  0.00    -0.105 A  
HETATM   26  O   UNL     1     -10.672  10.619  66.962  1.00  0.00    -0.257 OA 
HETATM   27  C   UNL     1      -8.798   9.453  66.118  1.00  0.00    -0.151 A  
HETATM   28  O   UNL     1      -8.258  10.646  65.730  1.00  0.00    -0.158 OA 
ENDBRANCH   3  19
TORSDOF 8
ENDMDL
MODEL      185
REMARK 921   NORMALIZED FREE ENERGY PREDICTED BY IDOCK:   -4.55 KCAL/MOL
REMARK 922        TOTAL FREE ENERGY PREDICTED BY IDOCK:   -7.88 KCAL/MOL
REMARK 923 INTER-LIGAND FREE ENERGY PREDICTED BY IDOCK:   -6.37 KCAL/MOL
REMARK 924 INTRA-LIGAND FREE ENERGY PREDICTED BY IDOCK:   -1.51 KCAL/MOL
REMARK 927      BINDING AFFINITY PREDICTED BY RF-SCORE:    0.00 PKD
ROOT
HETATM    1  O   UNL     1     -10.434  17.309  68.215  1.00  0.00    -0.346 OA 
HETATM    2  H   UNL     1      -9.861  17.610  68.911  1.00  0.00     0.000 HD 
HETATM    3  C   UNL     1     -10.430  15.876  68.178  1.00  0.00    -0.270 C  
ENDROOT
BRANCH   3   4
HETATM    4  C   UNL     1     -11.363  15.385  67.046  1.00  0.00    -0.175 C  
BRANCH   4   5
HETATM    5  N   UNL     1     -10.799  15.668  65.707  1.00  0.00    -0.324 NA 
HETATM    6  H   UNL     1      -9.779  15.664  65.714  1.00  0.00     0.000 HD 
BRANCH   5   7
HETATM    7  C   UNL     1     -11.345  14.729  64.721  1.00  0.00    -0.397 C  
BRANCH   7   8
HETATM    8  C   UNL     1     -12.647  14.116  65.245  1.00  0.00    -0.460 C  
BRANCH   8   9
HETATM    9  C   UNL     1     -12.634  12.595  65.075  1.00  0.00    -0.504 C  
BRANCH   9  10
HETATM   10  C   UNL     1     -11.244  12.006  65.325  1.00  0.00    -0.374 C  
BRANCH  10  11
HETATM   11  C   UNL     1     -11.125  11.484  66.737  1.00  0.00    -0.361 A  
HETATM   12  C   UNL     1     -11.900  12.036  67.768  1.00  0.00    -0.308 A  
HETATM   13  C   UNL     1     -11.753  11.591  69.083  1.00  0.00    -0.395 A  
HETATM   14  C   UNL     1     -10.825  10.594  69.368  1.00  0.00    -0.246 A  
HETATM   15  O   UNL     1     -10.635  10.143  70.641  1.00  0.00    -0.382 OA 
HETATM   16  C   UNL     1     -10.055  10.030  68.360  1.00  0.00    -0.186 A  
HETATM   17  H   UNL     1     -10.002   9.463  70.835  1.00  0.00     0.000 HD 
HETATM   18  C   UNL     1     -10.203  10.475  67.045  1.00  0.00    -0.275 A  
ENDBRANCH  10  11
ENDBRANCH   9  10
ENDBRANCH   8   9
ENDBRANCH   7   8
ENDBRANCH   5   7
ENDBRANCH   4   5
ENDBRANCH   3   4
BRANCH   3  19
HETATM   19  C   UNL     1      -9.015  15.368  67.986  1.00  0.00    -0.171 A  
HETATM   20  C   UNL     1      -7.953  16.245  67.707  1.00  0.00    -0.154 A  
HETATM   21  H   UNL     1      -5.012  12.954  67.411  1.00  0.00     0.000 HD 
HETATM   22  C   UNL     1      -8.754  13.985  68.051  1.00  0.00    -0.180 A  
HETATM   23  H   UNL     1      -4.737  16.217  67.089  1.00  0.00     0.000 HD 
HETATM   24  C   UNL     1      -6.673  15.743  67.504  1.00  0.00    -0.190 A  
HETATM   25  C   UNL     1      -7.465  13.487  67.846  1.00  0.00    -0.153 A  
HETATM   26  O   UNL     1      -5.612  16.560  67.228  1.00  0.00    -0.136 OA 
HETATM   27  C   UNL     1      -6.435  14.372  67.571  1.00  0.00    -0.042 A  
HETATM   28  O   UNL     1      -5.175  13.888  67.364  1.00  0.00    -0.335 OA 
ENDBRANCH   3  19
TORSDOF 8
ENDMDL
MODEL      186
REMARK 921   NORMALIZED FREE ENERGY PREDICTED BY IDOCK:   -4.54 KCAL/MOL
REMARK 922        TOTAL FREE ENERGY PREDICTED BY IDOCK:   -7.87 KCAL/MOL
REMARK 923 INTER-LIGAND FREE ENERGY PREDICTED BY IDOCK:   -5.89 KCAL/MOL
REMARK 924 INTRA-LIGAND FREE ENERGY PREDICTED BY IDOCK:   -1.98 KCAL/MOL
REMARK 927      BINDING AFFINITY PREDICTED BY RF-SCORE:    0.00 PKD
ROOT
HETATM    1  O   UNL     1      -7.852   9.345  70.875  1.00  0.00    -0.243 OA 
HETATM    2  H   UNL     1      -8.179  10.230  70.755  1.00  0.00     0.000 HD 
HETATM    3  C   UNL     1      -8.709   8.422  70.191  1.00  0.00    -0.136 C  
ENDROOT
BRANCH   3   4
HETATM    4  C   UNL     1      -8.176   6.982  70.385  1.00  0.00    -0.124 C  
BRANCH   4   5
HETATM    5  N   UNL     1      -7.760   6.372  69.103  1.00  0.00    -0.099 NA 
HETATM    6  H   UNL     1      -6.748   6.409  68.973  1.00  0.00     0.000 HD 
BRANCH   5   7
HETATM    7  C   UNL     1      -8.277   5.002  69.005  1.00  0.00    -0.087 C  
BRANCH   7   8
HETATM    8  C   UNL     1      -9.786   5.027  68.751  1.00  0.00    -0.236 C  
BRANCH   8   9
HETATM    9  C   UNL     1     -10.090   5.568  67.353  1.00  0.00    -0.215 C  
BRANCH   9  10
HETATM   10  C   UNL     1     -11.022   6.782  67.402  1.00  0.00    -0.407 C  
BRANCH  10  11
HETATM   11  C   UNL     1     -10.332   8.013  66.868  1.00  0.00    -0.408 A  
HETATM   12  C   UNL     1      -9.095   7.909  66.214  1.00  0.00    -0.224 A  
HETATM   13  C   UNL     1      -8.430   9.052  65.766  1.00  0.00    -0.153 A  
HETATM   14  C   UNL     1      -9.002  10.303  65.976  1.00  0.00    -0.152 A  
HETATM   15  O   UNL     1      -8.378  11.446  65.573  1.00  0.00    -0.376 OA 
HETATM   16  C   UNL     1     -10.229  10.426  66.614  1.00  0.00    -0.292 A  
HETATM   17  H   UNL     1      -8.769  12.300  65.716  1.00  0.00     0.000 HD 
HETATM   18  C   UNL     1     -10.893   9.282  67.062  1.00  0.00    -0.077 A  
ENDBRANCH  10  11
ENDBRANCH   9  10
ENDBRANCH   8   9
ENDBRANCH   7   8
ENDBRANCH   5   7
ENDBRANCH   4   5
ENDBRANCH   3   4
BRANCH   3  19
HETATM   19  C   UNL     1     -10.129   8.558  70.703  1.00  0.00    -0.225 A  
HETATM   20  C   UNL     1     -10.864   7.438  71.128  1.00  0.00    -0.258 A  
HETATM   21  H   UNL     1     -14.463   9.855  72.009  1.00  0.00     0.000 HD 
HETATM   22  C   UNL     1     -10.745   9.824  70.726  1.00  0.00    -0.393 A  
HETATM   23  H   UNL     1     -13.825   6.638  72.278  1.00  0.00     0.000 HD 
HETATM   24  C   UNL     1     -12.176   7.594  71.562  1.00  0.00    -0.324 A  
HETATM   25  C   UNL     1     -12.063   9.973  71.164  1.00  0.00    -0.475 A  
HETATM   26  O   UNL     1     -12.929   6.532  71.981  1.00  0.00    -0.244 OA 
HETATM   27  C   UNL     1     -12.768   8.854  71.576  1.00  0.00    -0.335 A  
HETATM   28  O   UNL     1     -14.059   8.995  71.999  1.00  0.00    -0.407 OA 
ENDBRANCH   3  19
TORSDOF 8
ENDMDL
MODEL      187
REMARK 921   NORMALIZED FREE ENERGY PREDICTED BY IDOCK:   -4.54 KCAL/MOL
REMARK 922        TOTAL FREE ENERGY PREDICTED BY IDOCK:   -7.86 KCAL/MOL
REMARK 923 INTER-LIGAND FREE ENERGY PREDICTED BY IDOCK:   -6.29 KCAL/MOL
REMARK 924 INTRA-LIGAND FREE ENERGY PREDICTED BY IDOCK:   -1.57 KCAL/MOL
REMARK 927      BINDING AFFINITY PREDICTED BY RF-SCORE:    0.00 PKD
ROOT
HETATM    1  O   UNL     1      -7.667   5.402  71.157  1.00  0.00    -0.097 OA 
HETATM    2  H   UNL     1      -7.625   4.908  70.346  1.00  0.00     0.000 HD 
HETATM    3  C   UNL     1      -8.982   5.948  71.319  1.00  0.00    -0.140 C  
ENDROOT
BRANCH   3   4
HETATM    4  C   UNL     1      -9.048   6.752  72.639  1.00  0.00    -0.132 C  
BRANCH   4   5
HETATM    5  N   UNL     1     -10.323   6.528  73.356  1.00  0.00    -0.236 NA 
HETATM    6  H   UNL     1     -10.181   6.402  74.358  1.00  0.00     0.000 HD 
BRANCH   5   7
HETATM    7  C   UNL     1     -11.262   7.617  73.067  1.00  0.00    -0.333 C  
BRANCH   7   8
HETATM    8  C   UNL     1     -12.390   7.113  72.163  1.00  0.00    -0.228 C  
BRANCH   8   9
HETATM    9  C   UNL     1     -12.994   8.265  71.358  1.00  0.00    -0.248 C  
BRANCH   9  10
HETATM   10  C   UNL     1     -13.368   9.450  72.252  1.00  0.00    -0.539 C  
BRANCH  10  11
HETATM   11  C   UNL     1     -12.920  10.753  71.636  1.00  0.00    -0.581 A  
HETATM   12  C   UNL     1     -13.377  11.977  72.148  1.00  0.00    -0.396 A  
HETATM   13  C   UNL     1     -13.007  13.181  71.547  1.00  0.00    -0.412 A  
HETATM   14  C   UNL     1     -12.180  13.161  70.428  1.00  0.00    -0.316 A  
HETATM   15  O   UNL     1     -11.809  14.312  69.798  1.00  0.00    -0.284 OA 
HETATM   16  C   UNL     1     -11.711  11.961  69.912  1.00  0.00    -0.383 A  
HETATM   17  H   UNL     1     -11.245  14.298  69.034  1.00  0.00     0.000 HD 
HETATM   18  C   UNL     1     -12.082  10.757  70.513  1.00  0.00    -0.459 A  
ENDBRANCH  10  11
ENDBRANCH   9  10
ENDBRANCH   8   9
ENDBRANCH   7   8
ENDBRANCH   5   7
ENDBRANCH   4   5
ENDBRANCH   3   4
BRANCH   3  19
HETATM   19  C   UNL     1      -9.330   6.817  70.127  1.00  0.00    -0.159 A  
HETATM   20  C   UNL     1      -8.857   8.136  70.018  1.00  0.00    -0.139 A  
HETATM   21  H   UNL     1     -10.985   8.826  66.202  1.00  0.00     0.000 HD 
HETATM   22  C   UNL     1     -10.174   6.313  69.118  1.00  0.00    -0.229 A  
HETATM   23  H   UNL     1      -9.036  10.738  68.038  1.00  0.00     0.000 HD 
HETATM   24  C   UNL     1      -9.222   8.916  68.928  1.00  0.00    -0.140 A  
HETATM   25  C   UNL     1     -10.536   7.102  68.024  1.00  0.00    -0.251 A  
HETATM   26  O   UNL     1      -8.787  10.205  68.783  1.00  0.00    -0.131 OA 
HETATM   27  C   UNL     1     -10.058   8.400  67.940  1.00  0.00    -0.203 A  
HETATM   28  O   UNL     1     -10.416   9.177  66.876  1.00  0.00    -0.253 OA 
ENDBRANCH   3  19
TORSDOF 8
ENDMDL
MODEL      188
REMARK 921   NORMALIZED FREE ENERGY PREDICTED BY IDOCK:   -4.52 KCAL/MOL
REMARK 922        TOTAL FREE ENERGY PREDICTED BY IDOCK:   -7.84 KCAL/MOL
REMARK 923 INTER-LIGAND FREE ENERGY PREDICTED BY IDOCK:   -7.09 KCAL/MOL
REMARK 924 INTRA-LIGAND FREE ENERGY PREDICTED BY IDOCK:   -0.76 KCAL/MOL
REMARK 927      BINDING AFFINITY PREDICTED BY RF-SCORE:    0.00 PKD
ROOT
HETATM    1  O   UNL     1     -12.227  10.053  69.758  1.00  0.00    -0.483 OA 
HETATM    2  H   UNL     1     -12.913   9.433  69.536  1.00  0.00     0.000 HD 
HETATM    3  C   UNL     1     -10.953   9.398  69.700  1.00  0.00    -0.197 C  
ENDROOT
BRANCH   3   4
HETATM    4  C   UNL     1      -9.837  10.407  70.062  1.00  0.00     0.096 C  
BRANCH   4   5
HETATM    5  N   UNL     1      -9.138  10.908  68.858  1.00  0.00    -0.255 NA 
HETATM    6  H   UNL     1      -8.917  11.902  68.930  1.00  0.00     0.000 HD 
BRANCH   5   7
HETATM    7  C   UNL     1      -7.944  10.098  68.594  1.00  0.00    -0.103 C  
BRANCH   7   8
HETATM    8  C   UNL     1      -7.905   9.685  67.120  1.00  0.00    -0.091 C  
BRANCH   8   9
HETATM    9  C   UNL     1      -9.319   9.444  66.588  1.00  0.00    -0.211 C  
BRANCH   9  10
HETATM   10  C   UNL     1      -9.440   9.813  65.107  1.00  0.00    -0.338 C  
BRANCH  10  11
HETATM   11  C   UNL     1     -10.345  11.006  64.921  1.00  0.00    -0.378 A  
HETATM   12  C   UNL     1     -10.631  11.489  63.635  1.00  0.00    -0.491 A  
HETATM   13  C   UNL     1     -11.425  12.625  63.463  1.00  0.00    -0.557 A  
HETATM   14  C   UNL     1     -11.929  13.282  64.581  1.00  0.00    -0.394 A  
HETATM   15  O   UNL     1     -12.692  14.406  64.460  1.00  0.00    -0.663 OA 
HETATM   16  C   UNL     1     -11.663  12.815  65.861  1.00  0.00    -0.464 A  
HETATM   17  H   UNL     1     -13.036  14.855  65.223  1.00  0.00     0.000 HD 
HETATM   18  C   UNL     1     -10.870  11.679  66.032  1.00  0.00    -0.339 A  
ENDBRANCH  10  11
ENDBRANCH   9  10
ENDBRANCH   8   9
ENDBRANCH   7   8
ENDBRANCH   5   7
ENDBRANCH   4   5
ENDBRANCH   3   4
BRANCH   3  19
HETATM   19  C   UNL     1     -10.942   8.205  70.635  1.00  0.00    -0.255 A  
HETATM   20  C   UNL     1     -10.542   6.932  70.194  1.00  0.00    -0.249 A  
HETATM   21  H   UNL     1     -11.329   5.071  74.129  1.00  0.00     0.000 HD 
HETATM   22  C   UNL     1     -11.372   8.358  71.968  1.00  0.00    -0.411 A  
HETATM   23  H   UNL     1     -10.217   3.859  71.278  1.00  0.00     0.000 HD 
HETATM   24  C   UNL     1     -10.574   5.853  71.068  1.00  0.00    -0.250 A  
HETATM   25  C   UNL     1     -11.401   7.269  72.842  1.00  0.00    -0.290 A  
HETATM   26  O   UNL     1     -10.196   4.597  70.680  1.00  0.00    -0.217 OA 
HETATM   27  C   UNL     1     -11.003   6.023  72.383  1.00  0.00    -0.260 A  
HETATM   28  O   UNL     1     -11.037   4.955  73.233  1.00  0.00    -0.286 OA 
ENDBRANCH   3  19
TORSDOF 8
ENDMDL
MODEL      189
REMARK 921   NORMALIZED FREE ENERGY PREDICTED BY IDOCK:   -4.52 KCAL/MOL
REMARK 922        TOTAL FREE ENERGY PREDICTED BY IDOCK:   -7.84 KCAL/MOL
REMARK 923 INTER-LIGAND FREE ENERGY PREDICTED BY IDOCK:   -6.69 KCAL/MOL
REMARK 924 INTRA-LIGAND FREE ENERGY PREDICTED BY IDOCK:   -1.16 KCAL/MOL
REMARK 927      BINDING AFFINITY PREDICTED BY RF-SCORE:    0.00 PKD
ROOT
HETATM    1  O   UNL     1      -9.692  13.389  65.810  1.00  0.00    -0.425 OA 
HETATM    2  H   UNL     1     -10.598  13.447  65.526  1.00  0.00     0.000 HD 
HETATM    3  C   UNL     1      -9.634  12.770  67.102  1.00  0.00    -0.219 C  
ENDROOT
BRANCH   3   4
HETATM    4  C   UNL     1      -8.160  12.676  67.564  1.00  0.00    -0.178 C  
BRANCH   4   5
HETATM    5  N   UNL     1      -8.047  12.126  68.933  1.00  0.00    -0.350 NA 
HETATM    6  H   UNL     1      -8.855  12.366  69.508  1.00  0.00     0.000 HD 
BRANCH   5   7
HETATM    7  C   UNL     1      -7.822  10.677  68.877  1.00  0.00    -0.129 C  
BRANCH   7   8
HETATM    8  C   UNL     1      -8.657   9.975  69.951  1.00  0.00    -0.171 C  
BRANCH   8   9
HETATM    9  C   UNL     1     -10.084   9.734  69.456  1.00  0.00    -0.233 C  
BRANCH   9  10
HETATM   10  C   UNL     1     -11.083   9.662  70.613  1.00  0.00    -0.384 C  
BRANCH  10  11
HETATM   11  C   UNL     1     -11.048   8.305  71.273  1.00  0.00    -0.296 A  
HETATM   12  C   UNL     1     -10.902   8.193  72.664  1.00  0.00    -0.429 A  
HETATM   13  C   UNL     1     -10.815   6.938  73.270  1.00  0.00    -0.321 A  
HETATM   14  C   UNL     1     -10.872   5.793  72.482  1.00  0.00    -0.250 A  
HETATM   15  O   UNL     1     -10.772   4.548  73.030  1.00  0.00    -0.199 OA 
HETATM   16  C   UNL     1     -11.024   5.883  71.105  1.00  0.00    -0.327 A  
HETATM   17  H   UNL     1     -10.810   3.766  72.492  1.00  0.00     0.000 HD 
HETATM   18  C   UNL     1     -11.110   7.138  70.500  1.00  0.00    -0.299 A  
ENDBRANCH  10  11
ENDBRANCH   9  10
ENDBRANCH   8   9
ENDBRANCH   7   8
ENDBRANCH   5   7
ENDBRANCH   4   5
ENDBRANCH   3   4
BRANCH   3  19
HETATM   19  C   UNL     1     -10.473  13.555  68.090  1.00  0.00    -0.249 A  
HETATM   20  C   UNL     1     -10.197  14.903  68.376  1.00  0.00    -0.231 A  
HETATM   21  H   UNL     1     -13.465  15.177  71.345  1.00  0.00     0.000 HD 
HETATM   22  C   UNL     1     -11.531  12.920  68.768  1.00  0.00    -0.345 A  
HETATM   23  H   UNL     1     -11.257  17.363  70.261  1.00  0.00     0.000 HD 
HETATM   24  C   UNL     1     -10.966  15.585  69.311  1.00  0.00    -0.268 A  
HETATM   25  C   UNL     1     -12.300  13.611  69.707  1.00  0.00    -0.285 A  
HETATM   26  O   UNL     1     -10.732  16.896  69.622  1.00  0.00    -0.318 OA 
HETATM   27  C   UNL     1     -12.009  14.939  69.972  1.00  0.00    -0.329 A  
HETATM   28  O   UNL     1     -12.754  15.617  70.895  1.00  0.00    -0.451 OA 
ENDBRANCH   3  19
TORSDOF 8
ENDMDL
MODEL      190
REMARK 921   NORMALIZED FREE ENERGY PREDICTED BY IDOCK:   -4.52 KCAL/MOL
REMARK 922        TOTAL FREE ENERGY PREDICTED BY IDOCK:   -7.84 KCAL/MOL
REMARK 923 INTER-LIGAND FREE ENERGY PREDICTED BY IDOCK:   -6.82 KCAL/MOL
REMARK 924 INTRA-LIGAND FREE ENERGY PREDICTED BY IDOCK:   -1.02 KCAL/MOL
REMARK 927      BINDING AFFINITY PREDICTED BY RF-SCORE:    0.00 PKD
ROOT
HETATM    1  O   UNL     1     -13.010  13.034  64.623  1.00  0.00    -0.720 OA 
HETATM    2  H   UNL     1     -12.673  12.615  63.839  1.00  0.00     0.000 HD 
HETATM    3  C   UNL     1     -11.938  13.247  65.550  1.00  0.00    -0.405 C  
ENDROOT
BRANCH   3   4
HETATM    4  C   UNL     1     -12.487  13.929  66.826  1.00  0.00    -0.213 C  
BRANCH   4   5
HETATM    5  N   UNL     1     -11.894  15.268  67.033  1.00  0.00    -0.074 NA 
HETATM    6  H   UNL     1     -12.487  16.011  66.661  1.00  0.00     0.000 HD 
BRANCH   5   7
HETATM    7  C   UNL     1     -11.587  15.470  68.454  1.00  0.00    -0.357 C  
BRANCH   7   8
HETATM    8  C   UNL     1     -10.506  14.483  68.903  1.00  0.00    -0.246 C  
BRANCH   8   9
HETATM    9  C   UNL     1      -9.316  14.509  67.941  1.00  0.00    -0.201 C  
BRANCH   9  10
HETATM   10  C   UNL     1      -8.174  15.379  68.473  1.00  0.00    -0.145 C  
BRANCH  10  11
HETATM   11  C   UNL     1      -8.321  16.807  68.007  1.00  0.00    -0.200 A  
HETATM   12  C   UNL     1      -8.522  17.096  66.649  1.00  0.00    -0.284 A  
HETATM   13  C   UNL     1      -8.605  18.419  66.208  1.00  0.00    -0.215 A  
HETATM   14  C   UNL     1      -8.483  19.455  67.129  1.00  0.00    -0.289 A  
HETATM   15  O   UNL     1      -8.539  20.760  66.740  1.00  0.00    -0.555 OA 
HETATM   16  C   UNL     1      -8.292  19.189  68.478  1.00  0.00    -0.399 A  
HETATM   17  H   UNL     1      -8.455  21.468  67.368  1.00  0.00     0.000 HD 
HETATM   18  C   UNL     1      -8.209  17.866  68.917  1.00  0.00    -0.150 A  
ENDBRANCH  10  11
ENDBRANCH   9  10
ENDBRANCH   8   9
ENDBRANCH   7   8
ENDBRANCH   5   7
ENDBRANCH   4   5
ENDBRANCH   3   4
BRANCH   3  19
HETATM   19  C   UNL     1     -11.266  11.928  65.876  1.00  0.00    -0.373 A  
HETATM   20  C   UNL     1     -11.295  11.392  67.175  1.00  0.00    -0.327 A  
HETATM   21  H   UNL     1      -8.838   7.896  66.031  1.00  0.00     0.000 HD 
HETATM   22  C   UNL     1     -10.565  11.235  64.870  1.00  0.00    -0.364 A  
HETATM   23  H   UNL     1     -10.195   8.823  68.882  1.00  0.00     0.000 HD 
HETATM   24  C   UNL     1     -10.641  10.196  67.447  1.00  0.00    -0.272 A  
HETATM   25  C   UNL     1      -9.910  10.033  65.150  1.00  0.00    -0.388 A  
HETATM   26  O   UNL     1     -10.642   9.640  68.696  1.00  0.00    -0.210 OA 
HETATM   27  C   UNL     1      -9.952   9.525  66.439  1.00  0.00    -0.269 A  
HETATM   28  O   UNL     1      -9.308   8.354  66.718  1.00  0.00    -0.160 OA 
ENDBRANCH   3  19
TORSDOF 8
ENDMDL
MODEL      191
REMARK 921   NORMALIZED FREE ENERGY PREDICTED BY IDOCK:   -4.52 KCAL/MOL
REMARK 922        TOTAL FREE ENERGY PREDICTED BY IDOCK:   -7.83 KCAL/MOL
REMARK 923 INTER-LIGAND FREE ENERGY PREDICTED BY IDOCK:   -7.37 KCAL/MOL
REMARK 924 INTRA-LIGAND FREE ENERGY PREDICTED BY IDOCK:   -0.46 KCAL/MOL
REMARK 927      BINDING AFFINITY PREDICTED BY RF-SCORE:    0.00 PKD
ROOT
HETATM    1  O   UNL     1     -12.223  14.596  67.005  1.00  0.00    -0.493 OA 
HETATM    2  H   UNL     1     -13.158  14.444  67.086  1.00  0.00     0.000 HD 
HETATM    3  C   UNL     1     -11.514  13.669  67.836  1.00  0.00    -0.314 C  
ENDROOT
BRANCH   3   4
HETATM    4  C   UNL     1      -9.992  13.916  67.704  1.00  0.00    -0.237 C  
BRANCH   4   5
HETATM    5  N   UNL     1      -9.557  13.927  66.290  1.00  0.00    -0.382 NA 
HETATM    6  H   UNL     1      -8.544  13.843  66.201  1.00  0.00     0.000 HD 
BRANCH   5   7
HETATM    7  C   UNL     1     -10.262  12.884  65.537  1.00  0.00    -0.287 C  
BRANCH   7   8
HETATM    8  C   UNL     1      -9.450  11.586  65.551  1.00  0.00    -0.234 C  
BRANCH   8   9
HETATM    9  C   UNL     1     -10.369  10.375  65.728  1.00  0.00    -0.257 C  
BRANCH   9  10
HETATM   10  C   UNL     1      -9.585   9.060  65.718  1.00  0.00    -0.287 C  
BRANCH  10  11
HETATM   11  C   UNL     1      -9.994   8.180  66.874  1.00  0.00    -0.343 A  
HETATM   12  C   UNL     1     -10.415   8.746  68.086  1.00  0.00    -0.243 A  
HETATM   13  C   UNL     1     -10.743   7.934  69.174  1.00  0.00    -0.130 A  
HETATM   14  C   UNL     1     -10.644   6.552  69.049  1.00  0.00    -0.245 A  
HETATM   15  O   UNL     1     -10.935   5.722  70.092  1.00  0.00    -0.326 OA 
HETATM   16  C   UNL     1     -10.236   5.972  67.855  1.00  0.00    -0.217 A  
HETATM   17  H   UNL     1     -10.868   4.779  70.007  1.00  0.00     0.000 HD 
HETATM   18  C   UNL     1      -9.909   6.785  66.768  1.00  0.00    -0.236 A  
ENDBRANCH  10  11
ENDBRANCH   9  10
ENDBRANCH   8   9
ENDBRANCH   7   8
ENDBRANCH   5   7
ENDBRANCH   4   5
ENDBRANCH   3   4
BRANCH   3  19
HETATM   19  C   UNL     1     -11.972  13.807  69.274  1.00  0.00    -0.399 A  
HETATM   20  C   UNL     1     -12.345  12.686  70.035  1.00  0.00    -0.164 A  
HETATM   21  H   UNL     1     -13.376  15.144  73.565  1.00  0.00     0.000 HD 
HETATM   22  C   UNL     1     -12.062  15.085  69.858  1.00  0.00    -0.376 A  
HETATM   23  H   UNL     1     -13.472  11.902  73.008  1.00  0.00     0.000 HD 
HETATM   24  C   UNL     1     -12.792  12.851  71.340  1.00  0.00    -0.283 A  
HETATM   25  C   UNL     1     -12.511  15.244  71.171  1.00  0.00    -0.438 A  
HETATM   26  O   UNL     1     -13.168  11.789  72.116  1.00  0.00    -0.498 OA 
HETATM   27  C   UNL     1     -12.875  14.124  71.901  1.00  0.00    -0.341 A  
HETATM   28  O   UNL     1     -13.320  14.276  73.183  1.00  0.00    -0.643 OA 
ENDBRANCH   3  19
TORSDOF 8
ENDMDL
MODEL      192
REMARK 921   NORMALIZED FREE ENERGY PREDICTED BY IDOCK:   -4.50 KCAL/MOL
REMARK 922        TOTAL FREE ENERGY PREDICTED BY IDOCK:   -7.81 KCAL/MOL
REMARK 923 INTER-LIGAND FREE ENERGY PREDICTED BY IDOCK:   -5.47 KCAL/MOL
REMARK 924 INTRA-LIGAND FREE ENERGY PREDICTED BY IDOCK:   -2.33 KCAL/MOL
REMARK 927      BINDING AFFINITY PREDICTED BY RF-SCORE:    0.00 PKD
ROOT
HETATM    1  O   UNL     1      -9.466  12.508  68.597  1.00  0.00    -0.376 OA 
HETATM    2  H   UNL     1     -10.400  12.597  68.443  1.00  0.00     0.000 HD 
HETATM    3  C   UNL     1      -9.106  11.121  68.563  1.00  0.00    -0.175 C  
ENDROOT
BRANCH   3   4
HETATM    4  C   UNL     1      -7.585  10.977  68.813  1.00  0.00    -0.127 C  
BRANCH   4   5
HETATM    5  N   UNL     1      -6.871  10.517  67.602  1.00  0.00    -0.073 NA 
HETATM    6  H   UNL     1      -6.335   9.665  67.774  1.00  0.00     0.000 HD 
BRANCH   5   7
HETATM    7  C   UNL     1      -7.814  10.356  66.490  1.00  0.00    -0.124 C  
BRANCH   7   8
HETATM    8  C   UNL     1      -7.322   9.264  65.536  1.00  0.00    -0.090 C  
BRANCH   8   9
HETATM    9  C   UNL     1      -8.332   8.117  65.460  1.00  0.00    -0.160 C  
BRANCH   9  10
HETATM   10  C   UNL     1      -9.591   8.413  66.279  1.00  0.00    -0.286 C  
BRANCH  10  11
HETATM   11  C   UNL     1      -9.732   7.437  67.422  1.00  0.00    -0.196 A  
HETATM   12  C   UNL     1      -8.602   6.803  67.960  1.00  0.00    -0.122 A  
HETATM   13  C   UNL     1      -8.736   5.860  68.982  1.00  0.00    -0.114 A  
HETATM   14  C   UNL     1     -10.004   5.549  69.463  1.00  0.00    -0.210 A  
HETATM   15  O   UNL     1     -10.182   4.621  70.446  1.00  0.00    -0.227 OA 
HETATM   16  C   UNL     1     -11.133   6.172  68.949  1.00  0.00    -0.417 A  
HETATM   17  H   UNL     1     -11.047   4.408  70.775  1.00  0.00     0.000 HD 
HETATM   18  C   UNL     1     -10.998   7.114  67.928  1.00  0.00    -0.154 A  
ENDBRANCH  10  11
ENDBRANCH   9  10
ENDBRANCH   8   9
ENDBRANCH   7   8
ENDBRANCH   5   7
ENDBRANCH   4   5
ENDBRANCH   3   4
BRANCH   3  19
HETATM   19  C   UNL     1      -9.909  10.353  69.594  1.00  0.00    -0.179 A  
HETATM   20  C   UNL     1     -11.291  10.557  69.746  1.00  0.00    -0.367 A  
HETATM   21  H   UNL     1     -11.579   7.670  73.085  1.00  0.00     0.000 HD 
HETATM   22  C   UNL     1      -9.259   9.438  70.446  1.00  0.00    -0.305 A  
HETATM   23  H   UNL     1     -13.815   9.553  71.575  1.00  0.00     0.000 HD 
HETATM   24  C   UNL     1     -11.992   9.860  70.723  1.00  0.00    -0.323 A  
HETATM   25  C   UNL     1      -9.970   8.740  71.425  1.00  0.00    -0.354 A  
HETATM   26  O   UNL     1     -13.336  10.030  70.908  1.00  0.00    -0.382 OA 
HETATM   27  C   UNL     1     -11.332   8.960  71.557  1.00  0.00    -0.325 A  
HETATM   28  O   UNL     1     -12.029   8.284  72.518  1.00  0.00    -0.387 OA 
ENDBRANCH   3  19
TORSDOF 8
ENDMDL
MODEL      193
REMARK 921   NORMALIZED FREE ENERGY PREDICTED BY IDOCK:   -4.49 KCAL/MOL
REMARK 922        TOTAL FREE ENERGY PREDICTED BY IDOCK:   -7.80 KCAL/MOL
REMARK 923 INTER-LIGAND FREE ENERGY PREDICTED BY IDOCK:   -7.40 KCAL/MOL
REMARK 924 INTRA-LIGAND FREE ENERGY PREDICTED BY IDOCK:   -0.40 KCAL/MOL
REMARK 927      BINDING AFFINITY PREDICTED BY RF-SCORE:    0.00 PKD
ROOT
HETATM    1  O   UNL     1     -13.345  15.573  70.532  1.00  0.00    -0.750 OA 
HETATM    2  H   UNL     1     -13.128  16.472  70.753  1.00  0.00     0.000 HD 
HETATM    3  C   UNL     1     -12.145  14.852  70.224  1.00  0.00    -0.325 C  
ENDROOT
BRANCH   3   4
HETATM    4  C   UNL     1     -12.499  13.389  69.865  1.00  0.00    -0.093 C  
BRANCH   4   5
HETATM    5  N   UNL     1     -11.334  12.489  70.013  1.00  0.00    -0.505 NA 
HETATM    6  H   UNL     1     -10.956  12.506  70.960  1.00  0.00     0.000 HD 
BRANCH   5   7
HETATM    7  C   UNL     1     -11.689  11.131  69.587  1.00  0.00    -0.339 C  
BRANCH   7   8
HETATM    8  C   UNL     1     -11.894  10.233  70.810  1.00  0.00    -0.459 C  
BRANCH   8   9
HETATM    9  C   UNL     1     -10.826   9.139  70.862  1.00  0.00    -0.345 C  
BRANCH   9  10
HETATM   10  C   UNL     1     -11.447   7.739  70.879  1.00  0.00    -0.294 C  
BRANCH  10  11
HETATM   11  C   UNL     1     -10.824   6.860  69.822  1.00  0.00    -0.295 A  
HETATM   12  C   UNL     1     -10.411   5.556  70.134  1.00  0.00    -0.370 A  
HETATM   13  C   UNL     1      -9.786   4.760  69.172  1.00  0.00    -0.258 A  
HETATM   14  C   UNL     1      -9.571   5.272  67.896  1.00  0.00    -0.134 A  
HETATM   15  O   UNL     1      -8.947   4.536  66.932  1.00  0.00    -0.111 OA 
HETATM   16  C   UNL     1      -9.980   6.557  67.566  1.00  0.00    -0.169 A  
HETATM   17  H   UNL     1      -8.800   4.885  66.061  1.00  0.00     0.000 HD 
HETATM   18  C   UNL     1     -10.604   7.352  68.529  1.00  0.00    -0.188 A  
ENDBRANCH  10  11
ENDBRANCH   9  10
ENDBRANCH   8   9
ENDBRANCH   7   8
ENDBRANCH   5   7
ENDBRANCH   4   5
ENDBRANCH   3   4
BRANCH   3  19
HETATM   19  C   UNL     1     -11.409  15.535  69.090  1.00  0.00    -0.333 A  
HETATM   20  C   UNL     1     -10.740  16.756  69.281  1.00  0.00    -0.324 A  
HETATM   21  H   UNL     1      -9.510  17.006  65.039  1.00  0.00     0.000 HD 
HETATM   22  C   UNL     1     -11.418  14.959  67.804  1.00  0.00    -0.353 A  
HETATM   23  H   UNL     1      -9.004  18.982  67.620  1.00  0.00     0.000 HD 
HETATM   24  C   UNL     1     -10.101  17.372  68.211  1.00  0.00    -0.339 A  
HETATM   25  C   UNL     1     -10.773  15.584  66.734  1.00  0.00    -0.305 A  
HETATM   26  O   UNL     1      -9.440  18.562  68.351  1.00  0.00    -0.313 OA 
HETATM   27  C   UNL     1     -10.122  16.788  66.947  1.00  0.00    -0.286 A  
HETATM   28  O   UNL     1      -9.496  17.404  65.901  1.00  0.00    -0.512 OA 
ENDBRANCH   3  19
TORSDOF 8
ENDMDL
MODEL      194
REMARK 921   NORMALIZED FREE ENERGY PREDICTED BY IDOCK:   -4.49 KCAL/MOL
REMARK 922        TOTAL FREE ENERGY PREDICTED BY IDOCK:   -7.80 KCAL/MOL
REMARK 923 INTER-LIGAND FREE ENERGY PREDICTED BY IDOCK:   -7.03 KCAL/MOL
REMARK 924 INTRA-LIGAND FREE ENERGY PREDICTED BY IDOCK:   -0.76 KCAL/MOL
REMARK 927      BINDING AFFINITY PREDICTED BY RF-SCORE:    0.00 PKD
ROOT
HETATM    1  O   UNL     1      -8.740  10.889  69.450  1.00  0.00    -0.372 OA 
HETATM    2  H   UNL     1      -8.932  11.093  70.358  1.00  0.00     0.000 HD 
HETATM    3  C   UNL     1      -9.900  10.319  68.831  1.00  0.00    -0.195 C  
ENDROOT
BRANCH   3   4
HETATM    4  C   UNL     1      -9.587   9.986  67.353  1.00  0.00    -0.154 C  
BRANCH   4   5
HETATM    5  N   UNL     1      -8.190  10.322  66.998  1.00  0.00    -0.121 NA 
HETATM    6  H   UNL     1      -7.517   9.786  67.547  1.00  0.00     0.000 HD 
BRANCH   5   7
HETATM    7  C   UNL     1      -7.982  10.152  65.556  1.00  0.00    -0.146 C  
BRANCH   7   8
HETATM    8  C   UNL     1      -9.315   9.861  64.863  1.00  0.00    -0.329 C  
BRANCH   8   9
HETATM    9  C   UNL     1      -9.199  10.077  63.353  1.00  0.00    -0.317 C  
BRANCH   9  10
HETATM   10  C   UNL     1      -9.224  11.563  62.988  1.00  0.00    -0.224 C  
BRANCH  10  11
HETATM   11  C   UNL     1     -10.385  12.262  63.654  1.00  0.00    -0.463 A  
HETATM   12  C   UNL     1     -10.163  13.174  64.697  1.00  0.00    -0.327 A  
HETATM   13  C   UNL     1     -11.237  13.781  65.350  1.00  0.00    -0.306 A  
HETATM   14  C   UNL     1     -12.537  13.472  64.962  1.00  0.00    -0.391 A  
HETATM   15  O   UNL     1     -13.615  14.027  65.585  1.00  0.00    -0.659 OA 
HETATM   16  C   UNL     1     -12.777  12.579  63.926  1.00  0.00    -0.414 A  
HETATM   17  H   UNL     1     -14.503  13.816  65.320  1.00  0.00     0.000 HD 
HETATM   18  C   UNL     1     -11.702  11.972  63.274  1.00  0.00    -0.425 A  
ENDBRANCH  10  11
ENDBRANCH   9  10
ENDBRANCH   8   9
ENDBRANCH   7   8
ENDBRANCH   5   7
ENDBRANCH   4   5
ENDBRANCH   3   4
BRANCH   3  19
HETATM   19  C   UNL     1     -10.338   9.084  69.593  1.00  0.00    -0.217 A  
HETATM   20  C   UNL     1     -10.539   9.114  70.984  1.00  0.00    -0.362 A  
HETATM   21  H   UNL     1     -11.555   4.812  71.159  1.00  0.00     0.000 HD 
HETATM   22  C   UNL     1     -10.516   7.866  68.908  1.00  0.00    -0.205 A  
HETATM   23  H   UNL     1     -11.366   7.148  73.469  1.00  0.00     0.000 HD 
HETATM   24  C   UNL     1     -10.909   7.956  71.657  1.00  0.00    -0.232 A  
HETATM   25  C   UNL     1     -10.889   6.706  69.590  1.00  0.00    -0.336 A  
HETATM   26  O   UNL     1     -11.113   7.939  73.009  1.00  0.00    -0.402 OA 
HETATM   27  C   UNL     1     -11.080   6.761  70.961  1.00  0.00    -0.273 A  
HETATM   28  O   UNL     1     -11.438   5.627  71.633  1.00  0.00    -0.164 OA 
ENDBRANCH   3  19
TORSDOF 8
ENDMDL
MODEL      195
REMARK 921   NORMALIZED FREE ENERGY PREDICTED BY IDOCK:   -4.48 KCAL/MOL
REMARK 922        TOTAL FREE ENERGY PREDICTED BY IDOCK:   -7.77 KCAL/MOL
REMARK 923 INTER-LIGAND FREE ENERGY PREDICTED BY IDOCK:   -6.68 KCAL/MOL
REMARK 924 INTRA-LIGAND FREE ENERGY PREDICTED BY IDOCK:   -1.09 KCAL/MOL
REMARK 927      BINDING AFFINITY PREDICTED BY RF-SCORE:    0.00 PKD
ROOT
HETATM    1  O   UNL     1     -10.755  10.425  66.992  1.00  0.00    -0.261 OA 
HETATM    2  H   UNL     1     -11.054  10.069  67.821  1.00  0.00     0.000 HD 
HETATM    3  C   UNL     1      -9.435   9.943  66.711  1.00  0.00    -0.169 C  
ENDROOT
BRANCH   3   4
HETATM    4  C   UNL     1      -8.950  10.524  65.361  1.00  0.00    -0.186 C  
BRANCH   4   5
HETATM    5  N   UNL     1      -9.660  11.775  65.014  1.00  0.00    -0.388 NA 
HETATM    6  H   UNL     1      -9.045  12.588  65.056  1.00  0.00     0.000 HD 
BRANCH   5   7
HETATM    7  C   UNL     1     -10.305  11.641  63.702  1.00  0.00    -0.419 C  
BRANCH   7   8
HETATM    8  C   UNL     1     -11.497  12.596  63.603  1.00  0.00    -0.563 C  
BRANCH   8   9
HETATM    9  C   UNL     1     -12.351  12.529  64.871  1.00  0.00    -0.539 C  
BRANCH   9  10
HETATM   10  C   UNL     1     -12.588  13.917  65.471  1.00  0.00    -0.560 C  
BRANCH  10  11
HETATM   11  C   UNL     1     -11.681  14.155  66.654  1.00  0.00    -0.422 A  
HETATM   12  C   UNL     1     -12.068  13.748  67.940  1.00  0.00    -0.322 A  
HETATM   13  C   UNL     1     -11.255  14.015  69.043  1.00  0.00    -0.311 A  
HETATM   14  C   UNL     1     -10.055  14.695  68.860  1.00  0.00    -0.234 A  
HETATM   15  O   UNL     1      -9.240  14.994  69.912  1.00  0.00    -0.460 OA 
HETATM   16  C   UNL     1      -9.652  15.099  67.595  1.00  0.00    -0.206 A  
HETATM   17  H   UNL     1      -8.421  15.458  69.787  1.00  0.00     0.000 HD 
HETATM   18  C   UNL     1     -10.465  14.832  66.492  1.00  0.00    -0.291 A  
ENDBRANCH  10  11
ENDBRANCH   9  10
ENDBRANCH   8   9
ENDBRANCH   7   8
ENDBRANCH   5   7
ENDBRANCH   4   5
ENDBRANCH   3   4
BRANCH   3  19
HETATM   19  C   UNL     1      -8.497  10.316  67.841  1.00  0.00    -0.118 A  
HETATM   20  C   UNL     1      -8.587   9.702  69.101  1.00  0.00    -0.146 A  
HETATM   21  H   UNL     1      -5.307  12.148  70.781  1.00  0.00     0.000 HD 
HETATM   22  C   UNL     1      -7.532  11.323  67.644  1.00  0.00    -0.101 A  
HETATM   23  H   UNL     1      -7.203   9.786  72.068  1.00  0.00     0.000 HD 
HETATM   24  C   UNL     1      -7.732  10.090  70.126  1.00  0.00    -0.143 A  
HETATM   25  C   UNL     1      -6.675  11.708  68.677  1.00  0.00    -0.074 A  
HETATM   26  O   UNL     1      -7.787   9.521  71.368  1.00  0.00    -0.282 OA 
HETATM   27  C   UNL     1      -6.785  11.089  69.912  1.00  0.00    -0.125 A  
HETATM   28  O   UNL     1      -5.953  11.467  70.927  1.00  0.00    -0.360 OA 
ENDBRANCH   3  19
TORSDOF 8
ENDMDL
MODEL      196
REMARK 921   NORMALIZED FREE ENERGY PREDICTED BY IDOCK:   -4.47 KCAL/MOL
REMARK 922        TOTAL FREE ENERGY PREDICTED BY IDOCK:   -7.76 KCAL/MOL
REMARK 923 INTER-LIGAND FREE ENERGY PREDICTED BY IDOCK:   -6.73 KCAL/MOL
REMARK 924 INTRA-LIGAND FREE ENERGY PREDICTED BY IDOCK:   -1.04 KCAL/MOL
REMARK 927      BINDING AFFINITY PREDICTED BY RF-SCORE:    0.00 PKD
ROOT
HETATM    1  O   UNL     1     -10.707  13.009  68.943  1.00  0.00    -0.315 OA 
HETATM    2  H   UNL     1     -11.653  12.913  68.951  1.00  0.00     0.000 HD 
HETATM    3  C   UNL     1     -10.352  14.193  68.218  1.00  0.00    -0.245 C  
ENDROOT
BRANCH   3   4
HETATM    4  C   UNL     1      -8.812  14.349  68.206  1.00  0.00    -0.182 C  
BRANCH   4   5
HETATM    5  N   UNL     1      -8.213  13.794  66.972  1.00  0.00    -0.379 NA 
HETATM    6  H   UNL     1      -7.654  14.487  66.473  1.00  0.00     0.000 HD 
BRANCH   5   7
HETATM    7  C   UNL     1      -7.440  12.587  67.285  1.00  0.00    -0.125 C  
BRANCH   7   8
HETATM    8  C   UNL     1      -7.979  11.396  66.489  1.00  0.00    -0.128 C  
BRANCH   8   9
HETATM    9  C   UNL     1      -8.758  10.445  67.401  1.00  0.00    -0.125 C  
BRANCH   9  10
HETATM   10  C   UNL     1      -8.346  10.598  68.867  1.00  0.00    -0.150 C  
BRANCH  10  11
HETATM   11  C   UNL     1      -8.509   9.296  69.613  1.00  0.00    -0.140 A  
HETATM   12  C   UNL     1      -9.062   9.277  70.901  1.00  0.00    -0.288 A  
HETATM   13  C   UNL     1      -9.164   8.080  71.613  1.00  0.00    -0.196 A  
HETATM   14  C   UNL     1      -8.707   6.900  71.036  1.00  0.00    -0.136 A  
HETATM   15  O   UNL     1      -8.769   5.712  71.703  1.00  0.00    -0.134 OA 
HETATM   16  C   UNL     1      -8.163   6.897  69.758  1.00  0.00    -0.131 A  
HETATM   17  H   UNL     1      -8.457   4.907  71.309  1.00  0.00     0.000 HD 
HETATM   18  C   UNL     1      -8.062   8.094  69.047  1.00  0.00    -0.115 A  
ENDBRANCH  10  11
ENDBRANCH   9  10
ENDBRANCH   8   9
ENDBRANCH   7   8
ENDBRANCH   5   7
ENDBRANCH   4   5
ENDBRANCH   3   4
BRANCH   3  19
HETATM   19  C   UNL     1     -10.910  14.125  66.811  1.00  0.00    -0.296 A  
HETATM   20  C   UNL     1     -10.980  15.267  65.994  1.00  0.00    -0.317 A  
HETATM   21  H   UNL     1     -12.881  13.052  62.671  1.00  0.00     0.000 HD 
HETATM   22  C   UNL     1     -11.403  12.903  66.313  1.00  0.00    -0.364 A  
HETATM   23  H   UNL     1     -11.992  16.201  63.023  1.00  0.00     0.000 HD 
HETATM   24  C   UNL     1     -11.527  15.176  64.720  1.00  0.00    -0.383 A  
HETATM   25  C   UNL     1     -11.951  12.819  65.031  1.00  0.00    -0.456 A  
HETATM   26  O   UNL     1     -11.618  16.263  63.894  1.00  0.00    -0.987 OA 
HETATM   27  C   UNL     1     -12.011  13.959  64.246  1.00  0.00    -0.444 A  
HETATM   28  O   UNL     1     -12.552  13.882  62.994  1.00  0.00    -0.694 OA 
ENDBRANCH   3  19
TORSDOF 8
ENDMDL
MODEL      197
REMARK 921   NORMALIZED FREE ENERGY PREDICTED BY IDOCK:   -4.47 KCAL/MOL
REMARK 922        TOTAL FREE ENERGY PREDICTED BY IDOCK:   -7.76 KCAL/MOL
REMARK 923 INTER-LIGAND FREE ENERGY PREDICTED BY IDOCK:   -6.24 KCAL/MOL
REMARK 924 INTRA-LIGAND FREE ENERGY PREDICTED BY IDOCK:   -1.52 KCAL/MOL
REMARK 927      BINDING AFFINITY PREDICTED BY RF-SCORE:    0.00 PKD
ROOT
HETATM    1  O   UNL     1      -8.446   5.687  66.071  1.00  0.00    -0.122 OA 
HETATM    2  H   UNL     1      -8.030   6.120  65.333  1.00  0.00     0.000 HD 
HETATM    3  C   UNL     1      -9.783   6.180  66.223  1.00  0.00    -0.061 C  
ENDROOT
BRANCH   3   4
HETATM    4  C   UNL     1     -10.459   5.476  67.424  1.00  0.00    -0.219 C  
BRANCH   4   5
HETATM    5  N   UNL     1      -9.586   4.438  68.015  1.00  0.00    -0.157 NA 
HETATM    6  H   UNL     1      -8.619   4.528  67.703  1.00  0.00     0.000 HD 
BRANCH   5   7
HETATM    7  C   UNL     1      -9.696   4.460  69.478  1.00  0.00    -0.210 C  
BRANCH   7   8
HETATM    8  C   UNL     1      -9.117   5.766  70.028  1.00  0.00    -0.157 C  
BRANCH   8   9
HETATM    9  C   UNL     1      -9.897   6.226  71.261  1.00  0.00    -0.197 C  
BRANCH   9  10
HETATM   10  C   UNL     1     -11.405   6.264  70.998  1.00  0.00    -0.378 C  
BRANCH  10  11
HETATM   11  C   UNL     1     -11.969   7.635  71.287  1.00  0.00    -0.330 A  
HETATM   12  C   UNL     1     -11.189   8.783  71.083  1.00  0.00    -0.339 A  
HETATM   13  C   UNL     1     -11.690  10.047  71.400  1.00  0.00    -0.414 A  
HETATM   14  C   UNL     1     -12.973  10.162  71.927  1.00  0.00    -0.447 A  
HETATM   15  O   UNL     1     -13.494  11.375  72.269  1.00  0.00    -0.601 OA 
HETATM   16  C   UNL     1     -13.763   9.038  72.129  1.00  0.00    -0.536 A  
HETATM   17  H   UNL     1     -14.370  11.453  72.629  1.00  0.00     0.000 HD 
HETATM   18  C   UNL     1     -13.261   7.774  71.812  1.00  0.00    -0.354 A  
ENDBRANCH  10  11
ENDBRANCH   9  10
ENDBRANCH   8   9
ENDBRANCH   7   8
ENDBRANCH   5   7
ENDBRANCH   4   5
ENDBRANCH   3   4
BRANCH   3  19
HETATM   19  C   UNL     1      -9.763   7.684  66.406  1.00  0.00    -0.197 A  
HETATM   20  C   UNL     1      -8.924   8.505  65.633  1.00  0.00    -0.209 A  
HETATM   21  H   UNL     1     -10.234  12.185  67.708  1.00  0.00     0.000 HD 
HETATM   22  C   UNL     1     -10.572   8.279  67.394  1.00  0.00    -0.324 A  
HETATM   23  H   UNL     1      -8.092  11.651  65.268  1.00  0.00     0.000 HD 
HETATM   24  C   UNL     1      -8.906   9.878  65.849  1.00  0.00    -0.148 A  
HETATM   25  C   UNL     1     -10.549   9.659  67.605  1.00  0.00    -0.334 A  
HETATM   26  O   UNL     1      -8.104  10.713  65.121  1.00  0.00    -0.146 OA 
HETATM   27  C   UNL     1      -9.713  10.447  66.831  1.00  0.00    -0.181 A  
HETATM   28  O   UNL     1      -9.683  11.797  67.039  1.00  0.00    -0.183 OA 
ENDBRANCH   3  19
TORSDOF 8
ENDMDL
MODEL      198
REMARK 921   NORMALIZED FREE ENERGY PREDICTED BY IDOCK:   -4.47 KCAL/MOL
REMARK 922        TOTAL FREE ENERGY PREDICTED BY IDOCK:   -7.76 KCAL/MOL
REMARK 923 INTER-LIGAND FREE ENERGY PREDICTED BY IDOCK:   -6.26 KCAL/MOL
REMARK 924 INTRA-LIGAND FREE ENERGY PREDICTED BY IDOCK:   -1.50 KCAL/MOL
REMARK 927      BINDING AFFINITY PREDICTED BY RF-SCORE:    0.00 PKD
ROOT
HETATM    1  O   UNL     1      -9.486  12.741  68.623  1.00  0.00    -0.383 OA 
HETATM    2  H   UNL     1      -9.652  13.280  69.388  1.00  0.00     0.000 HD 
HETATM    3  C   UNL     1     -10.704  12.108  68.210  1.00  0.00    -0.223 C  
ENDROOT
BRANCH   3   4
HETATM    4  C   UNL     1     -10.433  11.229  66.965  1.00  0.00    -0.234 C  
BRANCH   4   5
HETATM    5  N   UNL     1     -10.867  11.895  65.717  1.00  0.00    -0.286 NA 
HETATM    6  H   UNL     1     -10.587  12.876  65.690  1.00  0.00     0.000 HD 
BRANCH   5   7
HETATM    7  C   UNL     1     -10.377  11.152  64.552  1.00  0.00    -0.337 C  
BRANCH   7   8
HETATM    8  C   UNL     1      -8.930  10.706  64.784  1.00  0.00    -0.218 C  
BRANCH   8   9
HETATM    9  C   UNL     1      -8.790   9.196  64.575  1.00  0.00    -0.165 C  
BRANCH   9  10
HETATM   10  C   UNL     1      -7.873   8.560  65.623  1.00  0.00    -0.102 C  
BRANCH  10  11
HETATM   11  C   UNL     1      -8.679   7.856  66.688  1.00  0.00    -0.154 A  
HETATM   12  C   UNL     1      -8.079   7.473  67.897  1.00  0.00    -0.119 A  
HETATM   13  C   UNL     1      -8.809   6.773  68.861  1.00  0.00    -0.128 A  
HETATM   14  C   UNL     1     -10.140   6.454  68.613  1.00  0.00    -0.158 A  
HETATM   15  O   UNL     1     -10.884   5.756  69.518  1.00  0.00    -0.325 OA 
HETATM   16  C   UNL     1     -10.753   6.832  67.425  1.00  0.00    -0.405 A  
HETATM   17  H   UNL     1     -11.792   5.538  69.348  1.00  0.00     0.000 HD 
HETATM   18  C   UNL     1     -10.023   7.530  66.462  1.00  0.00    -0.209 A  
ENDBRANCH  10  11
ENDBRANCH   9  10
ENDBRANCH   8   9
ENDBRANCH   7   8
ENDBRANCH   5   7
ENDBRANCH   4   5
ENDBRANCH   3   4
BRANCH   3  19
HETATM   19  C   UNL     1     -11.273  11.287  69.350  1.00  0.00    -0.345 A  
HETATM   20  C   UNL     1     -12.192  11.836  70.261  1.00  0.00    -0.381 A  
HETATM   21  H   UNL     1     -12.419   8.107  72.629  1.00  0.00     0.000 HD 
HETATM   22  C   UNL     1     -10.851   9.955  69.531  1.00  0.00    -0.274 A  
HETATM   23  H   UNL     1     -13.889  11.034  72.944  1.00  0.00     0.000 HD 
HETATM   24  C   UNL     1     -12.670  11.066  71.314  1.00  0.00    -0.432 A  
HETATM   25  C   UNL     1     -11.336   9.187  70.591  1.00  0.00    -0.323 A  
HETATM   26  O   UNL     1     -13.563  11.561  72.224  1.00  0.00    -0.274 OA 
HETATM   27  C   UNL     1     -12.240   9.751  71.477  1.00  0.00    -0.406 A  
HETATM   28  O   UNL     1     -12.711   9.004  72.519  1.00  0.00    -0.379 OA 
ENDBRANCH   3  19
TORSDOF 8
ENDMDL
MODEL      199
REMARK 921   NORMALIZED FREE ENERGY PREDICTED BY IDOCK:   -4.45 KCAL/MOL
REMARK 922        TOTAL FREE ENERGY PREDICTED BY IDOCK:   -7.74 KCAL/MOL
REMARK 923 INTER-LIGAND FREE ENERGY PREDICTED BY IDOCK:   -5.35 KCAL/MOL
REMARK 924 INTRA-LIGAND FREE ENERGY PREDICTED BY IDOCK:   -2.38 KCAL/MOL
REMARK 927      BINDING AFFINITY PREDICTED BY RF-SCORE:    0.00 PKD
ROOT
HETATM    1  O   UNL     1      -9.497   6.041  71.238  1.00  0.00    -0.162 OA 
HETATM    2  H   UNL     1      -8.767   5.447  71.370  1.00  0.00     0.000 HD 
HETATM    3  C   UNL     1     -10.460   5.431  70.369  1.00  0.00    -0.275 C  
ENDROOT
BRANCH   3   4
HETATM    4  C   UNL     1     -11.648   6.399  70.155  1.00  0.00    -0.381 C  
BRANCH   4   5
HETATM    5  N   UNL     1     -12.305   6.755  71.432  1.00  0.00    -0.364 NA 
HETATM    6  H   UNL     1     -11.750   6.470  72.239  1.00  0.00     0.000 HD 
BRANCH   5   7
HETATM    7  C   UNL     1     -12.614   8.189  71.457  1.00  0.00    -0.304 C  
BRANCH   7   8
HETATM    8  C   UNL     1     -11.379   8.985  71.885  1.00  0.00    -0.438 C  
BRANCH   8   9
HETATM    9  C   UNL     1     -10.842   9.819  70.720  1.00  0.00    -0.403 C  
BRANCH   9  10
HETATM   10  C   UNL     1      -9.390   9.465  70.389  1.00  0.00    -0.317 C  
BRANCH  10  11
HETATM   11  C   UNL     1      -9.269   8.951  68.974  1.00  0.00    -0.140 A  
HETATM   12  C   UNL     1      -8.072   8.375  68.526  1.00  0.00    -0.123 A  
HETATM   13  C   UNL     1      -7.940   7.948  67.203  1.00  0.00    -0.117 A  
HETATM   14  C   UNL     1      -9.009   8.103  66.325  1.00  0.00    -0.177 A  
HETATM   15  O   UNL     1      -8.918   7.717  65.020  1.00  0.00    -0.373 OA 
HETATM   16  C   UNL     1     -10.205   8.664  66.752  1.00  0.00    -0.361 A  
HETATM   17  H   UNL     1      -9.647   7.823  64.421  1.00  0.00     0.000 HD 
HETATM   18  C   UNL     1     -10.335   9.090  68.075  1.00  0.00    -0.275 A  
ENDBRANCH  10  11
ENDBRANCH   9  10
ENDBRANCH   8   9
ENDBRANCH   7   8
ENDBRANCH   5   7
ENDBRANCH   4   5
ENDBRANCH   3   4
BRANCH   3  19
HETATM   19  C   UNL     1      -9.806   5.061  69.053  1.00  0.00    -0.252 A  
HETATM   20  C   UNL     1     -10.531   5.064  67.849  1.00  0.00    -0.037 A  
HETATM   21  H   UNL     1      -7.058   3.669  65.491  1.00  0.00     0.000 HD 
HETATM   22  C   UNL     1      -8.453   4.670  69.030  1.00  0.00    -0.088 A  
HETATM   23  H   UNL     1     -10.153   4.418  64.660  1.00  0.00     0.000 HD 
HETATM   24  C   UNL     1      -9.910   4.688  66.664  1.00  0.00    -0.221 A  
HETATM   25  C   UNL     1      -7.835   4.294  67.835  1.00  0.00    -0.079 A  
HETATM   26  O   UNL     1     -10.578   4.675  65.470  1.00  0.00    -0.261 OA 
HETATM   27  C   UNL     1      -8.571   4.304  66.662  1.00  0.00    -0.112 A  
HETATM   28  O   UNL     1      -7.971   3.930  65.493  1.00  0.00    -0.092 OA 
ENDBRANCH   3  19
TORSDOF 8
ENDMDL
MODEL      200
REMARK 921   NORMALIZED FREE ENERGY PREDICTED BY IDOCK:   -4.42 KCAL/MOL
REMARK 922        TOTAL FREE ENERGY PREDICTED BY IDOCK:   -7.69 KCAL/MOL
REMARK 923 INTER-LIGAND FREE ENERGY PREDICTED BY IDOCK:   -6.23 KCAL/MOL
REMARK 924 INTRA-LIGAND FREE ENERGY PREDICTED BY IDOCK:   -1.47 KCAL/MOL
REMARK 927      BINDING AFFINITY PREDICTED BY RF-SCORE:    0.00 PKD
ROOT
HETATM    1  O   UNL     1      -9.976  14.477  67.261  1.00  0.00    -0.233 OA 
HETATM    2  H   UNL     1      -9.137  14.698  67.648  1.00  0.00     0.000 HD 
HETATM    3  C   UNL     1     -10.628  13.487  68.066  1.00  0.00    -0.239 C  
ENDROOT
BRANCH   3   4
HETATM    4  C   UNL     1     -11.995  13.127  67.435  1.00  0.00    -0.327 C  
BRANCH   4   5
HETATM    5  N   UNL     1     -12.530  14.235  66.614  1.00  0.00    -0.543 NA 
HETATM    6  H   UNL     1     -12.180  15.143  66.922  1.00  0.00     0.000 HD 
BRANCH   5   7
HETATM    7  C   UNL     1     -12.252  13.991  65.194  1.00  0.00    -0.436 C  
BRANCH   7   8
HETATM    8  C   UNL     1     -12.887  12.670  64.754  1.00  0.00    -0.349 C  
BRANCH   8   9
HETATM    9  C   UNL     1     -12.199  12.132  63.498  1.00  0.00    -0.670 C  
BRANCH   9  10
HETATM   10  C   UNL     1     -10.695  12.416  63.507  1.00  0.00    -0.473 C  
BRANCH  10  11
HETATM   11  C   UNL     1      -9.907  11.147  63.727  1.00  0.00    -0.374 A  
HETATM   12  C   UNL     1      -9.165  10.579  62.680  1.00  0.00    -0.329 A  
HETATM   13  C   UNL     1      -8.480   9.377  62.867  1.00  0.00    -0.206 A  
HETATM   14  C   UNL     1      -8.540   8.739  64.102  1.00  0.00    -0.061 A  
HETATM   15  O   UNL     1      -7.902   7.554  64.321  1.00  0.00    -0.128 OA 
HETATM   16  C   UNL     1      -9.263   9.289  65.152  1.00  0.00    -0.264 A  
HETATM   17  H   UNL     1      -7.944   7.119  65.164  1.00  0.00     0.000 HD 
HETATM   18  C   UNL     1      -9.948  10.491  64.965  1.00  0.00    -0.388 A  
ENDBRANCH  10  11
ENDBRANCH   9  10
ENDBRANCH   8   9
ENDBRANCH   7   8
ENDBRANCH   5   7
ENDBRANCH   4   5
ENDBRANCH   3   4
BRANCH   3  19
HETATM   19  C   UNL     1      -9.743  12.263  68.198  1.00  0.00    -0.213 A  
HETATM   20  C   UNL     1     -10.220  11.073  68.773  1.00  0.00    -0.211 A  
HETATM   21  H   UNL     1      -6.321   9.031  68.330  1.00  0.00     0.000 HD 
HETATM   22  C   UNL     1      -8.403  12.321  67.769  1.00  0.00    -0.162 A  
HETATM   23  H   UNL     1      -9.215   8.056  69.556  1.00  0.00     0.000 HD 
HETATM   24  C   UNL     1      -9.373   9.980  68.908  1.00  0.00    -0.172 A  
HETATM   25  C   UNL     1      -7.557  11.219  67.908  1.00  0.00    -0.100 A  
HETATM   26  O   UNL     1      -9.794   8.803  69.464  1.00  0.00    -0.174 OA 
HETATM   27  C   UNL     1      -8.049  10.057  68.479  1.00  0.00    -0.103 A  
HETATM   28  O   UNL     1      -7.223   8.979  68.622  1.00  0.00    -0.070 OA 
ENDBRANCH   3  19
TORSDOF 8
ENDMDL
MODEL      201
REMARK 921   NORMALIZED FREE ENERGY PREDICTED BY IDOCK:   -4.41 KCAL/MOL
REMARK 922        TOTAL FREE ENERGY PREDICTED BY IDOCK:   -7.68 KCAL/MOL
REMARK 923 INTER-LIGAND FREE ENERGY PREDICTED BY IDOCK:   -5.29 KCAL/MOL
REMARK 924 INTRA-LIGAND FREE ENERGY PREDICTED BY IDOCK:   -2.39 KCAL/MOL
REMARK 927      BINDING AFFINITY PREDICTED BY RF-SCORE:    0.00 PKD
ROOT
HETATM    1  O   UNL     1      -8.205  11.197  68.162  1.00  0.00    -0.119 OA 
HETATM    2  H   UNL     1      -7.476  11.108  68.766  1.00  0.00     0.000 HD 
HETATM    3  C   UNL     1      -9.234  10.263  68.513  1.00  0.00    -0.144 C  
ENDROOT
BRANCH   3   4
HETATM    4  C   UNL     1     -10.420  10.407  67.529  1.00  0.00    -0.245 C  
BRANCH   4   5
HETATM    5  N   UNL     1     -11.724  10.320  68.223  1.00  0.00    -0.719 NA 
HETATM    6  H   UNL     1     -11.738   9.572  68.917  1.00  0.00     0.000 HD 
BRANCH   5   7
HETATM    7  C   UNL     1     -12.071  11.619  68.810  1.00  0.00    -0.159 C  
BRANCH   7   8
HETATM    8  C   UNL     1     -12.124  11.509  70.336  1.00  0.00    -0.471 C  
BRANCH   8   9
HETATM    9  C   UNL     1     -12.514  10.092  70.763  1.00  0.00    -0.417 C  
BRANCH   9  10
HETATM   10  C   UNL     1     -11.558   9.533  71.819  1.00  0.00    -0.382 C  
BRANCH  10  11
HETATM   11  C   UNL     1     -11.190   8.102  71.510  1.00  0.00    -0.307 A  
HETATM   12  C   UNL     1     -10.389   7.366  72.396  1.00  0.00    -0.263 A  
HETATM   13  C   UNL     1     -10.003   6.060  72.087  1.00  0.00    -0.189 A  
HETATM   14  C   UNL     1     -10.416   5.491  70.886  1.00  0.00    -0.249 A  
HETATM   15  O   UNL     1     -10.047   4.226  70.535  1.00  0.00    -0.191 OA 
HETATM   16  C   UNL     1     -11.215   6.201  70.000  1.00  0.00    -0.471 A  
HETATM   17  H   UNL     1     -10.329   3.838  69.716  1.00  0.00     0.000 HD 
HETATM   18  C   UNL     1     -11.601   7.507  70.310  1.00  0.00    -0.114 A  
ENDBRANCH  10  11
ENDBRANCH   9  10
ENDBRANCH   8   9
ENDBRANCH   7   8
ENDBRANCH   5   7
ENDBRANCH   4   5
ENDBRANCH   3   4
BRANCH   3  19
HETATM   19  C   UNL     1      -8.678   8.853  68.503  1.00  0.00    -0.134 A  
HETATM   20  C   UNL     1      -9.001   7.946  67.479  1.00  0.00    -0.131 A  
HETATM   21  H   UNL     1      -6.639   4.686  69.313  1.00  0.00     0.000 HD 
HETATM   22  C   UNL     1      -7.847   8.422  69.555  1.00  0.00    -0.102 A  
HETATM   23  H   UNL     1      -8.448   4.849  66.569  1.00  0.00     0.000 HD 
HETATM   24  C   UNL     1      -8.500   6.650  67.517  1.00  0.00    -0.121 A  
HETATM   25  C   UNL     1      -7.347   7.119  69.587  1.00  0.00    -0.085 A  
HETATM   26  O   UNL     1      -8.790   5.734  66.544  1.00  0.00    -0.120 OA 
HETATM   27  C   UNL     1      -7.680   6.242  68.567  1.00  0.00    -0.101 A  
HETATM   28  O   UNL     1      -7.198   4.964  68.598  1.00  0.00    -0.056 OA 
ENDBRANCH   3  19
TORSDOF 8
ENDMDL
MODEL      202
REMARK 921   NORMALIZED FREE ENERGY PREDICTED BY IDOCK:   -4.41 KCAL/MOL
REMARK 922        TOTAL FREE ENERGY PREDICTED BY IDOCK:   -7.68 KCAL/MOL
REMARK 923 INTER-LIGAND FREE ENERGY PREDICTED BY IDOCK:   -6.87 KCAL/MOL
REMARK 924 INTRA-LIGAND FREE ENERGY PREDICTED BY IDOCK:   -0.80 KCAL/MOL
REMARK 927      BINDING AFFINITY PREDICTED BY RF-SCORE:    0.00 PKD
ROOT
HETATM    1  O   UNL     1     -11.677  15.744  68.109  1.00  0.00    -0.316 OA 
HETATM    2  H   UNL     1     -12.238  16.397  67.706  1.00  0.00     0.000 HD 
HETATM    3  C   UNL     1     -10.869  16.364  69.118  1.00  0.00    -0.329 C  
ENDROOT
BRANCH   3   4
HETATM    4  C   UNL     1      -9.956  15.301  69.774  1.00  0.00    -0.198 C  
BRANCH   4   5
HETATM    5  N   UNL     1     -10.116  13.973  69.141  1.00  0.00    -0.432 NA 
HETATM    6  H   UNL     1     -11.013  13.883  68.663  1.00  0.00     0.000 HD 
BRANCH   5   7
HETATM    7  C   UNL     1      -8.986  13.703  68.245  1.00  0.00    -0.187 C  
BRANCH   7   8
HETATM    8  C   UNL     1      -8.734  12.196  68.157  1.00  0.00    -0.185 C  
BRANCH   8   9
HETATM    9  C   UNL     1      -9.752  11.531  67.228  1.00  0.00    -0.197 C  
BRANCH   9  10
HETATM   10  C   UNL     1     -10.075  10.101  67.670  1.00  0.00    -0.231 C  
BRANCH  10  11
HETATM   11  C   UNL     1     -10.911  10.100  68.927  1.00  0.00    -0.256 A  
HETATM   12  C   UNL     1     -12.067  10.891  69.013  1.00  0.00    -0.240 A  
HETATM   13  C   UNL     1     -12.811  10.933  70.194  1.00  0.00    -0.144 A  
HETATM   14  C   UNL     1     -12.396  10.185  71.291  1.00  0.00    -0.400 A  
HETATM   15  O   UNL     1     -13.083  10.211  72.470  1.00  0.00    -0.489 OA 
HETATM   16  C   UNL     1     -11.260   9.391  71.223  1.00  0.00    -0.437 A  
HETATM   17  H   UNL     1     -12.799   9.701  73.219  1.00  0.00     0.000 HD 
HETATM   18  C   UNL     1     -10.515   9.349  70.042  1.00  0.00    -0.266 A  
ENDBRANCH  10  11
ENDBRANCH   9  10
ENDBRANCH   8   9
ENDBRANCH   7   8
ENDBRANCH   5   7
ENDBRANCH   4   5
ENDBRANCH   3   4
BRANCH   3  19
HETATM   19  C   UNL     1     -10.056  17.490  68.510  1.00  0.00    -0.363 A  
HETATM   20  C   UNL     1      -8.724  17.721  68.894  1.00  0.00    -0.118 A  
HETATM   21  H   UNL     1      -8.331  21.236  66.237  1.00  0.00     0.000 HD 
HETATM   22  C   UNL     1     -10.650  18.348  67.564  1.00  0.00    -0.447 A  
HETATM   23  H   UNL     1      -6.237  19.770  68.309  1.00  0.00     0.000 HD 
HETATM   24  C   UNL     1      -8.017  18.782  68.341  1.00  0.00    -0.334 A  
HETATM   25  C   UNL     1      -9.933  19.412  67.011  1.00  0.00    -0.466 A  
HETATM   26  O   UNL     1      -6.721  19.046  68.688  1.00  0.00    -0.257 OA 
HETATM   27  C   UNL     1      -8.622  19.621  67.407  1.00  0.00    -0.306 A  
HETATM   28  O   UNL     1      -7.920  20.664  66.874  1.00  0.00    -0.277 OA 
ENDBRANCH   3  19
TORSDOF 8
ENDMDL
MODEL      203
REMARK 921   NORMALIZED FREE ENERGY PREDICTED BY IDOCK:   -4.37 KCAL/MOL
REMARK 922        TOTAL FREE ENERGY PREDICTED BY IDOCK:   -7.62 KCAL/MOL
REMARK 923 INTER-LIGAND FREE ENERGY PREDICTED BY IDOCK:   -6.78 KCAL/MOL
REMARK 924 INTRA-LIGAND FREE ENERGY PREDICTED BY IDOCK:   -0.85 KCAL/MOL
REMARK 927      BINDING AFFINITY PREDICTED BY RF-SCORE:    0.00 PKD
ROOT
HETATM    1  O   UNL     1     -10.956  13.551  69.239  1.00  0.00    -0.372 OA 
HETATM    2  H   UNL     1     -11.878  13.778  69.284  1.00  0.00     0.000 HD 
HETATM    3  C   UNL     1     -10.282  14.458  68.357  1.00  0.00    -0.243 C  
ENDROOT
BRANCH   3   4
HETATM    4  C   UNL     1      -8.781  14.089  68.284  1.00  0.00    -0.182 C  
BRANCH   4   5
HETATM    5  N   UNL     1      -8.518  12.744  68.844  1.00  0.00    -0.339 NA 
HETATM    6  H   UNL     1      -9.317  12.386  69.369  1.00  0.00     0.000 HD 
BRANCH   5   7
HETATM    7  C   UNL     1      -8.106  11.826  67.777  1.00  0.00    -0.143 C  
BRANCH   7   8
HETATM    8  C   UNL     1      -6.725  11.242  68.090  1.00  0.00    -0.058 C  
BRANCH   8   9
HETATM    9  C   UNL     1      -6.788  10.339  69.324  1.00  0.00    -0.068 C  
BRANCH   9  10
HETATM   10  C   UNL     1      -6.892   8.860  68.940  1.00  0.00    -0.061 C  
BRANCH  10  11
HETATM   11  C   UNL     1      -8.288   8.338  69.176  1.00  0.00    -0.123 A  
HETATM   12  C   UNL     1      -8.667   7.864  70.441  1.00  0.00    -0.137 A  
HETATM   13  C   UNL     1      -9.941   7.331  70.647  1.00  0.00    -0.187 A  
HETATM   14  C   UNL     1     -10.837   7.270  69.585  1.00  0.00    -0.222 A  
HETATM   15  O   UNL     1     -12.085   6.740  69.737  1.00  0.00    -0.648 OA 
HETATM   16  C   UNL     1     -10.484   7.741  68.328  1.00  0.00    -0.215 A  
HETATM   17  H   UNL     1     -12.696   6.698  69.011  1.00  0.00     0.000 HD 
HETATM   18  C   UNL     1      -9.209   8.274  68.122  1.00  0.00    -0.137 A  
ENDBRANCH  10  11
ENDBRANCH   9  10
ENDBRANCH   8   9
ENDBRANCH   7   8
ENDBRANCH   5   7
ENDBRANCH   4   5
ENDBRANCH   3   4
BRANCH   3  19
HETATM   19  C   UNL     1     -10.926  14.421  66.986  1.00  0.00    -0.304 A  
HETATM   20  C   UNL     1     -11.708  13.328  66.574  1.00  0.00    -0.423 A  
HETATM   21  H   UNL     1     -12.426  15.064  62.568  1.00  0.00     0.000 HD 
HETATM   22  C   UNL     1     -10.714  15.483  66.085  1.00  0.00    -0.315 A  
HETATM   23  H   UNL     1     -13.399  12.256  63.982  1.00  0.00     0.000 HD 
HETATM   24  C   UNL     1     -12.258  13.311  65.297  1.00  0.00    -0.448 A  
HETATM   25  C   UNL     1     -11.271  15.459  64.804  1.00  0.00    -0.404 A  
HETATM   26  O   UNL     1     -13.023  12.268  64.854  1.00  0.00    -0.662 OA 
HETATM   27  C   UNL     1     -12.037  14.371  64.420  1.00  0.00    -0.470 A  
HETATM   28  O   UNL     1     -12.576  14.341  63.166  1.00  0.00    -0.615 OA 
ENDBRANCH   3  19
TORSDOF 8
ENDMDL
MODEL      204
REMARK 921   NORMALIZED FREE ENERGY PREDICTED BY IDOCK:   -4.35 KCAL/MOL
REMARK 922        TOTAL FREE ENERGY PREDICTED BY IDOCK:   -7.59 KCAL/MOL
REMARK 923 INTER-LIGAND FREE ENERGY PREDICTED BY IDOCK:   -7.08 KCAL/MOL
REMARK 924 INTRA-LIGAND FREE ENERGY PREDICTED BY IDOCK:   -0.51 KCAL/MOL
REMARK 927      BINDING AFFINITY PREDICTED BY RF-SCORE:    0.00 PKD
ROOT
HETATM    1  O   UNL     1     -11.603  14.308  64.312  1.00  0.00    -0.556 OA 
HETATM    2  H   UNL     1     -12.032  15.144  64.162  1.00  0.00     0.000 HD 
HETATM    3  C   UNL     1     -11.565  14.034  65.718  1.00  0.00    -0.339 C  
ENDROOT
BRANCH   3   4
HETATM    4  C   UNL     1     -10.868  12.675  65.961  1.00  0.00    -0.277 C  
BRANCH   4   5
HETATM    5  N   UNL     1      -9.895  12.357  64.891  1.00  0.00    -0.460 NA 
HETATM    6  H   UNL     1      -8.931  12.461  65.209  1.00  0.00     0.000 HD 
BRANCH   5   7
HETATM    7  C   UNL     1     -10.155  11.016  64.356  1.00  0.00    -0.334 C  
BRANCH   7   8
HETATM    8  C   UNL     1      -9.075  10.041  64.833  1.00  0.00    -0.265 C  
BRANCH   8   9
HETATM    9  C   UNL     1      -9.447   9.446  66.192  1.00  0.00    -0.287 C  
BRANCH   9  10
HETATM   10  C   UNL     1      -9.570   7.921  66.131  1.00  0.00    -0.127 C  
BRANCH  10  11
HETATM   11  C   UNL     1     -10.003   7.360  67.464  1.00  0.00    -0.225 A  
HETATM   12  C   UNL     1     -10.296   5.995  67.601  1.00  0.00    -0.258 A  
HETATM   13  C   UNL     1     -10.748   5.485  68.819  1.00  0.00    -0.195 A  
HETATM   14  C   UNL     1     -10.911   6.343  69.902  1.00  0.00    -0.348 A  
HETATM   15  O   UNL     1     -11.368   5.891  71.104  1.00  0.00    -0.262 OA 
HETATM   16  C   UNL     1     -10.619   7.695  69.788  1.00  0.00    -0.245 A  
HETATM   17  H   UNL     1     -11.480   6.476  71.843  1.00  0.00     0.000 HD 
HETATM   18  C   UNL     1     -10.167   8.205  68.570  1.00  0.00    -0.233 A  
ENDBRANCH  10  11
ENDBRANCH   9  10
ENDBRANCH   8   9
ENDBRANCH   7   8
ENDBRANCH   5   7
ENDBRANCH   4   5
ENDBRANCH   3   4
BRANCH   3  19
HETATM   19  C   UNL     1     -10.851  15.157  66.444  1.00  0.00    -0.326 A  
HETATM   20  C   UNL     1      -9.926  15.985  65.784  1.00  0.00    -0.382 A  
HETATM   21  H   UNL     1      -9.018  18.280  69.454  1.00  0.00     0.000 HD 
HETATM   22  C   UNL     1     -11.086  15.362  67.817  1.00  0.00    -0.320 A  
HETATM   23  H   UNL     1      -7.904  18.494  66.365  1.00  0.00     0.000 HD 
HETATM   24  C   UNL     1      -9.265  16.985  66.487  1.00  0.00    -0.271 A  
HETATM   25  C   UNL     1     -10.418  16.369  68.518  1.00  0.00    -0.291 A  
HETATM   26  O   UNL     1      -8.356  17.811  65.885  1.00  0.00    -0.524 OA 
HETATM   27  C   UNL     1      -9.510  17.171  67.845  1.00  0.00    -0.257 A  
HETATM   28  O   UNL     1      -8.850  18.153  68.528  1.00  0.00    -0.301 OA 
ENDBRANCH   3  19
TORSDOF 8
ENDMDL
MODEL      205
REMARK 921   NORMALIZED FREE ENERGY PREDICTED BY IDOCK:   -4.35 KCAL/MOL
REMARK 922        TOTAL FREE ENERGY PREDICTED BY IDOCK:   -7.58 KCAL/MOL
REMARK 923 INTER-LIGAND FREE ENERGY PREDICTED BY IDOCK:   -6.97 KCAL/MOL
REMARK 924 INTRA-LIGAND FREE ENERGY PREDICTED BY IDOCK:   -0.61 KCAL/MOL
REMARK 927      BINDING AFFINITY PREDICTED BY RF-SCORE:    0.00 PKD
ROOT
HETATM    1  O   UNL     1     -13.553  15.143  70.825  1.00  0.00    -0.665 OA 
HETATM    2  H   UNL     1     -13.187  15.999  70.633  1.00  0.00     0.000 HD 
HETATM    3  C   UNL     1     -12.540  14.142  70.656  1.00  0.00    -0.351 C  
ENDROOT
BRANCH   3   4
HETATM    4  C   UNL     1     -13.135  12.748  70.968  1.00  0.00     0.019 C  
BRANCH   4   5
HETATM    5  N   UNL     1     -12.095  11.794  71.414  1.00  0.00    -0.039 NA 
HETATM    6  H   UNL     1     -12.039  11.738  72.431  1.00  0.00     0.000 HD 
BRANCH   5   7
HETATM    7  C   UNL     1     -12.322  10.480  70.802  1.00  0.00    -0.378 C  
BRANCH   7   8
HETATM    8  C   UNL     1     -13.072   9.569  71.777  1.00  0.00    -0.504 C  
BRANCH   8   9
HETATM    9  C   UNL     1     -12.193   8.391  72.203  1.00  0.00    -0.434 C  
BRANCH   9  10
HETATM   10  C   UNL     1     -12.700   7.066  71.627  1.00  0.00    -0.417 C  
BRANCH  10  11
HETATM   11  C   UNL     1     -11.624   6.383  70.818  1.00  0.00    -0.402 A  
HETATM   12  C   UNL     1     -10.681   5.554  71.444  1.00  0.00    -0.290 A  
HETATM   13  C   UNL     1      -9.653   4.964  70.705  1.00  0.00    -0.254 A  
HETATM   14  C   UNL     1      -9.568   5.207  69.338  1.00  0.00    -0.161 A  
HETATM   15  O   UNL     1      -8.570   4.667  68.582  1.00  0.00    -0.088 OA 
HETATM   16  C   UNL     1     -10.497   6.017  68.699  1.00  0.00    -0.297 A  
HETATM   17  H   UNL     1      -8.511   4.832  67.648  1.00  0.00     0.000 HD 
HETATM   18  C   UNL     1     -11.524   6.607  69.439  1.00  0.00    -0.288 A  
ENDBRANCH  10  11
ENDBRANCH   9  10
ENDBRANCH   8   9
ENDBRANCH   7   8
ENDBRANCH   5   7
ENDBRANCH   4   5
ENDBRANCH   3   4
BRANCH   3  19
HETATM   19  C   UNL     1     -11.984  14.202  69.247  1.00  0.00    -0.382 A  
HETATM   20  C   UNL     1     -12.389  13.285  68.261  1.00  0.00     0.110 A  
HETATM   21  H   UNL     1      -9.683  15.019  65.221  1.00  0.00     0.000 HD 
HETATM   22  C   UNL     1     -11.016  15.170  68.919  1.00  0.00    -0.256 A  
HETATM   23  H   UNL     1     -11.820  12.518  65.129  1.00  0.00     0.000 HD 
HETATM   24  C   UNL     1     -11.835  13.348  66.988  1.00  0.00    -0.394 A  
HETATM   25  C   UNL     1     -10.464  15.227  67.637  1.00  0.00    -0.263 A  
HETATM   26  O   UNL     1     -12.197  12.475  65.999  1.00  0.00    -0.605 OA 
HETATM   27  C   UNL     1     -10.878  14.312  66.682  1.00  0.00    -0.301 A  
HETATM   28  O   UNL     1     -10.336  14.361  65.429  1.00  0.00    -0.332 OA 
ENDBRANCH   3  19
TORSDOF 8
ENDMDL
MODEL      206
REMARK 921   NORMALIZED FREE ENERGY PREDICTED BY IDOCK:   -4.34 KCAL/MOL
REMARK 922        TOTAL FREE ENERGY PREDICTED BY IDOCK:   -7.57 KCAL/MOL
REMARK 923 INTER-LIGAND FREE ENERGY PREDICTED BY IDOCK:   -6.21 KCAL/MOL
REMARK 924 INTRA-LIGAND FREE ENERGY PREDICTED BY IDOCK:   -1.36 KCAL/MOL
REMARK 927      BINDING AFFINITY PREDICTED BY RF-SCORE:    0.00 PKD
ROOT
HETATM    1  O   UNL     1     -11.107   7.059  73.332  1.00  0.00    -0.524 OA 
HETATM    2  H   UNL     1     -10.796   6.163  73.260  1.00  0.00     0.000 HD 
HETATM    3  C   UNL     1     -11.907   7.380  72.187  1.00  0.00    -0.286 C  
ENDROOT
BRANCH   3   4
HETATM    4  C   UNL     1     -12.414   8.838  72.305  1.00  0.00    -0.386 C  
BRANCH   4   5
HETATM    5  N   UNL     1     -12.921   9.349  71.012  1.00  0.00    -0.524 NA 
HETATM    6  H   UNL     1     -13.750   8.843  70.700  1.00  0.00     0.000 HD 
BRANCH   5   7
HETATM    7  C   UNL     1     -13.161  10.794  71.101  1.00  0.00    -0.288 C  
BRANCH   7   8
HETATM    8  C   UNL     1     -11.926  11.562  70.621  1.00  0.00    -0.391 C  
BRANCH   8   9
HETATM    9  C   UNL     1     -11.071  10.688  69.700  1.00  0.00    -0.342 C  
BRANCH   9  10
HETATM   10  C   UNL     1     -11.350  10.977  68.222  1.00  0.00    -0.366 C  
BRANCH  10  11
HETATM   11  C   UNL     1     -10.177  10.574  67.363  1.00  0.00    -0.253 A  
HETATM   12  C   UNL     1      -8.890  11.057  67.643  1.00  0.00    -0.131 A  
HETATM   13  C   UNL     1      -7.812  10.727  66.817  1.00  0.00    -0.135 A  
HETATM   14  C   UNL     1      -8.025   9.916  65.707  1.00  0.00    -0.120 A  
HETATM   15  O   UNL     1      -7.005   9.585  64.864  1.00  0.00    -0.097 OA 
HETATM   16  C   UNL     1      -9.289   9.422  65.418  1.00  0.00    -0.311 A  
HETATM   17  H   UNL     1      -7.150   9.031  64.106  1.00  0.00     0.000 HD 
HETATM   18  C   UNL     1     -10.366   9.752  66.244  1.00  0.00    -0.235 A  
ENDBRANCH  10  11
ENDBRANCH   9  10
ENDBRANCH   8   9
ENDBRANCH   7   8
ENDBRANCH   5   7
ENDBRANCH   4   5
ENDBRANCH   3   4
BRANCH   3  19
HETATM   19  C   UNL     1     -11.102   7.177  70.920  1.00  0.00    -0.290 A  
HETATM   20  C   UNL     1      -9.843   7.779  70.747  1.00  0.00    -0.183 A  
HETATM   21  H   UNL     1      -9.364   6.133  66.669  1.00  0.00     0.000 HD 
HETATM   22  C   UNL     1     -11.633   6.399  69.872  1.00  0.00    -0.422 A  
HETATM   23  H   UNL     1      -7.442   8.043  68.536  1.00  0.00     0.000 HD 
HETATM   24  C   UNL     1      -9.145   7.598  69.559  1.00  0.00    -0.146 A  
HETATM   25  C   UNL     1     -10.925   6.222  68.681  1.00  0.00    -0.423 A  
HETATM   26  O   UNL     1      -7.919   8.166  69.348  1.00  0.00    -0.110 OA 
HETATM   27  C   UNL     1      -9.687   6.826  68.534  1.00  0.00    -0.133 A  
HETATM   28  O   UNL     1      -8.995   6.660  67.368  1.00  0.00    -0.115 OA 
ENDBRANCH   3  19
TORSDOF 8
ENDMDL
MODEL      207
REMARK 921   NORMALIZED FREE ENERGY PREDICTED BY IDOCK:   -4.34 KCAL/MOL
REMARK 922        TOTAL FREE ENERGY PREDICTED BY IDOCK:   -7.57 KCAL/MOL
REMARK 923 INTER-LIGAND FREE ENERGY PREDICTED BY IDOCK:   -5.46 KCAL/MOL
REMARK 924 INTRA-LIGAND FREE ENERGY PREDICTED BY IDOCK:   -2.11 KCAL/MOL
REMARK 927      BINDING AFFINITY PREDICTED BY RF-SCORE:    0.00 PKD
ROOT
HETATM    1  O   UNL     1     -12.380   5.858  72.729  1.00  0.00    -0.537 OA 
HETATM    2  H   UNL     1     -12.582   4.994  72.390  1.00  0.00     0.000 HD 
HETATM    3  C   UNL     1     -12.316   6.794  71.646  1.00  0.00    -0.362 C  
ENDROOT
BRANCH   3   4
HETATM    4  C   UNL     1     -11.987   8.202  72.198  1.00  0.00    -0.359 C  
BRANCH   4   5
HETATM    5  N   UNL     1     -12.998   9.203  71.791  1.00  0.00    -0.354 NA 
HETATM    6  H   UNL     1     -13.866   9.104  72.318  1.00  0.00     0.000 HD 
BRANCH   5   7
HETATM    7  C   UNL     1     -12.440  10.555  71.900  1.00  0.00    -0.145 C  
BRANCH   7   8
HETATM    8  C   UNL     1     -12.933  11.422  70.738  1.00  0.00    -0.135 C  
BRANCH   8   9
HETATM    9  C   UNL     1     -11.822  11.627  69.707  1.00  0.00    -0.428 C  
BRANCH   9  10
HETATM   10  C   UNL     1     -11.782  10.493  68.679  1.00  0.00    -0.157 C  
BRANCH  10  11
HETATM   11  C   UNL     1     -10.380   9.959  68.518  1.00  0.00    -0.221 A  
HETATM   12  C   UNL     1      -9.842   9.744  67.240  1.00  0.00    -0.228 A  
HETATM   13  C   UNL     1      -8.565   9.200  67.089  1.00  0.00    -0.122 A  
HETATM   14  C   UNL     1      -7.825   8.868  68.220  1.00  0.00    -0.101 A  
HETATM   15  O   UNL     1      -6.582   8.317  68.118  1.00  0.00    -0.055 OA 
HETATM   16  C   UNL     1      -8.337   9.081  69.493  1.00  0.00    -0.117 A  
HETATM   17  H   UNL     1      -6.077   8.090  68.890  1.00  0.00     0.000 HD 
HETATM   18  C   UNL     1      -9.614   9.624  69.643  1.00  0.00    -0.225 A  
ENDBRANCH  10  11
ENDBRANCH   9  10
ENDBRANCH   8   9
ENDBRANCH   7   8
ENDBRANCH   5   7
ENDBRANCH   4   5
ENDBRANCH   3   4
BRANCH   3  19
HETATM   19  C   UNL     1     -11.282   6.344  70.633  1.00  0.00    -0.400 A  
HETATM   20  C   UNL     1     -11.515   6.452  69.251  1.00  0.00    -0.318 A  
HETATM   21  H   UNL     1      -7.630   4.603  68.224  1.00  0.00     0.000 HD 
HETATM   22  C   UNL     1     -10.074   5.771  71.076  1.00  0.00    -0.260 A  
HETATM   23  H   UNL     1     -10.091   5.775  66.381  1.00  0.00     0.000 HD 
HETATM   24  C   UNL     1     -10.559   6.000  68.349  1.00  0.00    -0.261 A  
HETATM   25  C   UNL     1      -9.118   5.319  70.164  1.00  0.00    -0.168 A  
HETATM   26  O   UNL     1     -10.744   6.084  66.997  1.00  0.00    -0.276 OA 
HETATM   27  C   UNL     1      -9.370   5.435  68.807  1.00  0.00    -0.128 A  
HETATM   28  O   UNL     1      -8.440   4.988  67.912  1.00  0.00    -0.104 OA 
ENDBRANCH   3  19
TORSDOF 8
ENDMDL
MODEL      208
REMARK 921   NORMALIZED FREE ENERGY PREDICTED BY IDOCK:   -4.34 KCAL/MOL
REMARK 922        TOTAL FREE ENERGY PREDICTED BY IDOCK:   -7.57 KCAL/MOL
REMARK 923 INTER-LIGAND FREE ENERGY PREDICTED BY IDOCK:   -5.84 KCAL/MOL
REMARK 924 INTRA-LIGAND FREE ENERGY PREDICTED BY IDOCK:   -1.72 KCAL/MOL
REMARK 927      BINDING AFFINITY PREDICTED BY RF-SCORE:    0.00 PKD
ROOT
HETATM    1  O   UNL     1      -6.250  17.442  69.598  1.00  0.00    -0.248 OA 
HETATM    2  H   UNL     1      -6.134  17.025  70.445  1.00  0.00     0.000 HD 
HETATM    3  C   UNL     1      -7.433  16.931  68.971  1.00  0.00    -0.220 C  
ENDROOT
BRANCH   3   4
HETATM    4  C   UNL     1      -7.622  17.610  67.594  1.00  0.00    -0.204 C  
BRANCH   4   5
HETATM    5  N   UNL     1      -8.425  18.848  67.697  1.00  0.00    -0.277 NA 
HETATM    6  H   UNL     1      -8.575  19.283  66.786  1.00  0.00     0.000 HD 
BRANCH   5   7
HETATM    7  C   UNL     1      -9.688  18.574  68.390  1.00  0.00    -0.364 C  
BRANCH   7   8
HETATM    8  C   UNL     1     -10.631  17.789  67.474  1.00  0.00    -0.365 C  
BRANCH   8   9
HETATM    9  C   UNL     1     -10.987  16.437  68.095  1.00  0.00    -0.339 C  
BRANCH   9  10
HETATM   10  C   UNL     1     -11.517  15.453  67.049  1.00  0.00    -0.103 C  
BRANCH  10  11
HETATM   11  C   UNL     1     -11.591  14.054  67.612  1.00  0.00    -0.385 A  
HETATM   12  C   UNL     1     -11.750  13.850  68.991  1.00  0.00    -0.378 A  
HETATM   13  C   UNL     1     -11.765  12.558  69.520  1.00  0.00    -0.375 A  
HETATM   14  C   UNL     1     -11.617  11.468  68.668  1.00  0.00    -0.313 A  
HETATM   15  O   UNL     1     -11.607  10.190  69.145  1.00  0.00    -0.447 OA 
HETATM   16  C   UNL     1     -11.467  11.650  67.300  1.00  0.00    -0.350 A  
HETATM   17  H   UNL     1     -11.505   9.446  68.563  1.00  0.00     0.000 HD 
HETATM   18  C   UNL     1     -11.451  12.942  66.772  1.00  0.00    -0.391 A  
ENDBRANCH  10  11
ENDBRANCH   9  10
ENDBRANCH   8   9
ENDBRANCH   7   8
ENDBRANCH   5   7
ENDBRANCH   4   5
ENDBRANCH   3   4
BRANCH   3  19
HETATM   19  C   UNL     1      -7.335  15.425  68.834  1.00  0.00    -0.147 A  
HETATM   20  C   UNL     1      -6.719  14.637  69.822  1.00  0.00    -0.165 A  
HETATM   21  H   UNL     1      -7.354  10.892  67.556  1.00  0.00     0.000 HD 
HETATM   22  C   UNL     1      -7.839  14.794  67.679  1.00  0.00    -0.191 A  
HETATM   23  H   UNL     1      -5.956  11.519  70.468  1.00  0.00     0.000 HD 
HETATM   24  C   UNL     1      -6.618  13.262  69.650  1.00  0.00     0.002 A  
HETATM   25  C   UNL     1      -7.734  13.411  67.513  1.00  0.00    -0.182 A  
HETATM   26  O   UNL     1      -6.025  12.459  70.585  1.00  0.00    -0.238 OA 
HETATM   27  C   UNL     1      -7.121  12.657  68.501  1.00  0.00    -0.101 A  
HETATM   28  O   UNL     1      -7.011  11.305  68.339  1.00  0.00    -0.063 OA 
ENDBRANCH   3  19
TORSDOF 8
ENDMDL
MODEL      209
REMARK 921   NORMALIZED FREE ENERGY PREDICTED BY IDOCK:   -4.33 KCAL/MOL
REMARK 922        TOTAL FREE ENERGY PREDICTED BY IDOCK:   -7.55 KCAL/MOL
REMARK 923 INTER-LIGAND FREE ENERGY PREDICTED BY IDOCK:   -6.70 KCAL/MOL
REMARK 924 INTRA-LIGAND FREE ENERGY PREDICTED BY IDOCK:   -0.85 KCAL/MOL
REMARK 927      BINDING AFFINITY PREDICTED BY RF-SCORE:    0.00 PKD
ROOT
HETATM    1  O   UNL     1     -10.103  13.889  69.264  1.00  0.00    -0.430 OA 
HETATM    2  H   UNL     1     -10.611  14.686  69.365  1.00  0.00     0.000 HD 
HETATM    3  C   UNL     1      -9.354  13.950  68.044  1.00  0.00    -0.204 C  
ENDROOT
BRANCH   3   4
HETATM    4  C   UNL     1      -8.526  12.653  67.880  1.00  0.00    -0.173 C  
BRANCH   4   5
HETATM    5  N   UNL     1      -8.903  11.630  68.881  1.00  0.00    -0.378 NA 
HETATM    6  H   UNL     1      -9.815  11.821  69.297  1.00  0.00     0.000 HD 
BRANCH   5   7
HETATM    7  C   UNL     1      -8.843  10.292  68.282  1.00  0.00    -0.126 C  
BRANCH   7   8
HETATM    8  C   UNL     1      -8.972  10.392  66.759  1.00  0.00    -0.153 C  
BRANCH   8   9
HETATM    9  C   UNL     1      -9.972   9.360  66.233  1.00  0.00    -0.353 C  
BRANCH   9  10
HETATM   10  C   UNL     1     -10.261   8.269  67.268  1.00  0.00    -0.344 C  
BRANCH  10  11
HETATM   11  C   UNL     1      -9.502   7.005  66.946  1.00  0.00    -0.199 A  
HETATM   12  C   UNL     1     -10.188   5.825  66.622  1.00  0.00    -0.261 A  
HETATM   13  C   UNL     1      -9.489   4.642  66.376  1.00  0.00    -0.169 A  
HETATM   14  C   UNL     1      -8.100   4.638  66.459  1.00  0.00    -0.103 A  
HETATM   15  O   UNL     1      -7.379   3.500  66.245  1.00  0.00    -0.073 OA 
HETATM   16  C   UNL     1      -7.403   5.797  66.770  1.00  0.00    -0.079 A  
HETATM   17  H   UNL     1      -6.431   3.498  66.302  1.00  0.00     0.000 HD 
HETATM   18  C   UNL     1      -8.102   6.980  67.016  1.00  0.00    -0.117 A  
ENDBRANCH  10  11
ENDBRANCH   9  10
ENDBRANCH   8   9
ENDBRANCH   7   8
ENDBRANCH   5   7
ENDBRANCH   4   5
ENDBRANCH   3   4
BRANCH   3  19
HETATM   19  C   UNL     1     -10.292  14.156  66.872  1.00  0.00    -0.269 A  
HETATM   20  C   UNL     1     -11.278  13.208  66.546  1.00  0.00    -0.339 A  
HETATM   21  H   UNL     1     -12.664  15.519  63.038  1.00  0.00     0.000 HD 
HETATM   22  C   UNL     1     -10.160  15.303  66.064  1.00  0.00    -0.340 A  
HETATM   23  H   UNL     1     -13.633  12.656  64.339  1.00  0.00     0.000 HD 
HETATM   24  C   UNL     1     -12.101  13.413  65.445  1.00  0.00    -0.421 A  
HETATM   25  C   UNL     1     -10.991  15.503  64.960  1.00  0.00    -0.454 A  
HETATM   26  O   UNL     1     -13.070  12.516  65.091  1.00  0.00    -0.659 OA 
HETATM   27  C   UNL     1     -11.954  14.553  64.658  1.00  0.00    -0.468 A  
HETATM   28  O   UNL     1     -12.764  14.742  63.575  1.00  0.00    -0.593 OA 
ENDBRANCH   3  19
TORSDOF 8
ENDMDL
MODEL      210
REMARK 921   NORMALIZED FREE ENERGY PREDICTED BY IDOCK:   -4.32 KCAL/MOL
REMARK 922        TOTAL FREE ENERGY PREDICTED BY IDOCK:   -7.55 KCAL/MOL
REMARK 923 INTER-LIGAND FREE ENERGY PREDICTED BY IDOCK:   -7.08 KCAL/MOL
REMARK 924 INTRA-LIGAND FREE ENERGY PREDICTED BY IDOCK:   -0.47 KCAL/MOL
REMARK 927      BINDING AFFINITY PREDICTED BY RF-SCORE:    0.00 PKD
ROOT
HETATM    1  O   UNL     1     -13.002  13.943  65.671  1.00  0.00    -0.599 OA 
HETATM    2  H   UNL     1     -12.686  13.820  64.783  1.00  0.00     0.000 HD 
HETATM    3  C   UNL     1     -11.890  14.161  66.549  1.00  0.00    -0.419 C  
ENDROOT
BRANCH   3   4
HETATM    4  C   UNL     1     -12.405  14.363  67.994  1.00  0.00     0.036 C  
BRANCH   4   5
HETATM    5  N   UNL     1     -11.296  14.396  68.973  1.00  0.00    -0.254 NA 
HETATM    6  H   UNL     1     -10.514  14.963  68.645  1.00  0.00     0.000 HD 
BRANCH   5   7
HETATM    7  C   UNL     1     -11.790  14.845  70.280  1.00  0.00    -0.307 C  
BRANCH   7   8
HETATM    8  C   UNL     1     -12.855  13.876  70.800  1.00  0.00    -0.329 C  
BRANCH   8   9
HETATM    9  C   UNL     1     -12.281  12.463  70.933  1.00  0.00    -0.290 C  
BRANCH   9  10
HETATM   10  C   UNL     1     -13.136  11.587  71.852  1.00  0.00    -0.492 C  
BRANCH  10  11
HETATM   11  C   UNL     1     -12.795  10.127  71.675  1.00  0.00    -0.559 A  
HETATM   12  C   UNL     1     -11.521   9.742  71.231  1.00  0.00    -0.457 A  
HETATM   13  C   UNL     1     -11.221   8.395  71.015  1.00  0.00    -0.304 A  
HETATM   14  C   UNL     1     -12.199   7.432  71.242  1.00  0.00    -0.341 A  
HETATM   15  O   UNL     1     -11.955   6.108  71.026  1.00  0.00    -0.172 OA 
HETATM   16  C   UNL     1     -13.463   7.793  71.690  1.00  0.00    -0.401 A  
HETATM   17  H   UNL     1     -12.623   5.450  71.181  1.00  0.00     0.000 HD 
HETATM   18  C   UNL     1     -13.762   9.139  71.904  1.00  0.00    -0.485 A  
ENDBRANCH  10  11
ENDBRANCH   9  10
ENDBRANCH   8   9
ENDBRANCH   7   8
ENDBRANCH   5   7
ENDBRANCH   4   5
ENDBRANCH   3   4
BRANCH   3  19
HETATM   19  C   UNL     1     -10.928  12.994  66.464  1.00  0.00    -0.307 A  
HETATM   20  C   UNL     1      -9.560  13.150  66.746  1.00  0.00    -0.249 A  
HETATM   21  H   UNL     1      -8.657   8.916  65.836  1.00  0.00     0.000 HD 
HETATM   22  C   UNL     1     -11.398  11.728  66.062  1.00  0.00    -0.335 A  
HETATM   23  H   UNL     1      -6.772  11.432  66.809  1.00  0.00     0.000 HD 
HETATM   24  C   UNL     1      -8.699  12.065  66.628  1.00  0.00    -0.171 A  
HETATM   25  C   UNL     1     -10.528  10.643  65.946  1.00  0.00    -0.243 A  
HETATM   26  O   UNL     1      -7.361  12.173  66.889  1.00  0.00    -0.111 OA 
HETATM   27  C   UNL     1      -9.183  10.822  66.228  1.00  0.00    -0.173 A  
HETATM   28  O   UNL     1      -8.327   9.764  66.108  1.00  0.00    -0.118 OA 
ENDBRANCH   3  19
TORSDOF 8
ENDMDL
MODEL      211
REMARK 921   NORMALIZED FREE ENERGY PREDICTED BY IDOCK:   -4.32 KCAL/MOL
REMARK 922        TOTAL FREE ENERGY PREDICTED BY IDOCK:   -7.54 KCAL/MOL
REMARK 923 INTER-LIGAND FREE ENERGY PREDICTED BY IDOCK:   -6.73 KCAL/MOL
REMARK 924 INTRA-LIGAND FREE ENERGY PREDICTED BY IDOCK:   -0.81 KCAL/MOL
REMARK 927      BINDING AFFINITY PREDICTED BY RF-SCORE:    0.00 PKD
ROOT
HETATM    1  O   UNL     1     -12.038  10.487  68.248  1.00  0.00    -0.797 OA 
HETATM    2  H   UNL     1     -12.723  10.086  68.772  1.00  0.00     0.000 HD 
HETATM    3  C   UNL     1     -11.156   9.470  67.755  1.00  0.00     0.034 C  
ENDROOT
BRANCH   3   4
HETATM    4  C   UNL     1     -10.042  10.123  66.902  1.00  0.00    -0.223 C  
BRANCH   4   5
HETATM    5  N   UNL     1     -10.152   9.749  65.475  1.00  0.00    -0.296 NA 
HETATM    6  H   UNL     1     -11.082   9.400  65.242  1.00  0.00     0.000 HD 
BRANCH   5   7
HETATM    7  C   UNL     1      -9.761  10.880  64.626  1.00  0.00    -0.280 C  
BRANCH   7   8
HETATM    8  C   UNL     1     -10.962  11.361  63.807  1.00  0.00    -0.448 C  
BRANCH   8   9
HETATM    9  C   UNL     1     -11.326  12.801  64.177  1.00  0.00    -0.442 C  
BRANCH   9  10
HETATM   10  C   UNL     1     -12.095  12.872  65.498  1.00  0.00    -0.507 C  
BRANCH  10  11
HETATM   11  C   UNL     1     -11.714  14.106  66.279  1.00  0.00    -0.402 A  
HETATM   12  C   UNL     1     -10.922  15.103  65.692  1.00  0.00    -0.359 A  
HETATM   13  C   UNL     1     -10.524  16.220  66.430  1.00  0.00    -0.297 A  
HETATM   14  C   UNL     1     -10.917  16.337  67.759  1.00  0.00    -0.281 A  
HETATM   15  O   UNL     1     -10.536  17.402  68.521  1.00  0.00    -0.353 OA 
HETATM   16  C   UNL     1     -11.708  15.365  68.355  1.00  0.00    -0.332 A  
HETATM   17  H   UNL     1     -10.804  17.481  69.429  1.00  0.00     0.000 HD 
HETATM   18  C   UNL     1     -12.106  14.248  67.617  1.00  0.00    -0.332 A  
ENDBRANCH  10  11
ENDBRANCH   9  10
ENDBRANCH   8   9
ENDBRANCH   7   8
ENDBRANCH   5   7
ENDBRANCH   4   5
ENDBRANCH   3   4
BRANCH   3  19
HETATM   19  C   UNL     1     -10.575   8.684  68.913  1.00  0.00    -0.166 A  
HETATM   20  C   UNL     1      -9.682   7.620  68.701  1.00  0.00    -0.157 A  
HETATM   21  H   UNL     1      -9.370   6.723  73.021  1.00  0.00     0.000 HD 
HETATM   22  C   UNL     1     -10.959   8.996  70.232  1.00  0.00    -0.274 A  
HETATM   23  H   UNL     1      -7.988   5.362  70.363  1.00  0.00     0.000 HD 
HETATM   24  C   UNL     1      -9.192   6.899  69.784  1.00  0.00    -0.147 A  
HETATM   25  C   UNL     1     -10.463   8.267  71.315  1.00  0.00    -0.262 A  
HETATM   26  O   UNL     1      -8.323   5.855  69.623  1.00  0.00    -0.114 OA 
HETATM   27  C   UNL     1      -9.585   7.222  71.081  1.00  0.00    -0.160 A  
HETATM   28  O   UNL     1      -9.103   6.503  72.137  1.00  0.00    -0.140 OA 
ENDBRANCH   3  19
TORSDOF 8
ENDMDL
MODEL      212
REMARK 921   NORMALIZED FREE ENERGY PREDICTED BY IDOCK:   -4.31 KCAL/MOL
REMARK 922        TOTAL FREE ENERGY PREDICTED BY IDOCK:   -7.52 KCAL/MOL
REMARK 923 INTER-LIGAND FREE ENERGY PREDICTED BY IDOCK:   -7.04 KCAL/MOL
REMARK 924 INTRA-LIGAND FREE ENERGY PREDICTED BY IDOCK:   -0.49 KCAL/MOL
REMARK 927      BINDING AFFINITY PREDICTED BY RF-SCORE:    0.00 PKD
ROOT
HETATM    1  O   UNL     1     -11.331  11.782  70.367  1.00  0.00    -0.464 OA 
HETATM    2  H   UNL     1     -11.756  11.832  71.216  1.00  0.00     0.000 HD 
HETATM    3  C   UNL     1     -11.877  10.686  69.622  1.00  0.00    -0.286 C  
ENDROOT
BRANCH   3   4
HETATM    4  C   UNL     1     -11.185  10.606  68.240  1.00  0.00    -0.301 C  
BRANCH   4   5
HETATM    5  N   UNL     1     -10.878  11.950  67.700  1.00  0.00    -0.217 NA 
HETATM    6  H   UNL     1      -9.891  12.048  67.461  1.00  0.00     0.000 HD 
BRANCH   5   7
HETATM    7  C   UNL     1     -11.753  12.247  66.561  1.00  0.00    -0.352 C  
BRANCH   7   8
HETATM    8  C   UNL     1     -11.023  13.146  65.559  1.00  0.00    -0.296 C  
BRANCH   8   9
HETATM    9  C   UNL     1     -10.214  14.221  66.287  1.00  0.00    -0.307 C  
BRANCH   9  10
HETATM   10  C   UNL     1     -10.240  15.556  65.538  1.00  0.00    -0.415 C  
BRANCH  10  11
HETATM   11  C   UNL     1      -9.617  16.652  66.367  1.00  0.00    -0.308 A  
HETATM   12  C   UNL     1      -8.251  16.950  66.244  1.00  0.00    -0.344 A  
HETATM   13  C   UNL     1      -7.661  17.927  67.049  1.00  0.00    -0.232 A  
HETATM   14  C   UNL     1      -8.439  18.605  67.982  1.00  0.00    -0.291 A  
HETATM   15  O   UNL     1      -7.900  19.553  68.801  1.00  0.00    -0.355 OA 
HETATM   16  C   UNL     1      -9.794  18.331  68.113  1.00  0.00    -0.356 A  
HETATM   17  H   UNL     1      -8.431  20.016  69.438  1.00  0.00     0.000 HD 
HETATM   18  C   UNL     1     -10.383  17.354  67.309  1.00  0.00    -0.336 A  
ENDBRANCH  10  11
ENDBRANCH   9  10
ENDBRANCH   8   9
ENDBRANCH   7   8
ENDBRANCH   5   7
ENDBRANCH   4   5
ENDBRANCH   3   4
BRANCH   3  19
HETATM   19  C   UNL     1     -11.705   9.396  70.399  1.00  0.00    -0.195 A  
HETATM   20  C   UNL     1     -11.279   8.214  69.771  1.00  0.00     0.027 A  
HETATM   21  H   UNL     1     -11.566   5.859  73.504  1.00  0.00     0.000 HD 
HETATM   22  C   UNL     1     -12.010   9.363  71.774  1.00  0.00    -0.452 A  
HETATM   23  H   UNL     1     -10.674   5.065  70.438  1.00  0.00     0.000 HD 
HETATM   24  C   UNL     1     -11.163   7.040  70.507  1.00  0.00    -0.295 A  
HETATM   25  C   UNL     1     -11.890   8.181  72.507  1.00  0.00    -0.438 A  
HETATM   26  O   UNL     1     -10.754   5.867  69.935  1.00  0.00    -0.274 OA 
HETATM   27  C   UNL     1     -11.469   7.027  71.865  1.00  0.00    -0.268 A  
HETATM   28  O   UNL     1     -11.358   5.867  72.578  1.00  0.00    -0.279 OA 
ENDBRANCH   3  19
TORSDOF 8
ENDMDL
MODEL      213
REMARK 921   NORMALIZED FREE ENERGY PREDICTED BY IDOCK:   -4.30 KCAL/MOL
REMARK 922        TOTAL FREE ENERGY PREDICTED BY IDOCK:   -7.52 KCAL/MOL
REMARK 923 INTER-LIGAND FREE ENERGY PREDICTED BY IDOCK:   -6.40 KCAL/MOL
REMARK 924 INTRA-LIGAND FREE ENERGY PREDICTED BY IDOCK:   -1.12 KCAL/MOL
REMARK 927      BINDING AFFINITY PREDICTED BY RF-SCORE:    0.00 PKD
ROOT
HETATM    1  O   UNL     1     -10.033   5.592  65.971  1.00  0.00    -0.331 OA 
HETATM    2  H   UNL     1     -10.479   4.865  66.390  1.00  0.00     0.000 HD 
HETATM    3  C   UNL     1      -9.061   6.140  66.871  1.00  0.00    -0.127 C  
ENDROOT
BRANCH   3   4
HETATM    4  C   UNL     1      -8.335   7.324  66.190  1.00  0.00    -0.133 C  
BRANCH   4   5
HETATM    5  N   UNL     1      -9.280   8.211  65.476  1.00  0.00    -0.412 NA 
HETATM    6  H   UNL     1     -10.010   8.568  66.094  1.00  0.00     0.000 HD 
BRANCH   5   7
HETATM    7  C   UNL     1      -8.549   9.293  64.807  1.00  0.00    -0.184 C  
BRANCH   7   8
HETATM    8  C   UNL     1      -8.663  10.586  65.620  1.00  0.00    -0.191 C  
BRANCH   8   9
HETATM    9  C   UNL     1      -9.693  11.529  64.994  1.00  0.00    -0.268 C  
BRANCH   9  10
HETATM   10  C   UNL     1     -11.101  11.276  65.539  1.00  0.00    -0.138 C  
BRANCH  10  11
HETATM   11  C   UNL     1     -11.261  11.871  66.917  1.00  0.00    -0.382 A  
HETATM   12  C   UNL     1     -11.527  11.048  68.021  1.00  0.00    -0.365 A  
HETATM   13  C   UNL     1     -11.728  11.602  69.287  1.00  0.00    -0.396 A  
HETATM   14  C   UNL     1     -11.667  12.983  69.448  1.00  0.00    -0.326 A  
HETATM   15  O   UNL     1     -11.876  13.567  70.662  1.00  0.00    -0.501 OA 
HETATM   16  C   UNL     1     -11.397  13.813  68.368  1.00  0.00    -0.326 A  
HETATM   17  H   UNL     1     -11.835  14.509  70.771  1.00  0.00     0.000 HD 
HETATM   18  C   UNL     1     -11.196  13.259  67.103  1.00  0.00    -0.327 A  
ENDBRANCH  10  11
ENDBRANCH   9  10
ENDBRANCH   8   9
ENDBRANCH   7   8
ENDBRANCH   5   7
ENDBRANCH   4   5
ENDBRANCH   3   4
BRANCH   3  19
HETATM   19  C   UNL     1      -9.736   6.574  68.158  1.00  0.00    -0.126 A  
HETATM   20  C   UNL     1      -9.341   7.742  68.834  1.00  0.00    -0.146 A  
HETATM   21  H   UNL     1     -12.249   7.101  72.105  1.00  0.00     0.000 HD 
HETATM   22  C   UNL     1     -10.756   5.779  68.714  1.00  0.00    -0.318 A  
HETATM   23  H   UNL     1     -10.027   9.460  71.536  1.00  0.00     0.000 HD 
HETATM   24  C   UNL     1      -9.959   8.094  70.028  1.00  0.00    -0.192 A  
HETATM   25  C   UNL     1     -11.373   6.139  69.914  1.00  0.00    -0.454 A  
HETATM   26  O   UNL     1      -9.605   9.219  70.720  1.00  0.00    -0.245 OA 
HETATM   27  C   UNL     1     -10.966   7.294  70.563  1.00  0.00    -0.260 A  
HETATM   28  O   UNL     1     -11.562   7.646  71.740  1.00  0.00    -0.255 OA 
ENDBRANCH   3  19
TORSDOF 8
ENDMDL
MODEL      214
REMARK 921   NORMALIZED FREE ENERGY PREDICTED BY IDOCK:   -4.30 KCAL/MOL
REMARK 922        TOTAL FREE ENERGY PREDICTED BY IDOCK:   -7.52 KCAL/MOL
REMARK 923 INTER-LIGAND FREE ENERGY PREDICTED BY IDOCK:   -7.13 KCAL/MOL
REMARK 924 INTRA-LIGAND FREE ENERGY PREDICTED BY IDOCK:   -0.39 KCAL/MOL
REMARK 927      BINDING AFFINITY PREDICTED BY RF-SCORE:    0.00 PKD
ROOT
HETATM    1  O   UNL     1     -13.394  15.406  70.339  1.00  0.00    -0.696 OA 
HETATM    2  H   UNL     1     -13.278  16.325  70.129  1.00  0.00     0.000 HD 
HETATM    3  C   UNL     1     -12.193  14.688  70.029  1.00  0.00    -0.333 C  
ENDROOT
BRANCH   3   4
HETATM    4  C   UNL     1     -12.383  13.191  70.371  1.00  0.00    -0.279 C  
BRANCH   4   5
HETATM    5  N   UNL     1     -11.223  12.378  69.944  1.00  0.00    -0.486 NA 
HETATM    6  H   UNL     1     -10.446  12.444  70.603  1.00  0.00     0.000 HD 
BRANCH   5   7
HETATM    7  C   UNL     1     -11.636  10.988  69.720  1.00  0.00    -0.325 C  
BRANCH   7   8
HETATM    8  C   UNL     1     -12.784  10.623  70.665  1.00  0.00    -0.445 C  
BRANCH   8   9
HETATM    9  C   UNL     1     -12.332   9.577  71.686  1.00  0.00    -0.480 C  
BRANCH   9  10
HETATM   10  C   UNL     1     -11.846   8.293  71.007  1.00  0.00    -0.276 C  
BRANCH  10  11
HETATM   11  C   UNL     1     -10.445   7.947  71.449  1.00  0.00    -0.242 A  
HETATM   12  C   UNL     1     -10.064   8.099  72.791  1.00  0.00    -0.367 A  
HETATM   13  C   UNL     1      -8.753   7.830  73.192  1.00  0.00    -0.250 A  
HETATM   14  C   UNL     1      -7.822   7.412  72.247  1.00  0.00    -0.096 A  
HETATM   15  O   UNL     1      -6.527   7.156  72.591  1.00  0.00    -0.052 OA 
HETATM   16  C   UNL     1      -8.182   7.248  70.916  1.00  0.00    -0.115 A  
HETATM   17  H   UNL     1      -5.891   6.871  71.946  1.00  0.00     0.000 HD 
HETATM   18  C   UNL     1      -9.492   7.517  70.516  1.00  0.00    -0.164 A  
ENDBRANCH  10  11
ENDBRANCH   9  10
ENDBRANCH   8   9
ENDBRANCH   7   8
ENDBRANCH   5   7
ENDBRANCH   4   5
ENDBRANCH   3   4
BRANCH   3  19
HETATM   19  C   UNL     1     -11.841  14.878  68.567  1.00  0.00    -0.325 A  
HETATM   20  C   UNL     1     -12.298  13.987  67.581  1.00  0.00    -0.079 A  
HETATM   21  H   UNL     1     -10.183  16.131  64.341  1.00  0.00     0.000 HD 
HETATM   22  C   UNL     1     -11.009  15.948  68.182  1.00  0.00    -0.335 A  
HETATM   23  H   UNL     1     -12.099  13.456  64.356  1.00  0.00     0.000 HD 
HETATM   24  C   UNL     1     -11.930  14.173  66.254  1.00  0.00    -0.429 A  
HETATM   25  C   UNL     1     -10.643  16.129  66.847  1.00  0.00    -0.283 A  
HETATM   26  O   UNL     1     -12.350  13.329  65.263  1.00  0.00    -0.423 OA 
HETATM   27  C   UNL     1     -11.106  15.236  65.893  1.00  0.00    -0.287 A  
HETATM   28  O   UNL     1     -10.745  15.406  64.587  1.00  0.00    -0.367 OA 
ENDBRANCH   3  19
TORSDOF 8
ENDMDL
MODEL      215
REMARK 921   NORMALIZED FREE ENERGY PREDICTED BY IDOCK:   -4.30 KCAL/MOL
REMARK 922        TOTAL FREE ENERGY PREDICTED BY IDOCK:   -7.52 KCAL/MOL
REMARK 923 INTER-LIGAND FREE ENERGY PREDICTED BY IDOCK:   -6.21 KCAL/MOL
REMARK 924 INTRA-LIGAND FREE ENERGY PREDICTED BY IDOCK:   -1.31 KCAL/MOL
REMARK 927      BINDING AFFINITY PREDICTED BY RF-SCORE:    0.00 PKD
ROOT
HETATM    1  O   UNL     1     -13.900   8.901  71.106  1.00  0.00    -0.577 OA 
HETATM    2  H   UNL     1     -14.350   9.606  70.655  1.00  0.00     0.000 HD 
HETATM    3  C   UNL     1     -12.723   9.414  71.743  1.00  0.00    -0.390 C  
ENDROOT
BRANCH   3   4
HETATM    4  C   UNL     1     -11.991   8.265  72.478  1.00  0.00    -0.356 C  
BRANCH   4   5
HETATM    5  N   UNL     1     -12.688   6.971  72.307  1.00  0.00    -0.527 NA 
HETATM    6  H   UNL     1     -13.086   6.872  71.373  1.00  0.00     0.000 HD 
BRANCH   5   7
HETATM    7  C   UNL     1     -11.784   5.864  72.639  1.00  0.00    -0.198 C  
BRANCH   7   8
HETATM    8  C   UNL     1     -10.405   6.109  72.022  1.00  0.00    -0.232 C  
BRANCH   8   9
HETATM    9  C   UNL     1     -10.271   5.373  70.687  1.00  0.00    -0.323 C  
BRANCH   9  10
HETATM   10  C   UNL     1      -8.883   5.561  70.070  1.00  0.00    -0.139 C  
BRANCH  10  11
HETATM   11  C   UNL     1      -8.954   5.531  68.563  1.00  0.00    -0.114 A  
HETATM   12  C   UNL     1      -8.353   4.488  67.842  1.00  0.00    -0.098 A  
HETATM   13  C   UNL     1      -8.371   4.486  66.446  1.00  0.00    -0.106 A  
HETATM   14  C   UNL     1      -8.989   5.533  65.769  1.00  0.00    -0.154 A  
HETATM   15  O   UNL     1      -9.013   5.582  64.406  1.00  0.00    -0.360 OA 
HETATM   16  C   UNL     1      -9.596   6.570  66.464  1.00  0.00    -0.184 A  
HETATM   17  H   UNL     1      -9.435   6.296  63.944  1.00  0.00     0.000 HD 
HETATM   18  C   UNL     1      -9.577   6.571  67.860  1.00  0.00    -0.119 A  
ENDBRANCH  10  11
ENDBRANCH   9  10
ENDBRANCH   8   9
ENDBRANCH   7   8
ENDBRANCH   5   7
ENDBRANCH   4   5
ENDBRANCH   3   4
BRANCH   3  19
HETATM   19  C   UNL     1     -11.824  10.072  70.716  1.00  0.00    -0.435 A  
HETATM   20  C   UNL     1     -12.196  11.266  70.075  1.00  0.00    -0.389 A  
HETATM   21  H   UNL     1      -8.530  11.344  67.601  1.00  0.00     0.000 HD 
HETATM   22  C   UNL     1     -10.603   9.463  70.364  1.00  0.00    -0.316 A  
HETATM   23  H   UNL     1     -11.116  13.367  67.807  1.00  0.00     0.000 HD 
HETATM   24  C   UNL     1     -11.362  11.826  69.114  1.00  0.00    -0.279 A  
HETATM   25  C   UNL     1      -9.770  10.032  69.398  1.00  0.00    -0.240 A  
HETATM   26  O   UNL     1     -11.686  12.984  68.463  1.00  0.00    -0.302 OA 
HETATM   27  C   UNL     1     -10.159  11.209  68.779  1.00  0.00    -0.201 A  
HETATM   28  O   UNL     1      -9.350  11.764  67.829  1.00  0.00    -0.171 OA 
ENDBRANCH   3  19
TORSDOF 8
ENDMDL
MODEL      216
REMARK 921   NORMALIZED FREE ENERGY PREDICTED BY IDOCK:   -4.29 KCAL/MOL
REMARK 922        TOTAL FREE ENERGY PREDICTED BY IDOCK:   -7.50 KCAL/MOL
REMARK 923 INTER-LIGAND FREE ENERGY PREDICTED BY IDOCK:   -6.88 KCAL/MOL
REMARK 924 INTRA-LIGAND FREE ENERGY PREDICTED BY IDOCK:   -0.61 KCAL/MOL
REMARK 927      BINDING AFFINITY PREDICTED BY RF-SCORE:    0.00 PKD
ROOT
HETATM    1  O   UNL     1     -11.689  15.692  67.838  1.00  0.00    -0.262 OA 
HETATM    2  H   UNL     1     -12.598  15.970  67.861  1.00  0.00     0.000 HD 
HETATM    3  C   UNL     1     -11.520  14.539  68.673  1.00  0.00    -0.293 C  
ENDROOT
BRANCH   3   4
HETATM    4  C   UNL     1     -10.041  14.086  68.634  1.00  0.00    -0.217 C  
BRANCH   4   5
HETATM    5  N   UNL     1      -9.919  12.614  68.550  1.00  0.00    -0.338 NA 
HETATM    6  H   UNL     1      -9.407  12.227  69.343  1.00  0.00     0.000 HD 
BRANCH   5   7
HETATM    7  C   UNL     1     -11.246  12.006  68.403  1.00  0.00    -0.262 C  
BRANCH   7   8
HETATM    8  C   UNL     1     -11.211  10.923  67.321  1.00  0.00    -0.307 C  
BRANCH   8   9
HETATM    9  C   UNL     1     -10.731  11.504  65.990  1.00  0.00    -0.332 C  
BRANCH   9  10
HETATM   10  C   UNL     1     -10.254  10.410  65.031  1.00  0.00    -0.334 C  
BRANCH  10  11
HETATM   11  C   UNL     1      -9.155   9.586  65.657  1.00  0.00    -0.250 A  
HETATM   12  C   UNL     1      -9.340   8.216  65.894  1.00  0.00    -0.126 A  
HETATM   13  C   UNL     1      -8.346   7.463  66.522  1.00  0.00    -0.124 A  
HETATM   14  C   UNL     1      -7.165   8.083  66.917  1.00  0.00    -0.082 A  
HETATM   15  O   UNL     1      -6.176   7.390  67.550  1.00  0.00    -0.044 OA 
HETATM   16  C   UNL     1      -6.960   9.436  66.684  1.00  0.00    -0.081 A  
HETATM   17  H   UNL     1      -5.370   7.814  67.820  1.00  0.00     0.000 HD 
HETATM   18  C   UNL     1      -7.955  10.189  66.056  1.00  0.00    -0.124 A  
ENDBRANCH  10  11
ENDBRANCH   9  10
ENDBRANCH   8   9
ENDBRANCH   7   8
ENDBRANCH   5   7
ENDBRANCH   4   5
ENDBRANCH   3   4
BRANCH   3  19
HETATM   19  C   UNL     1     -11.963  14.856  70.087  1.00  0.00    -0.368 A  
HETATM   20  C   UNL     1     -12.973  14.114  70.723  1.00  0.00    -0.337 A  
HETATM   21  H   UNL     1     -12.796  16.584  74.388  1.00  0.00     0.000 HD 
HETATM   22  C   UNL     1     -11.379  15.938  70.776  1.00  0.00    -0.424 A  
HETATM   23  H   UNL     1     -14.635  13.989  73.542  1.00  0.00     0.000 HD 
HETATM   24  C   UNL     1     -13.377  14.452  72.009  1.00  0.00    -0.384 A  
HETATM   25  C   UNL     1     -11.790  16.271  72.069  1.00  0.00    -0.568 A  
HETATM   26  O   UNL     1     -14.359  13.759  72.663  1.00  0.00    -0.678 OA 
HETATM   27  C   UNL     1     -12.789  15.525  72.674  1.00  0.00    -0.425 A  
HETATM   28  O   UNL     1     -13.198  15.852  73.935  1.00  0.00    -0.524 OA 
ENDBRANCH   3  19
TORSDOF 8
ENDMDL
MODEL      217
REMARK 921   NORMALIZED FREE ENERGY PREDICTED BY IDOCK:   -4.29 KCAL/MOL
REMARK 922        TOTAL FREE ENERGY PREDICTED BY IDOCK:   -7.49 KCAL/MOL
REMARK 923 INTER-LIGAND FREE ENERGY PREDICTED BY IDOCK:   -6.11 KCAL/MOL
REMARK 924 INTRA-LIGAND FREE ENERGY PREDICTED BY IDOCK:   -1.39 KCAL/MOL
REMARK 927      BINDING AFFINITY PREDICTED BY RF-SCORE:    0.00 PKD
ROOT
HETATM    1  O   UNL     1      -6.710  17.164  66.397  1.00  0.00    -0.230 OA 
HETATM    2  H   UNL     1      -6.230  16.569  65.832  1.00  0.00     0.000 HD 
HETATM    3  C   UNL     1      -6.246  17.024  67.746  1.00  0.00    -0.139 C  
ENDROOT
BRANCH   3   4
HETATM    4  C   UNL     1      -7.027  17.993  68.664  1.00  0.00    -0.260 C  
BRANCH   4   5
HETATM    5  N   UNL     1      -8.260  18.492  68.016  1.00  0.00    -0.262 NA 
HETATM    6  H   UNL     1      -8.186  18.486  66.998  1.00  0.00     0.000 HD 
BRANCH   5   7
HETATM    7  C   UNL     1      -9.421  17.727  68.487  1.00  0.00    -0.304 C  
BRANCH   7   8
HETATM    8  C   UNL     1     -10.556  17.812  67.463  1.00  0.00    -0.365 C  
BRANCH   8   9
HETATM    9  C   UNL     1     -10.402  16.728  66.394  1.00  0.00    -0.309 C  
BRANCH   9  10
HETATM   10  C   UNL     1     -10.361  15.326  67.008  1.00  0.00    -0.277 C  
BRANCH  10  11
HETATM   11  C   UNL     1     -10.850  14.292  66.023  1.00  0.00    -0.303 A  
HETATM   12  C   UNL     1     -10.183  13.065  65.889  1.00  0.00    -0.298 A  
HETATM   13  C   UNL     1     -10.602  12.129  64.942  1.00  0.00    -0.332 A  
HETATM   14  C   UNL     1     -11.688  12.422  64.124  1.00  0.00    -0.400 A  
HETATM   15  O   UNL     1     -12.119  11.545  63.173  1.00  0.00    -0.925 OA 
HETATM   16  C   UNL     1     -12.366  13.628  64.247  1.00  0.00    -0.388 A  
HETATM   17  H   UNL     1     -12.860  11.746  62.614  1.00  0.00     0.000 HD 
HETATM   18  C   UNL     1     -11.947  14.563  65.194  1.00  0.00    -0.369 A  
ENDBRANCH  10  11
ENDBRANCH   9  10
ENDBRANCH   8   9
ENDBRANCH   7   8
ENDBRANCH   5   7
ENDBRANCH   4   5
ENDBRANCH   3   4
BRANCH   3  19
HETATM   19  C   UNL     1      -6.404  15.586  68.200  1.00  0.00    -0.133 A  
HETATM   20  C   UNL     1      -5.991  15.172  69.477  1.00  0.00    -0.114 A  
HETATM   21  H   UNL     1      -7.142  10.966  68.734  1.00  0.00     0.000 HD 
HETATM   22  C   UNL     1      -6.945  14.631  67.318  1.00  0.00     0.019 A  
HETATM   23  H   UNL     1      -5.819  12.482  71.338  1.00  0.00     0.000 HD 
HETATM   24  C   UNL     1      -6.121  13.840  69.850  1.00  0.00    -0.140 A  
HETATM   25  C   UNL     1      -7.074  13.293  67.699  1.00  0.00    -0.163 A  
HETATM   26  O   UNL     1      -5.729  13.393  71.082  1.00  0.00    -0.202 OA 
HETATM   27  C   UNL     1      -6.658  12.909  68.964  1.00  0.00    -0.102 A  
HETATM   28  O   UNL     1      -6.776  11.601  69.338  1.00  0.00    -0.111 OA 
ENDBRANCH   3  19
TORSDOF 8
ENDMDL
MODEL      218
REMARK 921   NORMALIZED FREE ENERGY PREDICTED BY IDOCK:   -4.28 KCAL/MOL
REMARK 922        TOTAL FREE ENERGY PREDICTED BY IDOCK:   -7.49 KCAL/MOL
REMARK 923 INTER-LIGAND FREE ENERGY PREDICTED BY IDOCK:   -7.12 KCAL/MOL
REMARK 924 INTRA-LIGAND FREE ENERGY PREDICTED BY IDOCK:   -0.37 KCAL/MOL
REMARK 927      BINDING AFFINITY PREDICTED BY RF-SCORE:    0.00 PKD
ROOT
HETATM    1  O   UNL     1      -9.375   6.050  70.972  1.00  0.00    -0.159 OA 
HETATM    2  H   UNL     1      -8.768   5.321  70.910  1.00  0.00     0.000 HD 
HETATM    3  C   UNL     1     -10.578   5.733  70.261  1.00  0.00    -0.299 C  
ENDROOT
BRANCH   3   4
HETATM    4  C   UNL     1     -11.566   6.920  70.363  1.00  0.00    -0.335 C  
BRANCH   4   5
HETATM    5  N   UNL     1     -10.863   8.222  70.366  1.00  0.00    -0.234 NA 
HETATM    6  H   UNL     1     -10.807   8.628  69.431  1.00  0.00     0.000 HD 
BRANCH   5   7
HETATM    7  C   UNL     1     -11.496   9.135  71.324  1.00  0.00    -0.335 C  
BRANCH   7   8
HETATM    8  C   UNL     1     -11.218  10.587  70.928  1.00  0.00    -0.067 C  
BRANCH   8   9
HETATM    9  C   UNL     1     -12.527  11.333  70.656  1.00  0.00    -0.439 C  
BRANCH   9  10
HETATM   10  C   UNL     1     -12.276  12.749  70.133  1.00  0.00    -0.320 C  
BRANCH  10  11
HETATM   11  C   UNL     1     -12.520  13.774  71.214  1.00  0.00    -0.428 A  
HETATM   12  C   UNL     1     -11.660  14.872  71.362  1.00  0.00    -0.362 A  
HETATM   13  C   UNL     1     -11.853  15.792  72.394  1.00  0.00    -0.606 A  
HETATM   14  C   UNL     1     -12.908  15.611  73.283  1.00  0.00    -0.527 A  
HETATM   15  O   UNL     1     -13.122  16.474  74.317  1.00  0.00    -0.865 OA 
HETATM   16  C   UNL     1     -13.775  14.535  73.148  1.00  0.00     0.099 A  
HETATM   17  H   UNL     1     -13.842  16.350  74.923  1.00  0.00     0.000 HD 
HETATM   18  C   UNL     1     -13.581  13.616  72.116  1.00  0.00    -0.632 A  
ENDBRANCH  10  11
ENDBRANCH   9  10
ENDBRANCH   8   9
ENDBRANCH   7   8
ENDBRANCH   5   7
ENDBRANCH   4   5
ENDBRANCH   3   4
BRANCH   3  19
HETATM   19  C   UNL     1     -10.255   5.408  68.817  1.00  0.00    -0.252 A  
HETATM   20  C   UNL     1      -9.379   4.361  68.480  1.00  0.00    -0.203 A  
HETATM   21  H   UNL     1      -9.713   5.174  64.145  1.00  0.00     0.000 HD 
HETATM   22  C   UNL     1     -10.811   6.187  67.783  1.00  0.00    -0.413 A  
HETATM   23  H   UNL     1      -8.025   2.932  65.863  1.00  0.00     0.000 HD 
HETATM   24  C   UNL     1      -9.079   4.110  67.147  1.00  0.00    -0.143 A  
HETATM   25  C   UNL     1     -10.505   5.928  66.445  1.00  0.00    -0.178 A  
HETATM   26  O   UNL     1      -8.230   3.104  66.774  1.00  0.00    -0.086 OA 
HETATM   27  C   UNL     1      -9.638   4.892  66.139  1.00  0.00    -0.175 A  
HETATM   28  O   UNL     1      -9.331   4.641  64.832  1.00  0.00    -0.155 OA 
ENDBRANCH   3  19
TORSDOF 8
ENDMDL
MODEL      219
REMARK 921   NORMALIZED FREE ENERGY PREDICTED BY IDOCK:   -4.27 KCAL/MOL
REMARK 922        TOTAL FREE ENERGY PREDICTED BY IDOCK:   -7.47 KCAL/MOL
REMARK 923 INTER-LIGAND FREE ENERGY PREDICTED BY IDOCK:   -6.09 KCAL/MOL
REMARK 924 INTRA-LIGAND FREE ENERGY PREDICTED BY IDOCK:   -1.38 KCAL/MOL
REMARK 927      BINDING AFFINITY PREDICTED BY RF-SCORE:    0.00 PKD
ROOT
HETATM    1  O   UNL     1     -10.024  17.712  65.585  1.00  0.00    -0.558 OA 
HETATM    2  H   UNL     1      -9.617  18.526  65.859  1.00  0.00     0.000 HD 
HETATM    3  C   UNL     1     -10.459  16.983  66.740  1.00  0.00    -0.257 C  
ENDROOT
BRANCH   3   4
HETATM    4  C   UNL     1     -11.122  15.658  66.294  1.00  0.00    -0.127 C  
BRANCH   4   5
HETATM    5  N   UNL     1     -10.953  15.419  64.843  1.00  0.00    -0.513 NA 
HETATM    6  H   UNL     1      -9.995  15.158  64.608  1.00  0.00     0.000 HD 
BRANCH   5   7
HETATM    7  C   UNL     1     -11.924  14.422  64.379  1.00  0.00    -0.452 C  
BRANCH   7   8
HETATM    8  C   UNL     1     -12.636  13.786  65.576  1.00  0.00    -0.551 C  
BRANCH   8   9
HETATM    9  C   UNL     1     -12.025  12.422  65.906  1.00  0.00    -0.434 C  
BRANCH   9  10
HETATM   10  C   UNL     1     -11.644  12.313  67.385  1.00  0.00    -0.425 C  
BRANCH  10  11
HETATM   11  C   UNL     1     -10.210  11.866  67.541  1.00  0.00    -0.212 A  
HETATM   12  C   UNL     1      -9.297  12.023  66.487  1.00  0.00    -0.226 A  
HETATM   13  C   UNL     1      -7.985  11.561  66.610  1.00  0.00    -0.127 A  
HETATM   14  C   UNL     1      -7.587  10.939  67.789  1.00  0.00    -0.095 A  
HETATM   15  O   UNL     1      -6.321  10.456  67.945  1.00  0.00    -0.059 OA 
HETATM   16  C   UNL     1      -8.473  10.781  68.845  1.00  0.00    -0.149 A  
HETATM   17  H   UNL     1      -6.049  10.031  68.749  1.00  0.00     0.000 HD 
HETATM   18  C   UNL     1      -9.785  11.242  68.722  1.00  0.00    -0.184 A  
ENDBRANCH  10  11
ENDBRANCH   9  10
ENDBRANCH   8   9
ENDBRANCH   7   8
ENDBRANCH   5   7
ENDBRANCH   4   5
ENDBRANCH   3   4
BRANCH   3  19
HETATM   19  C   UNL     1      -9.285  16.728  67.663  1.00  0.00    -0.223 A  
HETATM   20  C   UNL     1      -8.304  17.709  67.888  1.00  0.00    -0.235 A  
HETATM   21  H   UNL     1      -5.951  15.068  70.545  1.00  0.00     0.000 HD 
HETATM   22  C   UNL     1      -9.146  15.472  68.287  1.00  0.00    -0.186 A  
HETATM   23  H   UNL     1      -5.505  18.165  69.527  1.00  0.00     0.000 HD 
HETATM   24  C   UNL     1      -7.222  17.431  68.716  1.00  0.00    -0.249 A  
HETATM   25  C   UNL     1      -8.057  15.200  69.118  1.00  0.00    -0.214 A  
HETATM   26  O   UNL     1      -6.244  18.354  68.961  1.00  0.00    -0.216 OA 
HETATM   27  C   UNL     1      -7.102  16.183  69.323  1.00  0.00    -0.220 A  
HETATM   28  O   UNL     1      -6.032  15.918  70.130  1.00  0.00    -0.173 OA 
ENDBRANCH   3  19
TORSDOF 8
ENDMDL
MODEL      220
REMARK 921   NORMALIZED FREE ENERGY PREDICTED BY IDOCK:   -4.25 KCAL/MOL
REMARK 922        TOTAL FREE ENERGY PREDICTED BY IDOCK:   -7.44 KCAL/MOL
REMARK 923 INTER-LIGAND FREE ENERGY PREDICTED BY IDOCK:   -6.85 KCAL/MOL
REMARK 924 INTRA-LIGAND FREE ENERGY PREDICTED BY IDOCK:   -0.58 KCAL/MOL
REMARK 927      BINDING AFFINITY PREDICTED BY RF-SCORE:    0.00 PKD
ROOT
HETATM    1  O   UNL     1      -9.023  11.920  67.334  1.00  0.00    -0.163 OA 
HETATM    2  H   UNL     1      -8.611  11.856  66.480  1.00  0.00     0.000 HD 
HETATM    3  C   UNL     1     -10.440  11.756  67.195  1.00  0.00    -0.220 C  
ENDROOT
BRANCH   3   4
HETATM    4  C   UNL     1     -11.111  11.861  68.586  1.00  0.00    -0.246 C  
BRANCH   4   5
HETATM    5  N   UNL     1     -11.818  10.614  68.951  1.00  0.00    -0.603 NA 
HETATM    6  H   UNL     1     -12.431  10.289  68.203  1.00  0.00     0.000 HD 
BRANCH   5   7
HETATM    7  C   UNL     1     -10.852   9.586  69.354  1.00  0.00    -0.206 C  
BRANCH   7   8
HETATM    8  C   UNL     1     -11.187   9.070  70.756  1.00  0.00    -0.329 C  
BRANCH   8   9
HETATM    9  C   UNL     1     -10.390   7.802  71.070  1.00  0.00    -0.215 C  
BRANCH   9  10
HETATM   10  C   UNL     1     -10.941   6.584  70.325  1.00  0.00    -0.365 C  
BRANCH  10  11
HETATM   11  C   UNL     1     -10.103   6.271  69.109  1.00  0.00    -0.204 A  
HETATM   12  C   UNL     1     -10.712   6.021  67.870  1.00  0.00    -0.363 A  
HETATM   13  C   UNL     1      -9.941   5.678  66.757  1.00  0.00    -0.207 A  
HETATM   14  C   UNL     1      -8.559   5.583  66.884  1.00  0.00    -0.110 A  
HETATM   15  O   UNL     1      -7.771   5.233  65.828  1.00  0.00    -0.088 OA 
HETATM   16  C   UNL     1      -7.938   5.834  68.100  1.00  0.00    -0.104 A  
HETATM   17  H   UNL     1      -6.828   5.167  65.915  1.00  0.00     0.000 HD 
HETATM   18  C   UNL     1      -8.709   6.176  69.213  1.00  0.00    -0.122 A  
ENDBRANCH  10  11
ENDBRANCH   9  10
ENDBRANCH   8   9
ENDBRANCH   7   8
ENDBRANCH   5   7
ENDBRANCH   4   5
ENDBRANCH   3   4
BRANCH   3  19
HETATM   19  C   UNL     1     -10.990  12.795  66.239  1.00  0.00    -0.307 A  
HETATM   20  C   UNL     1     -10.443  14.088  66.168  1.00  0.00    -0.297 A  
HETATM   21  H   UNL     1     -13.365  15.402  63.118  1.00  0.00     0.000 HD 
HETATM   22  C   UNL     1     -12.094  12.479  65.423  1.00  0.00    -0.494 A  
HETATM   23  H   UNL     1     -10.868  16.938  64.612  1.00  0.00     0.000 HD 
HETATM   24  C   UNL     1     -10.992  15.027  65.303  1.00  0.00    -0.382 A  
HETATM   25  C   UNL     1     -12.640  13.427  64.555  1.00  0.00    -0.286 A  
HETATM   26  O   UNL     1     -10.493  16.297  65.204  1.00  0.00    -0.591 OA 
HETATM   27  C   UNL     1     -12.085  14.696  64.505  1.00  0.00    -0.475 A  
HETATM   28  O   UNL     1     -12.620  15.628  63.662  1.00  0.00    -0.476 OA 
ENDBRANCH   3  19
TORSDOF 8
ENDMDL
MODEL      221
REMARK 921   NORMALIZED FREE ENERGY PREDICTED BY IDOCK:   -4.22 KCAL/MOL
REMARK 922        TOTAL FREE ENERGY PREDICTED BY IDOCK:   -7.40 KCAL/MOL
REMARK 923 INTER-LIGAND FREE ENERGY PREDICTED BY IDOCK:   -6.53 KCAL/MOL
REMARK 924 INTRA-LIGAND FREE ENERGY PREDICTED BY IDOCK:   -0.87 KCAL/MOL
REMARK 927      BINDING AFFINITY PREDICTED BY RF-SCORE:    0.00 PKD
ROOT
HETATM    1  O   UNL     1      -6.923   5.809  71.219  1.00  0.00    -0.063 OA 
HETATM    2  H   UNL     1      -6.867   4.876  71.045  1.00  0.00     0.000 HD 
HETATM    3  C   UNL     1      -8.296   6.220  71.184  1.00  0.00    -0.124 C  
ENDROOT
BRANCH   3   4
HETATM    4  C   UNL     1      -8.387   7.739  71.468  1.00  0.00    -0.109 C  
BRANCH   4   5
HETATM    5  N   UNL     1      -9.407   8.046  72.494  1.00  0.00    -0.198 NA 
HETATM    6  H   UNL     1      -8.989   8.407  73.352  1.00  0.00     0.000 HD 
BRANCH   5   7
HETATM    7  C   UNL     1     -10.414   8.963  71.946  1.00  0.00    -0.345 C  
BRANCH   7   8
HETATM    8  C   UNL     1     -11.797   8.307  71.984  1.00  0.00    -0.408 C  
BRANCH   8   9
HETATM    9  C   UNL     1     -12.845   9.220  71.342  1.00  0.00    -0.398 C  
BRANCH   9  10
HETATM   10  C   UNL     1     -13.215  10.391  72.256  1.00  0.00    -0.285 C  
BRANCH  10  11
HETATM   11  C   UNL     1     -12.918  11.711  71.587  1.00  0.00    -0.483 A  
HETATM   12  C   UNL     1     -13.326  12.916  72.179  1.00  0.00    -0.615 A  
HETATM   13  C   UNL     1     -13.100  14.135  71.536  1.00  0.00    -0.424 A  
HETATM   14  C   UNL     1     -12.468  14.148  70.297  1.00  0.00    -0.353 A  
HETATM   15  O   UNL     1     -12.245  15.313  69.625  1.00  0.00    -0.441 OA 
HETATM   16  C   UNL     1     -12.050  12.966  69.699  1.00  0.00    -0.290 A  
HETATM   17  H   UNL     1     -11.814  15.322  68.779  1.00  0.00     0.000 HD 
HETATM   18  C   UNL     1     -12.277  11.748  70.342  1.00  0.00    -0.416 A  
ENDBRANCH  10  11
ENDBRANCH   9  10
ENDBRANCH   8   9
ENDBRANCH   7   8
ENDBRANCH   5   7
ENDBRANCH   4   5
ENDBRANCH   3   4
BRANCH   3  19
HETATM   19  C   UNL     1      -8.905   5.873  69.841  1.00  0.00    -0.130 A  
HETATM   20  C   UNL     1      -9.515   6.852  69.038  1.00  0.00    -0.137 A  
HETATM   21  H   UNL     1     -10.639   3.920  65.922  1.00  0.00     0.000 HD 
HETATM   22  C   UNL     1      -8.897   4.537  69.395  1.00  0.00    -0.129 A  
HETATM   23  H   UNL     1     -11.093   7.169  66.186  1.00  0.00     0.000 HD 
HETATM   24  C   UNL     1     -10.093   6.494  67.826  1.00  0.00    -0.148 A  
HETATM   25  C   UNL     1      -9.479   4.184  68.175  1.00  0.00    -0.215 A  
HETATM   26  O   UNL     1     -10.698   7.414  67.014  1.00  0.00    -0.340 OA 
HETATM   27  C   UNL     1     -10.075   5.167  67.402  1.00  0.00    -0.179 A  
HETATM   28  O   UNL     1     -10.652   4.825  66.212  1.00  0.00    -0.301 OA 
ENDBRANCH   3  19
TORSDOF 8
ENDMDL
MODEL      222
REMARK 921   NORMALIZED FREE ENERGY PREDICTED BY IDOCK:   -4.22 KCAL/MOL
REMARK 922        TOTAL FREE ENERGY PREDICTED BY IDOCK:   -7.40 KCAL/MOL
REMARK 923 INTER-LIGAND FREE ENERGY PREDICTED BY IDOCK:   -6.80 KCAL/MOL
REMARK 924 INTRA-LIGAND FREE ENERGY PREDICTED BY IDOCK:   -0.60 KCAL/MOL
REMARK 927      BINDING AFFINITY PREDICTED BY RF-SCORE:    0.00 PKD
ROOT
HETATM    1  O   UNL     1     -12.030  10.572  68.236  1.00  0.00    -0.790 OA 
HETATM    2  H   UNL     1     -12.625   9.931  67.864  1.00  0.00     0.000 HD 
HETATM    3  C   UNL     1     -10.879  10.703  67.393  1.00  0.00    -0.296 C  
ENDROOT
BRANCH   3   4
HETATM    4  C   UNL     1      -9.911  11.747  67.999  1.00  0.00    -0.183 C  
BRANCH   4   5
HETATM    5  N   UNL     1      -9.211  12.522  66.951  1.00  0.00    -0.206 NA 
HETATM    6  H   UNL     1      -9.731  12.533  66.073  1.00  0.00     0.000 HD 
BRANCH   5   7
HETATM    7  C   UNL     1      -8.922  13.877  67.434  1.00  0.00    -0.210 C  
BRANCH   7   8
HETATM    8  C   UNL     1      -9.719  14.905  66.627  1.00  0.00    -0.276 C  
BRANCH   8   9
HETATM    9  C   UNL     1     -10.712  15.645  67.525  1.00  0.00    -0.303 C  
BRANCH   9  10
HETATM   10  C   UNL     1     -10.007  16.384  68.665  1.00  0.00    -0.235 C  
BRANCH  10  11
HETATM   11  C   UNL     1      -9.444  17.701  68.188  1.00  0.00    -0.286 A  
HETATM   12  C   UNL     1     -10.166  18.499  67.288  1.00  0.00    -0.400 A  
HETATM   13  C   UNL     1      -9.625  19.691  66.803  1.00  0.00    -0.474 A  
HETATM   14  C   UNL     1      -8.356  20.085  67.218  1.00  0.00    -0.332 A  
HETATM   15  O   UNL     1      -7.782  21.232  66.756  1.00  0.00    -0.645 OA 
HETATM   16  C   UNL     1      -7.630  19.313  68.115  1.00  0.00    -0.325 A  
HETATM   17  H   UNL     1      -6.916  21.500  67.039  1.00  0.00     0.000 HD 
HETATM   18  C   UNL     1      -8.172  18.120  68.598  1.00  0.00    -0.295 A  
ENDBRANCH  10  11
ENDBRANCH   9  10
ENDBRANCH   8   9
ENDBRANCH   7   8
ENDBRANCH   5   7
ENDBRANCH   4   5
ENDBRANCH   3   4
BRANCH   3  19
HETATM   19  C   UNL     1     -10.204   9.357  67.227  1.00  0.00    -0.308 A  
HETATM   20  C   UNL     1      -9.403   9.072  66.107  1.00  0.00    -0.294 A  
HETATM   21  H   UNL     1      -8.610   4.930  67.445  1.00  0.00     0.000 HD 
HETATM   22  C   UNL     1     -10.404   8.351  68.192  1.00  0.00    -0.255 A  
HETATM   23  H   UNL     1      -7.645   6.636  64.802  1.00  0.00     0.000 HD 
HETATM   24  C   UNL     1      -8.824   7.816  65.970  1.00  0.00    -0.157 A  
HETATM   25  C   UNL     1      -9.819   7.091  68.048  1.00  0.00    -0.156 A  
HETATM   26  O   UNL     1      -8.041   7.495  64.896  1.00  0.00    -0.131 OA 
HETATM   27  C   UNL     1      -9.035   6.833  66.935  1.00  0.00    -0.128 A  
HETATM   28  O   UNL     1      -8.467   5.600  66.787  1.00  0.00    -0.112 OA 
ENDBRANCH   3  19
TORSDOF 8
ENDMDL
MODEL      223
REMARK 921   NORMALIZED FREE ENERGY PREDICTED BY IDOCK:   -4.21 KCAL/MOL
REMARK 922        TOTAL FREE ENERGY PREDICTED BY IDOCK:   -7.38 KCAL/MOL
REMARK 923 INTER-LIGAND FREE ENERGY PREDICTED BY IDOCK:   -5.65 KCAL/MOL
REMARK 924 INTRA-LIGAND FREE ENERGY PREDICTED BY IDOCK:   -1.74 KCAL/MOL
REMARK 927      BINDING AFFINITY PREDICTED BY RF-SCORE:    0.00 PKD
ROOT
HETATM    1  O   UNL     1      -6.913   8.064  71.037  1.00  0.00    -0.047 OA 
HETATM    2  H   UNL     1      -7.115   8.039  71.966  1.00  0.00     0.000 HD 
HETATM    3  C   UNL     1      -7.435   9.270  70.466  1.00  0.00    -0.130 C  
ENDROOT
BRANCH   3   4
HETATM    4  C   UNL     1      -7.106   9.310  68.954  1.00  0.00    -0.068 C  
BRANCH   4   5
HETATM    5  N   UNL     1      -7.762   8.206  68.220  1.00  0.00    -0.111 NA 
HETATM    6  H   UNL     1      -8.643   7.928  68.654  1.00  0.00     0.000 HD 
BRANCH   5   7
HETATM    7  C   UNL     1      -7.936   8.572  66.810  1.00  0.00    -0.094 C  
BRANCH   7   8
HETATM    8  C   UNL     1      -9.342   8.191  66.337  1.00  0.00    -0.269 C  
BRANCH   8   9
HETATM    9  C   UNL     1     -10.156   9.442  65.999  1.00  0.00    -0.302 C  
BRANCH   9  10
HETATM   10  C   UNL     1      -9.264  10.678  65.855  1.00  0.00    -0.209 C  
BRANCH  10  11
HETATM   11  C   UNL     1      -9.743  11.795  66.750  1.00  0.00    -0.213 A  
HETATM   12  C   UNL     1      -8.832  12.525  67.528  1.00  0.00    -0.184 A  
HETATM   13  C   UNL     1      -9.279  13.523  68.396  1.00  0.00    -0.159 A  
HETATM   14  C   UNL     1     -10.641  13.789  68.489  1.00  0.00    -0.253 A  
HETATM   15  O   UNL     1     -11.123  14.741  69.338  1.00  0.00    -0.261 OA 
HETATM   16  C   UNL     1     -11.558  13.083  67.722  1.00  0.00    -0.385 A  
HETATM   17  H   UNL     1     -12.053  14.922  69.402  1.00  0.00     0.000 HD 
HETATM   18  C   UNL     1     -11.110  12.085  66.854  1.00  0.00    -0.352 A  
ENDBRANCH  10  11
ENDBRANCH   9  10
ENDBRANCH   8   9
ENDBRANCH   7   8
ENDBRANCH   5   7
ENDBRANCH   4   5
ENDBRANCH   3   4
BRANCH   3  19
HETATM   19  C   UNL     1      -8.929   9.351  70.707  1.00  0.00    -0.254 A  
HETATM   20  C   UNL     1      -9.548   8.611  71.730  1.00  0.00    -0.360 A  
HETATM   21  H   UNL     1     -13.580  10.092  70.673  1.00  0.00     0.000 HD 
HETATM   22  C   UNL     1      -9.729  10.156  69.873  1.00  0.00    -0.195 A  
HETATM   23  H   UNL     1     -12.509   8.029  73.002  1.00  0.00     0.000 HD 
HETATM   24  C   UNL     1     -10.925   8.684  71.903  1.00  0.00    -0.342 A  
HETATM   25  C   UNL     1     -11.112  10.225  70.053  1.00  0.00    -0.373 A  
HETATM   26  O   UNL     1     -11.568   7.979  72.883  1.00  0.00    -0.397 OA 
HETATM   27  C   UNL     1     -11.699   9.485  71.067  1.00  0.00    -0.343 A  
HETATM   28  O   UNL     1     -13.052   9.545  71.242  1.00  0.00    -0.345 OA 
ENDBRANCH   3  19
TORSDOF 8
ENDMDL
MODEL      224
REMARK 921   NORMALIZED FREE ENERGY PREDICTED BY IDOCK:   -4.21 KCAL/MOL
REMARK 922        TOTAL FREE ENERGY PREDICTED BY IDOCK:   -7.38 KCAL/MOL
REMARK 923 INTER-LIGAND FREE ENERGY PREDICTED BY IDOCK:   -6.52 KCAL/MOL
REMARK 924 INTRA-LIGAND FREE ENERGY PREDICTED BY IDOCK:   -0.86 KCAL/MOL
REMARK 927      BINDING AFFINITY PREDICTED BY RF-SCORE:    0.00 PKD
ROOT
HETATM    1  O   UNL     1     -13.365  13.000  65.003  1.00  0.00    -0.671 OA 
HETATM    2  H   UNL     1     -13.349  13.013  64.052  1.00  0.00     0.000 HD 
HETATM    3  C   UNL     1     -12.038  13.203  65.505  1.00  0.00    -0.442 C  
ENDROOT
BRANCH   3   4
HETATM    4  C   UNL     1     -12.063  13.183  67.052  1.00  0.00    -0.307 C  
BRANCH   4   5
HETATM    5  N   UNL     1     -12.529  14.471  67.612  1.00  0.00    -0.514 NA 
HETATM    6  H   UNL     1     -13.530  14.608  67.474  1.00  0.00     0.000 HD 
BRANCH   5   7
HETATM    7  C   UNL     1     -12.150  14.572  69.026  1.00  0.00    -0.251 C  
BRANCH   7   8
HETATM    8  C   UNL     1     -10.894  15.436  69.173  1.00  0.00    -0.249 C  
BRANCH   8   9
HETATM    9  C   UNL     1     -10.879  16.550  68.124  1.00  0.00    -0.345 C  
BRANCH   9  10
HETATM   10  C   UNL     1      -9.594  16.530  67.291  1.00  0.00    -0.242 C  
BRANCH  10  11
HETATM   11  C   UNL     1      -8.673  15.425  67.749  1.00  0.00    -0.167 A  
HETATM   12  C   UNL     1      -7.811  15.622  68.838  1.00  0.00    -0.186 A  
HETATM   13  C   UNL     1      -6.919  14.621  69.228  1.00  0.00    -0.147 A  
HETATM   14  C   UNL     1      -6.888  13.420  68.525  1.00  0.00    -0.099 A  
HETATM   15  O   UNL     1      -6.021  12.423  68.860  1.00  0.00    -0.063 OA 
HETATM   16  C   UNL     1      -7.739  13.203  67.450  1.00  0.00    -0.151 A  
HETATM   17  H   UNL     1      -5.999  11.604  68.380  1.00  0.00     0.000 HD 
HETATM   18  C   UNL     1      -8.630  14.205  67.060  1.00  0.00    -0.204 A  
ENDBRANCH  10  11
ENDBRANCH   9  10
ENDBRANCH   8   9
ENDBRANCH   7   8
ENDBRANCH   5   7
ENDBRANCH   4   5
ENDBRANCH   3   4
BRANCH   3  19
HETATM   19  C   UNL     1     -11.108  12.140  64.955  1.00  0.00    -0.367 A  
HETATM   20  C   UNL     1     -10.547  11.156  65.787  1.00  0.00    -0.289 A  
HETATM   21  H   UNL     1      -8.257   9.335  62.469  1.00  0.00     0.000 HD 
HETATM   22  C   UNL     1     -10.766  12.151  63.589  1.00  0.00    -0.518 A  
HETATM   23  H   UNL     1      -8.504   8.599  65.666  1.00  0.00     0.000 HD 
HETATM   24  C   UNL     1      -9.673  10.215  65.256  1.00  0.00    -0.300 A  
HETATM   25  C   UNL     1      -9.887  11.202  63.062  1.00  0.00    -0.368 A  
HETATM   26  O   UNL     1      -9.102   9.242  66.029  1.00  0.00    -0.161 OA 
HETATM   27  C   UNL     1      -9.345  10.243  63.902  1.00  0.00    -0.291 A  
HETATM   28  O   UNL     1      -8.480   9.317  63.392  1.00  0.00    -0.184 OA 
ENDBRANCH   3  19
TORSDOF 8
ENDMDL
MODEL      225
REMARK 921   NORMALIZED FREE ENERGY PREDICTED BY IDOCK:   -4.20 KCAL/MOL
REMARK 922        TOTAL FREE ENERGY PREDICTED BY IDOCK:   -7.37 KCAL/MOL
REMARK 923 INTER-LIGAND FREE ENERGY PREDICTED BY IDOCK:   -6.22 KCAL/MOL
REMARK 924 INTRA-LIGAND FREE ENERGY PREDICTED BY IDOCK:   -1.15 KCAL/MOL
REMARK 927      BINDING AFFINITY PREDICTED BY RF-SCORE:    0.00 PKD
ROOT
HETATM    1  O   UNL     1      -7.282  10.690  70.468  1.00  0.00    -0.463 OA 
HETATM    2  H   UNL     1      -7.914  11.028  71.092  1.00  0.00     0.000 HD 
HETATM    3  C   UNL     1      -7.950  10.350  69.246  1.00  0.00    -0.157 C  
ENDROOT
BRANCH   3   4
HETATM    4  C   UNL     1      -6.920   9.801  68.230  1.00  0.00    -0.073 C  
BRANCH   4   5
HETATM    5  N   UNL     1      -6.626  10.780  67.161  1.00  0.00    -0.074 NA 
HETATM    6  H   UNL     1      -6.025  10.386  66.437  1.00  0.00     0.000 HD 
BRANCH   5   7
HETATM    7  C   UNL     1      -7.877  11.312  66.607  1.00  0.00    -0.152 C  
BRANCH   7   8
HETATM    8  C   UNL     1      -8.480  10.312  65.616  1.00  0.00    -0.165 C  
BRANCH   8   9
HETATM    9  C   UNL     1      -9.175  11.044  64.466  1.00  0.00    -0.185 C  
BRANCH   9  10
HETATM   10  C   UNL     1     -10.692  11.104  64.666  1.00  0.00    -0.350 C  
BRANCH  10  11
HETATM   11  C   UNL     1     -11.074  12.266  65.550  1.00  0.00    -0.348 A  
HETATM   12  C   UNL     1     -10.784  13.583  65.161  1.00  0.00    -0.349 A  
HETATM   13  C   UNL     1     -11.088  14.655  66.003  1.00  0.00    -0.332 A  
HETATM   14  C   UNL     1     -11.680  14.409  67.237  1.00  0.00    -0.404 A  
HETATM   15  O   UNL     1     -11.976  15.425  68.098  1.00  0.00    -0.471 OA 
HETATM   16  C   UNL     1     -11.982  13.114  67.637  1.00  0.00    -0.363 A  
HETATM   17  H   UNL     1     -12.380  15.257  68.941  1.00  0.00     0.000 HD 
HETATM   18  C   UNL     1     -11.677  12.043  66.795  1.00  0.00    -0.339 A  
ENDBRANCH  10  11
ENDBRANCH   9  10
ENDBRANCH   8   9
ENDBRANCH   7   8
ENDBRANCH   5   7
ENDBRANCH   4   5
ENDBRANCH   3   4
BRANCH   3  19
HETATM   19  C   UNL     1      -9.047   9.341  69.520  1.00  0.00    -0.163 A  
HETATM   20  C   UNL     1     -10.141   9.654  70.344  1.00  0.00    -0.336 A  
HETATM   21  H   UNL     1     -11.895   5.613  69.934  1.00  0.00     0.000 HD 
HETATM   22  C   UNL     1      -8.959   8.047  68.970  1.00  0.00    -0.145 A  
HETATM   23  H   UNL     1     -12.858   8.299  71.574  1.00  0.00     0.000 HD 
HETATM   24  C   UNL     1     -11.113   8.694  70.601  1.00  0.00    -0.249 A  
HETATM   25  C   UNL     1      -9.940   7.088  69.231  1.00  0.00    -0.163 A  
HETATM   26  O   UNL     1     -12.193   8.955  71.399  1.00  0.00    -0.299 OA 
HETATM   27  C   UNL     1     -11.008   7.420  70.048  1.00  0.00    -0.248 A  
HETATM   28  O   UNL     1     -11.966   6.482  70.312  1.00  0.00    -0.394 OA 
ENDBRANCH   3  19
TORSDOF 8
ENDMDL
MODEL      226
REMARK 921   NORMALIZED FREE ENERGY PREDICTED BY IDOCK:   -4.20 KCAL/MOL
REMARK 922        TOTAL FREE ENERGY PREDICTED BY IDOCK:   -7.37 KCAL/MOL
REMARK 923 INTER-LIGAND FREE ENERGY PREDICTED BY IDOCK:   -6.24 KCAL/MOL
REMARK 924 INTRA-LIGAND FREE ENERGY PREDICTED BY IDOCK:   -1.13 KCAL/MOL
REMARK 927      BINDING AFFINITY PREDICTED BY RF-SCORE:    0.00 PKD
ROOT
HETATM    1  O   UNL     1      -8.681   7.264  69.454  1.00  0.00    -0.136 OA 
HETATM    2  H   UNL     1      -8.622   6.457  69.952  1.00  0.00     0.000 HD 
HETATM    3  C   UNL     1      -9.795   7.193  68.556  1.00  0.00    -0.153 C  
ENDROOT
BRANCH   3   4
HETATM    4  C   UNL     1      -9.890   8.507  67.744  1.00  0.00    -0.175 C  
BRANCH   4   5
HETATM    5  N   UNL     1     -11.118   9.266  68.067  1.00  0.00    -0.501 NA 
HETATM    6  H   UNL     1     -11.772   8.715  68.624  1.00  0.00     0.000 HD 
BRANCH   5   7
HETATM    7  C   UNL     1     -10.771  10.532  68.721  1.00  0.00    -0.216 C  
BRANCH   7   8
HETATM    8  C   UNL     1     -12.032  11.197  69.281  1.00  0.00    -0.421 C  
BRANCH   8   9
HETATM    9  C   UNL     1     -12.119  11.001  70.796  1.00  0.00    -0.467 C  
BRANCH   9  10
HETATM   10  C   UNL     1     -13.005   9.809  71.165  1.00  0.00    -0.431 C  
BRANCH  10  11
HETATM   11  C   UNL     1     -12.168   8.627  71.592  1.00  0.00    -0.388 A  
HETATM   12  C   UNL     1     -12.696   7.328  71.549  1.00  0.00    -0.422 A  
HETATM   13  C   UNL     1     -11.943   6.240  71.995  1.00  0.00    -0.353 A  
HETATM   14  C   UNL     1     -10.659   6.453  72.488  1.00  0.00    -0.214 A  
HETATM   15  O   UNL     1      -9.896   5.422  72.951  1.00  0.00    -0.157 OA 
HETATM   16  C   UNL     1     -10.116   7.730  72.531  1.00  0.00    -0.301 A  
HETATM   17  H   UNL     1      -9.020   5.568  73.288  1.00  0.00     0.000 HD 
HETATM   18  C   UNL     1     -10.870   8.818  72.086  1.00  0.00    -0.400 A  
ENDBRANCH  10  11
ENDBRANCH   9  10
ENDBRANCH   8   9
ENDBRANCH   7   8
ENDBRANCH   5   7
ENDBRANCH   4   5
ENDBRANCH   3   4
BRANCH   3  19
HETATM   19  C   UNL     1      -9.648   5.991  67.644  1.00  0.00    -0.113 A  
HETATM   20  C   UNL     1     -10.590   5.717  66.637  1.00  0.00    -0.361 A  
HETATM   21  H   UNL     1      -8.502   2.025  65.378  1.00  0.00     0.000 HD 
HETATM   22  C   UNL     1      -8.568   5.106  67.823  1.00  0.00    -0.103 A  
HETATM   23  H   UNL     1     -11.235   3.511  64.304  1.00  0.00     0.000 HD 
HETATM   24  C   UNL     1     -10.442   4.588  65.839  1.00  0.00    -0.226 A  
HETATM   25  C   UNL     1      -8.426   3.974  67.017  1.00  0.00    -0.100 A  
HETATM   26  O   UNL     1     -11.336   4.282  64.849  1.00  0.00    -0.278 OA 
HETATM   27  C   UNL     1      -9.367   3.724  66.032  1.00  0.00    -0.170 A  
HETATM   28  O   UNL     1      -9.235   2.614  65.246  1.00  0.00    -0.150 OA 
ENDBRANCH   3  19
TORSDOF 8
ENDMDL
MODEL      227
REMARK 921   NORMALIZED FREE ENERGY PREDICTED BY IDOCK:   -4.20 KCAL/MOL
REMARK 922        TOTAL FREE ENERGY PREDICTED BY IDOCK:   -7.37 KCAL/MOL
REMARK 923 INTER-LIGAND FREE ENERGY PREDICTED BY IDOCK:   -6.90 KCAL/MOL
REMARK 924 INTRA-LIGAND FREE ENERGY PREDICTED BY IDOCK:   -0.46 KCAL/MOL
REMARK 927      BINDING AFFINITY PREDICTED BY RF-SCORE:    0.00 PKD
ROOT
HETATM    1  O   UNL     1     -11.758  11.425  70.541  1.00  0.00    -0.423 OA 
HETATM    2  H   UNL     1     -12.553  11.189  71.005  1.00  0.00     0.000 HD 
HETATM    3  C   UNL     1     -11.406  10.376  69.630  1.00  0.00    -0.272 C  
ENDROOT
BRANCH   3   4
HETATM    4  C   UNL     1     -10.111  10.760  68.875  1.00  0.00    -0.205 C  
BRANCH   4   5
HETATM    5  N   UNL     1      -9.941  12.227  68.787  1.00  0.00    -0.408 NA 
HETATM    6  H   UNL     1      -9.001  12.520  69.057  1.00  0.00     0.000 HD 
BRANCH   5   7
HETATM    7  C   UNL     1     -10.298  12.697  67.444  1.00  0.00    -0.220 C  
BRANCH   7   8
HETATM    8  C   UNL     1     -11.638  13.436  67.485  1.00  0.00    -0.382 C  
BRANCH   8   9
HETATM    9  C   UNL     1     -11.438  14.931  67.226  1.00  0.00    -0.350 C  
BRANCH   9  10
HETATM   10  C   UNL     1     -10.031  15.392  67.612  1.00  0.00    -0.225 C  
BRANCH  10  11
HETATM   11  C   UNL     1      -9.933  16.898  67.595  1.00  0.00    -0.271 A  
HETATM   12  C   UNL     1     -10.598  17.644  66.612  1.00  0.00    -0.211 A  
HETATM   13  C   UNL     1     -10.465  19.034  66.563  1.00  0.00    -0.522 A  
HETATM   14  C   UNL     1      -9.662  19.677  67.498  1.00  0.00    -0.353 A  
HETATM   15  O   UNL     1      -9.489  21.030  67.476  1.00  0.00    -0.455 OA 
HETATM   16  C   UNL     1      -9.001  18.957  68.484  1.00  0.00    -0.388 A  
HETATM   17  H   UNL     1      -8.940  21.469  68.114  1.00  0.00     0.000 HD 
HETATM   18  C   UNL     1      -9.134  17.568  68.532  1.00  0.00    -0.277 A  
ENDBRANCH  10  11
ENDBRANCH   9  10
ENDBRANCH   8   9
ENDBRANCH   7   8
ENDBRANCH   5   7
ENDBRANCH   4   5
ENDBRANCH   3   4
BRANCH   3  19
HETATM   19  C   UNL     1     -11.239   9.071  70.383  1.00  0.00    -0.275 A  
HETATM   20  C   UNL     1     -11.017   9.049  71.770  1.00  0.00    -0.443 A  
HETATM   21  H   UNL     1     -10.707   4.638  71.880  1.00  0.00     0.000 HD 
HETATM   22  C   UNL     1     -11.270   7.850  69.680  1.00  0.00     0.064 A  
HETATM   23  H   UNL     1     -10.490   6.941  74.220  1.00  0.00     0.000 HD 
HETATM   24  C   UNL     1     -10.835   7.837  72.425  1.00  0.00    -0.303 A  
HETATM   25  C   UNL     1     -11.088   6.636  70.345  1.00  0.00    -0.374 A  
HETATM   26  O   UNL     1     -10.614   7.770  73.773  1.00  0.00    -0.162 OA 
HETATM   27  C   UNL     1     -10.869   6.640  71.713  1.00  0.00    -0.233 A  
HETATM   28  O   UNL     1     -10.683   5.454  72.365  1.00  0.00    -0.215 OA 
ENDBRANCH   3  19
TORSDOF 8
ENDMDL
MODEL      228
REMARK 921   NORMALIZED FREE ENERGY PREDICTED BY IDOCK:   -4.19 KCAL/MOL
REMARK 922        TOTAL FREE ENERGY PREDICTED BY IDOCK:   -7.35 KCAL/MOL
REMARK 923 INTER-LIGAND FREE ENERGY PREDICTED BY IDOCK:   -5.60 KCAL/MOL
REMARK 924 INTRA-LIGAND FREE ENERGY PREDICTED BY IDOCK:   -1.75 KCAL/MOL
REMARK 927      BINDING AFFINITY PREDICTED BY RF-SCORE:    0.00 PKD
ROOT
HETATM    1  O   UNL     1      -7.418   9.138  71.664  1.00  0.00    -0.326 OA 
HETATM    2  H   UNL     1      -7.633   9.668  72.424  1.00  0.00     0.000 HD 
HETATM    3  C   UNL     1      -8.175   9.591  70.535  1.00  0.00    -0.167 C  
ENDROOT
BRANCH   3   4
HETATM    4  C   UNL     1      -7.825   8.728  69.299  1.00  0.00    -0.100 C  
BRANCH   4   5
HETATM    5  N   UNL     1      -8.115   7.296  69.528  1.00  0.00    -0.127 NA 
HETATM    6  H   UNL     1      -8.641   7.146  70.389  1.00  0.00     0.000 HD 
BRANCH   5   7
HETATM    7  C   UNL     1      -8.799   6.727  68.361  1.00  0.00    -0.122 C  
BRANCH   7   8
HETATM    8  C   UNL     1     -10.312   6.920  68.493  1.00  0.00    -0.204 C  
BRANCH   8   9
HETATM    9  C   UNL     1     -10.875   7.636  67.263  1.00  0.00    -0.263 C  
BRANCH   9  10
HETATM   10  C   UNL     1      -9.772   8.314  66.446  1.00  0.00    -0.300 C  
BRANCH  10  11
HETATM   11  C   UNL     1      -9.903   9.817  66.506  1.00  0.00    -0.286 A  
HETATM   12  C   UNL     1     -11.140  10.413  66.793  1.00  0.00    -0.023 A  
HETATM   13  C   UNL     1     -11.275  11.803  66.795  1.00  0.00    -0.388 A  
HETATM   14  C   UNL     1     -10.170  12.598  66.506  1.00  0.00    -0.243 A  
HETATM   15  O   UNL     1     -10.261  13.958  66.479  1.00  0.00    -0.269 OA 
HETATM   16  C   UNL     1      -8.936  12.027  66.228  1.00  0.00    -0.129 A  
HETATM   17  H   UNL     1      -9.507  14.501  66.282  1.00  0.00     0.000 HD 
HETATM   18  C   UNL     1      -8.802  10.637  66.225  1.00  0.00    -0.172 A  
ENDBRANCH  10  11
ENDBRANCH   9  10
ENDBRANCH   8   9
ENDBRANCH   7   8
ENDBRANCH   5   7
ENDBRANCH   4   5
ENDBRANCH   3   4
BRANCH   3  19
HETATM   19  C   UNL     1      -9.657   9.530  70.847  1.00  0.00    -0.216 A  
HETATM   20  C   UNL     1     -10.158   8.692  71.858  1.00  0.00    -0.398 A  
HETATM   21  H   UNL     1     -14.349   9.862  71.061  1.00  0.00     0.000 HD 
HETATM   22  C   UNL     1     -10.562  10.300  70.091  1.00  0.00    -0.303 A  
HETATM   23  H   UNL     1     -12.992   7.795  73.233  1.00  0.00     0.000 HD 
HETATM   24  C   UNL     1     -11.526   8.636  72.097  1.00  0.00    -0.373 A  
HETATM   25  C   UNL     1     -11.936  10.239  70.338  1.00  0.00    -0.391 A  
HETATM   26  O   UNL     1     -12.057   7.833  73.069  1.00  0.00    -0.064 OA 
HETATM   27  C   UNL     1     -12.406   9.405  71.339  1.00  0.00    -0.357 A  
HETATM   28  O   UNL     1     -13.749   9.338  71.578  1.00  0.00    -0.378 OA 
ENDBRANCH   3  19
TORSDOF 8
ENDMDL
MODEL      229
REMARK 921   NORMALIZED FREE ENERGY PREDICTED BY IDOCK:   -4.18 KCAL/MOL
REMARK 922        TOTAL FREE ENERGY PREDICTED BY IDOCK:   -7.34 KCAL/MOL
REMARK 923 INTER-LIGAND FREE ENERGY PREDICTED BY IDOCK:   -6.86 KCAL/MOL
REMARK 924 INTRA-LIGAND FREE ENERGY PREDICTED BY IDOCK:   -0.49 KCAL/MOL
REMARK 927      BINDING AFFINITY PREDICTED BY RF-SCORE:    0.00 PKD
ROOT
HETATM    1  O   UNL     1     -11.418   6.407  69.272  1.00  0.00    -0.561 OA 
HETATM    2  H   UNL     1     -11.857   5.865  69.917  1.00  0.00     0.000 HD 
HETATM    3  C   UNL     1     -10.768   5.570  68.307  1.00  0.00    -0.081 C  
ENDROOT
BRANCH   3   4
HETATM    4  C   UNL     1     -10.054   6.453  67.255  1.00  0.00    -0.163 C  
BRANCH   4   5
HETATM    5  N   UNL     1      -9.692   7.778  67.805  1.00  0.00    -0.148 NA 
HETATM    6  H   UNL     1      -8.684   7.936  67.790  1.00  0.00     0.000 HD 
BRANCH   5   7
HETATM    7  C   UNL     1     -10.423   8.835  67.097  1.00  0.00    -0.283 C  
BRANCH   7   8
HETATM    8  C   UNL     1      -9.452   9.684  66.272  1.00  0.00    -0.255 C  
BRANCH   8   9
HETATM    9  C   UNL     1      -9.441  11.131  66.770  1.00  0.00    -0.203 C  
BRANCH   9  10
HETATM   10  C   UNL     1     -10.856  11.706  66.875  1.00  0.00    -0.322 C  
BRANCH  10  11
HETATM   11  C   UNL     1     -10.984  12.973  66.064  1.00  0.00    -0.296 A  
HETATM   12  C   UNL     1     -10.176  14.084  66.346  1.00  0.00    -0.293 A  
HETATM   13  C   UNL     1     -10.331  15.274  65.632  1.00  0.00    -0.389 A  
HETATM   14  C   UNL     1     -11.298  15.353  64.636  1.00  0.00    -0.355 A  
HETATM   15  O   UNL     1     -11.496  16.502  63.927  1.00  0.00    -1.608 OA 
HETATM   16  C   UNL     1     -12.102  14.262  64.336  1.00  0.00    -0.490 A  
HETATM   17  H   UNL     1     -12.157  16.556  63.247  1.00  0.00     0.000 HD 
HETATM   18  C   UNL     1     -11.947  13.072  65.050  1.00  0.00    -0.438 A  
ENDBRANCH  10  11
ENDBRANCH   9  10
ENDBRANCH   8   9
ENDBRANCH   7   8
ENDBRANCH   5   7
ENDBRANCH   4   5
ENDBRANCH   3   4
BRANCH   3  19
HETATM   19  C   UNL     1      -9.792   4.642  69.001  1.00  0.00    -0.224 A  
HETATM   20  C   UNL     1      -9.645   4.647  70.399  1.00  0.00    -0.271 A  
HETATM   21  H   UNL     1      -6.476   1.562  70.304  1.00  0.00     0.000 HD 
HETATM   22  C   UNL     1      -8.984   3.778  68.237  1.00  0.00    -0.168 A  
HETATM   23  H   UNL     1      -7.907   3.204  72.770  1.00  0.00     0.000 HD 
HETATM   24  C   UNL     1      -8.718   3.806  71.002  1.00  0.00    -0.078 A  
HETATM   25  C   UNL     1      -8.055   2.935  68.849  1.00  0.00    -0.069 A  
HETATM   26  O   UNL     1      -8.540   3.779  72.358  1.00  0.00    -0.088 OA 
HETATM   27  C   UNL     1      -7.927   2.958  70.229  1.00  0.00    -0.042 A  
HETATM   28  O   UNL     1      -7.014   2.140  70.831  1.00  0.00    -0.032 OA 
ENDBRANCH   3  19
TORSDOF 8
ENDMDL
MODEL      230
REMARK 921   NORMALIZED FREE ENERGY PREDICTED BY IDOCK:   -4.17 KCAL/MOL
REMARK 922        TOTAL FREE ENERGY PREDICTED BY IDOCK:   -7.33 KCAL/MOL
REMARK 923 INTER-LIGAND FREE ENERGY PREDICTED BY IDOCK:   -6.01 KCAL/MOL
REMARK 924 INTRA-LIGAND FREE ENERGY PREDICTED BY IDOCK:   -1.32 KCAL/MOL
REMARK 927      BINDING AFFINITY PREDICTED BY RF-SCORE:    0.00 PKD
ROOT
HETATM    1  O   UNL     1      -6.182  15.808  70.089  1.00  0.00    -0.155 OA 
HETATM    2  H   UNL     1      -6.264  15.299  70.888  1.00  0.00     0.000 HD 
HETATM    3  C   UNL     1      -7.343  15.607  69.273  1.00  0.00    -0.207 C  
ENDROOT
BRANCH   3   4
HETATM    4  C   UNL     1      -7.210  16.435  67.973  1.00  0.00    -0.136 C  
BRANCH   4   5
HETATM    5  N   UNL     1      -7.946  17.715  68.058  1.00  0.00    -0.234 NA 
HETATM    6  H   UNL     1      -7.760  18.318  67.255  1.00  0.00     0.000 HD 
BRANCH   5   7
HETATM    7  C   UNL     1      -9.381  17.461  68.232  1.00  0.00    -0.278 C  
BRANCH   7   8
HETATM    8  C   UNL     1     -10.089  17.497  66.875  1.00  0.00    -0.324 C  
BRANCH   8   9
HETATM    9  C   UNL     1     -10.710  16.137  66.553  1.00  0.00    -0.220 C  
BRANCH   9  10
HETATM   10  C   UNL     1      -9.777  15.273  65.700  1.00  0.00    -0.360 C  
BRANCH  10  11
HETATM   11  C   UNL     1     -10.560  14.258  64.903  1.00  0.00    -0.452 A  
HETATM   12  C   UNL     1     -11.908  14.485  64.590  1.00  0.00    -0.462 A  
HETATM   13  C   UNL     1     -12.648  13.523  63.899  1.00  0.00    -0.156 A  
HETATM   14  C   UNL     1     -12.039  12.329  63.525  1.00  0.00    -0.553 A  
HETATM   15  O   UNL     1     -12.729  11.355  62.866  1.00  0.00    -0.951 OA 
HETATM   16  C   UNL     1     -10.703  12.090  63.819  1.00  0.00    -0.478 A  
HETATM   17  H   UNL     1     -12.313  10.541  62.611  1.00  0.00     0.000 HD 
HETATM   18  C   UNL     1      -9.964  13.052  64.510  1.00  0.00    -0.148 A  
ENDBRANCH  10  11
ENDBRANCH   9  10
ENDBRANCH   8   9
ENDBRANCH   7   8
ENDBRANCH   5   7
ENDBRANCH   4   5
ENDBRANCH   3   4
BRANCH   3  19
HETATM   19  C   UNL     1      -7.515  14.132  68.972  1.00  0.00    -0.082 A  
HETATM   20  C   UNL     1      -6.492  13.206  69.239  1.00  0.00    -0.107 A  
HETATM   21  H   UNL     1      -8.831   9.816  67.623  1.00  0.00     0.000 HD 
HETATM   22  C   UNL     1      -8.709  13.674  68.381  1.00  0.00    -0.153 A  
HETATM   23  H   UNL     1      -5.823  10.013  68.944  1.00  0.00     0.000 HD 
HETATM   24  C   UNL     1      -6.671  11.864  68.921  1.00  0.00    -0.095 A  
HETATM   25  C   UNL     1      -8.882  12.325  68.065  1.00  0.00    -0.182 A  
HETATM   26  O   UNL     1      -5.701  10.930  69.160  1.00  0.00    -0.041 OA 
HETATM   27  C   UNL     1      -7.858  11.431  68.335  1.00  0.00    -0.135 A  
HETATM   28  O   UNL     1      -8.021  10.112  68.021  1.00  0.00    -0.100 OA 
ENDBRANCH   3  19
TORSDOF 8
ENDMDL
MODEL      231
REMARK 921   NORMALIZED FREE ENERGY PREDICTED BY IDOCK:   -4.16 KCAL/MOL
REMARK 922        TOTAL FREE ENERGY PREDICTED BY IDOCK:   -7.31 KCAL/MOL
REMARK 923 INTER-LIGAND FREE ENERGY PREDICTED BY IDOCK:   -6.77 KCAL/MOL
REMARK 924 INTRA-LIGAND FREE ENERGY PREDICTED BY IDOCK:   -0.54 KCAL/MOL
REMARK 927      BINDING AFFINITY PREDICTED BY RF-SCORE:    0.00 PKD
ROOT
HETATM    1  O   UNL     1      -8.474   9.146  66.384  1.00  0.00    -0.119 OA 
HETATM    2  H   UNL     1      -7.669   8.644  66.447  1.00  0.00     0.000 HD 
HETATM    3  C   UNL     1      -9.058   9.280  67.686  1.00  0.00    -0.125 C  
ENDROOT
BRANCH   3   4
HETATM    4  C   UNL     1     -10.368  10.097  67.582  1.00  0.00    -0.219 C  
BRANCH   4   5
HETATM    5  N   UNL     1     -10.456  11.131  68.638  1.00  0.00    -0.189 NA 
HETATM    6  H   UNL     1     -10.055  10.811  69.520  1.00  0.00     0.000 HD 
BRANCH   5   7
HETATM    7  C   UNL     1      -9.838  12.378  68.175  1.00  0.00    -0.213 C  
BRANCH   7   8
HETATM    8  C   UNL     1     -10.815  13.149  67.283  1.00  0.00    -0.270 C  
BRANCH   8   9
HETATM    9  C   UNL     1     -11.826  13.922  68.132  1.00  0.00    -0.407 C  
BRANCH   9  10
HETATM   10  C   UNL     1     -11.168  15.078  68.890  1.00  0.00    -0.288 C  
BRANCH  10  11
HETATM   11  C   UNL     1     -11.864  15.327  70.206  1.00  0.00    -0.353 A  
HETATM   12  C   UNL     1     -13.111  14.742  70.474  1.00  0.00    -0.275 A  
HETATM   13  C   UNL     1     -13.781  15.014  71.668  1.00  0.00    -0.553 A  
HETATM   14  C   UNL     1     -13.204  15.877  72.595  1.00  0.00    -0.472 A  
HETATM   15  O   UNL     1     -13.832  16.185  73.765  1.00  0.00    -0.805 OA 
HETATM   16  C   UNL     1     -11.967  16.459  72.351  1.00  0.00    -0.553 A  
HETATM   17  H   UNL     1     -13.438  16.774  74.398  1.00  0.00     0.000 HD 
HETATM   18  C   UNL     1     -11.298  16.187  71.157  1.00  0.00    -0.368 A  
ENDBRANCH  10  11
ENDBRANCH   9  10
ENDBRANCH   8   9
ENDBRANCH   7   8
ENDBRANCH   5   7
ENDBRANCH   4   5
ENDBRANCH   3   4
BRANCH   3  19
HETATM   19  C   UNL     1      -9.309   7.910  68.284  1.00  0.00    -0.145 A  
HETATM   20  C   UNL     1     -10.408   7.669  69.126  1.00  0.00    -0.217 A  
HETATM   21  H   UNL     1      -9.260   3.449  69.791  1.00  0.00     0.000 HD 
HETATM   22  C   UNL     1      -8.408   6.859  68.024  1.00  0.00    -0.121 A  
HETATM   23  H   UNL     1     -11.770   5.270  70.891  1.00  0.00     0.000 HD 
HETATM   24  C   UNL     1     -10.591   6.409  69.684  1.00  0.00    -0.254 A  
HETATM   25  C   UNL     1      -8.599   5.595  68.587  1.00  0.00    -0.104 A  
HETATM   26  O   UNL     1     -11.644   6.131  70.510  1.00  0.00    -0.333 OA 
HETATM   27  C   UNL     1      -9.689   5.382  69.416  1.00  0.00    -0.165 A  
HETATM   28  O   UNL     1      -9.874   4.149  69.974  1.00  0.00    -0.217 OA 
ENDBRANCH   3  19
TORSDOF 8
ENDMDL
MODEL      232
REMARK 921   NORMALIZED FREE ENERGY PREDICTED BY IDOCK:   -4.13 KCAL/MOL
REMARK 922        TOTAL FREE ENERGY PREDICTED BY IDOCK:   -7.27 KCAL/MOL
REMARK 923 INTER-LIGAND FREE ENERGY PREDICTED BY IDOCK:   -6.26 KCAL/MOL
REMARK 924 INTRA-LIGAND FREE ENERGY PREDICTED BY IDOCK:   -1.01 KCAL/MOL
REMARK 927      BINDING AFFINITY PREDICTED BY RF-SCORE:    0.00 PKD
ROOT
HETATM    1  O   UNL     1     -10.197   4.900  69.875  1.00  0.00    -0.257 OA 
HETATM    2  H   UNL     1     -10.204   4.723  70.809  1.00  0.00     0.000 HD 
HETATM    3  C   UNL     1      -9.951   6.295  69.654  1.00  0.00    -0.165 C  
ENDROOT
BRANCH   3   4
HETATM    4  C   UNL     1      -9.939   6.582  68.133  1.00  0.00    -0.139 C  
BRANCH   4   5
HETATM    5  N   UNL     1      -8.641   7.135  67.688  1.00  0.00    -0.122 NA 
HETATM    6  H   UNL     1      -8.268   6.634  66.881  1.00  0.00     0.000 HD 
BRANCH   5   7
HETATM    7  C   UNL     1      -8.768   8.574  67.430  1.00  0.00    -0.134 C  
BRANCH   7   8
HETATM    8  C   UNL     1      -7.966   9.366  68.467  1.00  0.00    -0.093 C  
BRANCH   8   9
HETATM    9  C   UNL     1      -8.086  10.870  68.209  1.00  0.00    -0.124 C  
BRANCH   9  10
HETATM   10  C   UNL     1      -8.368  11.173  66.735  1.00  0.00    -0.152 C  
BRANCH  10  11
HETATM   11  C   UNL     1      -9.580  12.061  66.589  1.00  0.00    -0.225 A  
HETATM   12  C   UNL     1      -9.656  13.280  67.279  1.00  0.00    -0.234 A  
HETATM   13  C   UNL     1     -10.799  14.078  67.187  1.00  0.00    -0.288 A  
HETATM   14  C   UNL     1     -11.869  13.652  66.407  1.00  0.00    -0.398 A  
HETATM   15  O   UNL     1     -13.012  14.390  66.305  1.00  0.00    -0.383 OA 
HETATM   16  C   UNL     1     -11.810  12.452  65.711  1.00  0.00    -0.467 A  
HETATM   17  H   UNL     1     -13.742  14.100  65.773  1.00  0.00     0.000 HD 
HETATM   18  C   UNL     1     -10.667  11.656  65.803  1.00  0.00    -0.331 A  
ENDBRANCH  10  11
ENDBRANCH   9  10
ENDBRANCH   8   9
ENDBRANCH   7   8
ENDBRANCH   5   7
ENDBRANCH   4   5
ENDBRANCH   3   4
BRANCH   3  19
HETATM   19  C   UNL     1     -11.002   7.124  70.363  1.00  0.00    -0.290 A  
HETATM   20  C   UNL     1     -10.967   8.529  70.337  1.00  0.00    -0.254 A  
HETATM   21  H   UNL     1     -14.545   8.891  72.913  1.00  0.00     0.000 HD 
HETATM   22  C   UNL     1     -12.020   6.483  71.096  1.00  0.00    -0.365 A  
HETATM   23  H   UNL     1     -12.588  11.127  71.499  1.00  0.00     0.000 HD 
HETATM   24  C   UNL     1     -11.928   9.259  71.025  1.00  0.00    -0.300 A  
HETATM   25  C   UNL     1     -12.984   7.224  71.784  1.00  0.00    -0.368 A  
HETATM   26  O   UNL     1     -11.931  10.627  71.029  1.00  0.00    -0.343 OA 
HETATM   27  C   UNL     1     -12.927   8.608  71.745  1.00  0.00    -0.359 A  
HETATM   28  O   UNL     1     -13.864   9.335  72.423  1.00  0.00    -0.470 OA 
ENDBRANCH   3  19
TORSDOF 8
ENDMDL
MODEL      233
REMARK 921   NORMALIZED FREE ENERGY PREDICTED BY IDOCK:   -4.13 KCAL/MOL
REMARK 922        TOTAL FREE ENERGY PREDICTED BY IDOCK:   -7.26 KCAL/MOL
REMARK 923 INTER-LIGAND FREE ENERGY PREDICTED BY IDOCK:   -6.58 KCAL/MOL
REMARK 924 INTRA-LIGAND FREE ENERGY PREDICTED BY IDOCK:   -0.67 KCAL/MOL
REMARK 927      BINDING AFFINITY PREDICTED BY RF-SCORE:    0.00 PKD
ROOT
HETATM    1  O   UNL     1     -10.915   9.409  67.510  1.00  0.00    -0.445 OA 
HETATM    2  H   UNL     1     -11.668   9.105  68.004  1.00  0.00     0.000 HD 
HETATM    3  C   UNL     1     -10.158   8.282  67.049  1.00  0.00    -0.283 C  
ENDROOT
BRANCH   3   4
HETATM    4  C   UNL     1      -8.932   8.778  66.246  1.00  0.00    -0.173 C  
BRANCH   4   5
HETATM    5  N   UNL     1      -9.231  10.018  65.495  1.00  0.00    -0.182 NA 
HETATM    6  H   UNL     1      -8.860  10.845  65.962  1.00  0.00     0.000 HD 
BRANCH   5   7
HETATM    7  C   UNL     1      -8.747   9.901  64.115  1.00  0.00    -0.206 C  
BRANCH   7   8
HETATM    8  C   UNL     1      -9.625  10.734  63.178  1.00  0.00    -0.385 C  
BRANCH   8   9
HETATM    9  C   UNL     1     -10.901  11.185  63.892  1.00  0.00    -0.346 C  
BRANCH   9  10
HETATM   10  C   UNL     1     -11.291  12.616  63.509  1.00  0.00    -0.527 C  
BRANCH  10  11
HETATM   11  C   UNL     1     -11.347  13.504  64.729  1.00  0.00    -0.362 A  
HETATM   12  C   UNL     1     -10.470  14.590  64.859  1.00  0.00    -0.435 A  
HETATM   13  C   UNL     1     -10.484  15.381  66.011  1.00  0.00    -0.333 A  
HETATM   14  C   UNL     1     -11.377  15.080  67.035  1.00  0.00    -0.318 A  
HETATM   15  O   UNL     1     -11.412  15.814  68.184  1.00  0.00    -0.352 OA 
HETATM   16  C   UNL     1     -12.258  14.014  66.921  1.00  0.00    -0.415 A  
HETATM   17  H   UNL     1     -12.021  15.609  68.883  1.00  0.00     0.000 HD 
HETATM   18  C   UNL     1     -12.243  13.224  65.769  1.00  0.00    -0.510 A  
ENDBRANCH  10  11
ENDBRANCH   9  10
ENDBRANCH   8   9
ENDBRANCH   7   8
ENDBRANCH   5   7
ENDBRANCH   4   5
ENDBRANCH   3   4
BRANCH   3  19
HETATM   19  C   UNL     1      -9.736   7.427  68.227  1.00  0.00    -0.159 A  
HETATM   20  C   UNL     1     -10.566   7.265  69.350  1.00  0.00    -0.238 A  
HETATM   21  H   UNL     1      -7.610   4.733  71.452  1.00  0.00     0.000 HD 
HETATM   22  C   UNL     1      -8.473   6.805  68.221  1.00  0.00    -0.125 A  
HETATM   23  H   UNL     1     -10.614   5.794  72.276  1.00  0.00     0.000 HD 
HETATM   24  C   UNL     1     -10.135   6.500  70.427  1.00  0.00    -0.184 A  
HETATM   25  C   UNL     1      -8.046   6.036  69.306  1.00  0.00    -0.108 A  
HETATM   26  O   UNL     1     -10.908   6.318  71.540  1.00  0.00    -0.236 OA 
HETATM   27  C   UNL     1      -8.881   5.893  70.403  1.00  0.00    -0.143 A  
HETATM   28  O   UNL     1      -8.464   5.148  71.469  1.00  0.00    -0.120 OA 
ENDBRANCH   3  19
TORSDOF 8
ENDMDL
MODEL      234
REMARK 921   NORMALIZED FREE ENERGY PREDICTED BY IDOCK:   -4.12 KCAL/MOL
REMARK 922        TOTAL FREE ENERGY PREDICTED BY IDOCK:   -7.25 KCAL/MOL
REMARK 923 INTER-LIGAND FREE ENERGY PREDICTED BY IDOCK:   -6.66 KCAL/MOL
REMARK 924 INTRA-LIGAND FREE ENERGY PREDICTED BY IDOCK:   -0.60 KCAL/MOL
REMARK 927      BINDING AFFINITY PREDICTED BY RF-SCORE:    0.00 PKD
ROOT
HETATM    1  O   UNL     1     -11.936   7.550  70.091  1.00  0.00    -0.494 OA 
HETATM    2  H   UNL     1     -12.382   7.684  70.920  1.00  0.00     0.000 HD 
HETATM    3  C   UNL     1     -11.124   6.372  70.170  1.00  0.00    -0.365 C  
ENDROOT
BRANCH   3   4
HETATM    4  C   UNL     1     -10.398   6.153  68.821  1.00  0.00    -0.209 C  
BRANCH   4   5
HETATM    5  N   UNL     1     -10.106   7.434  68.140  1.00  0.00    -0.173 NA 
HETATM    6  H   UNL     1     -10.163   8.227  68.779  1.00  0.00     0.000 HD 
BRANCH   5   7
HETATM    7  C   UNL     1      -8.804   7.361  67.468  1.00  0.00    -0.127 C  
BRANCH   7   8
HETATM    8  C   UNL     1      -8.944   7.787  66.004  1.00  0.00    -0.185 C  
BRANCH   8   9
HETATM    9  C   UNL     1      -8.870   9.310  65.875  1.00  0.00    -0.199 C  
BRANCH   9  10
HETATM   10  C   UNL     1      -9.395   9.791  64.520  1.00  0.00    -0.298 C  
BRANCH  10  11
HETATM   11  C   UNL     1     -10.329  10.964  64.689  1.00  0.00    -0.407 A  
HETATM   12  C   UNL     1     -10.465  11.592  65.936  1.00  0.00    -0.300 A  
HETATM   13  C   UNL     1     -11.369  12.643  66.108  1.00  0.00    -0.375 A  
HETATM   14  C   UNL     1     -12.142  13.063  65.030  1.00  0.00    -0.427 A  
HETATM   15  O   UNL     1     -13.050  14.072  65.157  1.00  0.00    -0.776 OA 
HETATM   16  C   UNL     1     -12.015  12.460  63.786  1.00  0.00    -0.600 A  
HETATM   17  H   UNL     1     -13.577  14.359  64.422  1.00  0.00     0.000 HD 
HETATM   18  C   UNL     1     -11.112  11.409  63.615  1.00  0.00    -0.411 A  
ENDBRANCH  10  11
ENDBRANCH   9  10
ENDBRANCH   8   9
ENDBRANCH   7   8
ENDBRANCH   5   7
ENDBRANCH   4   5
ENDBRANCH   3   4
BRANCH   3  19
HETATM   19  C   UNL     1     -10.137   6.500  71.313  1.00  0.00    -0.208 A  
HETATM   20  C   UNL     1      -8.989   5.692  71.383  1.00  0.00    -0.148 A  
HETATM   21  H   UNL     1      -7.702   7.463  75.227  1.00  0.00     0.000 HD 
HETATM   22  C   UNL     1     -10.383   7.422  72.349  1.00  0.00    -0.263 A  
HETATM   23  H   UNL     1      -6.400   5.128  73.308  1.00  0.00     0.000 HD 
HETATM   24  C   UNL     1      -8.120   5.813  72.462  1.00  0.00    -0.103 A  
HETATM   25  C   UNL     1      -9.505   7.540  73.429  1.00  0.00    -0.306 A  
HETATM   26  O   UNL     1      -6.994   5.045  72.572  1.00  0.00    -0.070 OA 
HETATM   27  C   UNL     1      -8.381   6.731  73.477  1.00  0.00    -0.116 A  
HETATM   28  O   UNL     1      -7.525   6.838  74.535  1.00  0.00    -0.101 OA 
ENDBRANCH   3  19
TORSDOF 8
ENDMDL
MODEL      235
REMARK 921   NORMALIZED FREE ENERGY PREDICTED BY IDOCK:   -4.11 KCAL/MOL
REMARK 922        TOTAL FREE ENERGY PREDICTED BY IDOCK:   -7.24 KCAL/MOL
REMARK 923 INTER-LIGAND FREE ENERGY PREDICTED BY IDOCK:   -5.41 KCAL/MOL
REMARK 924 INTRA-LIGAND FREE ENERGY PREDICTED BY IDOCK:   -1.83 KCAL/MOL
REMARK 927      BINDING AFFINITY PREDICTED BY RF-SCORE:    0.00 PKD
ROOT
HETATM    1  O   UNL     1      -9.431  11.488  69.198  1.00  0.00    -0.410 OA 
HETATM    2  H   UNL     1      -9.333  11.956  70.020  1.00  0.00     0.000 HD 
HETATM    3  C   UNL     1     -10.359  10.409  69.370  1.00  0.00    -0.237 C  
ENDROOT
BRANCH   3   4
HETATM    4  C   UNL     1     -10.518   9.647  68.033  1.00  0.00    -0.229 C  
BRANCH   4   5
HETATM    5  N   UNL     1      -9.679  10.231  66.964  1.00  0.00    -0.170 NA 
HETATM    6  H   UNL     1      -8.987  10.883  67.335  1.00  0.00     0.000 HD 
BRANCH   5   7
HETATM    7  C   UNL     1      -9.059   9.164  66.170  1.00  0.00    -0.187 C  
BRANCH   7   8
HETATM    8  C   UNL     1      -8.962   7.881  67.000  1.00  0.00    -0.145 C  
BRANCH   8   9
HETATM    9  C   UNL     1      -9.409   6.670  66.177  1.00  0.00    -0.097 C  
BRANCH   9  10
HETATM   10  C   UNL     1     -10.713   6.071  66.710  1.00  0.00    -0.374 C  
BRANCH  10  11
HETATM   11  C   UNL     1     -10.539   5.570  68.123  1.00  0.00    -0.207 A  
HETATM   12  C   UNL     1     -11.252   6.156  69.179  1.00  0.00    -0.409 A  
HETATM   13  C   UNL     1     -11.052   5.730  70.494  1.00  0.00    -0.280 A  
HETATM   14  C   UNL     1     -10.134   4.717  70.752  1.00  0.00    -0.194 A  
HETATM   15  O   UNL     1      -9.895   4.283  72.023  1.00  0.00    -0.159 OA 
HETATM   16  C   UNL     1      -9.425   4.119  69.720  1.00  0.00    -0.265 A  
HETATM   17  H   UNL     1      -9.268   3.592  72.199  1.00  0.00     0.000 HD 
HETATM   18  C   UNL     1      -9.625   4.546  68.405  1.00  0.00    -0.207 A  
ENDBRANCH  10  11
ENDBRANCH   9  10
ENDBRANCH   8   9
ENDBRANCH   7   8
ENDBRANCH   5   7
ENDBRANCH   4   5
ENDBRANCH   3   4
BRANCH   3  19
HETATM   19  C   UNL     1      -9.883   9.489  70.476  1.00  0.00    -0.331 A  
HETATM   20  C   UNL     1      -8.590   8.938  70.464  1.00  0.00    -0.208 A  
HETATM   21  H   UNL     1      -9.281   6.661  74.193  1.00  0.00     0.000 HD 
HETATM   22  C   UNL     1     -10.758   9.144  71.524  1.00  0.00    -0.437 A  
HETATM   23  H   UNL     1      -6.679   6.919  72.196  1.00  0.00     0.000 HD 
HETATM   24  C   UNL     1      -8.196   8.072  71.477  1.00  0.00    -0.115 A  
HETATM   25  C   UNL     1     -10.355   8.274  72.539  1.00  0.00    -0.401 A  
HETATM   26  O   UNL     1      -6.948   7.511  71.504  1.00  0.00    -0.053 OA 
HETATM   27  C   UNL     1      -9.076   7.742  72.505  1.00  0.00    -0.169 A  
HETATM   28  O   UNL     1      -8.681   6.885  73.492  1.00  0.00    -0.126 OA 
ENDBRANCH   3  19
TORSDOF 8
ENDMDL
MODEL      236
REMARK 921   NORMALIZED FREE ENERGY PREDICTED BY IDOCK:   -4.11 KCAL/MOL
REMARK 922        TOTAL FREE ENERGY PREDICTED BY IDOCK:   -7.24 KCAL/MOL
REMARK 923 INTER-LIGAND FREE ENERGY PREDICTED BY IDOCK:   -5.89 KCAL/MOL
REMARK 924 INTRA-LIGAND FREE ENERGY PREDICTED BY IDOCK:   -1.35 KCAL/MOL
REMARK 927      BINDING AFFINITY PREDICTED BY RF-SCORE:    0.00 PKD
ROOT
HETATM    1  O   UNL     1     -10.091  15.148  66.287  1.00  0.00    -0.257 OA 
HETATM    2  H   UNL     1     -10.017  15.523  67.157  1.00  0.00     0.000 HD 
HETATM    3  C   UNL     1     -11.122  14.152  66.281  1.00  0.00    -0.318 C  
ENDROOT
BRANCH   3   4
HETATM    4  C   UNL     1     -11.243  13.542  64.864  1.00  0.00    -0.342 C  
BRANCH   4   5
HETATM    5  N   UNL     1      -9.916  13.254  64.275  1.00  0.00    -0.713 NA 
HETATM    6  H   UNL     1      -9.164  13.359  64.956  1.00  0.00     0.000 HD 
BRANCH   5   7
HETATM    7  C   UNL     1      -9.916  11.922  63.659  1.00  0.00    -0.381 C  
BRANCH   7   8
HETATM    8  C   UNL     1     -10.794  10.967  64.472  1.00  0.00    -0.257 C  
BRANCH   8   9
HETATM    9  C   UNL     1      -9.945   9.870  65.118  1.00  0.00    -0.278 C  
BRANCH   9  10
HETATM   10  C   UNL     1     -10.649   9.244  66.325  1.00  0.00     0.078 C  
BRANCH  10  11
HETATM   11  C   UNL     1     -10.001   7.935  66.707  1.00  0.00    -0.333 A  
HETATM   12  C   UNL     1     -10.776   6.874  67.199  1.00  0.00    -0.436 A  
HETATM   13  C   UNL     1     -10.172   5.682  67.603  1.00  0.00    -0.243 A  
HETATM   14  C   UNL     1      -8.789   5.552  67.519  1.00  0.00    -0.105 A  
HETATM   15  O   UNL     1      -8.157   4.413  67.921  1.00  0.00    -0.093 OA 
HETATM   16  C   UNL     1      -8.006   6.588  67.027  1.00  0.00    -0.112 A  
HETATM   17  H   UNL     1      -7.213   4.325  67.863  1.00  0.00     0.000 HD 
HETATM   18  C   UNL     1      -8.611   7.780  66.623  1.00  0.00    -0.138 A  
ENDBRANCH  10  11
ENDBRANCH   9  10
ENDBRANCH   8   9
ENDBRANCH   7   8
ENDBRANCH   5   7
ENDBRANCH   4   5
ENDBRANCH   3   4
BRANCH   3  19
HETATM   19  C   UNL     1     -10.818  13.087  67.316  1.00  0.00    -0.270 A  
HETATM   20  C   UNL     1      -9.507  12.625  67.528  1.00  0.00    -0.186 A  
HETATM   21  H   UNL     1     -10.790   9.709  70.597  1.00  0.00     0.000 HD 
HETATM   22  C   UNL     1     -11.868  12.517  68.061  1.00  0.00    -0.382 A  
HETATM   23  H   UNL     1      -7.845  10.460  69.337  1.00  0.00     0.000 HD 
HETATM   24  C   UNL     1      -9.267  11.624  68.462  1.00  0.00    -0.163 A  
HETATM   25  C   UNL     1     -11.619  11.512  68.999  1.00  0.00    -0.383 A  
HETATM   26  O   UNL     1      -8.009  11.143  68.698  1.00  0.00    -0.130 OA 
HETATM   27  C   UNL     1     -10.319  11.072  69.189  1.00  0.00    -0.188 A  
HETATM   28  O   UNL     1     -10.073  10.085  70.101  1.00  0.00    -0.255 OA 
ENDBRANCH   3  19
TORSDOF 8
ENDMDL
MODEL      237
REMARK 921   NORMALIZED FREE ENERGY PREDICTED BY IDOCK:   -4.11 KCAL/MOL
REMARK 922        TOTAL FREE ENERGY PREDICTED BY IDOCK:   -7.23 KCAL/MOL
REMARK 923 INTER-LIGAND FREE ENERGY PREDICTED BY IDOCK:   -6.45 KCAL/MOL
REMARK 924 INTRA-LIGAND FREE ENERGY PREDICTED BY IDOCK:   -0.78 KCAL/MOL
REMARK 927      BINDING AFFINITY PREDICTED BY RF-SCORE:    0.00 PKD
ROOT
HETATM    1  O   UNL     1     -10.362  13.538  64.248  1.00  0.00    -0.579 OA 
HETATM    2  H   UNL     1      -9.800  14.125  63.755  1.00  0.00     0.000 HD 
HETATM    3  C   UNL     1     -11.346  14.301  64.959  1.00  0.00    -0.365 C  
ENDROOT
BRANCH   3   4
HETATM    4  C   UNL     1     -12.261  13.344  65.760  1.00  0.00    -0.458 C  
BRANCH   4   5
HETATM    5  N   UNL     1     -11.855  11.930  65.598  1.00  0.00    -0.389 NA 
HETATM    6  H   UNL     1     -11.180  11.811  64.842  1.00  0.00     0.000 HD 
BRANCH   5   7
HETATM    7  C   UNL     1     -11.354  11.400  66.871  1.00  0.00    -0.210 C  
BRANCH   7   8
HETATM    8  C   UNL     1      -9.844  11.164  66.783  1.00  0.00    -0.230 C  
BRANCH   8   9
HETATM    9  C   UNL     1      -9.499   9.723  67.165  1.00  0.00    -0.189 C  
BRANCH   9  10
HETATM   10  C   UNL     1     -10.418   9.192  68.268  1.00  0.00    -0.254 C  
BRANCH  10  11
HETATM   11  C   UNL     1     -10.118   7.744  68.570  1.00  0.00    -0.216 A  
HETATM   12  C   UNL     1      -9.058   7.088  67.926  1.00  0.00    -0.127 A  
HETATM   13  C   UNL     1      -8.812   5.734  68.164  1.00  0.00    -0.105 A  
HETATM   14  C   UNL     1      -9.631   5.035  69.046  1.00  0.00    -0.150 A  
HETATM   15  O   UNL     1      -9.438   3.707  69.293  1.00  0.00    -0.172 OA 
HETATM   16  C   UNL     1     -10.679   5.669  69.699  1.00  0.00    -0.398 A  
HETATM   17  H   UNL     1      -9.997   3.230  69.895  1.00  0.00     0.000 HD 
HETATM   18  C   UNL     1     -10.924   7.022  69.461  1.00  0.00    -0.251 A  
ENDBRANCH  10  11
ENDBRANCH   9  10
ENDBRANCH   8   9
ENDBRANCH   7   8
ENDBRANCH   5   7
ENDBRANCH   4   5
ENDBRANCH   3   4
BRANCH   3  19
HETATM   19  C   UNL     1     -10.664  15.302  65.869  1.00  0.00    -0.340 A  
HETATM   20  C   UNL     1     -10.498  16.645  65.487  1.00  0.00    -0.285 A  
HETATM   21  H   UNL     1      -8.347  17.675  69.213  1.00  0.00     0.000 HD 
HETATM   22  C   UNL     1     -10.151  14.881  67.111  1.00  0.00    -0.240 A  
HETATM   23  H   UNL     1      -9.204  19.449  66.577  1.00  0.00     0.000 HD 
HETATM   24  C   UNL     1      -9.840  17.530  66.332  1.00  0.00    -0.309 A  
HETATM   25  C   UNL     1      -9.491  15.777  67.956  1.00  0.00    -0.202 A  
HETATM   26  O   UNL     1      -9.654  18.844  66.000  1.00  0.00    -0.468 OA 
HETATM   27  C   UNL     1      -9.339  17.095  67.557  1.00  0.00    -0.238 A  
HETATM   28  O   UNL     1      -8.688  17.971  68.377  1.00  0.00    -0.282 OA 
ENDBRANCH   3  19
TORSDOF 8
ENDMDL
MODEL      238
REMARK 921   NORMALIZED FREE ENERGY PREDICTED BY IDOCK:   -4.09 KCAL/MOL
REMARK 922        TOTAL FREE ENERGY PREDICTED BY IDOCK:   -7.20 KCAL/MOL
REMARK 923 INTER-LIGAND FREE ENERGY PREDICTED BY IDOCK:   -5.90 KCAL/MOL
REMARK 924 INTRA-LIGAND FREE ENERGY PREDICTED BY IDOCK:   -1.30 KCAL/MOL
REMARK 927      BINDING AFFINITY PREDICTED BY RF-SCORE:    0.00 PKD
ROOT
HETATM    1  O   UNL     1      -8.002  12.020  68.742  1.00  0.00    -0.268 OA 
HETATM    2  H   UNL     1      -7.585  12.662  68.179  1.00  0.00     0.000 HD 
HETATM    3  C   UNL     1      -7.658  10.701  68.301  1.00  0.00    -0.097 C  
ENDROOT
BRANCH   3   4
HETATM    4  C   UNL     1      -8.337   9.656  69.218  1.00  0.00    -0.137 C  
BRANCH   4   5
HETATM    5  N   UNL     1      -9.444  10.249  70.002  1.00  0.00    -0.392 NA 
HETATM    6  H   UNL     1      -9.580  11.236  69.783  1.00  0.00     0.000 HD 
BRANCH   5   7
HETATM    7  C   UNL     1     -10.671   9.469  69.810  1.00  0.00    -0.239 C  
BRANCH   7   8
HETATM    8  C   UNL     1     -11.690  10.280  69.005  1.00  0.00    -0.083 C  
BRANCH   8   9
HETATM    9  C   UNL     1     -11.649  11.755  69.413  1.00  0.00    -0.386 C  
BRANCH   9  10
HETATM   10  C   UNL     1     -12.006  12.677  68.244  1.00  0.00    -0.271 C  
BRANCH  10  11
HETATM   11  C   UNL     1     -11.517  14.082  68.497  1.00  0.00    -0.336 A  
HETATM   12  C   UNL     1     -11.760  14.710  69.728  1.00  0.00    -0.361 A  
HETATM   13  C   UNL     1     -11.355  16.029  69.945  1.00  0.00    -0.340 A  
HETATM   14  C   UNL     1     -10.709  16.722  68.927  1.00  0.00    -0.333 A  
HETATM   15  O   UNL     1     -10.313  18.017  69.090  1.00  0.00    -0.439 OA 
HETATM   16  C   UNL     1     -10.452  16.116  67.705  1.00  0.00    -0.295 A  
HETATM   17  H   UNL     1      -9.872  18.490  68.394  1.00  0.00     0.000 HD 
HETATM   18  C   UNL     1     -10.857  14.797  67.489  1.00  0.00    -0.287 A  
ENDBRANCH  10  11
ENDBRANCH   9  10
ENDBRANCH   8   9
ENDBRANCH   7   8
ENDBRANCH   5   7
ENDBRANCH   4   5
ENDBRANCH   3   4
BRANCH   3  19
HETATM   19  C   UNL     1      -8.070  10.515  66.854  1.00  0.00    -0.120 A  
HETATM   20  C   UNL     1      -9.320  10.956  66.387  1.00  0.00    -0.199 A  
HETATM   21  H   UNL     1      -8.582   9.431  62.300  1.00  0.00     0.000 HD 
HETATM   22  C   UNL     1      -7.204   9.857  65.960  1.00  0.00    -0.106 A  
HETATM   23  H   UNL     1     -11.133  11.005  63.659  1.00  0.00     0.000 HD 
HETATM   24  C   UNL     1      -9.680  10.741  65.061  1.00  0.00    -0.269 A  
HETATM   25  C   UNL     1      -7.572   9.645  64.629  1.00  0.00    -0.126 A  
HETATM   26  O   UNL     1     -10.887  11.151  64.565  1.00  0.00    -0.326 OA 
HETATM   27  C   UNL     1      -8.810  10.088  64.192  1.00  0.00    -0.221 A  
HETATM   28  O   UNL     1      -9.176   9.876  62.893  1.00  0.00    -0.267 OA 
ENDBRANCH   3  19
TORSDOF 8
ENDMDL
MODEL      239
REMARK 921   NORMALIZED FREE ENERGY PREDICTED BY IDOCK:   -4.07 KCAL/MOL
REMARK 922        TOTAL FREE ENERGY PREDICTED BY IDOCK:   -7.18 KCAL/MOL
REMARK 923 INTER-LIGAND FREE ENERGY PREDICTED BY IDOCK:   -5.83 KCAL/MOL
REMARK 924 INTRA-LIGAND FREE ENERGY PREDICTED BY IDOCK:   -1.35 KCAL/MOL
REMARK 927      BINDING AFFINITY PREDICTED BY RF-SCORE:    0.00 PKD
ROOT
HETATM    1  O   UNL     1      -7.824  10.735  63.090  1.00  0.00    -0.342 OA 
HETATM    2  H   UNL     1      -6.947  11.019  63.325  1.00  0.00     0.000 HD 
HETATM    3  C   UNL     1      -8.711  10.957  64.193  1.00  0.00     0.003 C  
ENDROOT
BRANCH   3   4
HETATM    4  C   UNL     1     -10.137  10.495  63.810  1.00  0.00    -0.184 C  
BRANCH   4   5
HETATM    5  N   UNL     1     -10.835  11.499  62.976  1.00  0.00    -0.762 NA 
HETATM    6  H   UNL     1     -11.042  11.142  62.043  1.00  0.00     0.000 HD 
BRANCH   5   7
HETATM    7  C   UNL     1     -12.041  11.975  63.662  1.00  0.00    -0.527 C  
BRANCH   7   8
HETATM    8  C   UNL     1     -12.257  13.462  63.374  1.00  0.00    -0.419 C  
BRANCH   8   9
HETATM    9  C   UNL     1     -12.358  14.257  64.678  1.00  0.00    -0.433 C  
BRANCH   9  10
HETATM   10  C   UNL     1     -11.196  15.241  64.835  1.00  0.00    -0.422 C  
BRANCH  10  11
HETATM   11  C   UNL     1     -10.324  14.862  66.008  1.00  0.00    -0.313 A  
HETATM   12  C   UNL     1      -9.086  15.491  66.207  1.00  0.00    -0.369 A  
HETATM   13  C   UNL     1      -8.254  15.105  67.260  1.00  0.00    -0.234 A  
HETATM   14  C   UNL     1      -8.660  14.085  68.114  1.00  0.00    -0.181 A  
HETATM   15  O   UNL     1      -7.871  13.664  69.143  1.00  0.00    -0.331 OA 
HETATM   16  C   UNL     1      -9.886  13.456  67.938  1.00  0.00    -0.237 A  
HETATM   17  H   UNL     1      -8.149  12.967  69.726  1.00  0.00     0.000 HD 
HETATM   18  C   UNL     1     -10.717  13.842  66.885  1.00  0.00    -0.284 A  
ENDBRANCH  10  11
ENDBRANCH   9  10
ENDBRANCH   8   9
ENDBRANCH   7   8
ENDBRANCH   5   7
ENDBRANCH   4   5
ENDBRANCH   3   4
BRANCH   3  19
HETATM   19  C   UNL     1      -8.205  10.224  65.419  1.00  0.00    -0.156 A  
HETATM   20  C   UNL     1      -8.056  10.878  66.654  1.00  0.00    -0.147 A  
HETATM   21  H   UNL     1      -6.467   7.257  68.637  1.00  0.00     0.000 HD 
HETATM   22  C   UNL     1      -7.840   8.867  65.321  1.00  0.00    -0.104 A  
HETATM   23  H   UNL     1      -7.056  10.307  69.720  1.00  0.00     0.000 HD 
HETATM   24  C   UNL     1      -7.559  10.184  67.751  1.00  0.00    -0.090 A  
HETATM   25  C   UNL     1      -7.342   8.176  66.427  1.00  0.00    -0.080 A  
HETATM   26  O   UNL     1      -7.396  10.782  68.971  1.00  0.00    -0.089 OA 
HETATM   27  C   UNL     1      -7.203   8.842  67.634  1.00  0.00    -0.080 A  
HETATM   28  O   UNL     1      -6.709   8.172  68.716  1.00  0.00    -0.055 OA 
ENDBRANCH   3  19
TORSDOF 8
ENDMDL
MODEL      240
REMARK 921   NORMALIZED FREE ENERGY PREDICTED BY IDOCK:   -4.07 KCAL/MOL
REMARK 922        TOTAL FREE ENERGY PREDICTED BY IDOCK:   -7.17 KCAL/MOL
REMARK 923 INTER-LIGAND FREE ENERGY PREDICTED BY IDOCK:   -6.53 KCAL/MOL
REMARK 924 INTRA-LIGAND FREE ENERGY PREDICTED BY IDOCK:   -0.64 KCAL/MOL
REMARK 927      BINDING AFFINITY PREDICTED BY RF-SCORE:    0.00 PKD
ROOT
HETATM    1  O   UNL     1     -12.124   6.325  72.378  1.00  0.00    -0.493 OA 
HETATM    2  H   UNL     1     -12.158   5.379  72.295  1.00  0.00     0.000 HD 
HETATM    3  C   UNL     1     -11.595   6.893  71.173  1.00  0.00    -0.319 C  
ENDROOT
BRANCH   3   4
HETATM    4  C   UNL     1     -11.540   8.433  71.309  1.00  0.00    -0.283 C  
BRANCH   4   5
HETATM    5  N   UNL     1     -11.716   9.107  70.003  1.00  0.00    -0.451 NA 
HETATM    6  H   UNL     1     -12.661   8.992  69.638  1.00  0.00     0.000 HD 
BRANCH   5   7
HETATM    7  C   UNL     1     -11.337  10.521  70.111  1.00  0.00    -0.323 C  
BRANCH   7   8
HETATM    8  C   UNL     1     -11.356  11.176  68.727  1.00  0.00    -0.342 C  
BRANCH   8   9
HETATM    9  C   UNL     1     -10.251  10.598  67.841  1.00  0.00    -0.206 C  
BRANCH   9  10
HETATM   10  C   UNL     1      -9.170  11.637  67.529  1.00  0.00    -0.172 C  
BRANCH  10  11
HETATM   11  C   UNL     1      -9.722  12.747  66.668  1.00  0.00    -0.252 A  
HETATM   12  C   UNL     1     -10.167  12.483  65.364  1.00  0.00    -0.303 A  
HETATM   13  C   UNL     1     -10.628  13.518  64.548  1.00  0.00    -0.439 A  
HETATM   14  C   UNL     1     -10.639  14.821  65.035  1.00  0.00    -0.429 A  
HETATM   15  O   UNL     1     -11.062  15.864  64.266  1.00  0.00    -0.876 OA 
HETATM   16  C   UNL     1     -10.209  15.101  66.325  1.00  0.00    -0.300 A  
HETATM   17  H   UNL     1     -11.069  16.753  64.599  1.00  0.00     0.000 HD 
HETATM   18  C   UNL     1      -9.749  14.066  67.141  1.00  0.00    -0.242 A  
ENDBRANCH  10  11
ENDBRANCH   9  10
ENDBRANCH   8   9
ENDBRANCH   7   8
ENDBRANCH   5   7
ENDBRANCH   4   5
ENDBRANCH   3   4
BRANCH   3  19
HETATM   19  C   UNL     1     -10.223   6.316  70.889  1.00  0.00    -0.236 A  
HETATM   20  C   UNL     1      -9.090   6.730  71.610  1.00  0.00    -0.144 A  
HETATM   21  H   UNL     1      -6.376   4.125  69.283  1.00  0.00     0.000 HD 
HETATM   22  C   UNL     1     -10.064   5.368  69.859  1.00  0.00    -0.322 A  
HETATM   23  H   UNL     1      -5.859   6.222  71.766  1.00  0.00     0.000 HD 
HETATM   24  C   UNL     1      -7.841   6.204  71.302  1.00  0.00    -0.111 A  
HETATM   25  C   UNL     1      -8.805   4.843  69.555  1.00  0.00    -0.120 A  
HETATM   26  O   UNL     1      -6.712   6.581  71.976  1.00  0.00    -0.061 OA 
HETATM   27  C   UNL     1      -7.703   5.269  70.279  1.00  0.00    -0.072 A  
HETATM   28  O   UNL     1      -6.470   4.763  69.980  1.00  0.00    -0.032 OA 
ENDBRANCH   3  19
TORSDOF 8
ENDMDL
MODEL      241
REMARK 921   NORMALIZED FREE ENERGY PREDICTED BY IDOCK:   -4.06 KCAL/MOL
REMARK 922        TOTAL FREE ENERGY PREDICTED BY IDOCK:   -7.16 KCAL/MOL
REMARK 923 INTER-LIGAND FREE ENERGY PREDICTED BY IDOCK:   -6.21 KCAL/MOL
REMARK 924 INTRA-LIGAND FREE ENERGY PREDICTED BY IDOCK:   -0.95 KCAL/MOL
REMARK 927      BINDING AFFINITY PREDICTED BY RF-SCORE:    0.00 PKD
ROOT
HETATM    1  O   UNL     1      -9.260  18.797  68.436  1.00  0.00    -0.316 OA 
HETATM    2  H   UNL     1      -8.538  19.014  69.015  1.00  0.00     0.000 HD 
HETATM    3  C   UNL     1      -9.640  17.430  68.638  1.00  0.00    -0.295 C  
ENDROOT
BRANCH   3   4
HETATM    4  C   UNL     1     -10.815  17.076  67.695  1.00  0.00    -0.244 C  
BRANCH   4   5
HETATM    5  N   UNL     1     -10.500  17.387  66.283  1.00  0.00    -0.315 NA 
HETATM    6  H   UNL     1      -9.692  18.004  66.199  1.00  0.00     0.000 HD 
BRANCH   5   7
HETATM    7  C   UNL     1     -10.324  16.145  65.521  1.00  0.00    -0.367 C  
BRANCH   7   8
HETATM    8  C   UNL     1     -11.161  15.024  66.143  1.00  0.00    -0.329 C  
BRANCH   8   9
HETATM    9  C   UNL     1     -10.290  13.801  66.440  1.00  0.00    -0.290 C  
BRANCH   9  10
HETATM   10  C   UNL     1     -11.136  12.560  66.736  1.00  0.00    -0.323 C  
BRANCH  10  11
HETATM   11  C   UNL     1     -11.531  12.510  68.192  1.00  0.00    -0.368 A  
HETATM   12  C   UNL     1     -12.023  11.324  68.756  1.00  0.00    -0.350 A  
HETATM   13  C   UNL     1     -12.439  11.291  70.089  1.00  0.00    -0.297 A  
HETATM   14  C   UNL     1     -12.366  12.448  70.857  1.00  0.00    -0.262 A  
HETATM   15  O   UNL     1     -12.779  12.465  72.157  1.00  0.00    -0.115 OA 
HETATM   16  C   UNL     1     -11.875  13.630  70.319  1.00  0.00    -0.336 A  
HETATM   17  H   UNL     1     -12.730  13.255  72.681  1.00  0.00     0.000 HD 
HETATM   18  C   UNL     1     -11.460  13.663  68.986  1.00  0.00    -0.346 A  
ENDBRANCH  10  11
ENDBRANCH   9  10
ENDBRANCH   8   9
ENDBRANCH   7   8
ENDBRANCH   5   7
ENDBRANCH   4   5
ENDBRANCH   3   4
BRANCH   3  19
HETATM   19  C   UNL     1      -8.450  16.522  68.400  1.00  0.00    -0.208 A  
HETATM   20  C   UNL     1      -7.326  16.961  67.679  1.00  0.00    -0.170 A  
HETATM   21  H   UNL     1      -5.294  13.047  68.023  1.00  0.00     0.000 HD 
HETATM   22  C   UNL     1      -8.476  15.197  68.877  1.00  0.00    -0.199 A  
HETATM   23  H   UNL     1      -4.428  15.884  66.598  1.00  0.00     0.000 HD 
HETATM   24  C   UNL     1      -6.265  16.093  67.452  1.00  0.00    -0.166 A  
HETATM   25  C   UNL     1      -7.406  14.330  68.645  1.00  0.00    -0.125 A  
HETATM   26  O   UNL     1      -5.154  16.477  66.754  1.00  0.00    -0.334 OA 
HETATM   27  C   UNL     1      -6.310  14.785  67.931  1.00  0.00    -0.161 A  
HETATM   28  O   UNL     1      -5.264  13.938  67.696  1.00  0.00    -0.293 OA 
ENDBRANCH   3  19
TORSDOF 8
ENDMDL
MODEL      242
REMARK 921   NORMALIZED FREE ENERGY PREDICTED BY IDOCK:   -4.06 KCAL/MOL
REMARK 922        TOTAL FREE ENERGY PREDICTED BY IDOCK:   -7.16 KCAL/MOL
REMARK 923 INTER-LIGAND FREE ENERGY PREDICTED BY IDOCK:   -6.02 KCAL/MOL
REMARK 924 INTRA-LIGAND FREE ENERGY PREDICTED BY IDOCK:   -1.13 KCAL/MOL
REMARK 927      BINDING AFFINITY PREDICTED BY RF-SCORE:    0.00 PKD
ROOT
HETATM    1  O   UNL     1      -6.393   8.997  70.071  1.00  0.00    -0.036 OA 
HETATM    2  H   UNL     1      -6.334   8.454  70.849  1.00  0.00     0.000 HD 
HETATM    3  C   UNL     1      -7.524   9.870  70.182  1.00  0.00    -0.170 C  
ENDROOT
BRANCH   3   4
HETATM    4  C   UNL     1      -7.620  10.754  68.916  1.00  0.00    -0.121 C  
BRANCH   4   5
HETATM    5  N   UNL     1      -8.323  10.062  67.814  1.00  0.00    -0.114 NA 
HETATM    6  H   UNL     1      -8.807   9.224  68.136  1.00  0.00     0.000 HD 
BRANCH   5   7
HETATM    7  C   UNL     1      -9.230  10.991  67.131  1.00  0.00    -0.152 C  
BRANCH   7   8
HETATM    8  C   UNL     1     -10.682  10.547  67.325  1.00  0.00    -0.333 C  
BRANCH   8   9
HETATM    9  C   UNL     1     -11.493  11.641  68.023  1.00  0.00    -0.385 C  
BRANCH   9  10
HETATM   10  C   UNL     1     -10.688  12.934  68.178  1.00  0.00    -0.258 C  
BRANCH  10  11
HETATM   11  C   UNL     1     -11.242  13.783  69.297  1.00  0.00    -0.291 A  
HETATM   12  C   UNL     1     -12.363  13.359  70.025  1.00  0.00    -0.294 A  
HETATM   13  C   UNL     1     -12.909  14.168  71.023  1.00  0.00    -0.421 A  
HETATM   14  C   UNL     1     -12.334  15.406  71.292  1.00  0.00    -0.385 A  
HETATM   15  O   UNL     1     -12.846  16.235  72.245  1.00  0.00    -0.430 OA 
HETATM   16  C   UNL     1     -11.219  15.840  70.588  1.00  0.00    -0.395 A  
HETATM   17  H   UNL     1     -12.453  17.080  72.428  1.00  0.00     0.000 HD 
HETATM   18  C   UNL     1     -10.674  15.031  69.589  1.00  0.00    -0.270 A  
ENDBRANCH  10  11
ENDBRANCH   9  10
ENDBRANCH   8   9
ENDBRANCH   7   8
ENDBRANCH   5   7
ENDBRANCH   4   5
ENDBRANCH   3   4
BRANCH   3  19
HETATM   19  C   UNL     1      -8.787   9.057  70.383  1.00  0.00    -0.228 A  
HETATM   20  C   UNL     1      -9.917   9.603  71.017  1.00  0.00    -0.151 A  
HETATM   21  H   UNL     1     -12.197   5.825  70.705  1.00  0.00     0.000 HD 
HETATM   22  C   UNL     1      -8.828   7.714  69.961  1.00  0.00    -0.143 A  
HETATM   23  H   UNL     1     -12.941   8.774  71.963  1.00  0.00     0.000 HD 
HETATM   24  C   UNL     1     -11.048   8.819  71.214  1.00  0.00    -0.278 A  
HETATM   25  C   UNL     1      -9.968   6.933  70.162  1.00  0.00    -0.188 A  
HETATM   26  O   UNL     1     -12.167   9.309  71.828  1.00  0.00    -0.341 OA 
HETATM   27  C   UNL     1     -11.069   7.493  70.790  1.00  0.00    -0.265 A  
HETATM   28  O   UNL     1     -12.183   6.730  70.995  1.00  0.00    -0.377 OA 
ENDBRANCH   3  19
TORSDOF 8
ENDMDL
MODEL      243
REMARK 921   NORMALIZED FREE ENERGY PREDICTED BY IDOCK:   -4.06 KCAL/MOL
REMARK 922        TOTAL FREE ENERGY PREDICTED BY IDOCK:   -7.16 KCAL/MOL
REMARK 923 INTER-LIGAND FREE ENERGY PREDICTED BY IDOCK:   -6.63 KCAL/MOL
REMARK 924 INTRA-LIGAND FREE ENERGY PREDICTED BY IDOCK:   -0.53 KCAL/MOL
REMARK 927      BINDING AFFINITY PREDICTED BY RF-SCORE:    0.00 PKD
ROOT
HETATM    1  O   UNL     1     -10.946  10.444  70.552  1.00  0.00    -0.365 OA 
HETATM    2  H   UNL     1     -11.773  10.148  70.915  1.00  0.00     0.000 HD 
HETATM    3  C   UNL     1     -10.321   9.366  69.843  1.00  0.00    -0.227 C  
ENDROOT
BRANCH   3   4
HETATM    4  C   UNL     1      -8.975   9.848  69.253  1.00  0.00    -0.178 C  
BRANCH   4   5
HETATM    5  N   UNL     1      -8.894   9.602  67.796  1.00  0.00    -0.125 NA 
HETATM    6  H   UNL     1      -9.760   9.209  67.426  1.00  0.00     0.000 HD 
BRANCH   5   7
HETATM    7  C   UNL     1      -8.507  10.833  67.098  1.00  0.00    -0.126 C  
BRANCH   7   8
HETATM    8  C   UNL     1      -9.433  11.981  67.505  1.00  0.00    -0.178 C  
BRANCH   8   9
HETATM    9  C   UNL     1      -8.812  13.332  67.143  1.00  0.00    -0.223 C  
BRANCH   9  10
HETATM   10  C   UNL     1      -9.823  14.260  66.465  1.00  0.00    -0.299 C  
BRANCH  10  11
HETATM   11  C   UNL     1     -10.656  13.505  65.456  1.00  0.00    -0.299 A  
HETATM   12  C   UNL     1     -12.003  13.216  65.719  1.00  0.00    -0.473 A  
HETATM   13  C   UNL     1     -12.760  12.471  64.812  1.00  0.00    -0.415 A  
HETATM   14  C   UNL     1     -12.166  12.013  63.640  1.00  0.00    -0.538 A  
HETATM   15  O   UNL     1     -12.862  11.268  62.735  1.00  0.00    -0.807 OA 
HETATM   16  C   UNL     1     -10.836  12.297  63.358  1.00  0.00    -0.457 A  
HETATM   17  H   UNL     1     -12.457  10.955  61.936  1.00  0.00     0.000 HD 
HETATM   18  C   UNL     1     -10.080  13.040  64.266  1.00  0.00    -0.216 A  
ENDBRANCH  10  11
ENDBRANCH   9  10
ENDBRANCH   8   9
ENDBRANCH   7   8
ENDBRANCH   5   7
ENDBRANCH   4   5
ENDBRANCH   3   4
BRANCH   3  19
HETATM   19  C   UNL     1     -10.125   8.183  70.770  1.00  0.00    -0.211 A  
HETATM   20  C   UNL     1     -10.003   6.874  70.272  1.00  0.00    -0.189 A  
HETATM   21  H   UNL     1      -9.675   5.121  74.320  1.00  0.00     0.000 HD 
HETATM   22  C   UNL     1     -10.097   8.384  72.164  1.00  0.00    -0.376 A  
HETATM   23  H   UNL     1      -9.635   3.790  71.311  1.00  0.00     0.000 HD 
HETATM   24  C   UNL     1      -9.855   5.808  71.151  1.00  0.00    -0.180 A  
HETATM   25  C   UNL     1      -9.948   7.308  73.042  1.00  0.00    -0.272 A  
HETATM   26  O   UNL     1      -9.736   4.519  70.710  1.00  0.00    -0.168 OA 
HETATM   27  C   UNL     1      -9.831   6.027  72.527  1.00  0.00    -0.164 A  
HETATM   28  O   UNL     1      -9.692   4.972  73.382  1.00  0.00    -0.142 OA 
ENDBRANCH   3  19
TORSDOF 8
ENDMDL
MODEL      244
REMARK 921   NORMALIZED FREE ENERGY PREDICTED BY IDOCK:   -4.04 KCAL/MOL
REMARK 922        TOTAL FREE ENERGY PREDICTED BY IDOCK:   -7.13 KCAL/MOL
REMARK 923 INTER-LIGAND FREE ENERGY PREDICTED BY IDOCK:   -6.93 KCAL/MOL
REMARK 924 INTRA-LIGAND FREE ENERGY PREDICTED BY IDOCK:   -0.20 KCAL/MOL
REMARK 927      BINDING AFFINITY PREDICTED BY RF-SCORE:    0.00 PKD
ROOT
HETATM    1  O   UNL     1     -11.094   5.567  67.110  1.00  0.00    -0.360 OA 
HETATM    2  H   UNL     1     -10.942   4.727  67.529  1.00  0.00     0.000 HD 
HETATM    3  C   UNL     1     -10.205   6.545  67.665  1.00  0.00    -0.170 C  
ENDROOT
BRANCH   3   4
HETATM    4  C   UNL     1     -10.452   7.912  66.984  1.00  0.00    -0.349 C  
BRANCH   4   5
HETATM    5  N   UNL     1     -10.830   8.955  67.963  1.00  0.00    -0.477 NA 
HETATM    6  H   UNL     1     -10.907   8.580  68.909  1.00  0.00     0.000 HD 
BRANCH   5   7
HETATM    7  C   UNL     1      -9.888  10.077  67.894  1.00  0.00    -0.145 C  
BRANCH   7   8
HETATM    8  C   UNL     1     -10.513  11.327  68.519  1.00  0.00    -0.218 C  
BRANCH   8   9
HETATM    9  C   UNL     1     -11.133  12.219  67.441  1.00  0.00    -0.333 C  
BRANCH   9  10
HETATM   10  C   UNL     1     -11.907  13.391  68.048  1.00  0.00    -0.392 C  
BRANCH  10  11
HETATM   11  C   UNL     1     -11.368  14.710  67.550  1.00  0.00    -0.361 A  
HETATM   12  C   UNL     1     -11.057  14.885  66.193  1.00  0.00    -0.335 A  
HETATM   13  C   UNL     1     -10.508  16.087  65.740  1.00  0.00    -0.391 A  
HETATM   14  C   UNL     1     -10.266  17.113  66.647  1.00  0.00    -0.319 A  
HETATM   15  O   UNL     1      -9.713  18.295  66.251  1.00  0.00    -0.376 OA 
HETATM   16  C   UNL     1     -10.573  16.961  67.992  1.00  0.00    -0.367 A  
HETATM   17  H   UNL     1      -9.547  18.996  66.870  1.00  0.00     0.000 HD 
HETATM   18  C   UNL     1     -11.122  15.760  68.445  1.00  0.00    -0.341 A  
ENDBRANCH  10  11
ENDBRANCH   9  10
ENDBRANCH   8   9
ENDBRANCH   7   8
ENDBRANCH   5   7
ENDBRANCH   4   5
ENDBRANCH   3   4
BRANCH   3  19
HETATM   19  C   UNL     1     -10.404   6.633  69.165  1.00  0.00    -0.220 A  
HETATM   20  C   UNL     1     -11.688   6.597  69.737  1.00  0.00    -0.279 A  
HETATM   21  H   UNL     1     -10.119   7.091  73.843  1.00  0.00     0.000 HD 
HETATM   22  C   UNL     1      -9.288   6.789  70.010  1.00  0.00    -0.158 A  
HETATM   23  H   UNL     1     -13.169   6.763  72.653  1.00  0.00     0.000 HD 
HETATM   24  C   UNL     1     -11.837   6.712  71.114  1.00  0.00    -0.360 A  
HETATM   25  C   UNL     1      -9.446   6.904  71.393  1.00  0.00    -0.160 A  
HETATM   26  O   UNL     1     -13.067   6.684  71.712  1.00  0.00    -0.294 OA 
HETATM   27  C   UNL     1     -10.721   6.867  71.933  1.00  0.00    -0.218 A  
HETATM   28  O   UNL     1     -10.879   6.986  73.285  1.00  0.00    -0.308 OA 
ENDBRANCH   3  19
TORSDOF 8
ENDMDL
MODEL      245
REMARK 921   NORMALIZED FREE ENERGY PREDICTED BY IDOCK:   -4.04 KCAL/MOL
REMARK 922        TOTAL FREE ENERGY PREDICTED BY IDOCK:   -7.13 KCAL/MOL
REMARK 923 INTER-LIGAND FREE ENERGY PREDICTED BY IDOCK:   -6.12 KCAL/MOL
REMARK 924 INTRA-LIGAND FREE ENERGY PREDICTED BY IDOCK:   -1.01 KCAL/MOL
REMARK 927      BINDING AFFINITY PREDICTED BY RF-SCORE:    0.00 PKD
ROOT
HETATM    1  O   UNL     1     -10.007   9.259  65.498  1.00  0.00    -0.440 OA 
HETATM    2  H   UNL     1     -10.749   8.769  65.164  1.00  0.00     0.000 HD 
HETATM    3  C   UNL     1      -8.816   8.473  65.367  1.00  0.00    -0.130 C  
ENDROOT
BRANCH   3   4
HETATM    4  C   UNL     1      -7.607   9.271  65.911  1.00  0.00    -0.098 C  
BRANCH   4   5
HETATM    5  N   UNL     1      -7.733   9.539  67.361  1.00  0.00    -0.095 NA 
HETATM    6  H   UNL     1      -7.146   8.917  67.917  1.00  0.00     0.000 HD 
BRANCH   5   7
HETATM    7  C   UNL     1      -7.453  10.952  67.638  1.00  0.00    -0.095 C  
BRANCH   7   8
HETATM    8  C   UNL     1      -8.499  11.515  68.604  1.00  0.00    -0.115 C  
BRANCH   8   9
HETATM    9  C   UNL     1      -9.581  10.474  68.896  1.00  0.00    -0.199 C  
BRANCH   9  10
HETATM   10  C   UNL     1      -9.426   9.870  70.294  1.00  0.00    -0.162 C  
BRANCH  10  11
HETATM   11  C   UNL     1     -10.769   9.713  70.966  1.00  0.00    -0.393 A  
HETATM   12  C   UNL     1     -11.665  10.791  71.027  1.00  0.00    -0.242 A  
HETATM   13  C   UNL     1     -12.885  10.663  71.695  1.00  0.00    -0.570 A  
HETATM   14  C   UNL     1     -13.207   9.455  72.305  1.00  0.00    -0.446 A  
HETATM   15  O   UNL     1     -14.379   9.293  72.984  1.00  0.00    -1.004 OA 
HETATM   16  C   UNL     1     -12.338   8.375  72.248  1.00  0.00    -0.436 A  
HETATM   17  H   UNL     1     -14.599   8.469  73.401  1.00  0.00     0.000 HD 
HETATM   18  C   UNL     1     -11.118   8.503  71.581  1.00  0.00    -0.360 A  
ENDBRANCH  10  11
ENDBRANCH   9  10
ENDBRANCH   8   9
ENDBRANCH   7   8
ENDBRANCH   5   7
ENDBRANCH   4   5
ENDBRANCH   3   4
BRANCH   3  19
HETATM   19  C   UNL     1      -8.982   7.156  66.099  1.00  0.00    -0.168 A  
HETATM   20  C   UNL     1      -8.052   6.113  65.950  1.00  0.00    -0.121 A  
HETATM   21  H   UNL     1     -10.323   3.407  68.614  1.00  0.00     0.000 HD 
HETATM   22  C   UNL     1     -10.106   6.952  66.922  1.00  0.00    -0.286 A  
HETATM   23  H   UNL     1      -7.510   3.040  66.945  1.00  0.00     0.000 HD 
HETATM   24  C   UNL     1      -8.251   4.907  66.612  1.00  0.00    -0.107 A  
HETATM   25  C   UNL     1     -10.300   5.738  67.585  1.00  0.00    -0.270 A  
HETATM   26  O   UNL     1      -7.374   3.864  66.493  1.00  0.00    -0.070 OA 
HETATM   27  C   UNL     1      -9.371   4.723  67.421  1.00  0.00    -0.137 A  
HETATM   28  O   UNL     1      -9.560   3.532  68.062  1.00  0.00    -0.179 OA 
ENDBRANCH   3  19
TORSDOF 8
ENDMDL
MODEL      246
REMARK 921   NORMALIZED FREE ENERGY PREDICTED BY IDOCK:   -4.04 KCAL/MOL
REMARK 922        TOTAL FREE ENERGY PREDICTED BY IDOCK:   -7.13 KCAL/MOL
REMARK 923 INTER-LIGAND FREE ENERGY PREDICTED BY IDOCK:   -6.15 KCAL/MOL
REMARK 924 INTRA-LIGAND FREE ENERGY PREDICTED BY IDOCK:   -0.98 KCAL/MOL
REMARK 927      BINDING AFFINITY PREDICTED BY RF-SCORE:    0.00 PKD
ROOT
HETATM    1  O   UNL     1      -9.484   5.778  69.902  1.00  0.00    -0.144 OA 
HETATM    2  H   UNL     1      -9.340   5.712  70.840  1.00  0.00     0.000 HD 
HETATM    3  C   UNL     1      -9.828   7.128  69.565  1.00  0.00    -0.162 C  
ENDROOT
BRANCH   3   4
HETATM    4  C   UNL     1     -10.062   7.235  68.039  1.00  0.00    -0.172 C  
BRANCH   4   5
HETATM    5  N   UNL     1      -8.900   7.834  67.345  1.00  0.00    -0.127 NA 
HETATM    6  H   UNL     1      -8.752   7.421  66.424  1.00  0.00     0.000 HD 
BRANCH   5   7
HETATM    7  C   UNL     1      -9.051   9.292  67.277  1.00  0.00    -0.126 C  
BRANCH   7   8
HETATM    8  C   UNL     1     -10.488   9.654  66.896  1.00  0.00    -0.282 C  
BRANCH   8   9
HETATM    9  C   UNL     1     -11.056  10.697  67.861  1.00  0.00    -0.371 C  
BRANCH   9  10
HETATM   10  C   UNL     1     -11.519  11.958  67.127  1.00  0.00    -0.386 C  
BRANCH  10  11
HETATM   11  C   UNL     1     -10.387  12.948  66.989  1.00  0.00    -0.245 A  
HETATM   12  C   UNL     1      -9.350  12.980  67.933  1.00  0.00    -0.212 A  
HETATM   13  C   UNL     1      -8.331  13.930  67.837  1.00  0.00    -0.167 A  
HETATM   14  C   UNL     1      -8.352  14.852  66.796  1.00  0.00    -0.123 A  
HETATM   15  O   UNL     1      -7.388  15.808  66.674  1.00  0.00    -0.147 OA 
HETATM   16  C   UNL     1      -9.366  14.831  65.847  1.00  0.00    -0.189 A  
HETATM   17  H   UNL     1      -7.402  16.438  65.964  1.00  0.00     0.000 HD 
HETATM   18  C   UNL     1     -10.384  13.881  65.944  1.00  0.00    -0.318 A  
ENDBRANCH  10  11
ENDBRANCH   9  10
ENDBRANCH   8   9
ENDBRANCH   7   8
ENDBRANCH   5   7
ENDBRANCH   4   5
ENDBRANCH   3   4
BRANCH   3  19
HETATM   19  C   UNL     1     -11.055   7.559  70.343  1.00  0.00    -0.277 A  
HETATM   20  C   UNL     1     -11.231   8.891  70.754  1.00  0.00    -0.321 A  
HETATM   21  H   UNL     1     -15.050   7.993  72.797  1.00  0.00     0.000 HD 
HETATM   22  C   UNL     1     -12.029   6.605  70.695  1.00  0.00    -0.404 A  
HETATM   23  H   UNL     1     -13.329  10.773  72.422  1.00  0.00     0.000 HD 
HETATM   24  C   UNL     1     -12.353   9.246  71.494  1.00  0.00    -0.360 A  
HETATM   25  C   UNL     1     -13.155   6.969  71.438  1.00  0.00    -0.375 A  
HETATM   26  O   UNL     1     -12.563  10.530  71.917  1.00  0.00    -0.381 OA 
HETATM   27  C   UNL     1     -13.305   8.288  71.834  1.00  0.00    -0.342 A  
HETATM   28  O   UNL     1     -14.401   8.646  72.566  1.00  0.00    -0.523 OA 
ENDBRANCH   3  19
TORSDOF 8
ENDMDL
MODEL      247
REMARK 921   NORMALIZED FREE ENERGY PREDICTED BY IDOCK:   -4.03 KCAL/MOL
REMARK 922        TOTAL FREE ENERGY PREDICTED BY IDOCK:   -7.12 KCAL/MOL
REMARK 923 INTER-LIGAND FREE ENERGY PREDICTED BY IDOCK:   -5.93 KCAL/MOL
REMARK 924 INTRA-LIGAND FREE ENERGY PREDICTED BY IDOCK:   -1.19 KCAL/MOL
REMARK 927      BINDING AFFINITY PREDICTED BY RF-SCORE:    0.00 PKD
ROOT
HETATM    1  O   UNL     1      -7.598   8.476  68.581  1.00  0.00    -0.094 OA 
HETATM    2  H   UNL     1      -7.266   9.030  69.278  1.00  0.00     0.000 HD 
HETATM    3  C   UNL     1      -9.004   8.703  68.418  1.00  0.00    -0.142 C  
ENDROOT
BRANCH   3   4
HETATM    4  C   UNL     1      -9.545   7.802  67.283  1.00  0.00    -0.161 C  
BRANCH   4   5
HETATM    5  N   UNL     1     -10.161   8.596  66.197  1.00  0.00    -0.441 NA 
HETATM    6  H   UNL     1     -10.651   9.416  66.554  1.00  0.00     0.000 HD 
BRANCH   5   7
HETATM    7  C   UNL     1      -9.148   8.954  65.197  1.00  0.00    -0.097 C  
BRANCH   7   8
HETATM    8  C   UNL     1      -9.172  10.463  64.943  1.00  0.00    -0.263 C  
BRANCH   8   9
HETATM    9  C   UNL     1     -10.611  10.976  64.865  1.00  0.00    -0.328 C  
BRANCH   9  10
HETATM   10  C   UNL     1     -10.696  12.477  65.151  1.00  0.00    -0.323 C  
BRANCH  10  11
HETATM   11  C   UNL     1     -11.035  12.733  66.599  1.00  0.00    -0.300 A  
HETATM   12  C   UNL     1     -10.754  13.975  67.188  1.00  0.00    -0.283 A  
HETATM   13  C   UNL     1     -11.017  14.195  68.542  1.00  0.00    -0.271 A  
HETATM   14  C   UNL     1     -11.559  13.169  69.309  1.00  0.00    -0.314 A  
HETATM   15  O   UNL     1     -11.814  13.335  70.638  1.00  0.00    -0.518 OA 
HETATM   16  C   UNL     1     -11.851  11.936  68.743  1.00  0.00    -0.371 A  
HETATM   17  H   UNL     1     -12.183  12.634  71.162  1.00  0.00     0.000 HD 
HETATM   18  C   UNL     1     -11.588  11.716  67.389  1.00  0.00    -0.330 A  
ENDBRANCH  10  11
ENDBRANCH   9  10
ENDBRANCH   8   9
ENDBRANCH   7   8
ENDBRANCH   5   7
ENDBRANCH   4   5
ENDBRANCH   3   4
BRANCH   3  19
HETATM   19  C   UNL     1      -9.725   8.436  69.725  1.00  0.00    -0.180 A  
HETATM   20  C   UNL     1      -9.122   8.712  70.964  1.00  0.00    -0.248 A  
HETATM   21  H   UNL     1     -12.594   7.194  73.247  1.00  0.00     0.000 HD 
HETATM   22  C   UNL     1     -11.013   7.867  69.708  1.00  0.00    -0.148 A  
HETATM   23  H   UNL     1      -9.711   8.480  74.177  1.00  0.00     0.000 HD 
HETATM   24  C   UNL     1      -9.799   8.426  72.143  1.00  0.00    -0.302 A  
HETATM   25  C   UNL     1     -11.688   7.582  70.897  1.00  0.00    -0.307 A  
HETATM   26  O   UNL     1      -9.249   8.676  73.371  1.00  0.00    -0.149 OA 
HETATM   27  C   UNL     1     -11.072   7.862  72.107  1.00  0.00    -0.294 A  
HETATM   28  O   UNL     1     -11.726   7.578  73.272  1.00  0.00    -0.066 OA 
ENDBRANCH   3  19
TORSDOF 8
ENDMDL
MODEL      248
REMARK 921   NORMALIZED FREE ENERGY PREDICTED BY IDOCK:   -4.02 KCAL/MOL
REMARK 922        TOTAL FREE ENERGY PREDICTED BY IDOCK:   -7.10 KCAL/MOL
REMARK 923 INTER-LIGAND FREE ENERGY PREDICTED BY IDOCK:   -6.28 KCAL/MOL
REMARK 924 INTRA-LIGAND FREE ENERGY PREDICTED BY IDOCK:   -0.82 KCAL/MOL
REMARK 927      BINDING AFFINITY PREDICTED BY RF-SCORE:    0.00 PKD
ROOT
HETATM    1  O   UNL     1     -12.201  15.253  68.629  1.00  0.00    -0.575 OA 
HETATM    2  H   UNL     1     -12.881  15.723  68.159  1.00  0.00     0.000 HD 
HETATM    3  C   UNL     1     -11.342  16.189  69.291  1.00  0.00    -0.328 C  
ENDROOT
BRANCH   3   4
HETATM    4  C   UNL     1     -10.236  15.424  70.056  1.00  0.00    -0.249 C  
BRANCH   4   5
HETATM    5  N   UNL     1      -9.542  14.447  69.187  1.00  0.00    -0.403 NA 
HETATM    6  H   UNL     1     -10.072  14.247  68.338  1.00  0.00     0.000 HD 
BRANCH   5   7
HETATM    7  C   UNL     1      -8.184  14.913  68.888  1.00  0.00    -0.171 C  
BRANCH   7   8
HETATM    8  C   UNL     1      -7.240  13.718  68.732  1.00  0.00    -0.106 C  
BRANCH   8   9
HETATM    9  C   UNL     1      -7.219  13.231  67.282  1.00  0.00    -0.033 C  
BRANCH   9  10
HETATM   10  C   UNL     1      -7.513  11.732  67.180  1.00  0.00    -0.149 C  
BRANCH  10  11
HETATM   11  C   UNL     1      -8.869  11.408  67.760  1.00  0.00    -0.143 A  
HETATM   12  C   UNL     1      -8.977  10.723  68.979  1.00  0.00    -0.141 A  
HETATM   13  C   UNL     1     -10.229  10.375  69.490  1.00  0.00    -0.258 A  
HETATM   14  C   UNL     1     -11.376  10.711  68.778  1.00  0.00    -0.277 A  
HETATM   15  O   UNL     1     -12.617  10.375  69.230  1.00  0.00    -0.686 OA 
HETATM   16  C   UNL     1     -11.290  11.397  67.573  1.00  0.00    -0.362 A  
HETATM   17  H   UNL     1     -13.400  10.604  68.744  1.00  0.00     0.000 HD 
HETATM   18  C   UNL     1     -10.038  11.744  67.063  1.00  0.00    -0.232 A  
ENDBRANCH  10  11
ENDBRANCH   9  10
ENDBRANCH   8   9
ENDBRANCH   7   8
ENDBRANCH   5   7
ENDBRANCH   4   5
ENDBRANCH   3   4
BRANCH   3  19
HETATM   19  C   UNL     1     -10.749  17.151  68.281  1.00  0.00    -0.363 A  
HETATM   20  C   UNL     1     -10.199  18.383  68.678  1.00  0.00    -0.370 A  
HETATM   21  H   UNL     1      -9.258  19.558  64.518  1.00  0.00     0.000 HD 
HETATM   22  C   UNL     1     -10.775  16.829  66.910  1.00  0.00    -0.139 A  
HETATM   23  H   UNL     1      -8.805  21.061  67.410  1.00  0.00     0.000 HD 
HETATM   24  C   UNL     1      -9.693  19.256  67.722  1.00  0.00    -0.326 A  
HETATM   25  C   UNL     1     -10.264  17.711  65.956  1.00  0.00    -0.301 A  
HETATM   26  O   UNL     1      -9.152  20.465  68.063  1.00  0.00    -0.188 OA 
HETATM   27  C   UNL     1      -9.729  18.920  66.371  1.00  0.00    -0.363 A  
HETATM   28  O   UNL     1      -9.234  19.787  65.439  1.00  0.00    -0.118 OA 
ENDBRANCH   3  19
TORSDOF 8
ENDMDL
MODEL      249
REMARK 921   NORMALIZED FREE ENERGY PREDICTED BY IDOCK:   -4.01 KCAL/MOL
REMARK 922        TOTAL FREE ENERGY PREDICTED BY IDOCK:   -7.08 KCAL/MOL
REMARK 923 INTER-LIGAND FREE ENERGY PREDICTED BY IDOCK:   -6.37 KCAL/MOL
REMARK 924 INTRA-LIGAND FREE ENERGY PREDICTED BY IDOCK:   -0.71 KCAL/MOL
REMARK 927      BINDING AFFINITY PREDICTED BY RF-SCORE:    0.00 PKD
ROOT
HETATM    1  O   UNL     1      -8.601   6.544  69.855  1.00  0.00    -0.136 OA 
HETATM    2  H   UNL     1      -8.031   5.784  69.818  1.00  0.00     0.000 HD 
HETATM    3  C   UNL     1      -9.954   6.139  69.608  1.00  0.00    -0.168 C  
ENDROOT
BRANCH   3   4
HETATM    4  C   UNL     1     -10.882   7.376  69.667  1.00  0.00    -0.210 C  
BRANCH   4   5
HETATM    5  N   UNL     1     -10.794   8.067  70.972  1.00  0.00    -0.231 NA 
HETATM    6  H   UNL     1      -9.949   7.812  71.484  1.00  0.00     0.000 HD 
BRANCH   5   7
HETATM    7  C   UNL     1     -10.904   9.518  70.783  1.00  0.00    -0.318 C  
BRANCH   7   8
HETATM    8  C   UNL     1     -10.172   9.938  69.505  1.00  0.00    -0.243 C  
BRANCH   8   9
HETATM    9  C   UNL     1     -10.859  11.143  68.860  1.00  0.00    -0.261 C  
BRANCH   9  10
HETATM   10  C   UNL     1     -11.103  10.924  67.364  1.00  0.00    -0.373 C  
BRANCH  10  11
HETATM   11  C   UNL     1     -11.122  12.239  66.623  1.00  0.00    -0.344 A  
HETATM   12  C   UNL     1     -10.618  12.326  65.316  1.00  0.00    -0.322 A  
HETATM   13  C   UNL     1     -10.585  13.552  64.649  1.00  0.00    -0.441 A  
HETATM   14  C   UNL     1     -11.054  14.694  65.291  1.00  0.00    -0.360 A  
HETATM   15  O   UNL     1     -11.023  15.914  64.684  1.00  0.00    -0.685 OA 
HETATM   16  C   UNL     1     -11.564  14.626  66.581  1.00  0.00    -0.359 A  
HETATM   17  H   UNL     1     -11.343  16.693  65.122  1.00  0.00     0.000 HD 
HETATM   18  C   UNL     1     -11.596  13.400  67.248  1.00  0.00    -0.400 A  
ENDBRANCH  10  11
ENDBRANCH   9  10
ENDBRANCH   8   9
ENDBRANCH   7   8
ENDBRANCH   5   7
ENDBRANCH   4   5
ENDBRANCH   3   4
BRANCH   3  19
HETATM   19  C   UNL     1     -10.049   5.443  68.265  1.00  0.00    -0.225 A  
HETATM   20  C   UNL     1      -9.407   4.215  68.030  1.00  0.00    -0.213 A  
HETATM   21  H   UNL     1     -10.753   4.060  63.819  1.00  0.00     0.000 HD 
HETATM   22  C   UNL     1     -10.764   6.047  67.214  1.00  0.00    -0.400 A  
HETATM   23  H   UNL     1      -8.932   2.018  65.648  1.00  0.00     0.000 HD 
HETATM   24  C   UNL     1      -9.488   3.618  66.777  1.00  0.00    -0.179 A  
HETATM   25  C   UNL     1     -10.842   5.442  65.957  1.00  0.00    -0.002 A  
HETATM   26  O   UNL     1      -8.876   2.426  66.504  1.00  0.00    -0.119 OA 
HETATM   27  C   UNL     1     -10.199   4.233  65.749  1.00  0.00    -0.186 A  
HETATM   28  O   UNL     1     -10.267   3.641  64.520  1.00  0.00    -0.196 OA 
ENDBRANCH   3  19
TORSDOF 8
ENDMDL
MODEL      250
REMARK 921   NORMALIZED FREE ENERGY PREDICTED BY IDOCK:   -3.99 KCAL/MOL
REMARK 922        TOTAL FREE ENERGY PREDICTED BY IDOCK:   -7.06 KCAL/MOL
REMARK 923 INTER-LIGAND FREE ENERGY PREDICTED BY IDOCK:   -6.60 KCAL/MOL
REMARK 924 INTRA-LIGAND FREE ENERGY PREDICTED BY IDOCK:   -0.46 KCAL/MOL
REMARK 927      BINDING AFFINITY PREDICTED BY RF-SCORE:    0.00 PKD
ROOT
HETATM    1  O   UNL     1     -10.569  15.002  65.093  1.00  0.00    -0.361 OA 
HETATM    2  H   UNL     1     -10.825  15.797  64.639  1.00  0.00     0.000 HD 
HETATM    3  C   UNL     1     -10.757  15.174  66.504  1.00  0.00    -0.310 C  
ENDROOT
BRANCH   3   4
HETATM    4  C   UNL     1     -10.340  13.879  67.241  1.00  0.00    -0.257 C  
BRANCH   4   5
HETATM    5  N   UNL     1     -11.484  12.960  67.428  1.00  0.00    -0.315 NA 
HETATM    6  H   UNL     1     -11.336  12.065  66.959  1.00  0.00     0.000 HD 
BRANCH   5   7
HETATM    7  C   UNL     1     -11.767  12.790  68.857  1.00  0.00    -0.326 C  
BRANCH   7   8
HETATM    8  C   UNL     1     -12.006  11.311  69.174  1.00  0.00    -0.405 C  
BRANCH   8   9
HETATM    9  C   UNL     1     -10.842  10.737  69.983  1.00  0.00    -0.218 C  
BRANCH   9  10
HETATM   10  C   UNL     1     -11.319   9.722  71.025  1.00  0.00    -0.460 C  
BRANCH  10  11
HETATM   11  C   UNL     1     -10.781   8.344  70.721  1.00  0.00    -0.244 A  
HETATM   12  C   UNL     1     -11.619   7.221  70.791  1.00  0.00    -0.334 A  
HETATM   13  C   UNL     1     -11.111   5.941  70.564  1.00  0.00    -0.347 A  
HETATM   14  C   UNL     1      -9.760   5.783  70.269  1.00  0.00    -0.175 A  
HETATM   15  O   UNL     1      -9.218   4.550  70.058  1.00  0.00    -0.106 OA 
HETATM   16  C   UNL     1      -8.917   6.883  70.188  1.00  0.00    -0.149 A  
HETATM   17  H   UNL     1      -8.296   4.443  69.858  1.00  0.00     0.000 HD 
HETATM   18  C   UNL     1      -9.426   8.163  70.416  1.00  0.00    -0.163 A  
ENDBRANCH  10  11
ENDBRANCH   9  10
ENDBRANCH   8   9
ENDBRANCH   7   8
ENDBRANCH   5   7
ENDBRANCH   4   5
ENDBRANCH   3   4
BRANCH   3  19
HETATM   19  C   UNL     1      -9.958  16.366  66.990  1.00  0.00    -0.261 A  
HETATM   20  C   UNL     1     -10.586  17.481  67.570  1.00  0.00    -0.333 A  
HETATM   21  H   UNL     1      -6.765  19.648  68.092  1.00  0.00     0.000 HD 
HETATM   22  C   UNL     1      -8.559  16.382  66.830  1.00  0.00    -0.270 A  
HETATM   23  H   UNL     1      -9.879  20.424  68.821  1.00  0.00     0.000 HD 
HETATM   24  C   UNL     1      -9.827  18.572  67.976  1.00  0.00    -0.341 A  
HETATM   25  C   UNL     1      -7.802  17.482  67.241  1.00  0.00    -0.221 A  
HETATM   26  O   UNL     1     -10.397  19.679  68.543  1.00  0.00    -0.431 OA 
HETATM   27  C   UNL     1      -8.444  18.570  67.809  1.00  0.00    -0.270 A  
HETATM   28  O   UNL     1      -7.708  19.650  68.205  1.00  0.00    -0.307 OA 
ENDBRANCH   3  19
TORSDOF 8
ENDMDL
MODEL      251
REMARK 921   NORMALIZED FREE ENERGY PREDICTED BY IDOCK:   -3.99 KCAL/MOL
REMARK 922        TOTAL FREE ENERGY PREDICTED BY IDOCK:   -7.06 KCAL/MOL
REMARK 923 INTER-LIGAND FREE ENERGY PREDICTED BY IDOCK:   -6.49 KCAL/MOL
REMARK 924 INTRA-LIGAND FREE ENERGY PREDICTED BY IDOCK:   -0.58 KCAL/MOL
REMARK 927      BINDING AFFINITY PREDICTED BY RF-SCORE:    0.00 PKD
ROOT
HETATM    1  O   UNL     1     -11.074  13.929  64.045  1.00  0.00    -0.576 OA 
HETATM    2  H   UNL     1     -11.268  14.786  63.682  1.00  0.00     0.000 HD 
HETATM    3  C   UNL     1     -11.733  13.785  65.309  1.00  0.00    -0.338 C  
ENDROOT
BRANCH   3   4
HETATM    4  C   UNL     1     -11.417  12.390  65.900  1.00  0.00    -0.374 C  
BRANCH   4   5
HETATM    5  N   UNL     1      -9.962  12.124  65.934  1.00  0.00    -0.241 NA 
HETATM    6  H   UNL     1      -9.604  12.079  66.888  1.00  0.00     0.000 HD 
BRANCH   5   7
HETATM    7  C   UNL     1      -9.655  10.907  65.173  1.00  0.00    -0.243 C  
BRANCH   7   8
HETATM    8  C   UNL     1      -8.189  10.516  65.377  1.00  0.00    -0.152 C  
BRANCH   8   9
HETATM    9  C   UNL     1      -8.033   8.994  65.396  1.00  0.00    -0.111 C  
BRANCH   9  10
HETATM   10  C   UNL     1      -8.933   8.343  66.450  1.00  0.00    -0.207 C  
BRANCH  10  11
HETATM   11  C   UNL     1      -9.178   6.890  66.126  1.00  0.00    -0.118 A  
HETATM   12  C   UNL     1     -10.280   6.215  66.672  1.00  0.00    -0.237 A  
HETATM   13  C   UNL     1     -10.479   4.856  66.417  1.00  0.00    -0.325 A  
HETATM   14  C   UNL     1      -9.571   4.171  65.617  1.00  0.00    -0.188 A  
HETATM   15  O   UNL     1      -9.716   2.840  65.357  1.00  0.00    -0.360 OA 
HETATM   16  C   UNL     1      -8.479   4.823  65.061  1.00  0.00    -0.137 A  
HETATM   17  H   UNL     1      -9.096   2.372  64.811  1.00  0.00     0.000 HD 
HETATM   18  C   UNL     1      -8.281   6.181  65.317  1.00  0.00    -0.142 A  
ENDBRANCH  10  11
ENDBRANCH   9  10
ENDBRANCH   8   9
ENDBRANCH   7   8
ENDBRANCH   5   7
ENDBRANCH   4   5
ENDBRANCH   3   4
BRANCH   3  19
HETATM   19  C   UNL     1     -11.298  14.893  66.248  1.00  0.00    -0.306 A  
HETATM   20  C   UNL     1     -11.703  14.913  67.594  1.00  0.00    -0.329 A  
HETATM   21  H   UNL     1      -9.611  18.727  68.400  1.00  0.00     0.000 HD 
HETATM   22  C   UNL     1     -10.499  15.946  65.763  1.00  0.00    -0.386 A  
HETATM   23  H   UNL     1     -11.419  16.738  70.299  1.00  0.00     0.000 HD 
HETATM   24  C   UNL     1     -11.312  15.961  68.420  1.00  0.00    -0.361 A  
HETATM   25  C   UNL     1     -10.110  16.995  66.599  1.00  0.00    -0.308 A  
HETATM   26  O   UNL     1     -11.686  16.022  69.734  1.00  0.00    -0.319 OA 
HETATM   27  C   UNL     1     -10.523  16.995  67.922  1.00  0.00    -0.354 A  
HETATM   28  O   UNL     1     -10.150  18.022  68.740  1.00  0.00    -0.372 OA 
ENDBRANCH   3  19
TORSDOF 8
ENDMDL
MODEL      252
REMARK 921   NORMALIZED FREE ENERGY PREDICTED BY IDOCK:   -3.98 KCAL/MOL
REMARK 922        TOTAL FREE ENERGY PREDICTED BY IDOCK:   -7.05 KCAL/MOL
REMARK 923 INTER-LIGAND FREE ENERGY PREDICTED BY IDOCK:   -6.44 KCAL/MOL
REMARK 924 INTRA-LIGAND FREE ENERGY PREDICTED BY IDOCK:   -0.61 KCAL/MOL
REMARK 927      BINDING AFFINITY PREDICTED BY RF-SCORE:    0.00 PKD
ROOT
HETATM    1  O   UNL     1      -8.251   9.767  66.375  1.00  0.00    -0.118 OA 
HETATM    2  H   UNL     1      -7.392   9.611  66.753  1.00  0.00     0.000 HD 
HETATM    3  C   UNL     1      -9.096  10.391  67.349  1.00  0.00    -0.135 C  
ENDROOT
BRANCH   3   4
HETATM    4  C   UNL     1     -10.493  10.646  66.734  1.00  0.00    -0.247 C  
BRANCH   4   5
HETATM    5  N   UNL     1     -10.899  12.063  66.859  1.00  0.00    -0.247 NA 
HETATM    6  H   UNL     1     -11.229  12.285  67.799  1.00  0.00     0.000 HD 
BRANCH   5   7
HETATM    7  C   UNL     1      -9.800  12.941  66.442  1.00  0.00    -0.268 C  
BRANCH   7   8
HETATM    8  C   UNL     1     -10.319  14.009  65.475  1.00  0.00    -0.354 C  
BRANCH   8   9
HETATM    9  C   UNL     1     -11.251  14.985  66.197  1.00  0.00    -0.307 C  
BRANCH   9  10
HETATM   10  C   UNL     1     -10.610  15.547  67.469  1.00  0.00    -0.297 C  
BRANCH  10  11
HETATM   11  C   UNL     1     -10.461  17.047  67.380  1.00  0.00    -0.322 A  
HETATM   12  C   UNL     1     -10.494  17.693  66.135  1.00  0.00    -0.295 A  
HETATM   13  C   UNL     1     -10.303  19.074  66.047  1.00  0.00    -0.512 A  
HETATM   14  C   UNL     1     -10.075  19.808  67.206  1.00  0.00    -0.418 A  
HETATM   15  O   UNL     1      -9.865  21.155  67.164  1.00  0.00    -0.579 OA 
HETATM   16  C   UNL     1     -10.047  19.188  68.448  1.00  0.00    -0.498 A  
HETATM   17  H   UNL     1      -9.709  21.656  67.955  1.00  0.00     0.000 HD 
HETATM   18  C   UNL     1     -10.238  17.807  68.536  1.00  0.00    -0.382 A  
ENDBRANCH  10  11
ENDBRANCH   9  10
ENDBRANCH   8   9
ENDBRANCH   7   8
ENDBRANCH   5   7
ENDBRANCH   4   5
ENDBRANCH   3   4
BRANCH   3  19
HETATM   19  C   UNL     1      -9.189   9.521  68.586  1.00  0.00    -0.135 A  
HETATM   20  C   UNL     1      -8.594   8.248  68.633  1.00  0.00    -0.133 A  
HETATM   21  H   UNL     1     -10.068   7.459  72.728  1.00  0.00     0.000 HD 
HETATM   22  C   UNL     1      -9.915   9.973  69.706  1.00  0.00    -0.276 A  
HETATM   23  H   UNL     1      -8.255   5.680  70.637  1.00  0.00     0.000 HD 
HETATM   24  C   UNL     1      -8.726   7.462  69.771  1.00  0.00    -0.141 A  
HETATM   25  C   UNL     1     -10.042   9.177  70.847  1.00  0.00    -0.356 A  
HETATM   26  O   UNL     1      -8.166   6.217  69.859  1.00  0.00    -0.117 OA 
HETATM   27  C   UNL     1      -9.448   7.926  70.868  1.00  0.00    -0.156 A  
HETATM   28  O   UNL     1      -9.576   7.143  71.980  1.00  0.00    -0.145 OA 
ENDBRANCH   3  19
TORSDOF 8
ENDMDL
MODEL      253
REMARK 921   NORMALIZED FREE ENERGY PREDICTED BY IDOCK:   -3.97 KCAL/MOL
REMARK 922        TOTAL FREE ENERGY PREDICTED BY IDOCK:   -7.04 KCAL/MOL
REMARK 923 INTER-LIGAND FREE ENERGY PREDICTED BY IDOCK:   -5.28 KCAL/MOL
REMARK 924 INTRA-LIGAND FREE ENERGY PREDICTED BY IDOCK:   -1.75 KCAL/MOL
REMARK 927      BINDING AFFINITY PREDICTED BY RF-SCORE:    0.00 PKD
ROOT
HETATM    1  O   UNL     1      -7.951  12.005  68.658  1.00  0.00    -0.201 OA 
HETATM    2  H   UNL     1      -7.395  12.415  68.005  1.00  0.00     0.000 HD 
HETATM    3  C   UNL     1      -7.689  10.597  68.693  1.00  0.00    -0.110 C  
ENDROOT
BRANCH   3   4
HETATM    4  C   UNL     1      -8.593   9.929  69.756  1.00  0.00    -0.203 C  
BRANCH   4   5
HETATM    5  N   UNL     1      -9.870  10.658  69.928  1.00  0.00    -0.392 NA 
HETATM    6  H   UNL     1      -9.878  11.539  69.414  1.00  0.00     0.000 HD 
BRANCH   5   7
HETATM    7  C   UNL     1     -10.997   9.795  69.558  1.00  0.00    -0.227 C  
BRANCH   7   8
HETATM    8  C   UNL     1     -11.504  10.164  68.161  1.00  0.00    -0.036 C  
BRANCH   8   9
HETATM    9  C   UNL     1     -11.520  11.682  67.975  1.00  0.00    -0.385 C  
BRANCH   9  10
HETATM   10  C   UNL     1     -11.001  12.092  66.595  1.00  0.00    -0.330 C  
BRANCH  10  11
HETATM   11  C   UNL     1     -10.747  13.578  66.533  1.00  0.00    -0.287 A  
HETATM   12  C   UNL     1     -10.787  14.357  67.699  1.00  0.00    -0.276 A  
HETATM   13  C   UNL     1     -10.606  15.740  67.637  1.00  0.00    -0.301 A  
HETATM   14  C   UNL     1     -10.389  16.346  66.404  1.00  0.00    -0.313 A  
HETATM   15  O   UNL     1     -10.226  17.696  66.294  1.00  0.00    -0.349 OA 
HETATM   16  C   UNL     1     -10.338  15.592  65.239  1.00  0.00    -0.416 A  
HETATM   17  H   UNL     1     -10.078  18.109  65.452  1.00  0.00     0.000 HD 
HETATM   18  C   UNL     1     -10.519  14.209  65.302  1.00  0.00    -0.402 A  
ENDBRANCH  10  11
ENDBRANCH   9  10
ENDBRANCH   8   9
ENDBRANCH   7   8
ENDBRANCH   5   7
ENDBRANCH   4   5
ENDBRANCH   3   4
BRANCH   3  19
HETATM   19  C   UNL     1      -7.915   9.994  67.321  1.00  0.00    -0.106 A  
HETATM   20  C   UNL     1      -8.241   8.637  67.161  1.00  0.00    -0.107 A  
HETATM   21  H   UNL     1      -8.312   8.938  62.748  1.00  0.00     0.000 HD 
HETATM   22  C   UNL     1      -7.763  10.796  66.172  1.00  0.00    -0.149 A  
HETATM   23  H   UNL     1      -8.842   6.433  64.815  1.00  0.00     0.000 HD 
HETATM   24  C   UNL     1      -8.410   8.109  65.887  1.00  0.00    -0.132 A  
HETATM   25  C   UNL     1      -7.935  10.259  64.894  1.00  0.00    -0.146 A  
HETATM   26  O   UNL     1      -8.726   6.793  65.685  1.00  0.00    -0.144 OA 
HETATM   27  C   UNL     1      -8.255   8.917  64.763  1.00  0.00    -0.163 A  
HETATM   28  O   UNL     1      -8.417   8.387  63.515  1.00  0.00    -0.108 OA 
ENDBRANCH   3  19
TORSDOF 8
ENDMDL
MODEL      254
REMARK 921   NORMALIZED FREE ENERGY PREDICTED BY IDOCK:   -3.96 KCAL/MOL
REMARK 922        TOTAL FREE ENERGY PREDICTED BY IDOCK:   -7.02 KCAL/MOL
REMARK 923 INTER-LIGAND FREE ENERGY PREDICTED BY IDOCK:   -6.41 KCAL/MOL
REMARK 924 INTRA-LIGAND FREE ENERGY PREDICTED BY IDOCK:   -0.60 KCAL/MOL
REMARK 927      BINDING AFFINITY PREDICTED BY RF-SCORE:    0.00 PKD
ROOT
HETATM    1  O   UNL     1      -9.541   4.880  70.688  1.00  0.00    -0.159 OA 
HETATM    2  H   UNL     1      -9.003   4.099  70.631  1.00  0.00     0.000 HD 
HETATM    3  C   UNL     1     -10.370   4.977  69.523  1.00  0.00    -0.161 C  
ENDROOT
BRANCH   3   4
HETATM    4  C   UNL     1     -11.247   6.248  69.616  1.00  0.00    -0.437 C  
BRANCH   4   5
HETATM    5  N   UNL     1     -11.093   6.928  70.922  1.00  0.00    -0.259 NA 
HETATM    6  H   UNL     1     -10.635   7.835  70.828  1.00  0.00     0.000 HD 
BRANCH   5   7
HETATM    7  C   UNL     1     -12.394   7.035  71.591  1.00  0.00    -0.368 C  
BRANCH   7   8
HETATM    8  C   UNL     1     -12.502   8.379  72.317  1.00  0.00    -0.417 C  
BRANCH   8   9
HETATM    9  C   UNL     1     -11.814   9.485  71.513  1.00  0.00    -0.478 C  
BRANCH   9  10
HETATM   10  C   UNL     1     -12.605  10.795  71.558  1.00  0.00    -0.500 C  
BRANCH  10  11
HETATM   11  C   UNL     1     -12.281  11.661  70.365  1.00  0.00    -0.434 A  
HETATM   12  C   UNL     1     -11.906  11.081  69.145  1.00  0.00    -0.407 A  
HETATM   13  C   UNL     1     -11.555  11.881  68.055  1.00  0.00    -0.401 A  
HETATM   14  C   UNL     1     -11.576  13.266  68.189  1.00  0.00    -0.338 A  
HETATM   15  O   UNL     1     -11.223  14.085  67.158  1.00  0.00    -0.295 OA 
HETATM   16  C   UNL     1     -11.953  13.859  69.387  1.00  0.00    -0.402 A  
HETATM   17  H   UNL     1     -11.237  15.030  67.249  1.00  0.00     0.000 HD 
HETATM   18  C   UNL     1     -12.303  13.058  70.475  1.00  0.00    -0.365 A  
ENDBRANCH  10  11
ENDBRANCH   9  10
ENDBRANCH   8   9
ENDBRANCH   7   8
ENDBRANCH   5   7
ENDBRANCH   4   5
ENDBRANCH   3   4
BRANCH   3  19
HETATM   19  C   UNL     1      -9.508   4.992  68.276  1.00  0.00    -0.173 A  
HETATM   20  C   UNL     1      -9.412   3.868  67.438  1.00  0.00    -0.236 A  
HETATM   21  H   UNL     1      -6.537   5.855  64.725  1.00  0.00     0.000 HD 
HETATM   22  C   UNL     1      -8.756   6.141  67.960  1.00  0.00    -0.113 A  
HETATM   23  H   UNL     1      -7.899   2.859  64.714  1.00  0.00     0.000 HD 
HETATM   24  C   UNL     1      -8.588   3.905  66.319  1.00  0.00    -0.112 A  
HETATM   25  C   UNL     1      -7.930   6.171  66.835  1.00  0.00    -0.105 A  
HETATM   26  O   UNL     1      -8.462   2.834  65.478  1.00  0.00    -0.093 OA 
HETATM   27  C   UNL     1      -7.851   5.050  66.024  1.00  0.00    -0.099 A  
HETATM   28  O   UNL     1      -7.039   5.074  64.926  1.00  0.00    -0.059 OA 
ENDBRANCH   3  19
TORSDOF 8
ENDMDL
MODEL      255
REMARK 921   NORMALIZED FREE ENERGY PREDICTED BY IDOCK:   -3.94 KCAL/MOL
REMARK 922        TOTAL FREE ENERGY PREDICTED BY IDOCK:   -6.99 KCAL/MOL
REMARK 923 INTER-LIGAND FREE ENERGY PREDICTED BY IDOCK:   -6.26 KCAL/MOL
REMARK 924 INTRA-LIGAND FREE ENERGY PREDICTED BY IDOCK:   -0.73 KCAL/MOL
REMARK 927      BINDING AFFINITY PREDICTED BY RF-SCORE:    0.00 PKD
ROOT
HETATM    1  O   UNL     1      -6.854  16.236  69.292  1.00  0.00    -0.189 OA 
HETATM    2  H   UNL     1      -6.901  15.939  70.194  1.00  0.00     0.000 HD 
HETATM    3  C   UNL     1      -8.079  16.891  68.941  1.00  0.00    -0.219 C  
ENDROOT
BRANCH   3   4
HETATM    4  C   UNL     1      -8.003  17.375  67.473  1.00  0.00    -0.195 C  
BRANCH   4   5
HETATM    5  N   UNL     1      -8.361  18.805  67.346  1.00  0.00    -0.263 NA 
HETATM    6  H   UNL     1      -7.845  19.263  66.595  1.00  0.00     0.000 HD 
BRANCH   5   7
HETATM    7  C   UNL     1      -9.812  18.949  67.183  1.00  0.00    -0.322 C  
BRANCH   7   8
HETATM    8  C   UNL     1     -10.207  18.669  65.731  1.00  0.00    -0.135 C  
BRANCH   8   9
HETATM    9  C   UNL     1     -11.140  17.459  65.649  1.00  0.00     0.348 C  
BRANCH   9  10
HETATM   10  C   UNL     1     -10.446  16.174  66.107  1.00  0.00    -0.334 C  
BRANCH  10  11
HETATM   11  C   UNL     1     -10.827  15.010  65.224  1.00  0.00    -0.399 A  
HETATM   12  C   UNL     1     -11.988  15.063  64.438  1.00  0.00    -0.366 A  
HETATM   13  C   UNL     1     -12.370  13.967  63.662  1.00  0.00    -0.177 A  
HETATM   14  C   UNL     1     -11.591  12.814  63.675  1.00  0.00    -0.506 A  
HETATM   15  O   UNL     1     -11.937  11.714  62.947  1.00  0.00    -0.845 OA 
HETATM   16  C   UNL     1     -10.434  12.746  64.440  1.00  0.00    -0.410 A  
HETATM   17  H   UNL     1     -11.406  10.928  62.956  1.00  0.00     0.000 HD 
HETATM   18  C   UNL     1     -10.053  13.842  65.216  1.00  0.00    -0.312 A  
ENDBRANCH  10  11
ENDBRANCH   9  10
ENDBRANCH   8   9
ENDBRANCH   7   8
ENDBRANCH   5   7
ENDBRANCH   4   5
ENDBRANCH   3   4
BRANCH   3  19
HETATM   19  C   UNL     1      -9.248  15.949  69.150  1.00  0.00    -0.253 A  
HETATM   20  C   UNL     1     -10.404  16.357  69.838  1.00  0.00    -0.129 A  
HETATM   21  H   UNL     1     -12.308  12.383  69.455  1.00  0.00     0.000 HD 
HETATM   22  C   UNL     1      -9.170  14.624  68.679  1.00  0.00    -0.194 A  
HETATM   23  H   UNL     1     -13.296  15.197  70.845  1.00  0.00     0.000 HD 
HETATM   24  C   UNL     1     -11.444  15.458  70.040  1.00  0.00    -0.316 A  
HETATM   25  C   UNL     1     -10.220  13.726  68.885  1.00  0.00    -0.111 A  
HETATM   26  O   UNL     1     -12.585  15.811  70.707  1.00  0.00    -0.436 OA 
HETATM   27  C   UNL     1     -11.348  14.151  69.568  1.00  0.00    -0.259 A  
HETATM   28  O   UNL     1     -12.373  13.273  69.777  1.00  0.00    -0.240 OA 
ENDBRANCH   3  19
TORSDOF 8
ENDMDL
MODEL      256
REMARK 921   NORMALIZED FREE ENERGY PREDICTED BY IDOCK:   -3.94 KCAL/MOL
REMARK 922        TOTAL FREE ENERGY PREDICTED BY IDOCK:   -6.99 KCAL/MOL
REMARK 923 INTER-LIGAND FREE ENERGY PREDICTED BY IDOCK:   -6.19 KCAL/MOL
REMARK 924 INTRA-LIGAND FREE ENERGY PREDICTED BY IDOCK:   -0.80 KCAL/MOL
REMARK 927      BINDING AFFINITY PREDICTED BY RF-SCORE:    0.00 PKD
ROOT
HETATM    1  O   UNL     1     -12.133   7.974  70.138  1.00  0.00    -0.334 OA 
HETATM    2  H   UNL     1     -12.482   7.810  71.007  1.00  0.00     0.000 HD 
HETATM    3  C   UNL     1     -11.119   7.006  69.839  1.00  0.00    -0.264 C  
ENDROOT
BRANCH   3   4
HETATM    4  C   UNL     1     -10.551   7.272  68.425  1.00  0.00    -0.170 C  
BRANCH   4   5
HETATM    5  N   UNL     1      -9.805   8.549  68.363  1.00  0.00    -0.167 NA 
HETATM    6  H   UNL     1      -8.810   8.403  68.195  1.00  0.00     0.000 HD 
BRANCH   5   7
HETATM    7  C   UNL     1     -10.407   9.437  67.362  1.00  0.00    -0.263 C  
BRANCH   7   8
HETATM    8  C   UNL     1     -10.088  10.897  67.694  1.00  0.00    -0.206 C  
BRANCH   8   9
HETATM    9  C   UNL     1     -11.374  11.711  67.843  1.00  0.00    -0.369 C  
BRANCH   9  10
HETATM   10  C   UNL     1     -12.034  11.487  69.206  1.00  0.00    -0.397 C  
BRANCH  10  11
HETATM   11  C   UNL     1     -12.130  12.781  69.977  1.00  0.00    -0.355 A  
HETATM   12  C   UNL     1     -12.762  12.818  71.230  1.00  0.00    -0.364 A  
HETATM   13  C   UNL     1     -12.900  14.025  71.920  1.00  0.00    -0.421 A  
HETATM   14  C   UNL     1     -12.408  15.196  71.354  1.00  0.00    -0.346 A  
HETATM   15  O   UNL     1     -12.537  16.399  71.985  1.00  0.00    -0.505 OA 
HETATM   16  C   UNL     1     -11.773  15.179  70.120  1.00  0.00    -0.343 A  
HETATM   17  H   UNL     1     -12.202  17.199  71.599  1.00  0.00     0.000 HD 
HETATM   18  C   UNL     1     -11.635  13.973  69.430  1.00  0.00    -0.349 A  
ENDBRANCH  10  11
ENDBRANCH   9  10
ENDBRANCH   8   9
ENDBRANCH   7   8
ENDBRANCH   5   7
ENDBRANCH   4   5
ENDBRANCH   3   4
BRANCH   3  19
HETATM   19  C   UNL     1     -10.028   7.058  70.890  1.00  0.00    -0.200 A  
HETATM   20  C   UNL     1      -9.028   6.073  70.958  1.00  0.00    -0.146 A  
HETATM   21  H   UNL     1      -7.137   7.914  74.507  1.00  0.00     0.000 HD 
HETATM   22  C   UNL     1     -10.027   8.093  71.845  1.00  0.00    -0.277 A  
HETATM   23  H   UNL     1      -6.410   5.236  72.739  1.00  0.00     0.000 HD 
HETATM   24  C   UNL     1      -8.061   6.133  71.954  1.00  0.00    -0.107 A  
HETATM   25  C   UNL     1      -9.052   8.148  72.843  1.00  0.00    -0.337 A  
HETATM   26  O   UNL     1      -7.071   5.194  72.058  1.00  0.00    -0.076 OA 
HETATM   27  C   UNL     1      -8.077   7.164  72.890  1.00  0.00    -0.105 A  
HETATM   28  O   UNL     1      -7.126   7.211  73.869  1.00  0.00    -0.083 OA 
ENDBRANCH   3  19
TORSDOF 8
ENDMDL
MODEL      257
REMARK 921   NORMALIZED FREE ENERGY PREDICTED BY IDOCK:   -3.93 KCAL/MOL
REMARK 922        TOTAL FREE ENERGY PREDICTED BY IDOCK:   -6.98 KCAL/MOL
REMARK 923 INTER-LIGAND FREE ENERGY PREDICTED BY IDOCK:   -4.90 KCAL/MOL
REMARK 924 INTRA-LIGAND FREE ENERGY PREDICTED BY IDOCK:   -2.08 KCAL/MOL
REMARK 927      BINDING AFFINITY PREDICTED BY RF-SCORE:    0.00 PKD
ROOT
HETATM    1  O   UNL     1      -8.565   3.641  66.870  1.00  0.00    -0.103 OA 
HETATM    2  H   UNL     1      -8.690   3.744  65.933  1.00  0.00     0.000 HD 
HETATM    3  C   UNL     1      -9.612   4.325  67.570  1.00  0.00    -0.173 C  
ENDROOT
BRANCH   3   4
HETATM    4  C   UNL     1      -9.408   4.158  69.095  1.00  0.00    -0.166 C  
BRANCH   4   5
HETATM    5  N   UNL     1      -8.017   3.777  69.426  1.00  0.00    -0.055 NA 
HETATM    6  H   UNL     1      -7.410   3.800  68.606  1.00  0.00     0.000 HD 
BRANCH   5   7
HETATM    7  C   UNL     1      -7.508   4.622  70.511  1.00  0.00    -0.053 C  
BRANCH   7   8
HETATM    8  C   UNL     1      -7.253   6.042  69.997  1.00  0.00    -0.073 C  
BRANCH   8   9
HETATM    9  C   UNL     1      -7.940   7.073  70.895  1.00  0.00    -0.097 C  
BRANCH   9  10
HETATM   10  C   UNL     1      -8.729   8.101  70.080  1.00  0.00    -0.130 C  
BRANCH  10  11
HETATM   11  C   UNL     1     -10.121   8.277  70.637  1.00  0.00    -0.212 A  
HETATM   12  C   UNL     1     -10.700   9.552  70.717  1.00  0.00    -0.391 A  
HETATM   13  C   UNL     1     -11.966   9.724  71.281  1.00  0.00    -0.471 A  
HETATM   14  C   UNL     1     -12.653   8.616  71.768  1.00  0.00    -0.349 A  
HETATM   15  O   UNL     1     -13.883   8.740  72.343  1.00  0.00    -0.494 OA 
HETATM   16  C   UNL     1     -12.100   7.345  71.690  1.00  0.00    -0.349 A  
HETATM   17  H   UNL     1     -14.352   7.985  72.677  1.00  0.00     0.000 HD 
HETATM   18  C   UNL     1     -10.834   7.175  71.127  1.00  0.00    -0.261 A  
ENDBRANCH  10  11
ENDBRANCH   9  10
ENDBRANCH   8   9
ENDBRANCH   7   8
ENDBRANCH   5   7
ENDBRANCH   4   5
ENDBRANCH   3   4
BRANCH   3  19
HETATM   19  C   UNL     1      -9.629   5.788  67.174  1.00  0.00    -0.134 A  
HETATM   20  C   UNL     1      -8.489   6.416  66.642  1.00  0.00    -0.115 A  
HETATM   21  H   UNL     1     -10.512  10.339  66.344  1.00  0.00     0.000 HD 
HETATM   22  C   UNL     1     -10.796   6.552  67.371  1.00  0.00    -0.449 A  
HETATM   23  H   UNL     1      -7.471   9.342  65.580  1.00  0.00     0.000 HD 
HETATM   24  C   UNL     1      -8.529   7.767  66.318  1.00  0.00    -0.141 A  
HETATM   25  C   UNL     1     -10.829   7.909  67.043  1.00  0.00    -0.148 A  
HETATM   26  O   UNL     1      -7.444   8.419  65.801  1.00  0.00    -0.075 OA 
HETATM   27  C   UNL     1      -9.692   8.506  66.522  1.00  0.00    -0.260 A  
HETATM   28  O   UNL     1      -9.719   9.835  66.206  1.00  0.00    -0.199 OA 
ENDBRANCH   3  19
TORSDOF 8
ENDMDL
MODEL      258
REMARK 921   NORMALIZED FREE ENERGY PREDICTED BY IDOCK:   -3.93 KCAL/MOL
REMARK 922        TOTAL FREE ENERGY PREDICTED BY IDOCK:   -6.97 KCAL/MOL
REMARK 923 INTER-LIGAND FREE ENERGY PREDICTED BY IDOCK:   -6.85 KCAL/MOL
REMARK 924 INTRA-LIGAND FREE ENERGY PREDICTED BY IDOCK:   -0.12 KCAL/MOL
REMARK 927      BINDING AFFINITY PREDICTED BY RF-SCORE:    0.00 PKD
ROOT
HETATM    1  O   UNL     1      -8.927   5.340  70.237  1.00  0.00    -0.122 OA 
HETATM    2  H   UNL     1      -8.178   5.169  69.677  1.00  0.00     0.000 HD 
HETATM    3  C   UNL     1     -10.059   5.684  69.428  1.00  0.00    -0.223 C  
ENDROOT
BRANCH   3   4
HETATM    4  C   UNL     1     -11.279   5.962  70.338  1.00  0.00    -0.237 C  
BRANCH   4   5
HETATM    5  N   UNL     1     -11.647   7.396  70.342  1.00  0.00    -0.452 NA 
HETATM    6  H   UNL     1     -12.649   7.533  70.207  1.00  0.00     0.000 HD 
BRANCH   5   7
HETATM    7  C   UNL     1     -11.165   8.036  71.571  1.00  0.00    -0.255 C  
BRANCH   7   8
HETATM    8  C   UNL     1     -12.321   8.745  72.282  1.00  0.00    -0.448 C  
BRANCH   8   9
HETATM    9  C   UNL     1     -12.696  10.035  71.550  1.00  0.00    -0.532 C  
BRANCH   9  10
HETATM   10  C   UNL     1     -11.853  10.238  70.288  1.00  0.00    -0.372 C  
BRANCH  10  11
HETATM   11  C   UNL     1     -11.850  11.688  69.869  1.00  0.00    -0.434 A  
HETATM   12  C   UNL     1     -12.168  12.696  70.791  1.00  0.00    -0.331 A  
HETATM   13  C   UNL     1     -12.218  14.034  70.392  1.00  0.00    -0.433 A  
HETATM   14  C   UNL     1     -11.952  14.362  69.067  1.00  0.00    -0.307 A  
HETATM   15  O   UNL     1     -12.008  15.653  68.630  1.00  0.00    -0.510 OA 
HETATM   16  C   UNL     1     -11.628  13.379  68.141  1.00  0.00    -0.376 A  
HETATM   17  H   UNL     1     -11.828  15.877  67.725  1.00  0.00     0.000 HD 
HETATM   18  C   UNL     1     -11.579  12.042  68.541  1.00  0.00    -0.363 A  
ENDBRANCH  10  11
ENDBRANCH   9  10
ENDBRANCH   8   9
ENDBRANCH   7   8
ENDBRANCH   5   7
ENDBRANCH   4   5
ENDBRANCH   3   4
BRANCH   3  19
HETATM   19  C   UNL     1      -9.731   6.886  68.564  1.00  0.00    -0.138 A  
HETATM   20  C   UNL     1      -8.713   7.787  68.920  1.00  0.00    -0.135 A  
HETATM   21  H   UNL     1      -9.468  10.375  65.413  1.00  0.00     0.000 HD 
HETATM   22  C   UNL     1     -10.479   7.132  67.396  1.00  0.00    -0.354 A  
HETATM   23  H   UNL     1      -7.306  10.558  67.887  1.00  0.00     0.000 HD 
HETATM   24  C   UNL     1      -8.459   8.897  68.122  1.00  0.00    -0.129 A  
HETATM   25  C   UNL     1     -10.218   8.249  66.599  1.00  0.00    -0.333 A  
HETATM   26  O   UNL     1      -7.480   9.800  68.432  1.00  0.00    -0.081 OA 
HETATM   27  C   UNL     1      -9.210   9.124  66.971  1.00  0.00    -0.135 A  
HETATM   28  O   UNL     1      -8.957  10.221  66.198  1.00  0.00    -0.149 OA 
ENDBRANCH   3  19
TORSDOF 8
ENDMDL
MODEL      259
REMARK 921   NORMALIZED FREE ENERGY PREDICTED BY IDOCK:   -3.92 KCAL/MOL
REMARK 922        TOTAL FREE ENERGY PREDICTED BY IDOCK:   -6.96 KCAL/MOL
REMARK 923 INTER-LIGAND FREE ENERGY PREDICTED BY IDOCK:   -5.93 KCAL/MOL
REMARK 924 INTRA-LIGAND FREE ENERGY PREDICTED BY IDOCK:   -1.03 KCAL/MOL
REMARK 927      BINDING AFFINITY PREDICTED BY RF-SCORE:    0.00 PKD
ROOT
HETATM    1  O   UNL     1      -9.699  13.380  65.806  1.00  0.00    -0.425 OA 
HETATM    2  H   UNL     1     -10.593  13.494  65.504  1.00  0.00     0.000 HD 
HETATM    3  C   UNL     1      -9.705  12.750  67.093  1.00  0.00    -0.216 C  
ENDROOT
BRANCH   3   4
HETATM    4  C   UNL     1      -8.249  12.564  67.584  1.00  0.00    -0.172 C  
BRANCH   4   5
HETATM    5  N   UNL     1      -8.198  11.991  68.947  1.00  0.00    -0.356 NA 
HETATM    6  H   UNL     1      -8.981  12.302  69.522  1.00  0.00     0.000 HD 
BRANCH   5   7
HETATM    7  C   UNL     1      -8.115  10.528  68.876  1.00  0.00    -0.138 C  
BRANCH   7   8
HETATM    8  C   UNL     1      -8.997   9.899  69.958  1.00  0.00    -0.206 C  
BRANCH   8   9
HETATM    9  C   UNL     1     -10.454   9.833  69.497  1.00  0.00    -0.250 C  
BRANCH   9  10
HETATM   10  C   UNL     1     -11.155   8.571  70.005  1.00  0.00    -0.152 C  
BRANCH  10  11
HETATM   11  C   UNL     1     -10.816   7.381  69.140  1.00  0.00    -0.129 A  
HETATM   12  C   UNL     1     -10.354   6.189  69.718  1.00  0.00    -0.269 A  
HETATM   13  C   UNL     1      -9.989   5.105  68.916  1.00  0.00    -0.245 A  
HETATM   14  C   UNL     1     -10.084   5.216  67.533  1.00  0.00    -0.167 A  
HETATM   15  O   UNL     1      -9.720   4.190  66.712  1.00  0.00    -0.201 OA 
HETATM   16  C   UNL     1     -10.546   6.384  66.942  1.00  0.00    -0.379 A  
HETATM   17  H   UNL     1      -9.784   4.265  65.767  1.00  0.00     0.000 HD 
HETATM   18  C   UNL     1     -10.910   7.467  67.744  1.00  0.00    -0.156 A  
ENDBRANCH  10  11
ENDBRANCH   9  10
ENDBRANCH   8   9
ENDBRANCH   7   8
ENDBRANCH   5   7
ENDBRANCH   4   5
ENDBRANCH   3   4
BRANCH   3  19
HETATM   19  C   UNL     1     -10.515  13.579  68.070  1.00  0.00    -0.245 A  
HETATM   20  C   UNL     1     -10.176  14.912  68.356  1.00  0.00    -0.231 A  
HETATM   21  H   UNL     1     -13.459  15.356  71.287  1.00  0.00     0.000 HD 
HETATM   22  C   UNL     1     -11.611  12.998  68.737  1.00  0.00    -0.350 A  
HETATM   23  H   UNL     1     -11.133  17.426  70.224  1.00  0.00     0.000 HD 
HETATM   24  C   UNL     1     -10.920  15.634  69.282  1.00  0.00    -0.267 A  
HETATM   25  C   UNL     1     -12.355  13.730  69.666  1.00  0.00    -0.284 A  
HETATM   26  O   UNL     1     -10.624  16.933  69.592  1.00  0.00    -0.301 OA 
HETATM   27  C   UNL     1     -12.001  15.043  69.932  1.00  0.00    -0.334 A  
HETATM   28  O   UNL     1     -12.722  15.759  70.844  1.00  0.00    -0.460 OA 
ENDBRANCH   3  19
TORSDOF 8
ENDMDL
MODEL      260
REMARK 921   NORMALIZED FREE ENERGY PREDICTED BY IDOCK:   -3.92 KCAL/MOL
REMARK 922        TOTAL FREE ENERGY PREDICTED BY IDOCK:   -6.95 KCAL/MOL
REMARK 923 INTER-LIGAND FREE ENERGY PREDICTED BY IDOCK:   -6.30 KCAL/MOL
REMARK 924 INTRA-LIGAND FREE ENERGY PREDICTED BY IDOCK:   -0.66 KCAL/MOL
REMARK 927      BINDING AFFINITY PREDICTED BY RF-SCORE:    0.00 PKD
ROOT
HETATM    1  O   UNL     1     -10.737  16.006  66.411  1.00  0.00    -0.301 OA 
HETATM    2  H   UNL     1     -11.076  16.885  66.537  1.00  0.00     0.000 HD 
HETATM    3  C   UNL     1      -9.758  15.721  67.419  1.00  0.00    -0.223 C  
ENDROOT
BRANCH   3   4
HETATM    4  C   UNL     1      -9.207  14.290  67.214  1.00  0.00    -0.214 C  
BRANCH   4   5
HETATM    5  N   UNL     1      -9.739  13.667  65.981  1.00  0.00    -0.422 NA 
HETATM    6  H   UNL     1      -9.049  13.659  65.229  1.00  0.00     0.000 HD 
BRANCH   5   7
HETATM    7  C   UNL     1     -10.248  12.323  66.275  1.00  0.00    -0.229 C  
BRANCH   7   8
HETATM    8  C   UNL     1     -11.645  12.414  66.894  1.00  0.00    -0.437 C  
BRANCH   8   9
HETATM    9  C   UNL     1     -11.656  11.801  68.296  1.00  0.00    -0.373 C  
BRANCH   9  10
HETATM   10  C   UNL     1     -10.422  10.930  68.545  1.00  0.00    -0.209 C  
BRANCH  10  11
HETATM   11  C   UNL     1     -10.772   9.728  69.387  1.00  0.00    -0.250 A  
HETATM   12  C   UNL     1     -11.143   9.884  70.731  1.00  0.00    -0.417 A  
HETATM   13  C   UNL     1     -11.415   8.768  71.527  1.00  0.00    -0.375 A  
HETATM   14  C   UNL     1     -11.311   7.495  70.977  1.00  0.00    -0.273 A  
HETATM   15  O   UNL     1     -11.549   6.378  71.723  1.00  0.00    -0.290 OA 
HETATM   16  C   UNL     1     -10.953   7.320  69.648  1.00  0.00    -0.204 A  
HETATM   17  H   UNL     1     -11.478   5.508  71.348  1.00  0.00     0.000 HD 
HETATM   18  C   UNL     1     -10.681   8.435  68.853  1.00  0.00    -0.095 A  
ENDBRANCH  10  11
ENDBRANCH   9  10
ENDBRANCH   8   9
ENDBRANCH   7   8
ENDBRANCH   5   7
ENDBRANCH   4   5
ENDBRANCH   3   4
BRANCH   3  19
HETATM   19  C   UNL     1      -8.649  16.752  67.368  1.00  0.00    -0.206 A  
HETATM   20  C   UNL     1      -8.165  17.366  68.536  1.00  0.00    -0.268 A  
HETATM   21  H   UNL     1      -5.315  19.900  66.295  1.00  0.00     0.000 HD 
HETATM   22  C   UNL     1      -8.107  17.135  66.125  1.00  0.00    -0.283 A  
HETATM   23  H   UNL     1      -5.990  19.615  69.503  1.00  0.00     0.000 HD 
HETATM   24  C   UNL     1      -7.169  18.331  68.450  1.00  0.00    -0.268 A  
HETATM   25  C   UNL     1      -7.105  18.105  66.047  1.00  0.00    -0.318 A  
HETATM   26  O   UNL     1      -6.671  18.956  69.561  1.00  0.00    -0.268 OA 
HETATM   27  C   UNL     1      -6.646  18.697  67.212  1.00  0.00    -0.200 A  
HETATM   28  O   UNL     1      -5.671  19.651  67.139  1.00  0.00    -0.175 OA 
ENDBRANCH   3  19
TORSDOF 8
ENDMDL
MODEL      261
REMARK 921   NORMALIZED FREE ENERGY PREDICTED BY IDOCK:   -3.91 KCAL/MOL
REMARK 922        TOTAL FREE ENERGY PREDICTED BY IDOCK:   -6.94 KCAL/MOL
REMARK 923 INTER-LIGAND FREE ENERGY PREDICTED BY IDOCK:   -6.05 KCAL/MOL
REMARK 924 INTRA-LIGAND FREE ENERGY PREDICTED BY IDOCK:   -0.90 KCAL/MOL
REMARK 927      BINDING AFFINITY PREDICTED BY RF-SCORE:    0.00 PKD
ROOT
HETATM    1  O   UNL     1      -8.878  12.524  67.993  1.00  0.00    -0.174 OA 
HETATM    2  H   UNL     1      -9.694  12.063  68.148  1.00  0.00     0.000 HD 
HETATM    3  C   UNL     1      -9.141  13.925  67.843  1.00  0.00    -0.194 C  
ENDROOT
BRANCH   3   4
HETATM    4  C   UNL     1      -7.811  14.676  67.591  1.00  0.00    -0.181 C  
BRANCH   4   5
HETATM    5  N   UNL     1      -6.718  13.750  67.222  1.00  0.00    -0.435 NA 
HETATM    6  H   UNL     1      -6.093  14.155  66.524  1.00  0.00     0.000 HD 
BRANCH   5   7
HETATM    7  C   UNL     1      -5.995  13.320  68.424  1.00  0.00    -0.090 C  
BRANCH   7   8
HETATM    8  C   UNL     1      -5.345  11.954  68.186  1.00  0.00    -0.046 C  
BRANCH   8   9
HETATM    9  C   UNL     1      -5.359  11.601  66.697  1.00  0.00    -0.099 C  
BRANCH   9  10
HETATM   10  C   UNL     1      -5.684  10.123  66.466  1.00  0.00    -0.059 C  
BRANCH  10  11
HETATM   11  C   UNL     1      -6.714   9.962  65.374  1.00  0.00    -0.104 A  
HETATM   12  C   UNL     1      -7.940  10.641  65.446  1.00  0.00    -0.086 A  
HETATM   13  C   UNL     1      -8.915  10.451  64.465  1.00  0.00    -0.241 A  
HETATM   14  C   UNL     1      -8.665   9.577  63.412  1.00  0.00    -0.222 A  
HETATM   15  O   UNL     1      -9.596   9.348  62.442  1.00  0.00    -0.570 OA 
HETATM   16  C   UNL     1      -7.455   8.903  63.319  1.00  0.00    -0.101 A  
HETATM   17  H   UNL     1      -9.426   8.751  61.724  1.00  0.00     0.000 HD 
HETATM   18  C   UNL     1      -6.481   9.092  64.301  1.00  0.00    -0.083 A  
ENDBRANCH  10  11
ENDBRANCH   9  10
ENDBRANCH   8   9
ENDBRANCH   7   8
ENDBRANCH   5   7
ENDBRANCH   4   5
ENDBRANCH   3   4
BRANCH   3  19
HETATM   19  C   UNL     1     -10.123  14.149  66.711  1.00  0.00    -0.262 A  
HETATM   20  C   UNL     1     -11.026  13.147  66.315  1.00  0.00    -0.295 A  
HETATM   21  H   UNL     1     -12.705  15.627  63.060  1.00  0.00     0.000 HD 
HETATM   22  C   UNL     1     -10.116  15.371  66.011  1.00  0.00    -0.346 A  
HETATM   23  H   UNL     1     -13.376  12.580  64.106  1.00  0.00     0.000 HD 
HETATM   24  C   UNL     1     -11.891  13.373  65.252  1.00  0.00    -0.348 A  
HETATM   25  C   UNL     1     -10.989  15.592  64.943  1.00  0.00    -0.452 A  
HETATM   26  O   UNL     1     -12.784  12.425  64.832  1.00  0.00    -0.620 OA 
HETATM   27  C   UNL     1     -11.869  14.588  64.571  1.00  0.00    -0.446 A  
HETATM   28  O   UNL     1     -12.720  14.798  63.524  1.00  0.00    -0.593 OA 
ENDBRANCH   3  19
TORSDOF 8
ENDMDL
MODEL      262
REMARK 921   NORMALIZED FREE ENERGY PREDICTED BY IDOCK:   -3.87 KCAL/MOL
REMARK 922        TOTAL FREE ENERGY PREDICTED BY IDOCK:   -6.89 KCAL/MOL
REMARK 923 INTER-LIGAND FREE ENERGY PREDICTED BY IDOCK:   -6.39 KCAL/MOL
REMARK 924 INTRA-LIGAND FREE ENERGY PREDICTED BY IDOCK:   -0.50 KCAL/MOL
REMARK 927      BINDING AFFINITY PREDICTED BY RF-SCORE:    0.00 PKD
ROOT
HETATM    1  O   UNL     1      -6.111   6.887  71.050  1.00  0.00    -0.035 OA 
HETATM    2  H   UNL     1      -6.151   7.194  71.949  1.00  0.00     0.000 HD 
HETATM    3  C   UNL     1      -7.318   7.249  70.367  1.00  0.00    -0.078 C  
ENDROOT
BRANCH   3   4
HETATM    4  C   UNL     1      -7.253   6.749  68.904  1.00  0.00    -0.091 C  
BRANCH   4   5
HETATM    5  N   UNL     1      -7.972   7.656  67.981  1.00  0.00    -0.121 NA 
HETATM    6  H   UNL     1      -7.678   8.627  68.094  1.00  0.00     0.000 HD 
BRANCH   5   7
HETATM    7  C   UNL     1      -7.818   7.192  66.598  1.00  0.00    -0.109 C  
BRANCH   7   8
HETATM    8  C   UNL     1      -7.818   8.386  65.640  1.00  0.00    -0.106 C  
BRANCH   8   9
HETATM    9  C   UNL     1      -9.225   8.972  65.506  1.00  0.00    -0.262 C  
BRANCH   9  10
HETATM   10  C   UNL     1      -9.311   9.987  64.363  1.00  0.00    -0.348 C  
BRANCH  10  11
HETATM   11  C   UNL     1     -10.384  11.014  64.634  1.00  0.00    -0.410 A  
HETATM   12  C   UNL     1     -11.163  11.524  63.585  1.00  0.00    -0.451 A  
HETATM   13  C   UNL     1     -12.118  12.513  63.826  1.00  0.00    -0.615 A  
HETATM   14  C   UNL     1     -12.292  12.996  65.119  1.00  0.00    -0.484 A  
HETATM   15  O   UNL     1     -13.200  13.975  65.395  1.00  0.00    -0.761 OA 
HETATM   16  C   UNL     1     -11.536  12.499  66.172  1.00  0.00    -0.448 A  
HETATM   17  H   UNL     1     -13.318  14.305  66.278  1.00  0.00     0.000 HD 
HETATM   18  C   UNL     1     -10.581  11.510  65.930  1.00  0.00    -0.318 A  
ENDBRANCH  10  11
ENDBRANCH   9  10
ENDBRANCH   8   9
ENDBRANCH   7   8
ENDBRANCH   5   7
ENDBRANCH   4   5
ENDBRANCH   3   4
BRANCH   3  19
HETATM   19  C   UNL     1      -8.517   6.673  71.094  1.00  0.00    -0.126 A  
HETATM   20  C   UNL     1      -9.157   7.381  72.126  1.00  0.00    -0.156 A  
HETATM   21  H   UNL     1     -12.043   4.115  72.881  1.00  0.00     0.000 HD 
HETATM   22  C   UNL     1      -8.985   5.388  70.760  1.00  0.00    -0.156 A  
HETATM   23  H   UNL     1     -11.621   7.072  74.261  1.00  0.00     0.000 HD 
HETATM   24  C   UNL     1     -10.234   6.810  72.793  1.00  0.00    -0.189 A  
HETATM   25  C   UNL     1     -10.068   4.821  71.435  1.00  0.00    -0.259 A  
HETATM   26  O   UNL     1     -10.885   7.462  73.804  1.00  0.00    -0.321 OA 
HETATM   27  C   UNL     1     -10.682   5.537  72.449  1.00  0.00    -0.235 A  
HETATM   28  O   UNL     1     -11.738   4.983  73.116  1.00  0.00    -0.313 OA 
ENDBRANCH   3  19
TORSDOF 8
ENDMDL
MODEL      263
REMARK 921   NORMALIZED FREE ENERGY PREDICTED BY IDOCK:   -3.87 KCAL/MOL
REMARK 922        TOTAL FREE ENERGY PREDICTED BY IDOCK:   -6.89 KCAL/MOL
REMARK 923 INTER-LIGAND FREE ENERGY PREDICTED BY IDOCK:   -6.32 KCAL/MOL
REMARK 924 INTRA-LIGAND FREE ENERGY PREDICTED BY IDOCK:   -0.56 KCAL/MOL
REMARK 927      BINDING AFFINITY PREDICTED BY RF-SCORE:    0.00 PKD
ROOT
HETATM    1  O   UNL     1      -7.334   9.422  71.227  1.00  0.00    -0.310 OA 
HETATM    2  H   UNL     1      -7.380   9.027  72.091  1.00  0.00     0.000 HD 
HETATM    3  C   UNL     1      -8.588   9.249  70.554  1.00  0.00    -0.233 C  
ENDROOT
BRANCH   3   4
HETATM    4  C   UNL     1      -8.513   9.892  69.149  1.00  0.00    -0.148 C  
BRANCH   4   5
HETATM    5  N   UNL     1      -9.245  11.177  69.092  1.00  0.00    -0.398 NA 
HETATM    6  H   UNL     1      -8.611  11.977  69.074  1.00  0.00     0.000 HD 
BRANCH   5   7
HETATM    7  C   UNL     1     -10.167  11.181  67.951  1.00  0.00    -0.180 C  
BRANCH   7   8
HETATM    8  C   UNL     1     -10.017  12.483  67.159  1.00  0.00    -0.217 C  
BRANCH   8   9
HETATM    9  C   UNL     1     -11.147  13.456  67.500  1.00  0.00    -0.294 C  
BRANCH   9  10
HETATM   10  C   UNL     1     -12.028  12.930  68.636  1.00  0.00    -0.282 C  
BRANCH  10  11
HETATM   11  C   UNL     1     -12.001  13.868  69.818  1.00  0.00    -0.398 A  
HETATM   12  C   UNL     1     -12.611  13.506  71.029  1.00  0.00    -0.438 A  
HETATM   13  C   UNL     1     -12.634  14.395  72.106  1.00  0.00    -0.377 A  
HETATM   14  C   UNL     1     -12.049  15.650  71.970  1.00  0.00    -0.443 A  
HETATM   15  O   UNL     1     -12.065  16.555  72.990  1.00  0.00    -0.513 OA 
HETATM   16  C   UNL     1     -11.433  16.023  70.783  1.00  0.00    -0.444 A  
HETATM   17  H   UNL     1     -11.666  17.412  72.897  1.00  0.00     0.000 HD 
HETATM   18  C   UNL     1     -11.411  15.135  69.706  1.00  0.00    -0.321 A  
ENDBRANCH  10  11
ENDBRANCH   9  10
ENDBRANCH   8   9
ENDBRANCH   7   8
ENDBRANCH   5   7
ENDBRANCH   4   5
ENDBRANCH   3   4
BRANCH   3  19
HETATM   19  C   UNL     1      -8.930   7.775  70.469  1.00  0.00    -0.150 A  
HETATM   20  C   UNL     1      -8.126   6.800  71.084  1.00  0.00    -0.111 A  
HETATM   21  H   UNL     1     -10.634   3.472  69.600  1.00  0.00     0.000 HD 
HETATM   22  C   UNL     1     -10.055   7.360  69.729  1.00  0.00    -0.193 A  
HETATM   23  H   UNL     1      -7.917   3.553  71.454  1.00  0.00     0.000 HD 
HETATM   24  C   UNL     1      -8.450   5.454  70.959  1.00  0.00    -0.124 A  
HETATM   25  C   UNL     1     -10.375   6.006  69.608  1.00  0.00    -0.294 A  
HETATM   26  O   UNL     1      -7.695   4.472  71.539  1.00  0.00    -0.077 OA 
HETATM   27  C   UNL     1      -9.566   5.064  70.223  1.00  0.00    -0.187 A  
HETATM   28  O   UNL     1      -9.872   3.738  70.101  1.00  0.00    -0.188 OA 
ENDBRANCH   3  19
TORSDOF 8
ENDMDL
MODEL      264
REMARK 921   NORMALIZED FREE ENERGY PREDICTED BY IDOCK:   -3.87 KCAL/MOL
REMARK 922        TOTAL FREE ENERGY PREDICTED BY IDOCK:   -6.88 KCAL/MOL
REMARK 923 INTER-LIGAND FREE ENERGY PREDICTED BY IDOCK:   -6.05 KCAL/MOL
REMARK 924 INTRA-LIGAND FREE ENERGY PREDICTED BY IDOCK:   -0.83 KCAL/MOL
REMARK 927      BINDING AFFINITY PREDICTED BY RF-SCORE:    0.00 PKD
ROOT
HETATM    1  O   UNL     1     -10.236  12.494  68.335  1.00  0.00    -0.225 OA 
HETATM    2  H   UNL     1     -10.115  13.340  68.750  1.00  0.00     0.000 HD 
HETATM    3  C   UNL     1      -9.616  12.502  67.042  1.00  0.00    -0.216 C  
ENDROOT
BRANCH   3   4
HETATM    4  C   UNL     1      -9.813  11.124  66.367  1.00  0.00    -0.211 C  
BRANCH   4   5
HETATM    5  N   UNL     1      -9.348  10.016  67.231  1.00  0.00    -0.147 NA 
HETATM    6  H   UNL     1      -9.143  10.332  68.179  1.00  0.00     0.000 HD 
BRANCH   5   7
HETATM    7  C   UNL     1     -10.324   8.921  67.216  1.00  0.00    -0.280 C  
BRANCH   7   8
HETATM    8  C   UNL     1     -10.707   8.538  68.648  1.00  0.00    -0.082 C  
BRANCH   8   9
HETATM    9  C   UNL     1      -9.876   9.331  69.659  1.00  0.00    -0.196 C  
BRANCH   9  10
HETATM   10  C   UNL     1      -9.148   8.411  70.642  1.00  0.00    -0.174 C  
BRANCH  10  11
HETATM   11  C   UNL     1      -8.197   7.491  69.916  1.00  0.00    -0.131 A  
HETATM   12  C   UNL     1      -8.429   6.108  69.886  1.00  0.00    -0.129 A  
HETATM   13  C   UNL     1      -7.522   5.249  69.261  1.00  0.00    -0.062 A  
HETATM   14  C   UNL     1      -6.379   5.776  68.668  1.00  0.00    -0.041 A  
HETATM   15  O   UNL     1      -5.458   4.972  68.064  1.00  0.00    -0.011 OA 
HETATM   16  C   UNL     1      -6.135   7.143  68.681  1.00  0.00    -0.030 A  
HETATM   17  H   UNL     1      -4.677   5.332  67.660  1.00  0.00     0.000 HD 
HETATM   18  C   UNL     1      -7.042   8.000  69.307  1.00  0.00    -0.068 A  
ENDBRANCH  10  11
ENDBRANCH   9  10
ENDBRANCH   8   9
ENDBRANCH   7   8
ENDBRANCH   5   7
ENDBRANCH   4   5
ENDBRANCH   3   4
BRANCH   3  19
HETATM   19  C   UNL     1     -10.197  13.618  66.198  1.00  0.00    -0.306 A  
HETATM   20  C   UNL     1     -11.232  13.378  65.278  1.00  0.00    -0.305 A  
HETATM   21  H   UNL     1     -11.307  17.586  63.917  1.00  0.00     0.000 HD 
HETATM   22  C   UNL     1      -9.672  14.921  66.304  1.00  0.00    -0.320 A  
HETATM   23  H   UNL     1     -13.059  14.938  63.052  1.00  0.00     0.000 HD 
HETATM   24  C   UNL     1     -11.721  14.417  64.495  1.00  0.00    -0.419 A  
HETATM   25  C   UNL     1     -10.168  15.961  65.515  1.00  0.00    -0.394 A  
HETATM   26  O   UNL     1     -12.725  14.228  63.586  1.00  0.00    -0.783 OA 
HETATM   27  C   UNL     1     -11.187  15.699  64.614  1.00  0.00    -0.369 A  
HETATM   28  O   UNL     1     -11.670  16.712  63.836  1.00  0.00    -1.153 OA 
ENDBRANCH   3  19
TORSDOF 8
ENDMDL
MODEL      265
REMARK 921   NORMALIZED FREE ENERGY PREDICTED BY IDOCK:   -3.87 KCAL/MOL
REMARK 922        TOTAL FREE ENERGY PREDICTED BY IDOCK:   -6.88 KCAL/MOL
REMARK 923 INTER-LIGAND FREE ENERGY PREDICTED BY IDOCK:   -6.39 KCAL/MOL
REMARK 924 INTRA-LIGAND FREE ENERGY PREDICTED BY IDOCK:   -0.49 KCAL/MOL
REMARK 927      BINDING AFFINITY PREDICTED BY RF-SCORE:    0.00 PKD
ROOT
HETATM    1  O   UNL     1      -9.727  11.525  66.907  1.00  0.00    -0.183 OA 
HETATM    2  H   UNL     1      -9.648  11.574  65.961  1.00  0.00     0.000 HD 
HETATM    3  C   UNL     1     -10.624  12.545  67.366  1.00  0.00    -0.223 C  
ENDROOT
BRANCH   3   4
HETATM    4  C   UNL     1     -10.752  12.465  68.906  1.00  0.00    -0.164 C  
BRANCH   4   5
HETATM    5  N   UNL     1     -11.825  11.534  69.321  1.00  0.00    -0.329 NA 
HETATM    6  H   UNL     1     -12.581  11.493  68.637  1.00  0.00     0.000 HD 
BRANCH   5   7
HETATM    7  C   UNL     1     -11.262  10.208  69.599  1.00  0.00    -0.261 C  
BRANCH   7   8
HETATM    8  C   UNL     1     -11.754   9.703  70.958  1.00  0.00    -0.433 C  
BRANCH   8   9
HETATM    9  C   UNL     1     -11.097   8.366  71.308  1.00  0.00    -0.307 C  
BRANCH   9  10
HETATM   10  C   UNL     1     -11.901   7.180  70.770  1.00  0.00    -0.367 C  
BRANCH  10  11
HETATM   11  C   UNL     1     -11.014   6.230  70.003  1.00  0.00    -0.422 A  
HETATM   12  C   UNL     1     -10.721   6.463  68.652  1.00  0.00    -0.341 A  
HETATM   13  C   UNL     1      -9.944   5.557  67.926  1.00  0.00    -0.185 A  
HETATM   14  C   UNL     1      -9.462   4.413  68.555  1.00  0.00    -0.156 A  
HETATM   15  O   UNL     1      -8.716   3.492  67.880  1.00  0.00    -0.095 OA 
HETATM   16  C   UNL     1      -9.734   4.169  69.894  1.00  0.00    -0.280 A  
HETATM   17  H   UNL     1      -8.388   2.711  68.309  1.00  0.00     0.000 HD 
HETATM   18  C   UNL     1     -10.511   5.075  70.618  1.00  0.00    -0.227 A  
ENDBRANCH  10  11
ENDBRANCH   9  10
ENDBRANCH   8   9
ENDBRANCH   7   8
ENDBRANCH   5   7
ENDBRANCH   4   5
ENDBRANCH   3   4
BRANCH   3  19
HETATM   19  C   UNL     1     -10.128  13.907  66.924  1.00  0.00    -0.260 A  
HETATM   20  C   UNL     1      -8.891  14.413  67.360  1.00  0.00    -0.211 A  
HETATM   21  H   UNL     1      -9.431  18.228  65.187  1.00  0.00     0.000 HD 
HETATM   22  C   UNL     1     -10.931  14.705  66.086  1.00  0.00    -0.329 A  
HETATM   23  H   UNL     1      -7.006  17.078  67.091  1.00  0.00     0.000 HD 
HETATM   24  C   UNL     1      -8.481  15.680  66.961  1.00  0.00    -0.226 A  
HETATM   25  C   UNL     1     -10.512  15.976  65.689  1.00  0.00    -0.416 A  
HETATM   26  O   UNL     1      -7.287  16.212  67.364  1.00  0.00    -0.143 OA 
HETATM   27  C   UNL     1      -9.290  16.454  66.133  1.00  0.00    -0.325 A  
HETATM   28  O   UNL     1      -8.880  17.700  65.752  1.00  0.00    -0.508 OA 
ENDBRANCH   3  19
TORSDOF 8
ENDMDL
MODEL      266
REMARK 921   NORMALIZED FREE ENERGY PREDICTED BY IDOCK:   -3.86 KCAL/MOL
REMARK 922        TOTAL FREE ENERGY PREDICTED BY IDOCK:   -6.86 KCAL/MOL
REMARK 923 INTER-LIGAND FREE ENERGY PREDICTED BY IDOCK:   -5.92 KCAL/MOL
REMARK 924 INTRA-LIGAND FREE ENERGY PREDICTED BY IDOCK:   -0.94 KCAL/MOL
REMARK 927      BINDING AFFINITY PREDICTED BY RF-SCORE:    0.00 PKD
ROOT
HETATM    1  O   UNL     1      -7.882   9.968  63.811  1.00  0.00    -0.144 OA 
HETATM    2  H   UNL     1      -6.998   9.795  64.117  1.00  0.00     0.000 HD 
HETATM    3  C   UNL     1      -8.744  10.177  64.936  1.00  0.00    -0.181 C  
ENDROOT
BRANCH   3   4
HETATM    4  C   UNL     1     -10.182  10.458  64.439  1.00  0.00    -0.175 C  
BRANCH   4   5
HETATM    5  N   UNL     1     -10.292  11.786  63.795  1.00  0.00    -0.366 NA 
HETATM    6  H   UNL     1     -10.486  11.711  62.796  1.00  0.00     0.000 HD 
BRANCH   5   7
HETATM    7  C   UNL     1     -11.294  12.602  64.490  1.00  0.00    -0.333 C  
BRANCH   7   8
HETATM    8  C   UNL     1     -10.704  13.969  64.844  1.00  0.00    -0.432 C  
BRANCH   8   9
HETATM    9  C   UNL     1     -11.339  14.517  66.124  1.00  0.00    -0.348 C  
BRANCH   9  10
HETATM   10  C   UNL     1     -10.401  14.381  67.326  1.00  0.00    -0.260 C  
BRANCH  10  11
HETATM   11  C   UNL     1     -11.036  13.551  68.416  1.00  0.00    -0.298 A  
HETATM   12  C   UNL     1     -11.558  14.164  69.564  1.00  0.00    -0.349 A  
HETATM   13  C   UNL     1     -12.098  13.394  70.597  1.00  0.00    -0.374 A  
HETATM   14  C   UNL     1     -12.112  12.008  70.481  1.00  0.00    -0.311 A  
HETATM   15  O   UNL     1     -12.611  11.217  71.473  1.00  0.00    -0.363 OA 
HETATM   16  C   UNL     1     -11.607  11.383  69.348  1.00  0.00    -0.391 A  
HETATM   17  H   UNL     1     -12.620  10.270  71.394  1.00  0.00     0.000 HD 
HETATM   18  C   UNL     1     -11.067  12.154  68.317  1.00  0.00    -0.288 A  
ENDBRANCH  10  11
ENDBRANCH   9  10
ENDBRANCH   8   9
ENDBRANCH   7   8
ENDBRANCH   5   7
ENDBRANCH   4   5
ENDBRANCH   3   4
BRANCH   3  19
HETATM   19  C   UNL     1      -8.704   8.970  65.851  1.00  0.00    -0.193 A  
HETATM   20  C   UNL     1      -9.861   8.501  66.498  1.00  0.00    -0.342 A  
HETATM   21  H   UNL     1      -7.663   5.281  68.587  1.00  0.00     0.000 HD 
HETATM   22  C   UNL     1      -7.479   8.317  66.093  1.00  0.00    -0.081 A  
HETATM   23  H   UNL     1     -10.828   6.178  68.593  1.00  0.00     0.000 HD 
HETATM   24  C   UNL     1      -9.782   7.411  67.356  1.00  0.00    -0.153 A  
HETATM   25  C   UNL     1      -7.408   7.221  66.956  1.00  0.00    -0.093 A  
HETATM   26  O   UNL     1     -10.882   6.924  68.007  1.00  0.00    -0.222 OA 
HETATM   27  C   UNL     1      -8.562   6.779  67.583  1.00  0.00    -0.121 A  
HETATM   28  O   UNL     1      -8.494   5.712  68.433  1.00  0.00    -0.105 OA 
ENDBRANCH   3  19
TORSDOF 8
ENDMDL
MODEL      267
REMARK 921   NORMALIZED FREE ENERGY PREDICTED BY IDOCK:   -3.85 KCAL/MOL
REMARK 922        TOTAL FREE ENERGY PREDICTED BY IDOCK:   -6.86 KCAL/MOL
REMARK 923 INTER-LIGAND FREE ENERGY PREDICTED BY IDOCK:   -6.13 KCAL/MOL
REMARK 924 INTRA-LIGAND FREE ENERGY PREDICTED BY IDOCK:   -0.72 KCAL/MOL
REMARK 927      BINDING AFFINITY PREDICTED BY RF-SCORE:    0.00 PKD
ROOT
HETATM    1  O   UNL     1     -11.331   4.950  65.481  1.00  0.00    -0.906 OA 
HETATM    2  H   UNL     1     -12.083   4.536  65.892  1.00  0.00     0.000 HD 
HETATM    3  C   UNL     1     -10.132   4.287  65.901  1.00  0.00    -0.205 C  
ENDROOT
BRANCH   3   4
HETATM    4  C   UNL     1      -8.909   4.961  65.233  1.00  0.00    -0.152 C  
BRANCH   4   5
HETATM    5  N   UNL     1      -8.253   5.931  66.137  1.00  0.00    -0.112 NA 
HETATM    6  H   UNL     1      -7.244   5.785  66.186  1.00  0.00     0.000 HD 
BRANCH   5   7
HETATM    7  C   UNL     1      -8.592   7.301  65.738  1.00  0.00    -0.131 C  
BRANCH   7   8
HETATM    8  C   UNL     1      -7.704   8.301  66.484  1.00  0.00    -0.092 C  
BRANCH   8   9
HETATM    9  C   UNL     1      -8.505   9.037  67.560  1.00  0.00    -0.116 C  
BRANCH   9  10
HETATM   10  C   UNL     1     -10.010   8.977  67.288  1.00  0.00    -0.275 C  
BRANCH  10  11
HETATM   11  C   UNL     1     -10.617  10.359  67.306  1.00  0.00    -0.322 A  
HETATM   12  C   UNL     1     -11.372  10.791  68.407  1.00  0.00    -0.367 A  
HETATM   13  C   UNL     1     -11.979  12.049  68.402  1.00  0.00    -0.256 A  
HETATM   14  C   UNL     1     -11.833  12.875  67.292  1.00  0.00    -0.356 A  
HETATM   15  O   UNL     1     -12.424  14.103  67.237  1.00  0.00    -0.569 OA 
HETATM   16  C   UNL     1     -11.083  12.468  66.196  1.00  0.00    -0.336 A  
HETATM   17  H   UNL     1     -12.324  14.666  66.479  1.00  0.00     0.000 HD 
HETATM   18  C   UNL     1     -10.477  11.211  66.201  1.00  0.00    -0.307 A  
ENDBRANCH  10  11
ENDBRANCH   9  10
ENDBRANCH   8   9
ENDBRANCH   7   8
ENDBRANCH   5   7
ENDBRANCH   4   5
ENDBRANCH   3   4
BRANCH   3  19
HETATM   19  C   UNL     1     -10.023   4.324  67.412  1.00  0.00    -0.120 A  
HETATM   20  C   UNL     1     -10.566   5.382  68.161  1.00  0.00    -0.146 A  
HETATM   21  H   UNL     1      -9.127   3.709  71.995  1.00  0.00     0.000 HD 
HETATM   22  C   UNL     1      -9.335   3.297  68.088  1.00  0.00    -0.244 A  
HETATM   23  H   UNL     1     -10.832   6.425  71.254  1.00  0.00     0.000 HD 
HETATM   24  C   UNL     1     -10.421   5.401  69.543  1.00  0.00    -0.273 A  
HETATM   25  C   UNL     1      -9.193   3.322  69.477  1.00  0.00    -0.225 A  
HETATM   26  O   UNL     1     -10.931   6.412  70.309  1.00  0.00    -0.262 OA 
HETATM   27  C   UNL     1      -9.736   4.377  70.193  1.00  0.00    -0.218 A  
HETATM   28  O   UNL     1      -9.594   4.408  71.551  1.00  0.00    -0.143 OA 
ENDBRANCH   3  19
TORSDOF 8
ENDMDL
MODEL      268
REMARK 921   NORMALIZED FREE ENERGY PREDICTED BY IDOCK:   -3.84 KCAL/MOL
REMARK 922        TOTAL FREE ENERGY PREDICTED BY IDOCK:   -6.84 KCAL/MOL
REMARK 923 INTER-LIGAND FREE ENERGY PREDICTED BY IDOCK:   -6.37 KCAL/MOL
REMARK 924 INTRA-LIGAND FREE ENERGY PREDICTED BY IDOCK:   -0.47 KCAL/MOL
REMARK 927      BINDING AFFINITY PREDICTED BY RF-SCORE:    0.00 PKD
ROOT
HETATM    1  O   UNL     1      -9.038  14.229  65.840  1.00  0.00    -0.498 OA 
HETATM    2  H   UNL     1      -8.238  14.718  65.684  1.00  0.00     0.000 HD 
HETATM    3  C   UNL     1     -10.170  15.046  65.513  1.00  0.00    -0.378 C  
ENDROOT
BRANCH   3   4
HETATM    4  C   UNL     1     -11.472  14.250  65.766  1.00  0.00    -0.335 C  
BRANCH   4   5
HETATM    5  N   UNL     1     -11.346  12.839  65.338  1.00  0.00    -0.294 NA 
HETATM    6  H   UNL     1     -10.485  12.673  64.816  1.00  0.00     0.000 HD 
BRANCH   5   7
HETATM    7  C   UNL     1     -11.465  11.948  66.498  1.00  0.00    -0.314 C  
BRANCH   7   8
HETATM    8  C   UNL     1     -10.190  11.115  66.653  1.00  0.00    -0.274 C  
BRANCH   8   9
HETATM    9  C   UNL     1     -10.325  10.133  67.819  1.00  0.00    -0.253 C  
BRANCH   9  10
HETATM   10  C   UNL     1      -9.913  10.769  69.149  1.00  0.00    -0.206 C  
BRANCH  10  11
HETATM   11  C   UNL     1      -9.623   9.711  70.186  1.00  0.00    -0.300 A  
HETATM   12  C   UNL     1     -10.562   9.418  71.186  1.00  0.00    -0.403 A  
HETATM   13  C   UNL     1     -10.274   8.478  72.178  1.00  0.00    -0.403 A  
HETATM   14  C   UNL     1      -9.041   7.833  72.171  1.00  0.00    -0.144 A  
HETATM   15  O   UNL     1      -8.711   6.922  73.131  1.00  0.00    -0.121 OA 
HETATM   16  C   UNL     1      -8.102   8.103  71.185  1.00  0.00    -0.111 A  
HETATM   17  H   UNL     1      -7.870   6.482  73.126  1.00  0.00     0.000 HD 
HETATM   18  C   UNL     1      -8.391   9.043  70.194  1.00  0.00    -0.156 A  
ENDBRANCH  10  11
ENDBRANCH   9  10
ENDBRANCH   8   9
ENDBRANCH   7   8
ENDBRANCH   5   7
ENDBRANCH   4   5
ENDBRANCH   3   4
BRANCH   3  19
HETATM   19  C   UNL     1     -10.138  16.323  66.328  1.00  0.00    -0.340 A  
HETATM   20  C   UNL     1     -10.288  16.305  67.725  1.00  0.00    -0.287 A  
HETATM   21  H   UNL     1     -10.044  20.710  68.038  1.00  0.00     0.000 HD 
HETATM   22  C   UNL     1      -9.990  17.564  65.678  1.00  0.00     0.072 A  
HETATM   23  H   UNL     1     -10.430  18.340  70.287  1.00  0.00     0.000 HD 
HETATM   24  C   UNL     1     -10.286  17.497  68.439  1.00  0.00    -0.372 A  
HETATM   25  C   UNL     1      -9.988  18.758  66.402  1.00  0.00    -0.426 A  
HETATM   26  O   UNL     1     -10.432  17.525  69.799  1.00  0.00    -0.026 OA 
HETATM   27  C   UNL     1     -10.139  18.714  67.778  1.00  0.00    -0.371 A  
HETATM   28  O   UNL     1     -10.145  19.881  68.488  1.00  0.00    -0.431 OA 
ENDBRANCH   3  19
TORSDOF 8
ENDMDL
MODEL      269
REMARK 921   NORMALIZED FREE ENERGY PREDICTED BY IDOCK:   -3.84 KCAL/MOL
REMARK 922        TOTAL FREE ENERGY PREDICTED BY IDOCK:   -6.84 KCAL/MOL
REMARK 923 INTER-LIGAND FREE ENERGY PREDICTED BY IDOCK:   -6.11 KCAL/MOL
REMARK 924 INTRA-LIGAND FREE ENERGY PREDICTED BY IDOCK:   -0.73 KCAL/MOL
REMARK 927      BINDING AFFINITY PREDICTED BY RF-SCORE:    0.00 PKD
ROOT
HETATM    1  O   UNL     1      -9.009  11.928  67.733  1.00  0.00    -0.160 OA 
HETATM    2  H   UNL     1      -8.406  11.990  67.000  1.00  0.00     0.000 HD 
HETATM    3  C   UNL     1     -10.347  11.780  67.242  1.00  0.00    -0.206 C  
ENDROOT
BRANCH   3   4
HETATM    4  C   UNL     1     -11.327  11.679  68.435  1.00  0.00    -0.279 C  
BRANCH   4   5
HETATM    5  N   UNL     1     -11.962  10.344  68.512  1.00  0.00    -0.759 NA 
HETATM    6  H   UNL     1     -12.850  10.314  68.012  1.00  0.00     0.000 HD 
BRANCH   5   7
HETATM    7  C   UNL     1     -11.030   9.314  68.040  1.00  0.00    -0.015 C  
BRANCH   7   8
HETATM    8  C   UNL     1     -10.332   8.651  69.230  1.00  0.00    -0.228 C  
BRANCH   8   9
HETATM    9  C   UNL     1      -8.820   8.588  69.004  1.00  0.00    -0.145 C  
BRANCH   9  10
HETATM   10  C   UNL     1      -8.042   9.102  70.219  1.00  0.00    -0.156 C  
BRANCH  10  11
HETATM   11  C   UNL     1      -7.734   7.977  71.177  1.00  0.00    -0.087 A  
HETATM   12  C   UNL     1      -7.234   6.755  70.703  1.00  0.00    -0.070 A  
HETATM   13  C   UNL     1      -6.999   5.695  71.581  1.00  0.00    -0.068 A  
HETATM   14  C   UNL     1      -7.268   5.857  72.936  1.00  0.00    -0.090 A  
HETATM   15  O   UNL     1      -7.070   4.843  73.826  1.00  0.00    -0.077 OA 
HETATM   16  C   UNL     1      -7.755   7.062  73.426  1.00  0.00    -0.096 A  
HETATM   17  H   UNL     1      -7.254   4.954  74.751  1.00  0.00     0.000 HD 
HETATM   18  C   UNL     1      -7.990   8.121  72.547  1.00  0.00    -0.195 A  
ENDBRANCH  10  11
ENDBRANCH   9  10
ENDBRANCH   8   9
ENDBRANCH   7   8
ENDBRANCH   5   7
ENDBRANCH   4   5
ENDBRANCH   3   4
BRANCH   3  19
HETATM   19  C   UNL     1     -10.697  12.946  66.339  1.00  0.00    -0.286 A  
HETATM   20  C   UNL     1      -9.843  14.055  66.210  1.00  0.00    -0.318 A  
HETATM   21  H   UNL     1     -12.601  16.144  63.453  1.00  0.00     0.000 HD 
HETATM   22  C   UNL     1     -11.918  12.943  65.636  1.00  0.00    -0.490 A  
HETATM   23  H   UNL     1      -9.661  16.951  64.691  1.00  0.00     0.000 HD 
HETATM   24  C   UNL     1     -10.210  15.122  65.398  1.00  0.00    -0.372 A  
HETATM   25  C   UNL     1     -12.279  14.019  64.822  1.00  0.00    -0.454 A  
HETATM   26  O   UNL     1      -9.411  16.222  65.246  1.00  0.00    -0.316 OA 
HETATM   27  C   UNL     1     -11.422  15.102  64.712  1.00  0.00    -0.383 A  
HETATM   28  O   UNL     1     -11.775  16.158  63.922  1.00  0.00    -0.860 OA 
ENDBRANCH   3  19
TORSDOF 8
ENDMDL
MODEL      270
REMARK 921   NORMALIZED FREE ENERGY PREDICTED BY IDOCK:   -3.84 KCAL/MOL
REMARK 922        TOTAL FREE ENERGY PREDICTED BY IDOCK:   -6.84 KCAL/MOL
REMARK 923 INTER-LIGAND FREE ENERGY PREDICTED BY IDOCK:   -5.91 KCAL/MOL
REMARK 924 INTRA-LIGAND FREE ENERGY PREDICTED BY IDOCK:   -0.92 KCAL/MOL
REMARK 927      BINDING AFFINITY PREDICTED BY RF-SCORE:    0.00 PKD
ROOT
HETATM    1  O   UNL     1      -9.552   7.970  70.538  1.00  0.00    -0.169 OA 
HETATM    2  H   UNL     1      -9.075   8.767  70.334  1.00  0.00     0.000 HD 
HETATM    3  C   UNL     1     -10.863   8.037  69.962  1.00  0.00    -0.235 C  
ENDROOT
BRANCH   3   4
HETATM    4  C   UNL     1     -11.640   6.741  70.295  1.00  0.00    -0.362 C  
BRANCH   4   5
HETATM    5  N   UNL     1     -10.913   5.900  71.272  1.00  0.00    -0.271 NA 
HETATM    6  H   UNL     1     -10.032   6.325  71.561  1.00  0.00     0.000 HD 
BRANCH   5   7
HETATM    7  C   UNL     1     -11.779   5.595  72.417  1.00  0.00    -0.179 C  
BRANCH   7   8
HETATM    8  C   UNL     1     -10.944   5.037  73.572  1.00  0.00    -0.393 C  
BRANCH   8   9
HETATM    9  C   UNL     1     -10.955   3.507  73.557  1.00  0.00    -0.330 C  
BRANCH   9  10
HETATM   10  C   UNL     1      -9.540   2.929  73.466  1.00  0.00    -0.130 C  
BRANCH  10  11
HETATM   11  C   UNL     1      -8.954   3.152  72.092  1.00  0.00    -0.136 A  
HETATM   12  C   UNL     1      -9.505   2.514  70.971  1.00  0.00    -0.222 A  
HETATM   13  C   UNL     1      -8.931   2.677  69.708  1.00  0.00    -0.167 A  
HETATM   14  C   UNL     1      -7.802   3.477  69.568  1.00  0.00    -0.050 A  
HETATM   15  O   UNL     1      -7.199   3.649  68.357  1.00  0.00    -0.050 OA 
HETATM   16  C   UNL     1      -7.248   4.124  70.664  1.00  0.00    -0.041 A  
HETATM   17  H   UNL     1      -6.428   4.195  68.262  1.00  0.00     0.000 HD 
HETATM   18  C   UNL     1      -7.821   3.960  71.927  1.00  0.00    -0.070 A  
ENDBRANCH  10  11
ENDBRANCH   9  10
ENDBRANCH   8   9
ENDBRANCH   7   8
ENDBRANCH   5   7
ENDBRANCH   4   5
ENDBRANCH   3   4
BRANCH   3  19
HETATM   19  C   UNL     1     -11.592   9.263  70.476  1.00  0.00    -0.266 A  
HETATM   20  C   UNL     1     -11.368  10.534  69.920  1.00  0.00    -0.380 A  
HETATM   21  H   UNL     1     -14.153  12.505  72.736  1.00  0.00     0.000 HD 
HETATM   22  C   UNL     1     -12.488   9.142  71.555  1.00  0.00    -0.418 A  
HETATM   23  H   UNL     1     -12.290  13.656  70.279  1.00  0.00     0.000 HD 
HETATM   24  C   UNL     1     -12.029  11.643  70.435  1.00  0.00    -0.358 A  
HETATM   25  C   UNL     1     -13.149  10.261  72.068  1.00  0.00    -0.529 A  
HETATM   26  O   UNL     1     -11.839  12.898  69.927  1.00  0.00    -0.323 OA 
HETATM   27  C   UNL     1     -12.911  11.504  71.504  1.00  0.00    -0.380 A  
HETATM   28  O   UNL     1     -13.551  12.600  72.007  1.00  0.00    -0.456 OA 
ENDBRANCH   3  19
TORSDOF 8
ENDMDL
MODEL      271
REMARK 921   NORMALIZED FREE ENERGY PREDICTED BY IDOCK:   -3.84 KCAL/MOL
REMARK 922        TOTAL FREE ENERGY PREDICTED BY IDOCK:   -6.83 KCAL/MOL
REMARK 923 INTER-LIGAND FREE ENERGY PREDICTED BY IDOCK:   -5.43 KCAL/MOL
REMARK 924 INTRA-LIGAND FREE ENERGY PREDICTED BY IDOCK:   -1.40 KCAL/MOL
REMARK 927      BINDING AFFINITY PREDICTED BY RF-SCORE:    0.00 PKD
ROOT
HETATM    1  O   UNL     1      -7.440  11.818  68.431  1.00  0.00    -0.091 OA 
HETATM    2  H   UNL     1      -7.227  12.375  67.691  1.00  0.00     0.000 HD 
HETATM    3  C   UNL     1      -6.744  10.571  68.307  1.00  0.00    -0.060 C  
ENDROOT
BRANCH   3   4
HETATM    4  C   UNL     1      -7.091   9.664  69.512  1.00  0.00    -0.072 C  
BRANCH   4   5
HETATM    5  N   UNL     1      -8.254  10.176  70.269  1.00  0.00    -0.396 NA 
HETATM    6  H   UNL     1      -8.656  11.008  69.836  1.00  0.00     0.000 HD 
BRANCH   5   7
HETATM    7  C   UNL     1      -9.250   9.113  70.444  1.00  0.00    -0.233 C  
BRANCH   7   8
HETATM    8  C   UNL     1     -10.655   9.659  70.176  1.00  0.00    -0.320 C  
BRANCH   8   9
HETATM    9  C   UNL     1     -10.583  10.991  69.426  1.00  0.00    -0.212 C  
BRANCH   9  10
HETATM   10  C   UNL     1     -11.818  11.218  68.551  1.00  0.00    -0.355 C  
BRANCH  10  11
HETATM   11  C   UNL     1     -11.562  12.294  67.523  1.00  0.00    -0.422 A  
HETATM   12  C   UNL     1     -11.798  13.642  67.830  1.00  0.00    -0.403 A  
HETATM   13  C   UNL     1     -11.613  14.633  66.864  1.00  0.00    -0.374 A  
HETATM   14  C   UNL     1     -11.192  14.274  65.587  1.00  0.00    -0.314 A  
HETATM   15  O   UNL     1     -11.016  15.207  64.608  1.00  0.00    -0.572 OA 
HETATM   16  C   UNL     1     -10.945  12.946  65.267  1.00  0.00    -0.310 A  
HETATM   17  H   UNL     1     -10.730  14.961  63.737  1.00  0.00     0.000 HD 
HETATM   18  C   UNL     1     -11.131  11.955  66.234  1.00  0.00    -0.364 A  
ENDBRANCH  10  11
ENDBRANCH   9  10
ENDBRANCH   8   9
ENDBRANCH   7   8
ENDBRANCH   5   7
ENDBRANCH   4   5
ENDBRANCH   3   4
BRANCH   3  19
HETATM   19  C   UNL     1      -7.107   9.905  66.995  1.00  0.00    -0.089 A  
HETATM   20  C   UNL     1      -6.207   9.877  65.915  1.00  0.00    -0.079 A  
HETATM   21  H   UNL     1      -9.074   7.766  63.289  1.00  0.00     0.000 HD 
HETATM   22  C   UNL     1      -8.382   9.329  66.832  1.00  0.00    -0.123 A  
HETATM   23  H   UNL     1      -5.998   8.836  62.817  1.00  0.00     0.000 HD 
HETATM   24  C   UNL     1      -6.583   9.287  64.714  1.00  0.00    -0.076 A  
HETATM   25  C   UNL     1      -8.752   8.737  65.623  1.00  0.00    -0.215 A  
HETATM   26  O   UNL     1      -5.742   9.240  63.637  1.00  0.00    -0.076 OA 
HETATM   27  C   UNL     1      -7.849   8.723  64.572  1.00  0.00    -0.129 A  
HETATM   28  O   UNL     1      -8.211   8.150  63.386  1.00  0.00    -0.143 OA 
ENDBRANCH   3  19
TORSDOF 8
ENDMDL
MODEL      272
REMARK 921   NORMALIZED FREE ENERGY PREDICTED BY IDOCK:   -3.83 KCAL/MOL
REMARK 922        TOTAL FREE ENERGY PREDICTED BY IDOCK:   -6.83 KCAL/MOL
REMARK 923 INTER-LIGAND FREE ENERGY PREDICTED BY IDOCK:   -6.59 KCAL/MOL
REMARK 924 INTRA-LIGAND FREE ENERGY PREDICTED BY IDOCK:   -0.24 KCAL/MOL
REMARK 927      BINDING AFFINITY PREDICTED BY RF-SCORE:    0.00 PKD
ROOT
HETATM    1  O   UNL     1     -12.636  15.728  69.061  1.00  0.00    -0.500 OA 
HETATM    2  H   UNL     1     -13.073  16.526  68.789  1.00  0.00     0.000 HD 
HETATM    3  C   UNL     1     -11.357  16.050  69.622  1.00  0.00    -0.332 C  
ENDROOT
BRANCH   3   4
HETATM    4  C   UNL     1     -10.645  14.750  70.065  1.00  0.00    -0.014 C  
BRANCH   4   5
HETATM    5  N   UNL     1     -10.182  13.954  68.907  1.00  0.00    -0.384 NA 
HETATM    6  H   UNL     1      -9.197  13.700  68.986  1.00  0.00     0.000 HD 
BRANCH   5   7
HETATM    7  C   UNL     1     -11.040  12.777  68.729  1.00  0.00    -0.260 C  
BRANCH   7   8
HETATM    8  C   UNL     1     -11.853  12.910  67.438  1.00  0.00    -0.418 C  
BRANCH   8   9
HETATM    9  C   UNL     1     -11.188  12.135  66.298  1.00  0.00    -0.382 C  
BRANCH   9  10
HETATM   10  C   UNL     1     -10.829  10.707  66.715  1.00  0.00    -0.233 C  
BRANCH  10  11
HETATM   11  C   UNL     1      -9.815  10.108  65.771  1.00  0.00    -0.331 A  
HETATM   12  C   UNL     1      -8.922   9.122  66.216  1.00  0.00    -0.194 A  
HETATM   13  C   UNL     1      -7.949   8.606  65.358  1.00  0.00    -0.111 A  
HETATM   14  C   UNL     1      -7.867   9.079  64.053  1.00  0.00    -0.133 A  
HETATM   15  O   UNL     1      -6.920   8.616  63.187  1.00  0.00    -0.090 OA 
HETATM   16  C   UNL     1      -8.747  10.048  63.591  1.00  0.00    -0.227 A  
HETATM   17  H   UNL     1      -6.864   8.940  62.296  1.00  0.00     0.000 HD 
HETATM   18  C   UNL     1      -9.720  10.564  64.449  1.00  0.00    -0.388 A  
ENDBRANCH  10  11
ENDBRANCH   9  10
ENDBRANCH   8   9
ENDBRANCH   7   8
ENDBRANCH   5   7
ENDBRANCH   4   5
ENDBRANCH   3   4
BRANCH   3  19
HETATM   19  C   UNL     1     -10.527  16.816  68.611  1.00  0.00    -0.333 A  
HETATM   20  C   UNL     1      -9.884  18.018  68.951  1.00  0.00    -0.321 A  
HETATM   21  H   UNL     1      -8.288  18.584  64.865  1.00  0.00     0.000 HD 
HETATM   22  C   UNL     1     -10.420  16.338  67.290  1.00  0.00    -0.300 A  
HETATM   23  H   UNL     1      -8.021  20.361  67.622  1.00  0.00     0.000 HD 
HETATM   24  C   UNL     1      -9.157  18.712  67.991  1.00  0.00    -0.305 A  
HETATM   25  C   UNL     1      -9.687  17.040  66.331  1.00  0.00    -0.310 A  
HETATM   26  O   UNL     1      -8.518  19.887  68.278  1.00  0.00    -0.291 OA 
HETATM   27  C   UNL     1      -9.064  18.224  66.690  1.00  0.00    -0.288 A  
HETATM   28  O   UNL     1      -8.352  18.917  65.752  1.00  0.00    -0.443 OA 
ENDBRANCH   3  19
TORSDOF 8
ENDMDL
MODEL      273
REMARK 921   NORMALIZED FREE ENERGY PREDICTED BY IDOCK:   -3.83 KCAL/MOL
REMARK 922        TOTAL FREE ENERGY PREDICTED BY IDOCK:   -6.83 KCAL/MOL
REMARK 923 INTER-LIGAND FREE ENERGY PREDICTED BY IDOCK:   -5.54 KCAL/MOL
REMARK 924 INTRA-LIGAND FREE ENERGY PREDICTED BY IDOCK:   -1.28 KCAL/MOL
REMARK 927      BINDING AFFINITY PREDICTED BY RF-SCORE:    0.00 PKD
ROOT
HETATM    1  O   UNL     1      -9.517   9.819  71.114  1.00  0.00    -0.305 OA 
HETATM    2  H   UNL     1     -10.445   9.613  71.133  1.00  0.00     0.000 HD 
HETATM    3  C   UNL     1      -9.014   9.633  69.785  1.00  0.00    -0.211 C  
ENDROOT
BRANCH   3   4
HETATM    4  C   UNL     1      -7.503   9.967  69.753  1.00  0.00    -0.151 C  
BRANCH   4   5
HETATM    5  N   UNL     1      -7.218  11.144  68.902  1.00  0.00    -0.098 NA 
HETATM    6  H   UNL     1      -7.019  11.977  69.457  1.00  0.00     0.000 HD 
BRANCH   5   7
HETATM    7  C   UNL     1      -6.134  10.836  67.963  1.00  0.00    -0.050 C  
BRANCH   7   8
HETATM    8  C   UNL     1      -6.612   9.817  66.925  1.00  0.00    -0.067 C  
BRANCH   8   9
HETATM    9  C   UNL     1      -7.521  10.484  65.891  1.00  0.00    -0.147 C  
BRANCH   9  10
HETATM   10  C   UNL     1      -8.884   9.793  65.803  1.00  0.00    -0.180 C  
BRANCH  10  11
HETATM   11  C   UNL     1      -9.913  10.706  65.182  1.00  0.00    -0.366 A  
HETATM   12  C   UNL     1     -10.007  10.828  63.787  1.00  0.00    -0.411 A  
HETATM   13  C   UNL     1     -10.922  11.713  63.212  1.00  0.00    -0.361 A  
HETATM   14  C   UNL     1     -11.742  12.479  64.034  1.00  0.00    -0.423 A  
HETATM   15  O   UNL     1     -12.635  13.369  63.515  1.00  0.00    -0.733 OA 
HETATM   16  C   UNL     1     -11.669  12.367  65.416  1.00  0.00    -0.452 A  
HETATM   17  H   UNL     1     -13.195  13.893  64.076  1.00  0.00     0.000 HD 
HETATM   18  C   UNL     1     -10.754  11.482  65.991  1.00  0.00    -0.332 A  
ENDBRANCH  10  11
ENDBRANCH   9  10
ENDBRANCH   8   9
ENDBRANCH   7   8
ENDBRANCH   5   7
ENDBRANCH   4   5
ENDBRANCH   3   4
BRANCH   3  19
HETATM   19  C   UNL     1      -9.273   8.211  69.328  1.00  0.00    -0.151 A  
HETATM   20  C   UNL     1      -8.468   7.144  69.763  1.00  0.00    -0.137 A  
HETATM   21  H   UNL     1     -10.689   4.184  67.338  1.00  0.00     0.000 HD 
HETATM   22  C   UNL     1     -10.319   7.948  68.422  1.00  0.00    -0.235 A  
HETATM   23  H   UNL     1      -8.122   3.910  69.378  1.00  0.00     0.000 HD 
HETATM   24  C   UNL     1      -8.713   5.857  69.300  1.00  0.00    -0.119 A  
HETATM   25  C   UNL     1     -10.560   6.652  67.961  1.00  0.00    -0.300 A  
HETATM   26  O   UNL     1      -7.954   4.790  69.695  1.00  0.00    -0.065 OA 
HETATM   27  C   UNL     1      -9.752   5.616  68.403  1.00  0.00    -0.128 A  
HETATM   28  O   UNL     1      -9.980   4.348  67.949  1.00  0.00    -0.120 OA 
ENDBRANCH   3  19
TORSDOF 8
ENDMDL
MODEL      274
REMARK 921   NORMALIZED FREE ENERGY PREDICTED BY IDOCK:   -3.81 KCAL/MOL
REMARK 922        TOTAL FREE ENERGY PREDICTED BY IDOCK:   -6.80 KCAL/MOL
REMARK 923 INTER-LIGAND FREE ENERGY PREDICTED BY IDOCK:   -6.09 KCAL/MOL
REMARK 924 INTRA-LIGAND FREE ENERGY PREDICTED BY IDOCK:   -0.71 KCAL/MOL
REMARK 927      BINDING AFFINITY PREDICTED BY RF-SCORE:    0.00 PKD
ROOT
HETATM    1  O   UNL     1     -10.984  13.524  69.293  1.00  0.00    -0.372 OA 
HETATM    2  H   UNL     1     -11.886  13.818  69.347  1.00  0.00     0.000 HD 
HETATM    3  C   UNL     1     -10.253  14.381  68.407  1.00  0.00    -0.243 C  
ENDROOT
BRANCH   3   4
HETATM    4  C   UNL     1      -8.784  13.903  68.320  1.00  0.00    -0.183 C  
BRANCH   4   5
HETATM    5  N   UNL     1      -8.610  12.554  68.903  1.00  0.00    -0.338 NA 
HETATM    6  H   UNL     1      -9.427  12.261  69.439  1.00  0.00     0.000 HD 
BRANCH   5   7
HETATM    7  C   UNL     1      -8.270  11.590  67.850  1.00  0.00    -0.134 C  
BRANCH   7   8
HETATM    8  C   UNL     1      -6.918  10.937  68.151  1.00  0.00    -0.069 C  
BRANCH   8   9
HETATM    9  C   UNL     1      -7.058   9.416  68.226  1.00  0.00    -0.076 C  
BRANCH   9  10
HETATM   10  C   UNL     1      -6.073   8.708  67.292  1.00  0.00    -0.055 C  
BRANCH  10  11
HETATM   11  C   UNL     1      -6.793   8.087  66.120  1.00  0.00    -0.058 A  
HETATM   12  C   UNL     1      -7.349   6.803  66.224  1.00  0.00    -0.073 A  
HETATM   13  C   UNL     1      -7.968   6.205  65.125  1.00  0.00    -0.117 A  
HETATM   14  C   UNL     1      -8.028   6.893  63.917  1.00  0.00    -0.064 A  
HETATM   15  O   UNL     1      -8.607   6.339  62.813  1.00  0.00    -0.333 OA 
HETATM   16  C   UNL     1      -7.492   8.167  63.796  1.00  0.00    -0.120 A  
HETATM   17  H   UNL     1      -8.648   6.809  61.988  1.00  0.00     0.000 HD 
HETATM   18  C   UNL     1      -6.872   8.764  64.895  1.00  0.00    -0.073 A  
ENDBRANCH  10  11
ENDBRANCH   9  10
ENDBRANCH   8   9
ENDBRANCH   7   8
ENDBRANCH   5   7
ENDBRANCH   4   5
ENDBRANCH   3   4
BRANCH   3  19
HETATM   19  C   UNL     1     -10.910  14.394  67.041  1.00  0.00    -0.297 A  
HETATM   20  C   UNL     1     -11.768  13.358  66.631  1.00  0.00    -0.428 A  
HETATM   21  H   UNL     1     -12.401  15.156  62.640  1.00  0.00     0.000 HD 
HETATM   22  C   UNL     1     -10.635  15.443  66.143  1.00  0.00    -0.321 A  
HETATM   23  H   UNL     1     -13.549  12.414  64.051  1.00  0.00     0.000 HD 
HETATM   24  C   UNL     1     -12.328  13.384  65.360  1.00  0.00    -0.477 A  
HETATM   25  C   UNL     1     -11.203  15.463  64.867  1.00  0.00    -0.410 A  
HETATM   26  O   UNL     1     -13.166  12.396  64.919  1.00  0.00    -0.714 OA 
HETATM   27  C   UNL     1     -12.043  14.430  64.485  1.00  0.00    -0.481 A  
HETATM   28  O   UNL     1     -12.595  14.443  63.236  1.00  0.00    -0.655 OA 
ENDBRANCH   3  19
TORSDOF 8
ENDMDL
MODEL      275
REMARK 921   NORMALIZED FREE ENERGY PREDICTED BY IDOCK:   -3.78 KCAL/MOL
REMARK 922        TOTAL FREE ENERGY PREDICTED BY IDOCK:   -6.75 KCAL/MOL
REMARK 923 INTER-LIGAND FREE ENERGY PREDICTED BY IDOCK:   -6.68 KCAL/MOL
REMARK 924 INTRA-LIGAND FREE ENERGY PREDICTED BY IDOCK:   -0.07 KCAL/MOL
REMARK 927      BINDING AFFINITY PREDICTED BY RF-SCORE:    0.00 PKD
ROOT
HETATM    1  O   UNL     1     -12.938  13.007  64.651  1.00  0.00    -0.720 OA 
HETATM    2  H   UNL     1     -12.838  13.052  63.707  1.00  0.00     0.000 HD 
HETATM    3  C   UNL     1     -11.650  13.108  65.273  1.00  0.00    -0.321 C  
ENDROOT
BRANCH   3   4
HETATM    4  C   UNL     1     -11.812  13.035  66.810  1.00  0.00    -0.388 C  
BRANCH   4   5
HETATM    5  N   UNL     1     -10.538  12.697  67.482  1.00  0.00    -0.219 NA 
HETATM    6  H   UNL     1      -9.738  13.139  67.029  1.00  0.00     0.000 HD 
BRANCH   5   7
HETATM    7  C   UNL     1     -10.616  13.031  68.909  1.00  0.00    -0.127 C  
BRANCH   7   8
HETATM    8  C   UNL     1     -11.875  12.415  69.525  1.00  0.00    -0.368 C  
BRANCH   8   9
HETATM    9  C   UNL     1     -11.845  10.890  69.403  1.00  0.00    -0.400 C  
BRANCH   9  10
HETATM   10  C   UNL     1     -11.582  10.217  70.753  1.00  0.00    -0.446 C  
BRANCH  10  11
HETATM   11  C   UNL     1     -10.385   9.301  70.675  1.00  0.00    -0.326 A  
HETATM   12  C   UNL     1      -9.862   8.919  69.431  1.00  0.00    -0.183 A  
HETATM   13  C   UNL     1      -8.788   8.029  69.356  1.00  0.00    -0.144 A  
HETATM   14  C   UNL     1      -8.239   7.518  70.528  1.00  0.00    -0.118 A  
HETATM   15  O   UNL     1      -7.203   6.632  70.500  1.00  0.00    -0.070 OA 
HETATM   16  C   UNL     1      -8.739   7.891  71.768  1.00  0.00    -0.157 A  
HETATM   17  H   UNL     1      -6.829   6.283  71.300  1.00  0.00     0.000 HD 
HETATM   18  C   UNL     1      -9.812   8.780  71.843  1.00  0.00    -0.395 A  
ENDBRANCH  10  11
ENDBRANCH   9  10
ENDBRANCH   8   9
ENDBRANCH   7   8
ENDBRANCH   5   7
ENDBRANCH   4   5
ENDBRANCH   3   4
BRANCH   3  19
HETATM   19  C   UNL     1     -10.741  12.009  64.762  1.00  0.00    -0.352 A  
HETATM   20  C   UNL     1     -10.503  10.846  65.515  1.00  0.00    -0.286 A  
HETATM   21  H   UNL     1      -7.716   9.194  62.503  1.00  0.00     0.000 HD 
HETATM   22  C   UNL     1     -10.089  12.161  63.523  1.00  0.00    -0.410 A  
HETATM   23  H   UNL     1      -8.785   8.060  65.401  1.00  0.00     0.000 HD 
HETATM   24  C   UNL     1      -9.638   9.871  65.031  1.00  0.00    -0.297 A  
HETATM   25  C   UNL     1      -9.222  11.177  63.042  1.00  0.00    -0.329 A  
HETATM   26  O   UNL     1      -9.375   8.726  65.731  1.00  0.00    -0.225 OA 
HETATM   27  C   UNL     1      -9.002  10.040  63.803  1.00  0.00    -0.247 A  
HETATM   28  O   UNL     1      -8.149   9.079  63.340  1.00  0.00    -0.149 OA 
ENDBRANCH   3  19
TORSDOF 8
ENDMDL
MODEL      276
REMARK 921   NORMALIZED FREE ENERGY PREDICTED BY IDOCK:   -3.78 KCAL/MOL
REMARK 922        TOTAL FREE ENERGY PREDICTED BY IDOCK:   -6.75 KCAL/MOL
REMARK 923 INTER-LIGAND FREE ENERGY PREDICTED BY IDOCK:   -5.29 KCAL/MOL
REMARK 924 INTRA-LIGAND FREE ENERGY PREDICTED BY IDOCK:   -1.46 KCAL/MOL
REMARK 927      BINDING AFFINITY PREDICTED BY RF-SCORE:    0.00 PKD
ROOT
HETATM    1  O   UNL     1      -9.322   8.711  68.024  1.00  0.00    -0.136 OA 
HETATM    2  H   UNL     1     -10.073   9.137  67.627  1.00  0.00     0.000 HD 
HETATM    3  C   UNL     1      -9.760   7.580  68.788  1.00  0.00    -0.151 C  
ENDROOT
BRANCH   3   4
HETATM    4  C   UNL     1      -8.537   6.888  69.434  1.00  0.00    -0.133 C  
BRANCH   4   5
HETATM    5  N   UNL     1      -8.569   6.979  70.911  1.00  0.00    -0.138 NA 
HETATM    6  H   UNL     1      -8.773   6.078  71.344  1.00  0.00     0.000 HD 
BRANCH   5   7
HETATM    7  C   UNL     1      -7.316   7.557  71.408  1.00  0.00    -0.078 C  
BRANCH   7   8
HETATM    8  C   UNL     1      -7.562   8.284  72.732  1.00  0.00    -0.162 C  
BRANCH   8   9
HETATM    9  C   UNL     1      -8.983   8.026  73.235  1.00  0.00    -0.338 C  
BRANCH   9  10
HETATM   10  C   UNL     1      -8.996   7.100  74.455  1.00  0.00    -0.230 C  
BRANCH  10  11
HETATM   11  C   UNL     1      -9.476   5.720  74.079  1.00  0.00    -0.141 A  
HETATM   12  C   UNL     1      -8.584   4.637  74.058  1.00  0.00    -0.105 A  
HETATM   13  C   UNL     1      -9.015   3.370  73.660  1.00  0.00    -0.090 A  
HETATM   14  C   UNL     1     -10.340   3.187  73.278  1.00  0.00    -0.156 A  
HETATM   15  O   UNL     1     -10.799   1.971  72.863  1.00  0.00    -0.157 OA 
HETATM   16  C   UNL     1     -11.240   4.244  73.299  1.00  0.00    -0.338 A  
HETATM   17  H   UNL     1     -11.703   1.846  72.602  1.00  0.00     0.000 HD 
HETATM   18  C   UNL     1     -10.808   5.511  73.698  1.00  0.00    -0.294 A  
ENDBRANCH  10  11
ENDBRANCH   9  10
ENDBRANCH   8   9
ENDBRANCH   7   8
ENDBRANCH   5   7
ENDBRANCH   4   5
ENDBRANCH   3   4
BRANCH   3  19
HETATM   19  C   UNL     1     -10.761   8.022  69.837  1.00  0.00    -0.242 A  
HETATM   20  C   UNL     1     -11.698   7.125  70.379  1.00  0.00    -0.273 A  
HETATM   21  H   UNL     1     -13.551  10.241  72.914  1.00  0.00     0.000 HD 
HETATM   22  C   UNL     1     -10.783   9.365  70.260  1.00  0.00    -0.299 A  
HETATM   23  H   UNL     1     -14.185   7.037  72.508  1.00  0.00     0.000 HD 
HETATM   24  C   UNL     1     -12.623   7.571  71.316  1.00  0.00    -0.314 A  
HETATM   25  C   UNL     1     -11.715   9.806  71.203  1.00  0.00    -0.465 A  
HETATM   26  O   UNL     1     -13.553   6.733  71.867  1.00  0.00    -0.239 OA 
HETATM   27  C   UNL     1     -12.630   8.903  71.721  1.00  0.00    -0.361 A  
HETATM   28  O   UNL     1     -13.547   9.332  72.638  1.00  0.00    -0.455 OA 
ENDBRANCH   3  19
TORSDOF 8
ENDMDL
MODEL      277
REMARK 921   NORMALIZED FREE ENERGY PREDICTED BY IDOCK:   -3.77 KCAL/MOL
REMARK 922        TOTAL FREE ENERGY PREDICTED BY IDOCK:   -6.73 KCAL/MOL
REMARK 923 INTER-LIGAND FREE ENERGY PREDICTED BY IDOCK:   -6.10 KCAL/MOL
REMARK 924 INTRA-LIGAND FREE ENERGY PREDICTED BY IDOCK:   -0.63 KCAL/MOL
REMARK 927      BINDING AFFINITY PREDICTED BY RF-SCORE:    0.00 PKD
ROOT
HETATM    1  O   UNL     1      -8.280   5.418  69.156  1.00  0.00    -0.092 OA 
HETATM    2  H   UNL     1      -7.610   4.744  69.149  1.00  0.00     0.000 HD 
HETATM    3  C   UNL     1      -9.526   4.858  68.720  1.00  0.00    -0.145 C  
ENDROOT
BRANCH   3   4
HETATM    4  C   UNL     1     -10.617   5.955  68.732  1.00  0.00    -0.272 C  
BRANCH   4   5
HETATM    5  N   UNL     1     -11.367   5.971  70.007  1.00  0.00    -0.363 NA 
HETATM    6  H   UNL     1     -10.893   5.438  70.736  1.00  0.00     0.000 HD 
BRANCH   5   7
HETATM    7  C   UNL     1     -11.628   7.354  70.421  1.00  0.00    -0.183 C  
BRANCH   7   8
HETATM    8  C   UNL     1     -10.369   7.963  71.045  1.00  0.00    -0.221 C  
BRANCH   8   9
HETATM    9  C   UNL     1     -10.640   9.390  71.527  1.00  0.00    -0.331 C  
BRANCH   9  10
HETATM   10  C   UNL     1     -12.064   9.842  71.192  1.00  0.00    -0.460 C  
BRANCH  10  11
HETATM   11  C   UNL     1     -12.056  11.181  70.496  1.00  0.00    -0.474 A  
HETATM   12  C   UNL     1     -12.442  12.342  71.183  1.00  0.00    -0.323 A  
HETATM   13  C   UNL     1     -12.486  13.574  70.526  1.00  0.00    -0.373 A  
HETATM   14  C   UNL     1     -12.146  13.643  69.178  1.00  0.00    -0.319 A  
HETATM   15  O   UNL     1     -12.193  14.821  68.493  1.00  0.00    -0.580 OA 
HETATM   16  C   UNL     1     -11.753  12.506  68.484  1.00  0.00    -0.369 A  
HETATM   17  H   UNL     1     -11.961  14.868  67.573  1.00  0.00     0.000 HD 
HETATM   18  C   UNL     1     -11.710  11.275  69.142  1.00  0.00    -0.410 A  
ENDBRANCH  10  11
ENDBRANCH   9  10
ENDBRANCH   8   9
ENDBRANCH   7   8
ENDBRANCH   5   7
ENDBRANCH   4   5
ENDBRANCH   3   4
BRANCH   3  19
HETATM   19  C   UNL     1      -9.367   4.254  67.339  1.00  0.00    -0.190 A  
HETATM   20  C   UNL     1      -8.378   3.291  67.071  1.00  0.00    -0.097 A  
HETATM   21  H   UNL     1      -9.488   3.015  62.798  1.00  0.00     0.000 HD 
HETATM   22  C   UNL     1     -10.199   4.684  66.288  1.00  0.00    -0.306 A  
HETATM   23  H   UNL     1      -7.193   1.496  64.601  1.00  0.00     0.000 HD 
HETATM   24  C   UNL     1      -8.238   2.781  65.786  1.00  0.00    -0.089 A  
HETATM   25  C   UNL     1     -10.053   4.167  64.999  1.00  0.00    -0.220 A  
HETATM   26  O   UNL     1      -7.289   1.845  65.479  1.00  0.00    -0.055 OA 
HETATM   27  C   UNL     1      -9.071   3.220  64.758  1.00  0.00    -0.138 A  
HETATM   28  O   UNL     1      -8.921   2.717  63.498  1.00  0.00    -0.092 OA 
ENDBRANCH   3  19
TORSDOF 8
ENDMDL
MODEL      278
REMARK 921   NORMALIZED FREE ENERGY PREDICTED BY IDOCK:   -3.74 KCAL/MOL
REMARK 922        TOTAL FREE ENERGY PREDICTED BY IDOCK:   -6.69 KCAL/MOL
REMARK 923 INTER-LIGAND FREE ENERGY PREDICTED BY IDOCK:   -6.11 KCAL/MOL
REMARK 924 INTRA-LIGAND FREE ENERGY PREDICTED BY IDOCK:   -0.58 KCAL/MOL
REMARK 927      BINDING AFFINITY PREDICTED BY RF-SCORE:    0.00 PKD
ROOT
HETATM    1  O   UNL     1     -13.549   6.758  71.777  1.00  0.00    -0.383 OA 
HETATM    2  H   UNL     1     -13.920   6.112  71.185  1.00  0.00     0.000 HD 
HETATM    3  C   UNL     1     -12.338   7.280  71.217  1.00  0.00    -0.366 C  
ENDROOT
BRANCH   3   4
HETATM    4  C   UNL     1     -11.735   8.331  72.179  1.00  0.00    -0.365 C  
BRANCH   4   5
HETATM    5  N   UNL     1     -10.482   8.910  71.647  1.00  0.00    -0.312 NA 
HETATM    6  H   UNL     1      -9.717   8.235  71.650  1.00  0.00     0.000 HD 
BRANCH   5   7
HETATM    7  C   UNL     1     -10.714   9.471  70.311  1.00  0.00    -0.265 C  
BRANCH   7   8
HETATM    8  C   UNL     1     -11.754  10.591  70.384  1.00  0.00    -0.434 C  
BRANCH   8   9
HETATM    9  C   UNL     1     -12.003  11.190  68.998  1.00  0.00    -0.389 C  
BRANCH   9  10
HETATM   10  C   UNL     1     -11.755  12.701  68.979  1.00  0.00    -0.367 C  
BRANCH  10  11
HETATM   11  C   UNL     1     -10.367  13.013  68.474  1.00  0.00    -0.247 A  
HETATM   12  C   UNL     1      -9.699  12.117  67.627  1.00  0.00    -0.188 A  
HETATM   13  C   UNL     1      -8.395  12.379  67.202  1.00  0.00    -0.181 A  
HETATM   14  C   UNL     1      -7.757  13.539  67.629  1.00  0.00    -0.176 A  
HETATM   15  O   UNL     1      -6.477  13.825  67.254  1.00  0.00    -0.417 OA 
HETATM   16  C   UNL     1      -8.404  14.442  68.461  1.00  0.00    -0.157 A  
HETATM   17  H   UNL     1      -6.041  14.616  67.546  1.00  0.00     0.000 HD 
HETATM   18  C   UNL     1      -9.708  14.179  68.886  1.00  0.00    -0.084 A  
ENDBRANCH  10  11
ENDBRANCH   9  10
ENDBRANCH   8   9
ENDBRANCH   7   8
ENDBRANCH   5   7
ENDBRANCH   4   5
ENDBRANCH   3   4
BRANCH   3  19
HETATM   19  C   UNL     1     -11.362   6.151  70.952  1.00  0.00    -0.355 A  
HETATM   20  C   UNL     1     -10.758   5.443  72.006  1.00  0.00    -0.281 A  
HETATM   21  H   UNL     1      -8.389   2.919  69.252  1.00  0.00     0.000 HD 
HETATM   22  C   UNL     1     -11.019   5.819  69.627  1.00  0.00    -0.385 A  
HETATM   23  H   UNL     1      -8.604   3.033  72.533  1.00  0.00     0.000 HD 
HETATM   24  C   UNL     1      -9.842   4.435  71.729  1.00  0.00    -0.185 A  
HETATM   25  C   UNL     1     -10.099   4.804  69.356  1.00  0.00    -0.241 A  
HETATM   26  O   UNL     1      -9.229   3.723  72.722  1.00  0.00    -0.105 OA 
HETATM   27  C   UNL     1      -9.516   4.122  70.411  1.00  0.00    -0.177 A  
HETATM   28  O   UNL     1      -8.611   3.133  70.150  1.00  0.00    -0.054 OA 
ENDBRANCH   3  19
TORSDOF 8
ENDMDL
MODEL      279
REMARK 921   NORMALIZED FREE ENERGY PREDICTED BY IDOCK:   -3.73 KCAL/MOL
REMARK 922        TOTAL FREE ENERGY PREDICTED BY IDOCK:   -6.68 KCAL/MOL
REMARK 923 INTER-LIGAND FREE ENERGY PREDICTED BY IDOCK:   -6.03 KCAL/MOL
REMARK 924 INTRA-LIGAND FREE ENERGY PREDICTED BY IDOCK:   -0.65 KCAL/MOL
REMARK 927      BINDING AFFINITY PREDICTED BY RF-SCORE:    0.00 PKD
ROOT
HETATM    1  O   UNL     1      -9.418   4.398  68.158  1.00  0.00    -0.138 OA 
HETATM    2  H   UNL     1     -10.119   3.853  68.497  1.00  0.00     0.000 HD 
HETATM    3  C   UNL     1      -8.746   5.046  69.245  1.00  0.00    -0.091 C  
ENDROOT
BRANCH   3   4
HETATM    4  C   UNL     1      -7.606   5.934  68.692  1.00  0.00    -0.090 C  
BRANCH   4   5
HETATM    5  N   UNL     1      -8.122   7.188  68.100  1.00  0.00    -0.122 NA 
HETATM    6  H   UNL     1      -8.783   7.658  68.719  1.00  0.00     0.000 HD 
BRANCH   5   7
HETATM    7  C   UNL     1      -7.007   8.062  67.720  1.00  0.00    -0.078 C  
BRANCH   7   8
HETATM    8  C   UNL     1      -7.485   9.116  66.717  1.00  0.00    -0.087 C  
BRANCH   8   9
HETATM    9  C   UNL     1      -8.933   9.519  67.005  1.00  0.00    -0.150 C  
BRANCH   9  10
HETATM   10  C   UNL     1      -9.100  11.040  67.053  1.00  0.00    -0.154 C  
BRANCH  10  11
HETATM   11  C   UNL     1     -10.105  11.505  66.028  1.00  0.00    -0.270 A  
HETATM   12  C   UNL     1     -11.177  12.328  66.404  1.00  0.00    -0.370 A  
HETATM   13  C   UNL     1     -12.138  12.716  65.467  1.00  0.00    -0.515 A  
HETATM   14  C   UNL     1     -12.027  12.275  64.152  1.00  0.00    -0.432 A  
HETATM   15  O   UNL     1     -12.953  12.614  63.210  1.00  0.00    -0.595 OA 
HETATM   16  C   UNL     1     -10.969  11.467  63.759  1.00  0.00    -0.448 A  
HETATM   17  H   UNL     1     -12.878  12.313  62.312  1.00  0.00     0.000 HD 
HETATM   18  C   UNL     1     -10.010  11.080  64.696  1.00  0.00    -0.357 A  
ENDBRANCH  10  11
ENDBRANCH   9  10
ENDBRANCH   8   9
ENDBRANCH   7   8
ENDBRANCH   5   7
ENDBRANCH   4   5
ENDBRANCH   3   4
BRANCH   3  19
HETATM   19  C   UNL     1      -9.736   5.861  70.053  1.00  0.00    -0.209 A  
HETATM   20  C   UNL     1      -9.444   6.282  71.362  1.00  0.00    -0.167 A  
HETATM   21  H   UNL     1     -13.390   8.215  71.865  1.00  0.00     0.000 HD 
HETATM   22  C   UNL     1     -10.993   6.180  69.502  1.00  0.00    -0.463 A  
HETATM   23  H   UNL     1     -10.790   7.918  73.859  1.00  0.00     0.000 HD 
HETATM   24  C   UNL     1     -10.387   7.000  72.087  1.00  0.00    -0.191 A  
HETATM   25  C   UNL     1     -11.936   6.903  70.236  1.00  0.00    -0.257 A  
HETATM   26  O   UNL     1     -10.145   7.427  73.364  1.00  0.00    -0.275 OA 
HETATM   27  C   UNL     1     -11.625   7.305  71.525  1.00  0.00    -0.275 A  
HETATM   28  O   UNL     1     -12.547   8.007  72.248  1.00  0.00    -0.296 OA 
ENDBRANCH   3  19
TORSDOF 8
ENDMDL
MODEL      280
REMARK 921   NORMALIZED FREE ENERGY PREDICTED BY IDOCK:   -3.71 KCAL/MOL
REMARK 922        TOTAL FREE ENERGY PREDICTED BY IDOCK:   -6.65 KCAL/MOL
REMARK 923 INTER-LIGAND FREE ENERGY PREDICTED BY IDOCK:   -6.60 KCAL/MOL
REMARK 924 INTRA-LIGAND FREE ENERGY PREDICTED BY IDOCK:   -0.05 KCAL/MOL
REMARK 927      BINDING AFFINITY PREDICTED BY RF-SCORE:    0.00 PKD
ROOT
HETATM    1  O   UNL     1     -10.784  10.470  70.256  1.00  0.00    -0.429 OA 
HETATM    2  H   UNL     1     -11.680  10.153  70.273  1.00  0.00     0.000 HD 
HETATM    3  C   UNL     1     -10.215  10.228  68.963  1.00  0.00    -0.210 C  
ENDROOT
BRANCH   3   4
HETATM    4  C   UNL     1      -8.756  10.744  68.936  1.00  0.00    -0.152 C  
BRANCH   4   5
HETATM    5  N   UNL     1      -8.220  10.805  67.558  1.00  0.00    -0.111 NA 
HETATM    6  H   UNL     1      -8.781  10.257  66.905  1.00  0.00     0.000 HD 
BRANCH   5   7
HETATM    7  C   UNL     1      -8.088  12.202  67.130  1.00  0.00    -0.175 C  
BRANCH   7   8
HETATM    8  C   UNL     1      -9.275  13.023  67.642  1.00  0.00    -0.200 C  
BRANCH   8   9
HETATM    9  C   UNL     1      -9.004  14.520  67.487  1.00  0.00    -0.191 C  
BRANCH   9  10
HETATM   10  C   UNL     1     -10.045  15.197  66.591  1.00  0.00    -0.271 C  
BRANCH  10  11
HETATM   11  C   UNL     1     -10.697  14.195  65.670  1.00  0.00    -0.317 A  
HETATM   12  C   UNL     1     -10.057  13.792  64.488  1.00  0.00    -0.056 A  
HETATM   13  C   UNL     1     -10.683  12.906  63.609  1.00  0.00    -0.229 A  
HETATM   14  C   UNL     1     -11.953  12.425  63.911  1.00  0.00    -0.486 A  
HETATM   15  O   UNL     1     -12.608  11.573  63.071  1.00  0.00    -0.958 OA 
HETATM   16  C   UNL     1     -12.599  12.805  65.079  1.00  0.00    -0.538 A  
HETATM   17  H   UNL     1     -13.475  11.245  63.277  1.00  0.00     0.000 HD 
HETATM   18  C   UNL     1     -11.973  13.692  65.958  1.00  0.00    -0.447 A  
ENDBRANCH  10  11
ENDBRANCH   9  10
ENDBRANCH   8   9
ENDBRANCH   7   8
ENDBRANCH   5   7
ENDBRANCH   4   5
ENDBRANCH   3   4
BRANCH   3  19
HETATM   19  C   UNL     1     -10.282   8.749  68.637  1.00  0.00    -0.214 A  
HETATM   20  C   UNL     1     -10.203   7.772  69.644  1.00  0.00    -0.206 A  
HETATM   21  H   UNL     1     -10.443   4.439  66.746  1.00  0.00     0.000 HD 
HETATM   22  C   UNL     1     -10.392   8.334  67.295  1.00  0.00    -0.372 A  
HETATM   23  H   UNL     1     -10.182   4.520  70.025  1.00  0.00     0.000 HD 
HETATM   24  C   UNL     1     -10.236   6.424  69.307  1.00  0.00    -0.192 A  
HETATM   25  C   UNL     1     -10.425   6.978  66.964  1.00  0.00    -0.386 A  
HETATM   26  O   UNL     1     -10.159   5.441  70.255  1.00  0.00    -0.208 OA 
HETATM   27  C   UNL     1     -10.343   6.033  67.975  1.00  0.00    -0.202 A  
HETATM   28  O   UNL     1     -10.369   4.706  67.654  1.00  0.00    -0.050 OA 
ENDBRANCH   3  19
TORSDOF 8
ENDMDL
MODEL      281
REMARK 921   NORMALIZED FREE ENERGY PREDICTED BY IDOCK:   -3.71 KCAL/MOL
REMARK 922        TOTAL FREE ENERGY PREDICTED BY IDOCK:   -6.64 KCAL/MOL
REMARK 923 INTER-LIGAND FREE ENERGY PREDICTED BY IDOCK:   -5.83 KCAL/MOL
REMARK 924 INTRA-LIGAND FREE ENERGY PREDICTED BY IDOCK:   -0.81 KCAL/MOL
REMARK 927      BINDING AFFINITY PREDICTED BY RF-SCORE:    0.00 PKD
ROOT
HETATM    1  O   UNL     1      -7.853   6.196  69.424  1.00  0.00    -0.097 OA 
HETATM    2  H   UNL     1      -7.010   6.148  68.988  1.00  0.00     0.000 HD 
HETATM    3  C   UNL     1      -8.603   5.006  69.148  1.00  0.00    -0.091 C  
ENDROOT
BRANCH   3   4
HETATM    4  C   UNL     1      -9.976   5.085  69.858  1.00  0.00    -0.251 C  
BRANCH   4   5
HETATM    5  N   UNL     1      -9.960   4.390  71.164  1.00  0.00    -0.191 NA 
HETATM    6  H   UNL     1      -9.026   4.059  71.410  1.00  0.00     0.000 HD 
BRANCH   5   7
HETATM    7  C   UNL     1     -10.527   5.257  72.203  1.00  0.00    -0.220 C  
BRANCH   7   8
HETATM    8  C   UNL     1      -9.523   6.350  72.581  1.00  0.00    -0.150 C  
BRANCH   8   9
HETATM    9  C   UNL     1     -10.244   7.569  73.159  1.00  0.00    -0.382 C  
BRANCH   9  10
HETATM   10  C   UNL     1     -11.637   7.748  72.550  1.00  0.00    -0.422 C  
BRANCH  10  11
HETATM   11  C   UNL     1     -11.730   9.050  71.791  1.00  0.00    -0.440 A  
HETATM   12  C   UNL     1     -12.748   9.971  72.080  1.00  0.00    -0.439 A  
HETATM   13  C   UNL     1     -12.869  11.151  71.343  1.00  0.00    -0.544 A  
HETATM   14  C   UNL     1     -11.970  11.408  70.312  1.00  0.00    -0.373 A  
HETATM   15  O   UNL     1     -12.062  12.539  69.555  1.00  0.00    -0.267 OA 
HETATM   16  C   UNL     1     -10.951  10.513  70.017  1.00  0.00    -0.351 A  
HETATM   17  H   UNL     1     -11.449  12.714  68.852  1.00  0.00     0.000 HD 
HETATM   18  C   UNL     1     -10.832   9.333  70.754  1.00  0.00    -0.349 A  
ENDBRANCH  10  11
ENDBRANCH   9  10
ENDBRANCH   8   9
ENDBRANCH   7   8
ENDBRANCH   5   7
ENDBRANCH   4   5
ENDBRANCH   3   4
BRANCH   3  19
HETATM   19  C   UNL     1      -8.765   4.833  67.651  1.00  0.00    -0.106 A  
HETATM   20  C   UNL     1     -10.034   4.691  67.064  1.00  0.00    -0.227 A  
HETATM   21  H   UNL     1      -8.350   4.218  63.001  1.00  0.00     0.000 HD 
HETATM   22  C   UNL     1      -7.625   4.776  66.827  1.00  0.00    -0.087 A  
HETATM   23  H   UNL     1     -11.436   4.227  64.141  1.00  0.00     0.000 HD 
HETATM   24  C   UNL     1     -10.146   4.501  65.692  1.00  0.00    -0.244 A  
HETATM   25  C   UNL     1      -7.744   4.586  65.448  1.00  0.00    -0.086 A  
HETATM   26  O   UNL     1     -11.360   4.356  65.079  1.00  0.00    -0.237 OA 
HETATM   27  C   UNL     1      -9.006   4.447  64.892  1.00  0.00    -0.147 A  
HETATM   28  O   UNL     1      -9.127   4.254  63.546  1.00  0.00    -0.133 OA 
ENDBRANCH   3  19
TORSDOF 8
ENDMDL
MODEL      282
REMARK 921   NORMALIZED FREE ENERGY PREDICTED BY IDOCK:   -3.69 KCAL/MOL
REMARK 922        TOTAL FREE ENERGY PREDICTED BY IDOCK:   -6.62 KCAL/MOL
REMARK 923 INTER-LIGAND FREE ENERGY PREDICTED BY IDOCK:   -5.44 KCAL/MOL
REMARK 924 INTRA-LIGAND FREE ENERGY PREDICTED BY IDOCK:   -1.18 KCAL/MOL
REMARK 927      BINDING AFFINITY PREDICTED BY RF-SCORE:    0.00 PKD
ROOT
HETATM    1  O   UNL     1      -7.815  10.734  63.095  1.00  0.00    -0.342 OA 
HETATM    2  H   UNL     1      -6.917  10.999  63.261  1.00  0.00     0.000 HD 
HETATM    3  C   UNL     1      -8.607  10.965  64.267  1.00  0.00     0.053 C  
ENDROOT
BRANCH   3   4
HETATM    4  C   UNL     1     -10.068  10.534  63.996  1.00  0.00    -0.251 C  
BRANCH   4   5
HETATM    5  N   UNL     1     -10.819  11.572  63.255  1.00  0.00    -0.699 NA 
HETATM    6  H   UNL     1     -11.150  11.232  62.351  1.00  0.00     0.000 HD 
BRANCH   5   7
HETATM    7  C   UNL     1     -11.915  12.088  64.082  1.00  0.00    -0.369 C  
BRANCH   7   8
HETATM    8  C   UNL     1     -12.114  13.583  63.818  1.00  0.00    -0.482 C  
BRANCH   8   9
HETATM    9  C   UNL     1     -11.952  14.386  65.111  1.00  0.00    -0.391 C  
BRANCH   9  10
HETATM   10  C   UNL     1     -10.589  14.143  65.764  1.00  0.00    -0.306 C  
BRANCH  10  11
HETATM   11  C   UNL     1     -10.745  13.455  67.098  1.00  0.00    -0.268 A  
HETATM   12  C   UNL     1      -9.869  12.426  67.475  1.00  0.00    -0.194 A  
HETATM   13  C   UNL     1     -10.045  11.752  68.686  1.00  0.00    -0.198 A  
HETATM   14  C   UNL     1     -11.101  12.106  69.519  1.00  0.00    -0.050 A  
HETATM   15  O   UNL     1     -11.321  11.462  70.700  1.00  0.00    -0.373 OA 
HETATM   16  C   UNL     1     -11.973  13.127  69.167  1.00  0.00    -0.329 A  
HETATM   17  H   UNL     1     -12.042  11.704  71.269  1.00  0.00     0.000 HD 
HETATM   18  C   UNL     1     -11.797  13.801  67.956  1.00  0.00    -0.408 A  
ENDBRANCH  10  11
ENDBRANCH   9  10
ENDBRANCH   8   9
ENDBRANCH   7   8
ENDBRANCH   5   7
ENDBRANCH   4   5
ENDBRANCH   3   4
BRANCH   3  19
HETATM   19  C   UNL     1      -8.020  10.212  65.444  1.00  0.00    -0.144 A  
HETATM   20  C   UNL     1      -8.289   8.848  65.649  1.00  0.00    -0.144 A  
HETATM   21  H   UNL     1      -5.916   8.708  69.379  1.00  0.00     0.000 HD 
HETATM   22  C   UNL     1      -7.215  10.893  66.377  1.00  0.00    -0.140 A  
HETATM   23  H   UNL     1      -7.637   6.423  67.752  1.00  0.00     0.000 HD 
HETATM   24  C   UNL     1      -7.760   8.195  66.756  1.00  0.00    -0.095 A  
HETATM   25  C   UNL     1      -6.686  10.231  67.488  1.00  0.00    -0.071 A  
HETATM   26  O   UNL     1      -7.998   6.870  66.996  1.00  0.00    -0.112 OA 
HETATM   27  C   UNL     1      -6.967   8.886  67.669  1.00  0.00    -0.075 A  
HETATM   28  O   UNL     1      -6.457   8.237  68.757  1.00  0.00    -0.050 OA 
ENDBRANCH   3  19
TORSDOF 8
ENDMDL
MODEL      283
REMARK 921   NORMALIZED FREE ENERGY PREDICTED BY IDOCK:   -3.67 KCAL/MOL
REMARK 922        TOTAL FREE ENERGY PREDICTED BY IDOCK:   -6.59 KCAL/MOL
REMARK 923 INTER-LIGAND FREE ENERGY PREDICTED BY IDOCK:   -5.92 KCAL/MOL
REMARK 924 INTRA-LIGAND FREE ENERGY PREDICTED BY IDOCK:   -0.67 KCAL/MOL
REMARK 927      BINDING AFFINITY PREDICTED BY RF-SCORE:    0.00 PKD
ROOT
HETATM    1  O   UNL     1      -9.549  12.033  68.926  1.00  0.00    -0.408 OA 
HETATM    2  H   UNL     1      -9.176  12.586  69.603  1.00  0.00     0.000 HD 
HETATM    3  C   UNL     1      -8.765  12.145  67.731  1.00  0.00    -0.171 C  
ENDROOT
BRANCH   3   4
HETATM    4  C   UNL     1      -9.371  11.244  66.629  1.00  0.00    -0.180 C  
BRANCH   4   5
HETATM    5  N   UNL     1      -8.602   9.991  66.460  1.00  0.00    -0.125 NA 
HETATM    6  H   UNL     1      -7.743   9.992  67.010  1.00  0.00     0.000 HD 
BRANCH   5   7
HETATM    7  C   UNL     1      -9.450   8.834  66.769  1.00  0.00    -0.191 C  
BRANCH   7   8
HETATM    8  C   UNL     1      -8.630   7.757  67.483  1.00  0.00    -0.122 C  
BRANCH   8   9
HETATM    9  C   UNL     1      -8.170   8.250  68.857  1.00  0.00    -0.116 C  
BRANCH   9  10
HETATM   10  C   UNL     1      -7.876   7.089  69.809  1.00  0.00    -0.115 C  
BRANCH  10  11
HETATM   11  C   UNL     1      -9.100   6.731  70.617  1.00  0.00    -0.155 A  
HETATM   12  C   UNL     1      -9.307   5.412  71.049  1.00  0.00    -0.188 A  
HETATM   13  C   UNL     1     -10.465   5.068  71.750  1.00  0.00    -0.246 A  
HETATM   14  C   UNL     1     -11.418   6.046  72.017  1.00  0.00    -0.287 A  
HETATM   15  O   UNL     1     -12.572   5.750  72.682  1.00  0.00    -0.499 OA 
HETATM   16  C   UNL     1     -11.227   7.358  71.605  1.00  0.00    -0.276 A  
HETATM   17  H   UNL     1     -13.223   6.417  72.864  1.00  0.00     0.000 HD 
HETATM   18  C   UNL     1     -10.070   7.700  70.904  1.00  0.00    -0.194 A  
ENDBRANCH  10  11
ENDBRANCH   9  10
ENDBRANCH   8   9
ENDBRANCH   7   8
ENDBRANCH   5   7
ENDBRANCH   4   5
ENDBRANCH   3   4
BRANCH   3  19
HETATM   19  C   UNL     1      -8.704  13.593  67.288  1.00  0.00    -0.223 A  
HETATM   20  C   UNL     1      -9.657  14.129  66.404  1.00  0.00    -0.310 A  
HETATM   21  H   UNL     1      -7.700  18.096  66.341  1.00  0.00     0.000 HD 
HETATM   22  C   UNL     1      -7.655  14.418  67.737  1.00  0.00    -0.175 A  
HETATM   23  H   UNL     1     -10.387  16.918  64.850  1.00  0.00     0.000 HD 
HETATM   24  C   UNL     1      -9.554  15.452  65.992  1.00  0.00    -0.347 A  
HETATM   25  C   UNL     1      -7.558  15.748  67.319  1.00  0.00    -0.244 A  
HETATM   26  O   UNL     1     -10.457  16.014  65.132  1.00  0.00    -0.516 OA 
HETATM   27  C   UNL     1      -8.508  16.253  66.447  1.00  0.00    -0.330 A  
HETATM   28  O   UNL     1      -8.412  17.550  66.031  1.00  0.00    -0.500 OA 
ENDBRANCH   3  19
TORSDOF 8
ENDMDL
MODEL      284
REMARK 921   NORMALIZED FREE ENERGY PREDICTED BY IDOCK:   -3.67 KCAL/MOL
REMARK 922        TOTAL FREE ENERGY PREDICTED BY IDOCK:   -6.58 KCAL/MOL
REMARK 923 INTER-LIGAND FREE ENERGY PREDICTED BY IDOCK:   -5.55 KCAL/MOL
REMARK 924 INTRA-LIGAND FREE ENERGY PREDICTED BY IDOCK:   -1.03 KCAL/MOL
REMARK 927      BINDING AFFINITY PREDICTED BY RF-SCORE:    0.00 PKD
ROOT
HETATM    1  O   UNL     1     -12.108  13.967  65.875  1.00  0.00    -0.384 OA 
HETATM    2  H   UNL     1     -11.603  14.109  65.082  1.00  0.00     0.000 HD 
HETATM    3  C   UNL     1     -11.217  13.795  66.985  1.00  0.00    -0.311 C  
ENDROOT
BRANCH   3   4
HETATM    4  C   UNL     1     -12.039  13.565  68.276  1.00  0.00    -0.260 C  
BRANCH   4   5
HETATM    5  N   UNL     1     -11.169  13.279  69.438  1.00  0.00    -0.423 NA 
HETATM    6  H   UNL     1     -10.616  14.093  69.710  1.00  0.00     0.000 HD 
BRANCH   5   7
HETATM    7  C   UNL     1     -11.971  12.763  70.553  1.00  0.00    -0.191 C  
BRANCH   7   8
HETATM    8  C   UNL     1     -12.325  11.294  70.310  1.00  0.00    -0.389 C  
BRANCH   8   9
HETATM    9  C   UNL     1     -11.287  10.631  69.403  1.00  0.00    -0.348 C  
BRANCH   9  10
HETATM   10  C   UNL     1     -10.179   9.949  70.210  1.00  0.00    -0.322 C  
BRANCH  10  11
HETATM   11  C   UNL     1     -10.054   8.493  69.831  1.00  0.00    -0.195 A  
HETATM   12  C   UNL     1      -9.416   8.120  68.639  1.00  0.00    -0.147 A  
HETATM   13  C   UNL     1      -9.347   6.777  68.261  1.00  0.00    -0.124 A  
HETATM   14  C   UNL     1      -9.921   5.807  69.075  1.00  0.00    -0.169 A  
HETATM   15  O   UNL     1      -9.893   4.486  68.735  1.00  0.00    -0.163 OA 
HETATM   16  C   UNL     1     -10.549   6.155  70.263  1.00  0.00    -0.319 A  
HETATM   17  H   UNL     1     -10.285   3.824  69.291  1.00  0.00     0.000 HD 
HETATM   18  C   UNL     1     -10.619   7.498  70.640  1.00  0.00    -0.231 A  
ENDBRANCH  10  11
ENDBRANCH   9  10
ENDBRANCH   8   9
ENDBRANCH   7   8
ENDBRANCH   5   7
ENDBRANCH   4   5
ENDBRANCH   3   4
BRANCH   3  19
HETATM   19  C   UNL     1     -10.275  12.639  66.718  1.00  0.00    -0.246 A  
HETATM   20  C   UNL     1      -8.963  12.632  67.221  1.00  0.00    -0.194 A  
HETATM   21  H   UNL     1      -8.012   8.754  65.316  1.00  0.00     0.000 HD 
HETATM   22  C   UNL     1     -10.703  11.559  65.921  1.00  0.00    -0.325 A  
HETATM   23  H   UNL     1      -6.249  10.798  67.199  1.00  0.00     0.000 HD 
HETATM   24  C   UNL     1      -8.114  11.570  66.931  1.00  0.00    -0.164 A  
HETATM   25  C   UNL     1      -9.845  10.495  65.634  1.00  0.00    -0.311 A  
HETATM   26  O   UNL     1      -6.829  11.524  67.397  1.00  0.00    -0.086 OA 
HETATM   27  C   UNL     1      -8.555  10.511  66.139  1.00  0.00    -0.150 A  
HETATM   28  O   UNL     1      -7.711   9.476  65.855  1.00  0.00    -0.098 OA 
ENDBRANCH   3  19
TORSDOF 8
ENDMDL
MODEL      285
REMARK 921   NORMALIZED FREE ENERGY PREDICTED BY IDOCK:   -3.64 KCAL/MOL
REMARK 922        TOTAL FREE ENERGY PREDICTED BY IDOCK:   -6.54 KCAL/MOL
REMARK 923 INTER-LIGAND FREE ENERGY PREDICTED BY IDOCK:   -4.79 KCAL/MOL
REMARK 924 INTRA-LIGAND FREE ENERGY PREDICTED BY IDOCK:   -1.75 KCAL/MOL
REMARK 927      BINDING AFFINITY PREDICTED BY RF-SCORE:    0.00 PKD
ROOT
HETATM    1  O   UNL     1      -9.606   8.423  66.760  1.00  0.00    -0.182 OA 
HETATM    2  H   UNL     1     -10.466   8.773  66.558  1.00  0.00     0.000 HD 
HETATM    3  C   UNL     1      -9.747   7.223  67.531  1.00  0.00    -0.145 C  
ENDROOT
BRANCH   3   4
HETATM    4  C   UNL     1      -8.346   6.653  67.859  1.00  0.00    -0.119 C  
BRANCH   4   5
HETATM    5  N   UNL     1      -7.889   7.059  69.207  1.00  0.00    -0.112 NA 
HETATM    6  H   UNL     1      -7.574   6.261  69.760  1.00  0.00     0.000 HD 
BRANCH   5   7
HETATM    7  C   UNL     1      -6.855   8.094  69.098  1.00  0.00    -0.055 C  
BRANCH   7   8
HETATM    8  C   UNL     1      -6.568   8.696  70.476  1.00  0.00    -0.039 C  
BRANCH   8   9
HETATM    9  C   UNL     1      -7.796   8.583  71.382  1.00  0.00    -0.153 C  
BRANCH   9  10
HETATM   10  C   UNL     1      -7.479   7.834  72.678  1.00  0.00    -0.105 C  
BRANCH  10  11
HETATM   11  C   UNL     1      -8.532   6.793  72.971  1.00  0.00    -0.126 A  
HETATM   12  C   UNL     1      -8.557   5.585  72.258  1.00  0.00    -0.126 A  
HETATM   13  C   UNL     1      -9.563   4.644  72.490  1.00  0.00    -0.178 A  
HETATM   14  C   UNL     1     -10.547   4.914  73.435  1.00  0.00    -0.239 A  
HETATM   15  O   UNL     1     -11.557   4.032  73.680  1.00  0.00    -0.182 OA 
HETATM   16  C   UNL     1     -10.534   6.100  74.157  1.00  0.00    -0.247 A  
HETATM   17  H   UNL     1     -12.229   4.216  74.325  1.00  0.00     0.000 HD 
HETATM   18  C   UNL     1      -9.529   7.040  73.924  1.00  0.00    -0.278 A  
ENDBRANCH  10  11
ENDBRANCH   9  10
ENDBRANCH   8   9
ENDBRANCH   7   8
ENDBRANCH   5   7
ENDBRANCH   4   5
ENDBRANCH   3   4
BRANCH   3  19
HETATM   19  C   UNL     1     -10.535   7.509  68.793  1.00  0.00    -0.212 A  
HETATM   20  C   UNL     1     -10.592   8.802  69.344  1.00  0.00    -0.218 A  
HETATM   21  H   UNL     1     -13.075   7.482  72.759  1.00  0.00     0.000 HD 
HETATM   22  C   UNL     1     -11.198   6.459  69.456  1.00  0.00    -0.477 A  
HETATM   23  H   UNL     1     -11.860  10.416  71.896  1.00  0.00     0.000 HD 
HETATM   24  C   UNL     1     -11.297   9.024  70.520  1.00  0.00    -0.243 A  
HETATM   25  C   UNL     1     -11.906   6.689  70.638  1.00  0.00    -0.443 A  
HETATM   26  O   UNL     1     -11.377  10.264  71.092  1.00  0.00    -0.314 OA 
HETATM   27  C   UNL     1     -11.947   7.971  71.162  1.00  0.00    -0.277 A  
HETATM   28  O   UNL     1     -12.632   8.199  72.321  1.00  0.00    -0.317 OA 
ENDBRANCH   3  19
TORSDOF 8
ENDMDL
MODEL      286
REMARK 921   NORMALIZED FREE ENERGY PREDICTED BY IDOCK:   -3.62 KCAL/MOL
REMARK 922        TOTAL FREE ENERGY PREDICTED BY IDOCK:   -6.51 KCAL/MOL
REMARK 923 INTER-LIGAND FREE ENERGY PREDICTED BY IDOCK:   -5.48 KCAL/MOL
REMARK 924 INTRA-LIGAND FREE ENERGY PREDICTED BY IDOCK:   -1.03 KCAL/MOL
REMARK 927      BINDING AFFINITY PREDICTED BY RF-SCORE:    0.00 PKD
ROOT
HETATM    1  O   UNL     1      -9.352   7.560  71.234  1.00  0.00    -0.149 OA 
HETATM    2  H   UNL     1      -8.855   8.369  71.191  1.00  0.00     0.000 HD 
HETATM    3  C   UNL     1     -10.493   7.653  70.370  1.00  0.00    -0.220 C  
ENDROOT
BRANCH   3   4
HETATM    4  C   UNL     1     -11.302   6.336  70.441  1.00  0.00    -0.372 C  
BRANCH   4   5
HETATM    5  N   UNL     1     -10.649   5.248  69.680  1.00  0.00    -0.263 NA 
HETATM    6  H   UNL     1      -9.950   5.604  69.027  1.00  0.00     0.000 HD 
BRANCH   5   7
HETATM    7  C   UNL     1     -10.083   4.257  70.602  1.00  0.00    -0.070 C  
BRANCH   7   8
HETATM    8  C   UNL     1      -8.554   4.302  70.549  1.00  0.00    -0.109 C  
BRANCH   8   9
HETATM    9  C   UNL     1      -8.033   3.568  69.312  1.00  0.00    -0.057 C  
BRANCH   9  10
HETATM   10  C   UNL     1      -7.100   4.449  68.478  1.00  0.00    -0.052 C  
BRANCH  10  11
HETATM   11  C   UNL     1      -7.866   5.565  67.810  1.00  0.00    -0.097 A  
HETATM   12  C   UNL     1      -8.749   5.291  66.755  1.00  0.00    -0.112 A  
HETATM   13  C   UNL     1      -9.417   6.328  66.101  1.00  0.00    -0.092 A  
HETATM   14  C   UNL     1      -9.199   7.643  66.502  1.00  0.00    -0.176 A  
HETATM   15  O   UNL     1      -9.816   8.687  65.878  1.00  0.00    -0.452 OA 
HETATM   16  C   UNL     1      -8.335   7.933  67.549  1.00  0.00    -0.124 A  
HETATM   17  H   UNL     1      -9.667   9.584  66.151  1.00  0.00     0.000 HD 
HETATM   18  C   UNL     1      -7.667   6.896  68.202  1.00  0.00    -0.113 A  
ENDBRANCH  10  11
ENDBRANCH   9  10
ENDBRANCH   8   9
ENDBRANCH   7   8
ENDBRANCH   5   7
ENDBRANCH   4   5
ENDBRANCH   3   4
BRANCH   3  19
HETATM   19  C   UNL     1     -11.343   8.844  70.763  1.00  0.00    -0.325 A  
HETATM   20  C   UNL     1     -11.123  10.116  70.208  1.00  0.00    -0.384 A  
HETATM   21  H   UNL     1     -14.331  11.973  72.622  1.00  0.00     0.000 HD 
HETATM   22  C   UNL     1     -12.356   8.691  71.730  1.00  0.00    -0.402 A  
HETATM   23  H   UNL     1     -12.250  13.186  70.380  1.00  0.00     0.000 HD 
HETATM   24  C   UNL     1     -11.901  11.194  70.615  1.00  0.00    -0.302 A  
HETATM   25  C   UNL     1     -13.134   9.778  72.133  1.00  0.00    -0.513 A  
HETATM   26  O   UNL     1     -11.719  12.450  70.103  1.00  0.00    -0.286 OA 
HETATM   27  C   UNL     1     -12.897  11.023  71.573  1.00  0.00    -0.450 A  
HETATM   28  O   UNL     1     -13.652  12.090  71.969  1.00  0.00    -0.362 OA 
ENDBRANCH   3  19
TORSDOF 8
ENDMDL
MODEL      287
REMARK 921   NORMALIZED FREE ENERGY PREDICTED BY IDOCK:   -3.61 KCAL/MOL
REMARK 922        TOTAL FREE ENERGY PREDICTED BY IDOCK:   -6.50 KCAL/MOL
REMARK 923 INTER-LIGAND FREE ENERGY PREDICTED BY IDOCK:   -6.11 KCAL/MOL
REMARK 924 INTRA-LIGAND FREE ENERGY PREDICTED BY IDOCK:   -0.39 KCAL/MOL
REMARK 927      BINDING AFFINITY PREDICTED BY RF-SCORE:    0.00 PKD
ROOT
HETATM    1  O   UNL     1     -11.990  15.993  68.415  1.00  0.00    -0.368 OA 
HETATM    2  H   UNL     1     -12.455  16.756  68.090  1.00  0.00     0.000 HD 
HETATM    3  C   UNL     1     -10.782  16.409  69.064  1.00  0.00    -0.322 C  
ENDROOT
BRANCH   3   4
HETATM    4  C   UNL     1     -10.026  15.167  69.594  1.00  0.00    -0.171 C  
BRANCH   4   5
HETATM    5  N   UNL     1      -9.871  14.131  68.549  1.00  0.00    -0.230 NA 
HETATM    6  H   UNL     1      -8.890  13.949  68.334  1.00  0.00     0.000 HD 
BRANCH   5   7
HETATM    7  C   UNL     1     -10.583  12.909  68.940  1.00  0.00    -0.123 C  
BRANCH   7   8
HETATM    8  C   UNL     1     -11.667  12.580  67.910  1.00  0.00    -0.416 C  
BRANCH   8   9
HETATM    9  C   UNL     1     -11.365  11.252  67.213  1.00  0.00    -0.329 C  
BRANCH   9  10
HETATM   10  C   UNL     1     -11.014  10.150  68.216  1.00  0.00    -0.299 C  
BRANCH  10  11
HETATM   11  C   UNL     1     -10.328   8.994  67.530  1.00  0.00    -0.328 A  
HETATM   12  C   UNL     1     -10.390   7.703  68.076  1.00  0.00    -0.257 A  
HETATM   13  C   UNL     1      -9.711   6.643  67.472  1.00  0.00    -0.149 A  
HETATM   14  C   UNL     1      -8.967   6.875  66.320  1.00  0.00    -0.151 A  
HETATM   15  O   UNL     1      -8.274   5.873  65.707  1.00  0.00    -0.118 OA 
HETATM   16  C   UNL     1      -8.900   8.144  65.759  1.00  0.00    -0.173 A  
HETATM   17  H   UNL     1      -7.765   6.032  64.921  1.00  0.00     0.000 HD 
HETATM   18  C   UNL     1      -9.578   9.203  66.365  1.00  0.00    -0.309 A  
ENDBRANCH  10  11
ENDBRANCH   9  10
ENDBRANCH   8   9
ENDBRANCH   7   8
ENDBRANCH   5   7
ENDBRANCH   4   5
ENDBRANCH   3   4
BRANCH   3  19
HETATM   19  C   UNL     1      -9.925  17.206  68.101  1.00  0.00    -0.297 A  
HETATM   20  C   UNL     1      -8.528  17.056  68.067  1.00  0.00    -0.216 A  
HETATM   21  H   UNL     1      -8.048  20.134  64.927  1.00  0.00     0.000 HD 
HETATM   22  C   UNL     1     -10.529  18.144  67.242  1.00  0.00    -0.407 A  
HETATM   23  H   UNL     1      -5.888  18.240  66.532  1.00  0.00     0.000 HD 
HETATM   24  C   UNL     1      -7.769  17.825  67.194  1.00  0.00    -0.205 A  
HETATM   25  C   UNL     1      -9.760  18.914  66.366  1.00  0.00    -0.395 A  
HETATM   26  O   UNL     1      -6.407  17.714  67.129  1.00  0.00    -0.141 OA 
HETATM   27  C   UNL     1      -8.384  18.749  66.352  1.00  0.00    -0.280 A  
HETATM   28  O   UNL     1      -7.628  19.505  65.502  1.00  0.00    -0.425 OA 
ENDBRANCH   3  19
TORSDOF 8
ENDMDL
MODEL      288
REMARK 921   NORMALIZED FREE ENERGY PREDICTED BY IDOCK:   -3.57 KCAL/MOL
REMARK 922        TOTAL FREE ENERGY PREDICTED BY IDOCK:   -6.45 KCAL/MOL
REMARK 923 INTER-LIGAND FREE ENERGY PREDICTED BY IDOCK:   -5.28 KCAL/MOL
REMARK 924 INTRA-LIGAND FREE ENERGY PREDICTED BY IDOCK:   -1.17 KCAL/MOL
REMARK 927      BINDING AFFINITY PREDICTED BY RF-SCORE:    0.00 PKD
ROOT
HETATM    1  O   UNL     1      -9.551   7.970  70.548  1.00  0.00    -0.169 OA 
HETATM    2  H   UNL     1      -9.090   8.772  70.328  1.00  0.00     0.000 HD 
HETATM    3  C   UNL     1     -10.868   8.004  69.982  1.00  0.00    -0.235 C  
ENDROOT
BRANCH   3   4
HETATM    4  C   UNL     1     -11.617   6.698  70.341  1.00  0.00    -0.398 C  
BRANCH   4   5
HETATM    5  N   UNL     1     -10.858   5.877  71.311  1.00  0.00    -0.267 NA 
HETATM    6  H   UNL     1      -9.957   6.296  71.543  1.00  0.00     0.000 HD 
BRANCH   5   7
HETATM    7  C   UNL     1     -11.672   5.629  72.506  1.00  0.00    -0.197 C  
BRANCH   7   8
HETATM    8  C   UNL     1     -10.805   5.736  73.763  1.00  0.00    -0.169 C  
BRANCH   8   9
HETATM    9  C   UNL     1      -9.811   4.576  73.835  1.00  0.00    -0.175 C  
BRANCH   9  10
HETATM   10  C   UNL     1      -8.424   5.043  74.286  1.00  0.00    -0.108 C  
BRANCH  10  11
HETATM   11  C   UNL     1      -7.683   5.707  73.151  1.00  0.00    -0.100 A  
HETATM   12  C   UNL     1      -7.315   4.972  72.014  1.00  0.00    -0.089 A  
HETATM   13  C   UNL     1      -6.583   5.571  70.987  1.00  0.00    -0.044 A  
HETATM   14  C   UNL     1      -6.214   6.908  71.100  1.00  0.00    -0.037 A  
HETATM   15  O   UNL     1      -5.483   7.527  70.130  1.00  0.00    -0.023 OA 
HETATM   16  C   UNL     1      -6.576   7.654  72.214  1.00  0.00    -0.056 A  
HETATM   17  H   UNL     1      -5.231   8.440  70.207  1.00  0.00     0.000 HD 
HETATM   18  C   UNL     1      -7.308   7.054  73.240  1.00  0.00    -0.075 A  
ENDBRANCH  10  11
ENDBRANCH   9  10
ENDBRANCH   8   9
ENDBRANCH   7   8
ENDBRANCH   5   7
ENDBRANCH   4   5
ENDBRANCH   3   4
BRANCH   3  19
HETATM   19  C   UNL     1     -11.615   9.223  70.484  1.00  0.00    -0.266 A  
HETATM   20  C   UNL     1     -11.413  10.492  69.912  1.00  0.00    -0.384 A  
HETATM   21  H   UNL     1     -14.222  12.449  72.713  1.00  0.00     0.000 HD 
HETATM   22  C   UNL     1     -12.506   9.100  71.567  1.00  0.00    -0.418 A  
HETATM   23  H   UNL     1     -12.386  13.602  70.237  1.00  0.00     0.000 HD 
HETATM   24  C   UNL     1     -12.091  11.595  70.417  1.00  0.00    -0.373 A  
HETATM   25  C   UNL     1     -13.184  10.214  72.069  1.00  0.00    -0.534 A  
HETATM   26  O   UNL     1     -11.923  12.848  69.893  1.00  0.00    -0.324 OA 
HETATM   27  C   UNL     1     -12.968  11.454  71.490  1.00  0.00    -0.399 A  
HETATM   28  O   UNL     1     -13.624  12.546  71.982  1.00  0.00    -0.439 OA 
ENDBRANCH   3  19
TORSDOF 8
ENDMDL
MODEL      289
REMARK 921   NORMALIZED FREE ENERGY PREDICTED BY IDOCK:   -3.57 KCAL/MOL
REMARK 922        TOTAL FREE ENERGY PREDICTED BY IDOCK:   -6.44 KCAL/MOL
REMARK 923 INTER-LIGAND FREE ENERGY PREDICTED BY IDOCK:   -5.70 KCAL/MOL
REMARK 924 INTRA-LIGAND FREE ENERGY PREDICTED BY IDOCK:   -0.73 KCAL/MOL
REMARK 927      BINDING AFFINITY PREDICTED BY RF-SCORE:    0.00 PKD
ROOT
HETATM    1  O   UNL     1     -11.592   6.381  68.973  1.00  0.00    -0.597 OA 
HETATM    2  H   UNL     1     -12.511   6.246  69.174  1.00  0.00     0.000 HD 
HETATM    3  C   UNL     1     -10.902   6.808  70.154  1.00  0.00    -0.266 C  
ENDROOT
BRANCH   3   4
HETATM    4  C   UNL     1      -9.405   7.027  69.827  1.00  0.00    -0.146 C  
BRANCH   4   5
HETATM    5  N   UNL     1      -9.174   7.158  68.371  1.00  0.00    -0.134 NA 
HETATM    6  H   UNL     1     -10.046   7.287  67.856  1.00  0.00     0.000 HD 
BRANCH   5   7
HETATM    7  C   UNL     1      -8.217   8.238  68.108  1.00  0.00    -0.128 C  
BRANCH   7   8
HETATM    8  C   UNL     1      -8.187   8.561  66.612  1.00  0.00    -0.108 C  
BRANCH   8   9
HETATM    9  C   UNL     1      -7.580   9.945  66.369  1.00  0.00    -0.101 C  
BRANCH   9  10
HETATM   10  C   UNL     1      -8.511  11.064  66.840  1.00  0.00    -0.139 C  
BRANCH  10  11
HETATM   11  C   UNL     1      -7.721  12.239  67.364  1.00  0.00    -0.165 A  
HETATM   12  C   UNL     1      -8.358  13.457  67.644  1.00  0.00    -0.179 A  
HETATM   13  C   UNL     1      -7.620  14.561  68.078  1.00  0.00    -0.138 A  
HETATM   14  C   UNL     1      -6.241  14.446  68.227  1.00  0.00    -0.120 A  
HETATM   15  O   UNL     1      -5.480  15.503  68.629  1.00  0.00    -0.089 OA 
HETATM   16  C   UNL     1      -5.594  13.247  67.962  1.00  0.00    -0.113 A  
HETATM   17  H   UNL     1      -4.539  15.425  68.731  1.00  0.00     0.000 HD 
HETATM   18  C   UNL     1      -6.333  12.144  67.528  1.00  0.00    -0.129 A  
ENDBRANCH  10  11
ENDBRANCH   9  10
ENDBRANCH   8   9
ENDBRANCH   7   8
ENDBRANCH   5   7
ENDBRANCH   4   5
ENDBRANCH   3   4
BRANCH   3  19
HETATM   19  C   UNL     1     -11.538   8.072  70.696  1.00  0.00    -0.203 A  
HETATM   20  C   UNL     1     -12.622   8.022  71.589  1.00  0.00    -0.346 A  
HETATM   21  H   UNL     1     -12.971  12.428  71.769  1.00  0.00     0.000 HD 
HETATM   22  C   UNL     1     -11.062   9.329  70.276  1.00  0.00    -0.289 A  
HETATM   23  H   UNL     1     -14.658  10.003  73.218  1.00  0.00     0.000 HD 
HETATM   24  C   UNL     1     -13.203   9.200  72.042  1.00  0.00    -0.441 A  
HETATM   25  C   UNL     1     -11.650  10.510  70.736  1.00  0.00    -0.432 A  
HETATM   26  O   UNL     1     -14.262   9.198  72.908  1.00  0.00    -0.512 OA 
HETATM   27  C   UNL     1     -12.719  10.435  71.614  1.00  0.00    -0.455 A  
HETATM   28  O   UNL     1     -13.301  11.587  72.060  1.00  0.00    -0.476 OA 
ENDBRANCH   3  19
TORSDOF 8
ENDMDL
MODEL      290
REMARK 921   NORMALIZED FREE ENERGY PREDICTED BY IDOCK:   -3.56 KCAL/MOL
REMARK 922        TOTAL FREE ENERGY PREDICTED BY IDOCK:   -6.42 KCAL/MOL
REMARK 923 INTER-LIGAND FREE ENERGY PREDICTED BY IDOCK:   -6.22 KCAL/MOL
REMARK 924 INTRA-LIGAND FREE ENERGY PREDICTED BY IDOCK:   -0.20 KCAL/MOL
REMARK 927      BINDING AFFINITY PREDICTED BY RF-SCORE:    0.00 PKD
ROOT
HETATM    1  O   UNL     1      -8.853  11.783  68.210  1.00  0.00    -0.163 OA 
HETATM    2  H   UNL     1      -8.479  11.828  67.337  1.00  0.00     0.000 HD 
HETATM    3  C   UNL     1     -10.178  11.241  68.137  1.00  0.00    -0.180 C  
ENDROOT
BRANCH   3   4
HETATM    4  C   UNL     1     -10.785  11.168  69.558  1.00  0.00    -0.143 C  
BRANCH   4   5
HETATM    5  N   UNL     1     -11.481   9.884  69.793  1.00  0.00    -0.399 NA 
HETATM    6  H   UNL     1     -11.589   9.345  68.934  1.00  0.00     0.000 HD 
BRANCH   5   7
HETATM    7  C   UNL     1     -10.789   9.120  70.837  1.00  0.00    -0.278 C  
BRANCH   7   8
HETATM    8  C   UNL     1      -9.838   8.103  70.201  1.00  0.00    -0.184 C  
BRANCH   8   9
HETATM    9  C   UNL     1      -9.499   6.986  71.191  1.00  0.00    -0.165 C  
BRANCH   9  10
HETATM   10  C   UNL     1      -9.841   5.605  70.628  1.00  0.00    -0.244 C  
BRANCH  10  11
HETATM   11  C   UNL     1      -9.666   5.574  69.129  1.00  0.00    -0.208 A  
HETATM   12  C   UNL     1      -8.476   5.095  68.561  1.00  0.00    -0.088 A  
HETATM   13  C   UNL     1      -8.292   5.116  67.177  1.00  0.00    -0.107 A  
HETATM   14  C   UNL     1      -9.299   5.620  66.360  1.00  0.00    -0.154 A  
HETATM   15  O   UNL     1      -9.153   5.677  65.005  1.00  0.00    -0.354 OA 
HETATM   16  C   UNL     1     -10.486   6.091  66.903  1.00  0.00    -0.344 A  
HETATM   17  H   UNL     1      -9.840   6.022  64.448  1.00  0.00     0.000 HD 
HETATM   18  C   UNL     1     -10.670   6.070  68.287  1.00  0.00    -0.352 A  
ENDBRANCH  10  11
ENDBRANCH   9  10
ENDBRANCH   8   9
ENDBRANCH   7   8
ENDBRANCH   5   7
ENDBRANCH   4   5
ENDBRANCH   3   4
BRANCH   3  19
HETATM   19  C   UNL     1     -11.032  12.089  67.215  1.00  0.00    -0.313 A  
HETATM   20  C   UNL     1     -11.252  11.721  65.877  1.00  0.00    -0.345 A  
HETATM   21  H   UNL     1     -13.676  15.327  65.048  1.00  0.00     0.000 HD 
HETATM   22  C   UNL     1     -11.593  13.290  67.691  1.00  0.00    -0.386 A  
HETATM   23  H   UNL     1     -12.774  12.776  63.175  1.00  0.00     0.000 HD 
HETATM   24  C   UNL     1     -12.015  12.537  65.050  1.00  0.00    -0.427 A  
HETATM   25  C   UNL     1     -12.359  14.105  66.854  1.00  0.00    -0.293 A  
HETATM   26  O   UNL     1     -12.252  12.219  63.741  1.00  0.00    -0.466 OA 
HETATM   27  C   UNL     1     -12.561  13.722  65.538  1.00  0.00    -0.512 A  
HETATM   28  O   UNL     1     -13.303  14.520  64.715  1.00  0.00    -0.116 OA 
ENDBRANCH   3  19
TORSDOF 8
ENDMDL
MODEL      291
REMARK 921   NORMALIZED FREE ENERGY PREDICTED BY IDOCK:   -3.48 KCAL/MOL
REMARK 922        TOTAL FREE ENERGY PREDICTED BY IDOCK:   -6.31 KCAL/MOL
REMARK 923 INTER-LIGAND FREE ENERGY PREDICTED BY IDOCK:   -5.88 KCAL/MOL
REMARK 924 INTRA-LIGAND FREE ENERGY PREDICTED BY IDOCK:   -0.43 KCAL/MOL
REMARK 927      BINDING AFFINITY PREDICTED BY RF-SCORE:    0.00 PKD
ROOT
HETATM    1  O   UNL     1     -10.560   8.494  72.067  1.00  0.00    -0.284 OA 
HETATM    2  H   UNL     1     -10.837   8.085  72.879  1.00  0.00     0.000 HD 
HETATM    3  C   UNL     1     -11.064   7.743  70.955  1.00  0.00    -0.257 C  
ENDROOT
BRANCH   3   4
HETATM    4  C   UNL     1     -10.612   8.409  69.634  1.00  0.00    -0.219 C  
BRANCH   4   5
HETATM    5  N   UNL     1     -10.747   9.882  69.687  1.00  0.00    -0.236 NA 
HETATM    6  H   UNL     1      -9.963  10.320  70.171  1.00  0.00     0.000 HD 
BRANCH   5   7
HETATM    7  C   UNL     1     -10.927  10.421  68.334  1.00  0.00    -0.264 C  
BRANCH   7   8
HETATM    8  C   UNL     1     -11.826  11.659  68.377  1.00  0.00    -0.346 C  
BRANCH   8   9
HETATM    9  C   UNL     1     -11.091  12.839  69.014  1.00  0.00    -0.285 C  
BRANCH   9  10
HETATM   10  C   UNL     1     -11.888  14.140  68.889  1.00  0.00    -0.382 C  
BRANCH  10  11
HETATM   11  C   UNL     1     -11.008  15.267  68.405  1.00  0.00    -0.271 A  
HETATM   12  C   UNL     1     -10.897  15.546  67.034  1.00  0.00    -0.314 A  
HETATM   13  C   UNL     1     -10.043  16.553  66.581  1.00  0.00    -0.299 A  
HETATM   14  C   UNL     1      -9.295  17.281  67.501  1.00  0.00    -0.236 A  
HETATM   15  O   UNL     1      -8.434  18.260  67.101  1.00  0.00    -0.242 OA 
HETATM   16  C   UNL     1      -9.397  17.026  68.862  1.00  0.00    -0.224 A  
HETATM   17  H   UNL     1      -7.923  18.756  67.729  1.00  0.00     0.000 HD 
HETATM   18  C   UNL     1     -10.251  16.018  69.314  1.00  0.00    -0.249 A  
ENDBRANCH  10  11
ENDBRANCH   9  10
ENDBRANCH   8   9
ENDBRANCH   7   8
ENDBRANCH   5   7
ENDBRANCH   4   5
ENDBRANCH   3   4
BRANCH   3  19
HETATM   19  C   UNL     1     -10.583   6.308  71.041  1.00  0.00    -0.289 A  
HETATM   20  C   UNL     1     -10.268   5.571  69.886  1.00  0.00    -0.338 A  
HETATM   21  H   UNL     1      -9.305   1.927  72.201  1.00  0.00     0.000 HD 
HETATM   22  C   UNL     1     -10.480   5.680  72.297  1.00  0.00    -0.260 A  
HETATM   23  H   UNL     1      -9.269   2.587  68.978  1.00  0.00     0.000 HD 
HETATM   24  C   UNL     1      -9.861   4.247  69.998  1.00  0.00    -0.205 A  
HETATM   25  C   UNL     1     -10.069   4.349  72.402  1.00  0.00    -0.243 A  
HETATM   26  O   UNL     1      -9.548   3.492  68.902  1.00  0.00    -0.165 OA 
HETATM   27  C   UNL     1      -9.766   3.642  71.250  1.00  0.00    -0.169 A  
HETATM   28  O   UNL     1      -9.370   2.339  71.348  1.00  0.00    -0.101 OA 
ENDBRANCH   3  19
TORSDOF 8
ENDMDL
MODEL      292
REMARK 921   NORMALIZED FREE ENERGY PREDICTED BY IDOCK:   -3.47 KCAL/MOL
REMARK 922        TOTAL FREE ENERGY PREDICTED BY IDOCK:   -6.30 KCAL/MOL
REMARK 923 INTER-LIGAND FREE ENERGY PREDICTED BY IDOCK:   -5.40 KCAL/MOL
REMARK 924 INTRA-LIGAND FREE ENERGY PREDICTED BY IDOCK:   -0.90 KCAL/MOL
REMARK 927      BINDING AFFINITY PREDICTED BY RF-SCORE:    0.00 PKD
ROOT
HETATM    1  O   UNL     1     -10.565   5.682  68.563  1.00  0.00    -0.213 OA 
HETATM    2  H   UNL     1     -11.500   5.514  68.537  1.00  0.00     0.000 HD 
HETATM    3  C   UNL     1     -10.150   5.867  69.923  1.00  0.00    -0.198 C  
ENDROOT
BRANCH   3   4
HETATM    4  C   UNL     1      -8.627   6.139  69.965  1.00  0.00    -0.136 C  
BRANCH   4   5
HETATM    5  N   UNL     1      -8.083   6.433  68.621  1.00  0.00    -0.112 NA 
HETATM    6  H   UNL     1      -8.820   6.655  67.951  1.00  0.00     0.000 HD 
BRANCH   5   7
HETATM    7  C   UNL     1      -7.078   7.498  68.706  1.00  0.00    -0.080 C  
BRANCH   7   8
HETATM    8  C   UNL     1      -6.485   7.773  67.321  1.00  0.00    -0.056 C  
BRANCH   8   9
HETATM    9  C   UNL     1      -7.291   8.850  66.592  1.00  0.00    -0.085 C  
BRANCH   9  10
HETATM   10  C   UNL     1      -8.585   8.287  65.997  1.00  0.00    -0.167 C  
BRANCH  10  11
HETATM   11  C   UNL     1      -9.651   9.352  65.918  1.00  0.00    -0.338 A  
HETATM   12  C   UNL     1      -9.820  10.104  64.746  1.00  0.00    -0.382 A  
HETATM   13  C   UNL     1     -10.770  11.127  64.689  1.00  0.00    -0.350 A  
HETATM   14  C   UNL     1     -11.549  11.399  65.809  1.00  0.00     0.252 A  
HETATM   15  O   UNL     1     -12.475  12.401  65.804  1.00  0.00    -0.615 OA 
HETATM   16  C   UNL     1     -11.402  10.661  66.976  1.00  0.00     0.023 A  
HETATM   17  H   UNL     1     -13.006  12.587  66.568  1.00  0.00     0.000 HD 
HETATM   18  C   UNL     1     -10.452   9.639  67.032  1.00  0.00    -0.302 A  
ENDBRANCH  10  11
ENDBRANCH   9  10
ENDBRANCH   8   9
ENDBRANCH   7   8
ENDBRANCH   5   7
ENDBRANCH   4   5
ENDBRANCH   3   4
BRANCH   3  19
HETATM   19  C   UNL     1     -10.931   7.004  70.551  1.00  0.00    -0.297 A  
HETATM   20  C   UNL     1     -12.325   6.933  70.713  1.00  0.00    -0.314 A  
HETATM   21  H   UNL     1     -12.556  10.993  72.455  1.00  0.00     0.000 HD 
HETATM   22  C   UNL     1     -10.259   8.175  70.953  1.00  0.00    -0.216 A  
HETATM   23  H   UNL     1     -14.843   8.716  71.813  1.00  0.00     0.000 HD 
HETATM   24  C   UNL     1     -13.015   8.007  71.263  1.00  0.00    -0.179 A  
HETATM   25  C   UNL     1     -10.958   9.250  71.506  1.00  0.00    -0.446 A  
HETATM   26  O   UNL     1     -14.372   7.982  71.436  1.00  0.00    -0.410 OA 
HETATM   27  C   UNL     1     -12.333   9.157  71.654  1.00  0.00    -0.360 A  
HETATM   28  O   UNL     1     -13.021  10.209  72.188  1.00  0.00    -0.415 OA 
ENDBRANCH   3  19
TORSDOF 8
ENDMDL
MODEL      293
REMARK 921   NORMALIZED FREE ENERGY PREDICTED BY IDOCK:   -3.46 KCAL/MOL
REMARK 922        TOTAL FREE ENERGY PREDICTED BY IDOCK:   -6.29 KCAL/MOL
REMARK 923 INTER-LIGAND FREE ENERGY PREDICTED BY IDOCK:   -5.83 KCAL/MOL
REMARK 924 INTRA-LIGAND FREE ENERGY PREDICTED BY IDOCK:   -0.46 KCAL/MOL
REMARK 927      BINDING AFFINITY PREDICTED BY RF-SCORE:    0.00 PKD
ROOT
HETATM    1  O   UNL     1      -6.123   8.617  69.535  1.00  0.00    -0.033 OA 
HETATM    2  H   UNL     1      -5.781   8.190  70.313  1.00  0.00     0.000 HD 
HETATM    3  C   UNL     1      -7.269   9.403  69.885  1.00  0.00    -0.083 C  
ENDROOT
BRANCH   3   4
HETATM    4  C   UNL     1      -7.825  10.097  68.619  1.00  0.00    -0.097 C  
BRANCH   4   5
HETATM    5  N   UNL     1      -8.578  11.327  68.951  1.00  0.00    -0.333 NA 
HETATM    6  H   UNL     1      -8.287  11.723  69.845  1.00  0.00     0.000 HD 
BRANCH   5   7
HETATM    7  C   UNL     1      -8.466  12.298  67.857  1.00  0.00    -0.165 C  
BRANCH   7   8
HETATM    8  C   UNL     1      -7.876  13.611  68.379  1.00  0.00    -0.140 C  
BRANCH   8   9
HETATM    9  C   UNL     1      -8.965  14.678  68.512  1.00  0.00    -0.184 C  
BRANCH   9  10
HETATM   10  C   UNL     1      -9.263  15.357  67.172  1.00  0.00    -0.226 C  
BRANCH  10  11
HETATM   11  C   UNL     1     -10.355  14.627  66.428  1.00  0.00    -0.293 A  
HETATM   12  C   UNL     1     -11.463  14.111  67.116  1.00  0.00    -0.373 A  
HETATM   13  C   UNL     1     -12.447  13.389  66.438  1.00  0.00    -0.297 A  
HETATM   14  C   UNL     1     -12.320  13.181  65.068  1.00  0.00    -0.459 A  
HETATM   15  O   UNL     1     -13.248  12.466  64.369  1.00  0.00    -0.816 OA 
HETATM   16  C   UNL     1     -11.236  13.691  64.368  1.00  0.00    -0.382 A  
HETATM   17  H   UNL     1     -13.162  12.324  63.435  1.00  0.00     0.000 HD 
HETATM   18  C   UNL     1     -10.252  14.412  65.047  1.00  0.00    -0.406 A  
ENDBRANCH  10  11
ENDBRANCH   9  10
ENDBRANCH   8   9
ENDBRANCH   7   8
ENDBRANCH   5   7
ENDBRANCH   4   5
ENDBRANCH   3   4
BRANCH   3  19
HETATM   19  C   UNL     1      -8.318   8.526  70.538  1.00  0.00    -0.137 A  
HETATM   20  C   UNL     1      -8.671   8.688  71.889  1.00  0.00    -0.256 A  
HETATM   21  H   UNL     1     -11.541   5.324  71.779  1.00  0.00     0.000 HD 
HETATM   22  C   UNL     1      -8.934   7.501  69.794  1.00  0.00    -0.141 A  
HETATM   23  H   UNL     1     -10.630   7.391  74.171  1.00  0.00     0.000 HD 
HETATM   24  C   UNL     1      -9.614   7.846  72.466  1.00  0.00    -0.216 A  
HETATM   25  C   UNL     1      -9.882   6.659  70.380  1.00  0.00    -0.189 A  
HETATM   26  O   UNL     1      -9.985   7.967  73.777  1.00  0.00    -0.167 OA 
HETATM   27  C   UNL     1     -10.212   6.837  71.714  1.00  0.00    -0.190 A  
HETATM   28  O   UNL     1     -11.133   6.011  72.292  1.00  0.00    -0.248 OA 
ENDBRANCH   3  19
TORSDOF 8
ENDMDL
MODEL      294
REMARK 921   NORMALIZED FREE ENERGY PREDICTED BY IDOCK:   -3.46 KCAL/MOL
REMARK 922        TOTAL FREE ENERGY PREDICTED BY IDOCK:   -6.28 KCAL/MOL
REMARK 923 INTER-LIGAND FREE ENERGY PREDICTED BY IDOCK:   -4.90 KCAL/MOL
REMARK 924 INTRA-LIGAND FREE ENERGY PREDICTED BY IDOCK:   -1.37 KCAL/MOL
REMARK 927      BINDING AFFINITY PREDICTED BY RF-SCORE:    0.00 PKD
ROOT
HETATM    1  O   UNL     1      -9.722   2.753  67.634  1.00  0.00    -0.350 OA 
HETATM    2  H   UNL     1     -10.463   2.450  68.146  1.00  0.00     0.000 HD 
HETATM    3  C   UNL     1      -8.664   3.152  68.515  1.00  0.00    -0.104 C  
ENDROOT
BRANCH   3   4
HETATM    4  C   UNL     1      -7.457   3.646  67.682  1.00  0.00    -0.066 C  
BRANCH   4   5
HETATM    5  N   UNL     1      -7.644   5.037  67.215  1.00  0.00    -0.090 NA 
HETATM    6  H   UNL     1      -6.799   5.597  67.335  1.00  0.00     0.000 HD 
BRANCH   5   7
HETATM    7  C   UNL     1      -8.113   5.044  65.825  1.00  0.00    -0.113 C  
BRANCH   7   8
HETATM    8  C   UNL     1      -9.131   6.169  65.619  1.00  0.00    -0.005 C  
BRANCH   8   9
HETATM    9  C   UNL     1      -8.975   7.243  66.698  1.00  0.00    -0.170 C  
BRANCH   9  10
HETATM   10  C   UNL     1      -9.476   8.608  66.219  1.00  0.00    -0.307 C  
BRANCH  10  11
HETATM   11  C   UNL     1     -10.082   9.391  67.358  1.00  0.00    -0.271 A  
HETATM   12  C   UNL     1     -10.993  10.427  67.105  1.00  0.00    -0.263 A  
HETATM   13  C   UNL     1     -11.513  11.187  68.154  1.00  0.00    -0.373 A  
HETATM   14  C   UNL     1     -11.118  10.913  69.459  1.00  0.00    -0.268 A  
HETATM   15  O   UNL     1     -11.587  11.642  70.512  1.00  0.00    -0.487 OA 
HETATM   16  C   UNL     1     -10.224   9.886  69.731  1.00  0.00    -0.278 A  
HETATM   17  H   UNL     1     -11.317  11.455  71.403  1.00  0.00     0.000 HD 
HETATM   18  C   UNL     1      -9.703   9.126  68.681  1.00  0.00    -0.164 A  
ENDBRANCH  10  11
ENDBRANCH   9  10
ENDBRANCH   8   9
ENDBRANCH   7   8
ENDBRANCH   5   7
ENDBRANCH   4   5
ENDBRANCH   3   4
BRANCH   3  19
HETATM   19  C   UNL     1      -9.158   4.229  69.461  1.00  0.00    -0.183 A  
HETATM   20  C   UNL     1     -10.388   4.876  69.256  1.00  0.00    -0.120 A  
HETATM   21  H   UNL     1      -9.850   7.504  72.773  1.00  0.00     0.000 HD 
HETATM   22  C   UNL     1      -8.358   4.620  70.552  1.00  0.00    -0.096 A  
HETATM   23  H   UNL     1     -12.263   7.227  70.554  1.00  0.00     0.000 HD 
HETATM   24  C   UNL     1     -10.796   5.882  70.124  1.00  0.00    -0.332 A  
HETATM   25  C   UNL     1      -8.775   5.631  71.421  1.00  0.00    -0.133 A  
HETATM   26  O   UNL     1     -11.984   6.540  69.960  1.00  0.00    -0.358 OA 
HETATM   27  C   UNL     1      -9.991   6.256  71.197  1.00  0.00    -0.181 A  
HETATM   28  O   UNL     1     -10.399   7.249  72.041  1.00  0.00    -0.190 OA 
ENDBRANCH   3  19
TORSDOF 8
ENDMDL
MODEL      295
REMARK 921   NORMALIZED FREE ENERGY PREDICTED BY IDOCK:   -3.43 KCAL/MOL
REMARK 922        TOTAL FREE ENERGY PREDICTED BY IDOCK:   -6.24 KCAL/MOL
REMARK 923 INTER-LIGAND FREE ENERGY PREDICTED BY IDOCK:   -5.56 KCAL/MOL
REMARK 924 INTRA-LIGAND FREE ENERGY PREDICTED BY IDOCK:   -0.68 KCAL/MOL
REMARK 927      BINDING AFFINITY PREDICTED BY RF-SCORE:    0.00 PKD
ROOT
HETATM    1  O   UNL     1      -9.273   7.819  70.950  1.00  0.00    -0.151 OA 
HETATM    2  H   UNL     1      -8.786   8.634  70.908  1.00  0.00     0.000 HD 
HETATM    3  C   UNL     1     -10.448   7.921  70.136  1.00  0.00    -0.231 C  
ENDROOT
BRANCH   3   4
HETATM    4  C   UNL     1     -11.241   6.594  70.205  1.00  0.00    -0.353 C  
BRANCH   4   5
HETATM    5  N   UNL     1     -10.623   5.540  69.371  1.00  0.00    -0.292 NA 
HETATM    6  H   UNL     1      -9.881   5.909  68.776  1.00  0.00     0.000 HD 
BRANCH   5   7
HETATM    7  C   UNL     1     -10.150   4.439  70.217  1.00  0.00    -0.102 C  
BRANCH   7   8
HETATM    8  C   UNL     1      -8.656   4.202  69.985  1.00  0.00    -0.100 C  
BRANCH   8   9
HETATM    9  C   UNL     1      -8.438   3.061  68.988  1.00  0.00    -0.100 C  
BRANCH   9  10
HETATM   10  C   UNL     1      -7.459   3.456  67.879  1.00  0.00    -0.058 C  
BRANCH  10  11
HETATM   11  C   UNL     1      -8.193   3.761  66.596  1.00  0.00    -0.096 A  
HETATM   12  C   UNL     1      -9.011   2.792  65.996  1.00  0.00    -0.142 A  
HETATM   13  C   UNL     1      -9.648   3.054  64.781  1.00  0.00    -0.121 A  
HETATM   14  C   UNL     1      -9.463   4.287  64.163  1.00  0.00    -0.134 A  
HETATM   15  O   UNL     1     -10.051   4.578  62.968  1.00  0.00    -0.378 OA 
HETATM   16  C   UNL     1      -8.664   5.262  64.746  1.00  0.00    -0.109 A  
HETATM   17  H   UNL     1      -9.924   5.419  62.546  1.00  0.00     0.000 HD 
HETATM   18  C   UNL     1      -8.027   4.999  65.960  1.00  0.00    -0.107 A  
ENDBRANCH  10  11
ENDBRANCH   9  10
ENDBRANCH   8   9
ENDBRANCH   7   8
ENDBRANCH   5   7
ENDBRANCH   4   5
ENDBRANCH   3   4
BRANCH   3  19
HETATM   19  C   UNL     1     -11.294   9.092  70.593  1.00  0.00    -0.323 A  
HETATM   20  C   UNL     1     -11.204  10.348  69.969  1.00  0.00    -0.385 A  
HETATM   21  H   UNL     1     -14.156  12.175  72.710  1.00  0.00     0.000 HD 
HETATM   22  C   UNL     1     -12.167   8.939  71.688  1.00  0.00    -0.409 A  
HETATM   23  H   UNL     1     -12.436  13.376  70.175  1.00  0.00     0.000 HD 
HETATM   24  C   UNL     1     -11.970  11.410  70.434  1.00  0.00    -0.374 A  
HETATM   25  C   UNL     1     -12.935  10.010  72.149  1.00  0.00    -0.460 A  
HETATM   26  O   UNL     1     -11.912  12.650  69.858  1.00  0.00    -0.321 OA 
HETATM   27  C   UNL     1     -12.827  11.239  71.519  1.00  0.00    -0.414 A  
HETATM   28  O   UNL     1     -13.572  12.291  71.971  1.00  0.00    -0.400 OA 
ENDBRANCH   3  19
TORSDOF 8
ENDMDL
MODEL      296
REMARK 921   NORMALIZED FREE ENERGY PREDICTED BY IDOCK:   -3.42 KCAL/MOL
REMARK 922        TOTAL FREE ENERGY PREDICTED BY IDOCK:   -6.23 KCAL/MOL
REMARK 923 INTER-LIGAND FREE ENERGY PREDICTED BY IDOCK:   -5.57 KCAL/MOL
REMARK 924 INTRA-LIGAND FREE ENERGY PREDICTED BY IDOCK:   -0.65 KCAL/MOL
REMARK 927      BINDING AFFINITY PREDICTED BY RF-SCORE:    0.00 PKD
ROOT
HETATM    1  O   UNL     1     -10.043  11.958  68.399  1.00  0.00    -0.198 OA 
HETATM    2  H   UNL     1     -10.877  12.261  68.739  1.00  0.00     0.000 HD 
HETATM    3  C   UNL     1      -9.385  13.033  67.717  1.00  0.00    -0.199 C  
ENDROOT
BRANCH   3   4
HETATM    4  C   UNL     1      -8.028  12.539  67.162  1.00  0.00    -0.140 C  
BRANCH   4   5
HETATM    5  N   UNL     1      -8.201  11.464  66.160  1.00  0.00    -0.343 NA 
HETATM    6  H   UNL     1      -8.140  11.819  65.205  1.00  0.00     0.000 HD 
BRANCH   5   7
HETATM    7  C   UNL     1      -7.240  10.384  66.408  1.00  0.00    -0.119 C  
BRANCH   7   8
HETATM    8  C   UNL     1      -7.826   9.045  65.951  1.00  0.00    -0.102 C  
BRANCH   8   9
HETATM    9  C   UNL     1      -8.043   8.113  67.145  1.00  0.00    -0.116 C  
BRANCH   9  10
HETATM   10  C   UNL     1      -7.154   8.494  68.332  1.00  0.00    -0.084 C  
BRANCH  10  11
HETATM   11  C   UNL     1      -7.470   7.642  69.537  1.00  0.00    -0.092 A  
HETATM   12  C   UNL     1      -6.487   6.817  70.104  1.00  0.00    -0.040 A  
HETATM   13  C   UNL     1      -6.792   5.988  71.186  1.00  0.00    -0.066 A  
HETATM   14  C   UNL     1      -8.085   5.983  71.699  1.00  0.00    -0.118 A  
HETATM   15  O   UNL     1      -8.432   5.175  72.742  1.00  0.00    -0.112 OA 
HETATM   16  C   UNL     1      -9.070   6.798  71.157  1.00  0.00    -0.151 A  
HETATM   17  H   UNL     1      -9.314   5.171  73.092  1.00  0.00     0.000 HD 
HETATM   18  C   UNL     1      -8.764   7.626  70.076  1.00  0.00    -0.142 A  
ENDBRANCH  10  11
ENDBRANCH   9  10
ENDBRANCH   8   9
ENDBRANCH   7   8
ENDBRANCH   5   7
ENDBRANCH   4   5
ENDBRANCH   3   4
BRANCH   3  19
HETATM   19  C   UNL     1     -10.273  13.563  66.609  1.00  0.00    -0.275 A  
HETATM   20  C   UNL     1     -11.463  12.908  66.247  1.00  0.00    -0.395 A  
HETATM   21  H   UNL     1     -12.336  15.796  63.012  1.00  0.00     0.000 HD 
HETATM   22  C   UNL     1      -9.889  14.716  65.897  1.00  0.00    -0.358 A  
HETATM   23  H   UNL     1     -13.931  13.133  64.106  1.00  0.00     0.000 HD 
HETATM   24  C   UNL     1     -12.238  13.402  65.205  1.00  0.00    -0.434 A  
HETATM   25  C   UNL     1     -10.673  15.208  64.850  1.00  0.00    -0.421 A  
HETATM   26  O   UNL     1     -13.401  12.795  64.818  1.00  0.00    -0.736 OA 
HETATM   27  C   UNL     1     -11.841  14.544  64.511  1.00  0.00    -0.446 A  
HETATM   28  O   UNL     1     -12.606  15.018  63.485  1.00  0.00    -0.487 OA 
ENDBRANCH   3  19
TORSDOF 8
ENDMDL
MODEL      297
REMARK 921   NORMALIZED FREE ENERGY PREDICTED BY IDOCK:   -3.40 KCAL/MOL
REMARK 922        TOTAL FREE ENERGY PREDICTED BY IDOCK:   -6.19 KCAL/MOL
REMARK 923 INTER-LIGAND FREE ENERGY PREDICTED BY IDOCK:   -4.74 KCAL/MOL
REMARK 924 INTRA-LIGAND FREE ENERGY PREDICTED BY IDOCK:   -1.45 KCAL/MOL
REMARK 927      BINDING AFFINITY PREDICTED BY RF-SCORE:    0.00 PKD
ROOT
HETATM    1  O   UNL     1     -11.053   5.675  71.417  1.00  0.00    -0.239 OA 
HETATM    2  H   UNL     1     -11.166   4.823  71.011  1.00  0.00     0.000 HD 
HETATM    3  C   UNL     1     -11.464   6.699  70.503  1.00  0.00    -0.376 C  
ENDROOT
BRANCH   3   4
HETATM    4  C   UNL     1     -11.280   8.086  71.166  1.00  0.00    -0.261 C  
BRANCH   4   5
HETATM    5  N   UNL     1     -12.039   9.139  70.456  1.00  0.00    -0.476 NA 
HETATM    6  H   UNL     1     -12.789   9.523  71.031  1.00  0.00     0.000 HD 
BRANCH   5   7
HETATM    7  C   UNL     1     -11.125  10.183  69.977  1.00  0.00    -0.308 C  
BRANCH   7   8
HETATM    8  C   UNL     1     -11.654  10.786  68.673  1.00  0.00    -0.342 C  
BRANCH   8   9
HETATM    9  C   UNL     1     -10.953  10.160  67.465  1.00  0.00    -0.319 C  
BRANCH   9  10
HETATM   10  C   UNL     1     -10.133  11.192  66.687  1.00  0.00    -0.256 C  
BRANCH  10  11
HETATM   11  C   UNL     1      -8.902  11.597  67.461  1.00  0.00    -0.158 A  
HETATM   12  C   UNL     1      -8.659  12.946  67.757  1.00  0.00    -0.185 A  
HETATM   13  C   UNL     1      -7.494  13.329  68.426  1.00  0.00    -0.124 A  
HETATM   14  C   UNL     1      -6.569  12.358  68.796  1.00  0.00    -0.088 A  
HETATM   15  O   UNL     1      -5.410  12.689  69.434  1.00  0.00    -0.072 OA 
HETATM   16  C   UNL     1      -6.795  11.017  68.519  1.00  0.00    -0.064 A  
HETATM   17  H   UNL     1      -4.778  12.027  69.686  1.00  0.00     0.000 HD 
HETATM   18  C   UNL     1      -7.959  10.635  67.850  1.00  0.00    -0.106 A  
ENDBRANCH  10  11
ENDBRANCH   9  10
ENDBRANCH   8   9
ENDBRANCH   7   8
ENDBRANCH   5   7
ENDBRANCH   4   5
ENDBRANCH   3   4
BRANCH   3  19
HETATM   19  C   UNL     1     -10.671   6.593  69.217  1.00  0.00    -0.307 A  
HETATM   20  C   UNL     1      -9.266   6.541  69.224  1.00  0.00    -0.139 A  
HETATM   21  H   UNL     1      -9.022   6.401  64.809  1.00  0.00     0.000 HD 
HETATM   22  C   UNL     1     -11.344   6.581  67.980  1.00  0.00    -0.102 A  
HETATM   23  H   UNL     1      -6.724   6.383  67.165  1.00  0.00     0.000 HD 
HETATM   24  C   UNL     1      -8.568   6.477  68.024  1.00  0.00    -0.118 A  
HETATM   25  C   UNL     1     -10.636   6.515  66.777  1.00  0.00    -0.323 A  
HETATM   26  O   UNL     1      -7.202   6.427  67.985  1.00  0.00    -0.082 OA 
HETATM   27  C   UNL     1      -9.252   6.466  66.810  1.00  0.00    -0.142 A  
HETATM   28  O   UNL     1      -8.556   6.409  65.637  1.00  0.00    -0.150 OA 
ENDBRANCH   3  19
TORSDOF 8
ENDMDL
MODEL      298
REMARK 921   NORMALIZED FREE ENERGY PREDICTED BY IDOCK:   -3.39 KCAL/MOL
REMARK 922        TOTAL FREE ENERGY PREDICTED BY IDOCK:   -6.18 KCAL/MOL
REMARK 923 INTER-LIGAND FREE ENERGY PREDICTED BY IDOCK:   -4.97 KCAL/MOL
REMARK 924 INTRA-LIGAND FREE ENERGY PREDICTED BY IDOCK:   -1.21 KCAL/MOL
REMARK 927      BINDING AFFINITY PREDICTED BY RF-SCORE:    0.00 PKD
ROOT
HETATM    1  O   UNL     1      -9.701   4.270  68.422  1.00  0.00    -0.152 OA 
HETATM    2  H   UNL     1     -10.635   4.189  68.264  1.00  0.00     0.000 HD 
HETATM    3  C   UNL     1      -9.448   4.230  69.832  1.00  0.00    -0.189 C  
ENDROOT
BRANCH   3   4
HETATM    4  C   UNL     1      -7.927   4.363  70.088  1.00  0.00    -0.059 C  
BRANCH   4   5
HETATM    5  N   UNL     1      -7.316   5.408  69.238  1.00  0.00    -0.064 NA 
HETATM    6  H   UNL     1      -7.859   5.578  68.391  1.00  0.00     0.000 HD 
BRANCH   5   7
HETATM    7  C   UNL     1      -7.112   6.635  70.016  1.00  0.00    -0.071 C  
BRANCH   7   8
HETATM    8  C   UNL     1      -5.861   7.368  69.524  1.00  0.00    -0.023 C  
BRANCH   8   9
HETATM    9  C   UNL     1      -6.220   8.761  69.003  1.00  0.00    -0.044 C  
BRANCH   9  10
HETATM   10  C   UNL     1      -6.830   8.704  67.600  1.00  0.00    -0.071 C  
BRANCH  10  11
HETATM   11  C   UNL     1      -8.194   9.351  67.578  1.00  0.00    -0.117 A  
HETATM   12  C   UNL     1      -8.318  10.747  67.518  1.00  0.00    -0.115 A  
HETATM   13  C   UNL     1      -9.578  11.349  67.551  1.00  0.00    -0.176 A  
HETATM   14  C   UNL     1     -10.714  10.553  67.649  1.00  0.00    -0.275 A  
HETATM   15  O   UNL     1     -11.962  11.100  67.703  1.00  0.00    -0.613 OA 
HETATM   16  C   UNL     1     -10.612   9.170  67.701  1.00  0.00    -0.307 A  
HETATM   17  H   UNL     1     -12.738  10.557  67.770  1.00  0.00     0.000 HD 
HETATM   18  C   UNL     1      -9.352   8.568  67.668  1.00  0.00    -0.157 A  
ENDBRANCH  10  11
ENDBRANCH   9  10
ENDBRANCH   8   9
ENDBRANCH   7   8
ENDBRANCH   5   7
ENDBRANCH   4   5
ENDBRANCH   3   4
BRANCH   3  19
HETATM   19  C   UNL     1     -10.222   5.332  70.527  1.00  0.00    -0.334 A  
HETATM   20  C   UNL     1      -9.971   5.669  71.869  1.00  0.00    -0.223 A  
HETATM   21  H   UNL     1     -13.143   8.752  71.923  1.00  0.00     0.000 HD 
HETATM   22  C   UNL     1     -11.239   6.016  69.834  1.00  0.00    -0.438 A  
HETATM   23  H   UNL     1     -11.026   7.699  74.212  1.00  0.00     0.000 HD 
HETATM   24  C   UNL     1     -10.721   6.662  72.486  1.00  0.00    -0.229 A  
HETATM   25  C   UNL     1     -11.988   7.015  70.460  1.00  0.00    -0.315 A  
HETATM   26  O   UNL     1     -10.513   7.020  73.790  1.00  0.00    -0.364 OA 
HETATM   27  C   UNL     1     -11.724   7.327  71.784  1.00  0.00    -0.286 A  
HETATM   28  O   UNL     1     -12.460   8.298  72.402  1.00  0.00    -0.344 OA 
ENDBRANCH   3  19
TORSDOF 8
ENDMDL
MODEL      299
REMARK 921   NORMALIZED FREE ENERGY PREDICTED BY IDOCK:   -3.33 KCAL/MOL
REMARK 922        TOTAL FREE ENERGY PREDICTED BY IDOCK:   -6.08 KCAL/MOL
REMARK 923 INTER-LIGAND FREE ENERGY PREDICTED BY IDOCK:   -5.47 KCAL/MOL
REMARK 924 INTRA-LIGAND FREE ENERGY PREDICTED BY IDOCK:   -0.61 KCAL/MOL
REMARK 927      BINDING AFFINITY PREDICTED BY RF-SCORE:    0.00 PKD
ROOT
HETATM    1  O   UNL     1      -8.356   4.104  70.424  1.00  0.00    -0.064 OA 
HETATM    2  H   UNL     1      -7.812   3.450  69.999  1.00  0.00     0.000 HD 
HETATM    3  C   UNL     1      -9.598   4.224  69.718  1.00  0.00    -0.209 C  
ENDROOT
BRANCH   3   4
HETATM    4  C   UNL     1     -10.484   5.288  70.410  1.00  0.00    -0.251 C  
BRANCH   4   5
HETATM    5  N   UNL     1      -9.680   6.407  70.948  1.00  0.00    -0.176 NA 
HETATM    6  H   UNL     1      -9.250   6.960  70.206  1.00  0.00     0.000 HD 
BRANCH   5   7
HETATM    7  C   UNL     1     -10.499   7.232  71.844  1.00  0.00    -0.200 C  
BRANCH   7   8
HETATM    8  C   UNL     1     -10.387   8.707  71.449  1.00  0.00    -0.331 C  
BRANCH   8   9
HETATM    9  C   UNL     1     -11.611   9.144  70.641  1.00  0.00    -0.282 C  
BRANCH   9  10
HETATM   10  C   UNL     1     -11.671  10.665  70.479  1.00  0.00    -0.451 C  
BRANCH  10  11
HETATM   11  C   UNL     1     -11.455  11.063  69.039  1.00  0.00    -0.368 A  
HETATM   12  C   UNL     1     -11.864  12.324  68.580  1.00  0.00    -0.354 A  
HETATM   13  C   UNL     1     -11.714  12.674  67.236  1.00  0.00    -0.435 A  
HETATM   14  C   UNL     1     -11.157  11.758  66.350  1.00  0.00    -0.307 A  
HETATM   15  O   UNL     1     -11.009  12.051  65.026  1.00  0.00    -0.291 OA 
HETATM   16  C   UNL     1     -10.738  10.509  66.786  1.00  0.00    -0.252 A  
HETATM   17  H   UNL     1     -10.629  11.426  64.420  1.00  0.00     0.000 HD 
HETATM   18  C   UNL     1     -10.889  10.160  68.130  1.00  0.00    -0.310 A  
ENDBRANCH  10  11
ENDBRANCH   9  10
ENDBRANCH   8   9
ENDBRANCH   7   8
ENDBRANCH   5   7
ENDBRANCH   4   5
ENDBRANCH   3   4
BRANCH   3  19
HETATM   19  C   UNL     1      -9.337   4.583  68.269  1.00  0.00    -0.190 A  
HETATM   20  C   UNL     1      -9.148   5.916  67.867  1.00  0.00    -0.109 A  
HETATM   21  H   UNL     1      -8.715   4.807  63.606  1.00  0.00     0.000 HD 
HETATM   22  C   UNL     1      -9.314   3.569  67.292  1.00  0.00    -0.239 A  
HETATM   23  H   UNL     1      -8.617   7.700  65.172  1.00  0.00     0.000 HD 
HETATM   24  C   UNL     1      -8.943   6.213  66.525  1.00  0.00    -0.139 A  
HETATM   25  C   UNL     1      -9.106   3.874  65.945  1.00  0.00    -0.146 A  
HETATM   26  O   UNL     1      -8.758   7.497  66.089  1.00  0.00    -0.144 OA 
HETATM   27  C   UNL     1      -8.925   5.197  65.573  1.00  0.00    -0.155 A  
HETATM   28  O   UNL     1      -8.728   5.500  64.256  1.00  0.00    -0.070 OA 
ENDBRANCH   3  19
TORSDOF 8
ENDMDL
MODEL      300
REMARK 921   NORMALIZED FREE ENERGY PREDICTED BY IDOCK:   -3.31 KCAL/MOL
REMARK 922        TOTAL FREE ENERGY PREDICTED BY IDOCK:   -6.07 KCAL/MOL
REMARK 923 INTER-LIGAND FREE ENERGY PREDICTED BY IDOCK:   -4.89 KCAL/MOL
REMARK 924 INTRA-LIGAND FREE ENERGY PREDICTED BY IDOCK:   -1.18 KCAL/MOL
REMARK 927      BINDING AFFINITY PREDICTED BY RF-SCORE:    0.00 PKD
ROOT
HETATM    1  O   UNL     1      -7.537   3.101  69.919  1.00  0.00    -0.044 OA 
HETATM    2  H   UNL     1      -6.906   3.025  69.212  1.00  0.00     0.000 HD 
HETATM    3  C   UNL     1      -8.829   3.403  69.376  1.00  0.00    -0.097 C  
ENDROOT
BRANCH   3   4
HETATM    4  C   UNL     1      -9.856   3.527  70.527  1.00  0.00    -0.006 C  
BRANCH   4   5
HETATM    5  N   UNL     1      -9.350   4.379  71.626  1.00  0.00    -0.135 NA 
HETATM    6  H   UNL     1      -9.253   5.353  71.340  1.00  0.00     0.000 HD 
BRANCH   5   7
HETATM    7  C   UNL     1     -10.206   4.236  72.809  1.00  0.00    -0.167 C  
BRANCH   7   8
HETATM    8  C   UNL     1     -10.741   5.605  73.239  1.00  0.00    -0.304 C  
BRANCH   8   9
HETATM    9  C   UNL     1     -11.654   6.191  72.160  1.00  0.00    -0.369 C  
BRANCH   9  10
HETATM   10  C   UNL     1     -12.106   7.612  72.509  1.00  0.00    -0.204 C  
BRANCH  10  11
HETATM   11  C   UNL     1     -11.539   8.614  71.533  1.00  0.00    -0.368 A  
HETATM   12  C   UNL     1     -10.281   8.405  70.950  1.00  0.00    -0.234 A  
HETATM   13  C   UNL     1      -9.731   9.357  70.088  1.00  0.00    -0.274 A  
HETATM   14  C   UNL     1     -10.441  10.521  69.812  1.00  0.00    -0.200 A  
HETATM   15  O   UNL     1      -9.934  11.485  68.991  1.00  0.00    -0.371 OA 
HETATM   16  C   UNL     1     -11.692  10.741  70.373  1.00  0.00    -0.445 A  
HETATM   17  H   UNL     1     -10.419  12.279  68.804  1.00  0.00     0.000 HD 
HETATM   18  C   UNL     1     -12.240   9.790  71.235  1.00  0.00    -0.465 A  
ENDBRANCH  10  11
ENDBRANCH   9  10
ENDBRANCH   8   9
ENDBRANCH   7   8
ENDBRANCH   5   7
ENDBRANCH   4   5
ENDBRANCH   3   4
BRANCH   3  19
HETATM   19  C   UNL     1      -8.761   4.677  68.558  1.00  0.00    -0.113 A  
HETATM   20  C   UNL     1      -9.926   5.369  68.183  1.00  0.00    -0.207 A  
HETATM   21  H   UNL     1      -7.654   8.430  65.938  1.00  0.00     0.000 HD 
HETATM   22  C   UNL     1      -7.512   5.166  68.129  1.00  0.00    -0.076 A  
HETATM   23  H   UNL     1     -10.871   8.005  66.484  1.00  0.00     0.000 HD 
HETATM   24  C   UNL     1      -9.830   6.517  67.405  1.00  0.00    -0.133 A  
HETATM   25  C   UNL     1      -7.423   6.321  67.348  1.00  0.00    -0.085 A  
HETATM   26  O   UNL     1     -10.937   7.220  67.016  1.00  0.00    -0.358 OA 
HETATM   27  C   UNL     1      -8.585   6.985  66.990  1.00  0.00    -0.122 A  
HETATM   28  O   UNL     1      -8.503   8.111  66.221  1.00  0.00    -0.118 OA 
ENDBRANCH   3  19
TORSDOF 8
ENDMDL
MODEL      301
REMARK 921   NORMALIZED FREE ENERGY PREDICTED BY IDOCK:   -3.31 KCAL/MOL
REMARK 922        TOTAL FREE ENERGY PREDICTED BY IDOCK:   -6.07 KCAL/MOL
REMARK 923 INTER-LIGAND FREE ENERGY PREDICTED BY IDOCK:   -4.99 KCAL/MOL
REMARK 924 INTRA-LIGAND FREE ENERGY PREDICTED BY IDOCK:   -1.08 KCAL/MOL
REMARK 927      BINDING AFFINITY PREDICTED BY RF-SCORE:    0.00 PKD
ROOT
HETATM    1  O   UNL     1      -7.096   9.996  70.712  1.00  0.00    -0.324 OA 
HETATM    2  H   UNL     1      -6.920   9.891  71.641  1.00  0.00     0.000 HD 
HETATM    3  C   UNL     1      -8.178   9.137  70.331  1.00  0.00    -0.171 C  
ENDROOT
BRANCH   3   4
HETATM    4  C   UNL     1      -8.465   9.307  68.820  1.00  0.00    -0.129 C  
BRANCH   4   5
HETATM    5  N   UNL     1      -9.900   9.555  68.556  1.00  0.00    -0.155 NA 
HETATM    6  H   UNL     1     -10.474   9.388  69.383  1.00  0.00     0.000 HD 
BRANCH   5   7
HETATM    7  C   UNL     1     -10.088  10.908  68.021  1.00  0.00    -0.177 C  
BRANCH   7   8
HETATM    8  C   UNL     1     -11.448  11.460  68.456  1.00  0.00    -0.361 C  
BRANCH   8   9
HETATM    9  C   UNL     1     -11.433  11.824  69.942  1.00  0.00    -0.285 C  
BRANCH   9  10
HETATM   10  C   UNL     1     -12.779  11.534  70.612  1.00  0.00    -0.259 C  
BRANCH  10  11
HETATM   11  C   UNL     1     -12.826  10.120  71.136  1.00  0.00    -0.494 A  
HETATM   12  C   UNL     1     -11.674   9.515  71.660  1.00  0.00    -0.460 A  
HETATM   13  C   UNL     1     -11.703   8.189  72.096  1.00  0.00    -0.418 A  
HETATM   14  C   UNL     1     -12.888   7.465  72.005  1.00  0.00    -0.186 A  
HETATM   15  O   UNL     1     -12.956   6.162  72.401  1.00  0.00    -0.497 OA 
HETATM   16  C   UNL     1     -14.041   8.048  71.497  1.00  0.00    -0.475 A  
HETATM   17  H   UNL     1     -13.764   5.668  72.338  1.00  0.00     0.000 HD 
HETATM   18  C   UNL     1     -14.010   9.374  71.060  1.00  0.00     0.063 A  
ENDBRANCH  10  11
ENDBRANCH   9  10
ENDBRANCH   8   9
ENDBRANCH   7   8
ENDBRANCH   5   7
ENDBRANCH   4   5
ENDBRANCH   3   4
BRANCH   3  19
HETATM   19  C   UNL     1      -7.840   7.699  70.669  1.00  0.00    -0.097 A  
HETATM   20  C   UNL     1      -8.786   6.843  71.260  1.00  0.00    -0.135 A  
HETATM   21  H   UNL     1      -5.929   3.474  71.493  1.00  0.00     0.000 HD 
HETATM   22  C   UNL     1      -6.543   7.209  70.421  1.00  0.00    -0.047 A  
HETATM   23  H   UNL     1      -9.081   3.783  72.388  1.00  0.00     0.000 HD 
HETATM   24  C   UNL     1      -8.434   5.539  71.586  1.00  0.00    -0.131 A  
HETATM   25  C   UNL     1      -6.196   5.897  70.752  1.00  0.00    -0.034 A  
HETATM   26  O   UNL     1      -9.321   4.674  72.165  1.00  0.00    -0.131 OA 
HETATM   27  C   UNL     1      -7.145   5.073  71.335  1.00  0.00    -0.057 A  
HETATM   28  O   UNL     1      -6.807   3.792  71.665  1.00  0.00    -0.025 OA 
ENDBRANCH   3  19
TORSDOF 8
ENDMDL
MODEL      302
REMARK 921   NORMALIZED FREE ENERGY PREDICTED BY IDOCK:   -3.31 KCAL/MOL
REMARK 922        TOTAL FREE ENERGY PREDICTED BY IDOCK:   -6.06 KCAL/MOL
REMARK 923 INTER-LIGAND FREE ENERGY PREDICTED BY IDOCK:   -5.29 KCAL/MOL
REMARK 924 INTRA-LIGAND FREE ENERGY PREDICTED BY IDOCK:   -0.77 KCAL/MOL
REMARK 927      BINDING AFFINITY PREDICTED BY RF-SCORE:    0.00 PKD
ROOT
HETATM    1  O   UNL     1     -12.026   7.916  70.204  1.00  0.00    -0.457 OA 
HETATM    2  H   UNL     1     -12.395   8.041  71.071  1.00  0.00     0.000 HD 
HETATM    3  C   UNL     1     -11.337   6.660  70.153  1.00  0.00    -0.382 C  
ENDROOT
BRANCH   3   4
HETATM    4  C   UNL     1     -10.736   6.457  68.742  1.00  0.00    -0.287 C  
BRANCH   4   5
HETATM    5  N   UNL     1     -10.092   7.690  68.236  1.00  0.00    -0.180 NA 
HETATM    6  H   UNL     1      -9.075   7.642  68.297  1.00  0.00     0.000 HD 
BRANCH   5   7
HETATM    7  C   UNL     1     -10.548   7.972  66.870  1.00  0.00    -0.254 C  
BRANCH   7   8
HETATM    8  C   UNL     1     -10.613   9.485  66.640  1.00  0.00    -0.174 C  
BRANCH   8   9
HETATM    9  C   UNL     1     -10.352  10.241  67.944  1.00  0.00    -0.234 C  
BRANCH   9  10
HETATM   10  C   UNL     1      -9.184  11.222  67.809  1.00  0.00    -0.156 C  
BRANCH  10  11
HETATM   11  C   UNL     1      -9.669  12.650  67.871  1.00  0.00    -0.216 A  
HETATM   12  C   UNL     1      -8.802  13.679  68.268  1.00  0.00    -0.179 A  
HETATM   13  C   UNL     1      -9.263  14.993  68.378  1.00  0.00    -0.193 A  
HETATM   14  C   UNL     1     -10.596  15.276  68.094  1.00  0.00    -0.254 A  
HETATM   15  O   UNL     1     -11.092  16.541  68.206  1.00  0.00    -0.355 OA 
HETATM   16  C   UNL     1     -11.467  14.273  67.692  1.00  0.00    -0.370 A  
HETATM   17  H   UNL     1     -12.002  16.735  68.013  1.00  0.00     0.000 HD 
HETATM   18  C   UNL     1     -11.005  12.959  67.583  1.00  0.00    -0.274 A  
ENDBRANCH  10  11
ENDBRANCH   9  10
ENDBRANCH   8   9
ENDBRANCH   7   8
ENDBRANCH   5   7
ENDBRANCH   4   5
ENDBRANCH   3   4
BRANCH   3  19
HETATM   19  C   UNL     1     -10.263   6.616  71.221  1.00  0.00    -0.222 A  
HETATM   20  C   UNL     1      -9.537   5.441  71.481  1.00  0.00    -0.195 A  
HETATM   21  H   UNL     1      -7.235   7.320  74.759  1.00  0.00     0.000 HD 
HETATM   22  C   UNL     1     -10.003   7.761  71.999  1.00  0.00    -0.231 A  
HETATM   23  H   UNL     1      -7.199   4.294  73.467  1.00  0.00     0.000 HD 
HETATM   24  C   UNL     1      -8.580   5.426  72.489  1.00  0.00    -0.118 A  
HETATM   25  C   UNL     1      -9.041   7.739  73.010  1.00  0.00    -0.269 A  
HETATM   26  O   UNL     1      -7.852   4.304  72.778  1.00  0.00    -0.079 OA 
HETATM   27  C   UNL     1      -8.338   6.569  73.249  1.00  0.00    -0.116 A  
HETATM   28  O   UNL     1      -7.401   6.541  74.241  1.00  0.00    -0.095 OA 
ENDBRANCH   3  19
TORSDOF 8
ENDMDL
MODEL      303
REMARK 921   NORMALIZED FREE ENERGY PREDICTED BY IDOCK:   -3.31 KCAL/MOL
REMARK 922        TOTAL FREE ENERGY PREDICTED BY IDOCK:   -6.06 KCAL/MOL
REMARK 923 INTER-LIGAND FREE ENERGY PREDICTED BY IDOCK:   -5.30 KCAL/MOL
REMARK 924 INTRA-LIGAND FREE ENERGY PREDICTED BY IDOCK:   -0.75 KCAL/MOL
REMARK 927      BINDING AFFINITY PREDICTED BY RF-SCORE:    0.00 PKD
ROOT
HETATM    1  O   UNL     1      -8.369  10.880  69.390  1.00  0.00    -0.356 OA 
HETATM    2  H   UNL     1      -7.873  11.507  68.876  1.00  0.00     0.000 HD 
HETATM    3  C   UNL     1      -7.576   9.706  69.607  1.00  0.00    -0.114 C  
ENDROOT
BRANCH   3   4
HETATM    4  C   UNL     1      -8.384   8.685  70.444  1.00  0.00    -0.130 C  
BRANCH   4   5
HETATM    5  N   UNL     1      -8.365   9.018  71.886  1.00  0.00    -0.348 NA 
HETATM    6  H   UNL     1      -8.432  10.023  72.047  1.00  0.00     0.000 HD 
BRANCH   5   7
HETATM    7  C   UNL     1      -9.419   8.277  72.588  1.00  0.00    -0.284 C  
BRANCH   7   8
HETATM    8  C   UNL     1     -10.678   8.207  71.721  1.00  0.00    -0.313 C  
BRANCH   8   9
HETATM    9  C   UNL     1     -11.436   9.535  71.758  1.00  0.00    -0.349 C  
BRANCH   9  10
HETATM   10  C   UNL     1     -12.326   9.718  70.526  1.00  0.00    -0.173 C  
BRANCH  10  11
HETATM   11  C   UNL     1     -12.229  11.127  69.994  1.00  0.00    -0.402 A  
HETATM   12  C   UNL     1     -11.884  11.359  68.654  1.00  0.00    -0.377 A  
HETATM   13  C   UNL     1     -11.741  12.663  68.174  1.00  0.00    -0.396 A  
HETATM   14  C   UNL     1     -11.940  13.736  69.037  1.00  0.00    -0.360 A  
HETATM   15  O   UNL     1     -11.792  15.024  68.615  1.00  0.00    -0.399 OA 
HETATM   16  C   UNL     1     -12.289  13.526  70.364  1.00  0.00    -0.397 A  
HETATM   17  H   UNL     1     -11.927  15.756  69.204  1.00  0.00     0.000 HD 
HETATM   18  C   UNL     1     -12.431  12.222  70.844  1.00  0.00    -0.371 A  
ENDBRANCH  10  11
ENDBRANCH   9  10
ENDBRANCH   8   9
ENDBRANCH   7   8
ENDBRANCH   5   7
ENDBRANCH   4   5
ENDBRANCH   3   4
BRANCH   3  19
HETATM   19  C   UNL     1      -7.151   9.115  68.278  1.00  0.00    -0.077 A  
HETATM   20  C   UNL     1      -7.423   7.776  67.951  1.00  0.00    -0.104 A  
HETATM   21  H   UNL     1      -5.380   8.079  64.039  1.00  0.00     0.000 HD 
HETATM   22  C   UNL     1      -6.438   9.908  67.358  1.00  0.00    -0.068 A  
HETATM   23  H   UNL     1      -6.937   5.603  65.549  1.00  0.00     0.000 HD 
HETATM   24  C   UNL     1      -6.991   7.256  66.737  1.00  0.00    -0.074 A  
HETATM   25  C   UNL     1      -6.007   9.379  66.138  1.00  0.00    -0.059 A  
HETATM   26  O   UNL     1      -7.231   5.958  66.379  1.00  0.00    -0.073 OA 
HETATM   27  C   UNL     1      -6.286   8.055  65.840  1.00  0.00    -0.042 A  
HETATM   28  O   UNL     1      -5.860   7.534  64.651  1.00  0.00    -0.037 OA 
ENDBRANCH   3  19
TORSDOF 8
ENDMDL
MODEL      304
REMARK 921   NORMALIZED FREE ENERGY PREDICTED BY IDOCK:   -3.29 KCAL/MOL
REMARK 922        TOTAL FREE ENERGY PREDICTED BY IDOCK:   -6.03 KCAL/MOL
REMARK 923 INTER-LIGAND FREE ENERGY PREDICTED BY IDOCK:   -5.41 KCAL/MOL
REMARK 924 INTRA-LIGAND FREE ENERGY PREDICTED BY IDOCK:   -0.62 KCAL/MOL
REMARK 927      BINDING AFFINITY PREDICTED BY RF-SCORE:    0.00 PKD
ROOT
HETATM    1  O   UNL     1      -7.600   9.401  70.537  1.00  0.00    -0.122 OA 
HETATM    2  H   UNL     1      -7.460   9.250  71.465  1.00  0.00     0.000 HD 
HETATM    3  C   UNL     1      -8.946   9.050  70.191  1.00  0.00    -0.184 C  
ENDROOT
BRANCH   3   4
HETATM    4  C   UNL     1      -9.172   9.295  68.680  1.00  0.00    -0.135 C  
BRANCH   4   5
HETATM    5  N   UNL     1     -10.412  10.061  68.427  1.00  0.00    -0.194 NA 
HETATM    6  H   UNL     1     -11.229   9.612  68.842  1.00  0.00     0.000 HD 
BRANCH   5   7
HETATM    7  C   UNL     1     -10.253  11.445  68.887  1.00  0.00    -0.168 C  
BRANCH   7   8
HETATM    8  C   UNL     1     -11.506  11.895  69.643  1.00  0.00    -0.337 C  
BRANCH   8   9
HETATM    9  C   UNL     1     -12.152  13.097  68.950  1.00  0.00    -0.232 C  
BRANCH   9  10
HETATM   10  C   UNL     1     -11.764  14.417  69.623  1.00  0.00    -0.362 C  
BRANCH  10  11
HETATM   11  C   UNL     1     -11.041  15.323  68.657  1.00  0.00    -0.282 A  
HETATM   12  C   UNL     1     -10.227  16.363  69.130  1.00  0.00    -0.280 A  
HETATM   13  C   UNL     1      -9.601  17.236  68.238  1.00  0.00    -0.288 A  
HETATM   14  C   UNL     1      -9.792  17.070  66.870  1.00  0.00    -0.271 A  
HETATM   15  O   UNL     1      -9.215  17.911  65.964  1.00  0.00    -0.509 OA 
HETATM   16  C   UNL     1     -10.588  16.042  66.382  1.00  0.00    -0.284 A  
HETATM   17  H   UNL     1      -9.346  17.797  65.031  1.00  0.00     0.000 HD 
HETATM   18  C   UNL     1     -11.214  15.170  67.275  1.00  0.00    -0.324 A  
ENDBRANCH  10  11
ENDBRANCH   9  10
ENDBRANCH   8   9
ENDBRANCH   7   8
ENDBRANCH   5   7
ENDBRANCH   4   5
ENDBRANCH   3   4
BRANCH   3  19
HETATM   19  C   UNL     1      -9.214   7.605  70.561  1.00  0.00    -0.159 A  
HETATM   20  C   UNL     1      -8.355   6.896  71.419  1.00  0.00    -0.115 A  
HETATM   21  H   UNL     1     -10.711   3.169  71.071  1.00  0.00     0.000 HD 
HETATM   22  C   UNL     1     -10.326   6.938  70.011  1.00  0.00    -0.219 A  
HETATM   23  H   UNL     1      -7.978   3.924  72.741  1.00  0.00     0.000 HD 
HETATM   24  C   UNL     1      -8.612   5.562  71.712  1.00  0.00    -0.135 A  
HETATM   25  C   UNL     1     -10.579   5.597  70.311  1.00  0.00    -0.370 A  
HETATM   26  O   UNL     1      -7.802   4.835  72.540  1.00  0.00    -0.089 OA 
HETATM   27  C   UNL     1      -9.717   4.920  71.158  1.00  0.00    -0.179 A  
HETATM   28  O   UNL     1      -9.958   3.607  71.448  1.00  0.00    -0.171 OA 
ENDBRANCH   3  19
TORSDOF 8
ENDMDL
MODEL      305
REMARK 921   NORMALIZED FREE ENERGY PREDICTED BY IDOCK:   -3.25 KCAL/MOL
REMARK 922        TOTAL FREE ENERGY PREDICTED BY IDOCK:   -5.97 KCAL/MOL
REMARK 923 INTER-LIGAND FREE ENERGY PREDICTED BY IDOCK:   -5.42 KCAL/MOL
REMARK 924 INTRA-LIGAND FREE ENERGY PREDICTED BY IDOCK:   -0.56 KCAL/MOL
REMARK 927      BINDING AFFINITY PREDICTED BY RF-SCORE:    0.00 PKD
ROOT
HETATM    1  O   UNL     1      -6.195   7.149  70.892  1.00  0.00    -0.035 OA 
HETATM    2  H   UNL     1      -5.947   6.761  71.724  1.00  0.00     0.000 HD 
HETATM    3  C   UNL     1      -7.512   7.705  70.996  1.00  0.00    -0.075 C  
ENDROOT
BRANCH   3   4
HETATM    4  C   UNL     1      -7.914   8.337  69.642  1.00  0.00    -0.111 C  
BRANCH   4   5
HETATM    5  N   UNL     1      -8.723   9.562  69.826  1.00  0.00    -0.176 NA 
HETATM    6  H   UNL     1      -8.187  10.312  70.262  1.00  0.00     0.000 HD 
BRANCH   5   7
HETATM    7  C   UNL     1      -9.308   9.976  68.545  1.00  0.00    -0.145 C  
BRANCH   7   8
HETATM    8  C   UNL     1      -9.244  11.499  68.407  1.00  0.00    -0.190 C  
BRANCH   8   9
HETATM    9  C   UNL     1     -10.583  12.133  68.790  1.00  0.00    -0.230 C  
BRANCH   9  10
HETATM   10  C   UNL     1     -10.701  13.569  68.272  1.00  0.00    -0.271 C  
BRANCH  10  11
HETATM   11  C   UNL     1     -11.101  13.586  66.817  1.00  0.00    -0.311 A  
HETATM   12  C   UNL     1     -10.407  14.386  65.897  1.00  0.00    -0.327 A  
HETATM   13  C   UNL     1     -10.809  14.445  64.561  1.00  0.00    -0.271 A  
HETATM   14  C   UNL     1     -11.911  13.704  64.146  1.00  0.00    -0.422 A  
HETATM   15  O   UNL     1     -12.349  13.746  62.855  1.00  0.00    -1.008 OA 
HETATM   16  C   UNL     1     -12.606  12.900  65.039  1.00  0.00    -0.538 A  
HETATM   17  H   UNL     1     -13.101  13.240  62.571  1.00  0.00     0.000 HD 
HETATM   18  C   UNL     1     -12.203  12.842  66.375  1.00  0.00    -0.301 A  
ENDBRANCH  10  11
ENDBRANCH   9  10
ENDBRANCH   8   9
ENDBRANCH   7   8
ENDBRANCH   5   7
ENDBRANCH   4   5
ENDBRANCH   3   4
BRANCH   3  19
HETATM   19  C   UNL     1      -8.495   6.631  71.417  1.00  0.00    -0.124 A  
HETATM   20  C   UNL     1      -8.628   6.246  72.762  1.00  0.00    -0.122 A  
HETATM   21  H   UNL     1     -11.659   3.166  71.817  1.00  0.00     0.000 HD 
HETATM   22  C   UNL     1      -9.272   5.975  70.443  1.00  0.00    -0.167 A  
HETATM   23  H   UNL     1     -10.283   4.137  74.643  1.00  0.00     0.000 HD 
HETATM   24  C   UNL     1      -9.516   5.236  73.110  1.00  0.00    -0.142 A  
HETATM   25  C   UNL     1     -10.163   4.960  70.799  1.00  0.00    -0.276 A  
HETATM   26  O   UNL     1      -9.675   4.828  74.406  1.00  0.00    -0.126 OA 
HETATM   27  C   UNL     1     -10.275   4.597  72.132  1.00  0.00    -0.193 A  
HETATM   28  O   UNL     1     -11.141   3.601  72.483  1.00  0.00     0.144 OA 
ENDBRANCH   3  19
TORSDOF 8
ENDMDL
MODEL      306
REMARK 921   NORMALIZED FREE ENERGY PREDICTED BY IDOCK:   -3.24 KCAL/MOL
REMARK 922        TOTAL FREE ENERGY PREDICTED BY IDOCK:   -5.96 KCAL/MOL
REMARK 923 INTER-LIGAND FREE ENERGY PREDICTED BY IDOCK:   -5.44 KCAL/MOL
REMARK 924 INTRA-LIGAND FREE ENERGY PREDICTED BY IDOCK:   -0.51 KCAL/MOL
REMARK 927      BINDING AFFINITY PREDICTED BY RF-SCORE:    0.00 PKD
ROOT
HETATM    1  O   UNL     1     -10.318  16.100  66.676  1.00  0.00    -0.285 OA 
HETATM    2  H   UNL     1     -10.767  16.929  66.559  1.00  0.00     0.000 HD 
HETATM    3  C   UNL     1      -9.396  16.205  67.769  1.00  0.00    -0.211 C  
ENDROOT
BRANCH   3   4
HETATM    4  C   UNL     1      -8.665  14.855  67.960  1.00  0.00    -0.165 C  
BRANCH   4   5
HETATM    5  N   UNL     1      -8.298  14.240  66.664  1.00  0.00    -0.388 NA 
HETATM    6  H   UNL     1      -7.293  14.279  66.494  1.00  0.00     0.000 HD 
BRANCH   5   7
HETATM    7  C   UNL     1      -8.815  12.869  66.592  1.00  0.00    -0.091 C  
BRANCH   7   8
HETATM    8  C   UNL     1     -10.346  12.883  66.617  1.00  0.00    -0.258 C  
BRANCH   8   9
HETATM    9  C   UNL     1     -10.874  12.103  67.822  1.00  0.00    -0.263 C  
BRANCH   9  10
HETATM   10  C   UNL     1      -9.754  11.358  68.553  1.00  0.00    -0.199 C  
BRANCH  10  11
HETATM   11  C   UNL     1      -9.960   9.865  68.475  1.00  0.00    -0.175 A  
HETATM   12  C   UNL     1     -10.439   9.154  69.586  1.00  0.00    -0.230 A  
HETATM   13  C   UNL     1     -10.579   7.765  69.533  1.00  0.00    -0.221 A  
HETATM   14  C   UNL     1     -10.235   7.087  68.368  1.00  0.00    -0.179 A  
HETATM   15  O   UNL     1     -10.338   5.730  68.279  1.00  0.00    -0.177 OA 
HETATM   16  C   UNL     1      -9.767   7.774  67.256  1.00  0.00    -0.224 A  
HETATM   17  H   UNL     1     -10.103   5.267  67.484  1.00  0.00     0.000 HD 
HETATM   18  C   UNL     1      -9.627   9.162  67.310  1.00  0.00    -0.200 A  
ENDBRANCH  10  11
ENDBRANCH   9  10
ENDBRANCH   8   9
ENDBRANCH   7   8
ENDBRANCH   5   7
ENDBRANCH   4   5
ENDBRANCH   3   4
BRANCH   3  19
HETATM   19  C   UNL     1      -8.416  17.331  67.512  1.00  0.00    -0.210 A  
HETATM   20  C   UNL     1      -8.021  17.675  66.207  1.00  0.00    -0.292 A  
HETATM   21  H   UNL     1      -5.267  20.831  67.629  1.00  0.00     0.000 HD 
HETATM   22  C   UNL     1      -7.855  18.032  68.598  1.00  0.00    -0.298 A  
HETATM   23  H   UNL     1      -6.049  19.753  64.620  1.00  0.00     0.000 HD 
HETATM   24  C   UNL     1      -7.095  18.692  66.008  1.00  0.00    -0.267 A  
HETATM   25  C   UNL     1      -6.926  19.053  68.390  1.00  0.00    -0.290 A  
HETATM   26  O   UNL     1      -6.681  19.058  64.757  1.00  0.00    -0.453 OA 
HETATM   27  C   UNL     1      -6.551  19.373  67.095  1.00  0.00    -0.195 A  
HETATM   28  O   UNL     1      -5.638  20.367  66.888  1.00  0.00    -0.170 OA 
ENDBRANCH   3  19
TORSDOF 8
ENDMDL
MODEL      307
REMARK 921   NORMALIZED FREE ENERGY PREDICTED BY IDOCK:   -3.22 KCAL/MOL
REMARK 922        TOTAL FREE ENERGY PREDICTED BY IDOCK:   -5.93 KCAL/MOL
REMARK 923 INTER-LIGAND FREE ENERGY PREDICTED BY IDOCK:   -5.08 KCAL/MOL
REMARK 924 INTRA-LIGAND FREE ENERGY PREDICTED BY IDOCK:   -0.85 KCAL/MOL
REMARK 927      BINDING AFFINITY PREDICTED BY RF-SCORE:    0.00 PKD
ROOT
HETATM    1  O   UNL     1      -9.482   4.305  68.875  1.00  0.00    -0.147 OA 
HETATM    2  H   UNL     1     -10.087   3.859  69.457  1.00  0.00     0.000 HD 
HETATM    3  C   UNL     1      -8.629   5.167  69.640  1.00  0.00    -0.092 C  
ENDROOT
BRANCH   3   4
HETATM    4  C   UNL     1      -7.644   5.892  68.692  1.00  0.00    -0.090 C  
BRANCH   4   5
HETATM    5  N   UNL     1      -8.250   7.100  68.089  1.00  0.00    -0.123 NA 
HETATM    6  H   UNL     1      -7.764   7.952  68.369  1.00  0.00     0.000 HD 
BRANCH   5   7
HETATM    7  C   UNL     1      -8.313   6.957  66.630  1.00  0.00    -0.118 C  
BRANCH   7   8
HETATM    8  C   UNL     1      -9.395   7.878  66.058  1.00  0.00    -0.129 C  
BRANCH   8   9
HETATM    9  C   UNL     1      -9.607   9.091  66.966  1.00  0.00    -0.231 C  
BRANCH   9  10
HETATM   10  C   UNL     1     -10.400  10.196  66.263  1.00  0.00    -0.245 C  
BRANCH  10  11
HETATM   11  C   UNL     1     -10.485  11.432  67.125  1.00  0.00    -0.259 A  
HETATM   12  C   UNL     1      -9.677  12.546  66.853  1.00  0.00    -0.232 A  
HETATM   13  C   UNL     1      -9.715  13.670  67.681  1.00  0.00    -0.228 A  
HETATM   14  C   UNL     1     -10.561  13.677  68.786  1.00  0.00    -0.231 A  
HETATM   15  O   UNL     1     -10.615  14.745  69.632  1.00  0.00    -0.331 OA 
HETATM   16  C   UNL     1     -11.373  12.587  69.067  1.00  0.00    -0.342 A  
HETATM   17  H   UNL     1     -11.192  14.750  70.386  1.00  0.00     0.000 HD 
HETATM   18  C   UNL     1     -11.334  11.463  68.239  1.00  0.00    -0.354 A  
ENDBRANCH  10  11
ENDBRANCH   9  10
ENDBRANCH   8   9
ENDBRANCH   7   8
ENDBRANCH   5   7
ENDBRANCH   4   5
ENDBRANCH   3   4
BRANCH   3  19
HETATM   19  C   UNL     1      -9.465   6.156  70.427  1.00  0.00    -0.179 A  
HETATM   20  C   UNL     1      -8.973   6.766  71.594  1.00  0.00    -0.136 A  
HETATM   21  H   UNL     1     -12.741   8.971  72.303  1.00  0.00     0.000 HD 
HETATM   22  C   UNL     1     -10.778   6.450  70.009  1.00  0.00    -0.316 A  
HETATM   23  H   UNL     1      -9.890   8.857  73.941  1.00  0.00     0.000 HD 
HETATM   24  C   UNL     1      -9.778   7.644  72.310  1.00  0.00    -0.174 A  
HETATM   25  C   UNL     1     -11.581   7.334  70.733  1.00  0.00    -0.334 A  
HETATM   26  O   UNL     1      -9.340   8.257  73.452  1.00  0.00    -0.236 OA 
HETATM   27  C   UNL     1     -11.073   7.922  71.881  1.00  0.00    -0.267 A  
HETATM   28  O   UNL     1     -11.858   8.781  72.596  1.00  0.00    -0.284 OA 
ENDBRANCH   3  19
TORSDOF 8
ENDMDL
MODEL      308
REMARK 921   NORMALIZED FREE ENERGY PREDICTED BY IDOCK:   -3.22 KCAL/MOL
REMARK 922        TOTAL FREE ENERGY PREDICTED BY IDOCK:   -5.93 KCAL/MOL
REMARK 923 INTER-LIGAND FREE ENERGY PREDICTED BY IDOCK:   -4.65 KCAL/MOL
REMARK 924 INTRA-LIGAND FREE ENERGY PREDICTED BY IDOCK:   -1.28 KCAL/MOL
REMARK 927      BINDING AFFINITY PREDICTED BY RF-SCORE:    0.00 PKD
ROOT
HETATM    1  O   UNL     1     -10.779  10.845  70.054  1.00  0.00    -0.455 OA 
HETATM    2  H   UNL     1     -10.431  11.679  69.759  1.00  0.00     0.000 HD 
HETATM    3  C   UNL     1      -9.705   9.911  70.224  1.00  0.00    -0.154 C  
ENDROOT
BRANCH   3   4
HETATM    4  C   UNL     1     -10.272   8.554  70.705  1.00  0.00    -0.197 C  
BRANCH   4   5
HETATM    5  N   UNL     1      -9.351   7.874  71.642  1.00  0.00    -0.143 NA 
HETATM    6  H   UNL     1      -8.570   8.472  71.912  1.00  0.00     0.000 HD 
BRANCH   5   7
HETATM    7  C   UNL     1     -10.091   7.378  72.807  1.00  0.00    -0.224 C  
BRANCH   7   8
HETATM    8  C   UNL     1      -9.805   5.888  73.017  1.00  0.00    -0.178 C  
BRANCH   8   9
HETATM    9  C   UNL     1     -10.710   5.034  72.127  1.00  0.00    -0.227 C  
BRANCH   9  10
HETATM   10  C   UNL     1      -9.899   4.127  71.197  1.00  0.00    -0.244 C  
BRANCH  10  11
HETATM   11  C   UNL     1      -9.986   4.604  69.768  1.00  0.00    -0.295 A  
HETATM   12  C   UNL     1     -10.910   5.594  69.402  1.00  0.00    -0.334 A  
HETATM   13  C   UNL     1     -11.029   5.998  68.071  1.00  0.00    -0.340 A  
HETATM   14  C   UNL     1     -10.222   5.408  67.102  1.00  0.00    -0.224 A  
HETATM   15  O   UNL     1     -10.318   5.759  65.788  1.00  0.00    -0.399 OA 
HETATM   16  C   UNL     1      -9.296   4.433  67.446  1.00  0.00    -0.178 A  
HETATM   17  H   UNL     1      -9.768   5.357  65.127  1.00  0.00     0.000 HD 
HETATM   18  C   UNL     1      -9.178   4.029  68.777  1.00  0.00    -0.211 A  
ENDBRANCH  10  11
ENDBRANCH   9  10
ENDBRANCH   8   9
ENDBRANCH   7   8
ENDBRANCH   5   7
ENDBRANCH   4   5
ENDBRANCH   3   4
BRANCH   3  19
HETATM   19  C   UNL     1      -8.942   9.759  68.924  1.00  0.00    -0.144 A  
HETATM   20  C   UNL     1      -9.486   9.061  67.832  1.00  0.00    -0.159 A  
HETATM   21  H   UNL     1      -5.868   9.661  65.357  1.00  0.00     0.000 HD 
HETATM   22  C   UNL     1      -7.644  10.296  68.809  1.00  0.00    -0.093 A  
HETATM   23  H   UNL     1      -8.729   8.139  64.782  1.00  0.00     0.000 HD 
HETATM   24  C   UNL     1      -8.745   8.914  66.665  1.00  0.00    -0.127 A  
HETATM   25  C   UNL     1      -6.906  10.144  67.633  1.00  0.00    -0.076 A  
HETATM   26  O   UNL     1      -9.235   8.240  65.579  1.00  0.00    -0.083 OA 
HETATM   27  C   UNL     1      -7.463   9.450  66.571  1.00  0.00    -0.093 A  
HETATM   28  O   UNL     1      -6.742   9.294  65.421  1.00  0.00    -0.071 OA 
ENDBRANCH   3  19
TORSDOF 8
ENDMDL
MODEL      309
REMARK 921   NORMALIZED FREE ENERGY PREDICTED BY IDOCK:   -3.20 KCAL/MOL
REMARK 922        TOTAL FREE ENERGY PREDICTED BY IDOCK:   -5.90 KCAL/MOL
REMARK 923 INTER-LIGAND FREE ENERGY PREDICTED BY IDOCK:   -5.34 KCAL/MOL
REMARK 924 INTRA-LIGAND FREE ENERGY PREDICTED BY IDOCK:   -0.56 KCAL/MOL
REMARK 927      BINDING AFFINITY PREDICTED BY RF-SCORE:    0.00 PKD
ROOT
HETATM    1  O   UNL     1      -8.026   9.635  69.016  1.00  0.00    -0.082 OA 
HETATM    2  H   UNL     1      -7.473   9.370  69.742  1.00  0.00     0.000 HD 
HETATM    3  C   UNL     1      -9.386   9.276  69.294  1.00  0.00    -0.160 C  
ENDROOT
BRANCH   3   4
HETATM    4  C   UNL     1     -10.286   9.708  68.112  1.00  0.00    -0.190 C  
BRANCH   4   5
HETATM    5  N   UNL     1     -11.512  10.394  68.576  1.00  0.00    -0.488 NA 
HETATM    6  H   UNL     1     -11.388  10.817  69.497  1.00  0.00     0.000 HD 
BRANCH   5   7
HETATM    7  C   UNL     1     -11.952  11.373  67.576  1.00  0.00     0.163 C  
BRANCH   7   8
HETATM    8  C   UNL     1     -11.066  12.620  67.637  1.00  0.00    -0.303 C  
BRANCH   8   9
HETATM    9  C   UNL     1     -11.795  13.830  67.050  1.00  0.00    -0.445 C  
BRANCH   9  10
HETATM   10  C   UNL     1     -10.948  14.548  65.995  1.00  0.00    -0.324 C  
BRANCH  10  11
HETATM   11  C   UNL     1     -10.244  15.743  66.590  1.00  0.00    -0.290 A  
HETATM   12  C   UNL     1      -8.907  16.017  66.264  1.00  0.00    -0.379 A  
HETATM   13  C   UNL     1      -8.238  17.091  66.855  1.00  0.00    -0.245 A  
HETATM   14  C   UNL     1      -8.907  17.890  67.777  1.00  0.00    -0.251 A  
HETATM   15  O   UNL     1      -8.287  18.937  68.391  1.00  0.00    -0.322 OA 
HETATM   16  C   UNL     1     -10.233  17.640  68.106  1.00  0.00    -0.371 A  
HETATM   17  H   UNL     1      -8.743  19.483  69.021  1.00  0.00     0.000 HD 
HETATM   18  C   UNL     1     -10.901  16.566  67.515  1.00  0.00    -0.237 A  
ENDBRANCH  10  11
ENDBRANCH   9  10
ENDBRANCH   8   9
ENDBRANCH   7   8
ENDBRANCH   5   7
ENDBRANCH   4   5
ENDBRANCH   3   4
BRANCH   3  19
HETATM   19  C   UNL     1      -9.485   7.785  69.546  1.00  0.00    -0.160 A  
HETATM   20  C   UNL     1      -8.611   6.877  68.924  1.00  0.00    -0.131 A  
HETATM   21  H   UNL     1     -10.571   3.372  70.779  1.00  0.00     0.000 HD 
HETATM   22  C   UNL     1     -10.494   7.286  70.393  1.00  0.00    -0.232 A  
HETATM   23  H   UNL     1      -8.018   3.663  68.723  1.00  0.00     0.000 HD 
HETATM   24  C   UNL     1      -8.750   5.513  69.153  1.00  0.00    -0.103 A  
HETATM   25  C   UNL     1     -10.627   5.914  70.618  1.00  0.00    -0.334 A  
HETATM   26  O   UNL     1      -7.923   4.595  68.566  1.00  0.00    -0.079 OA 
HETATM   27  C   UNL     1      -9.755   5.038  69.993  1.00  0.00    -0.208 A  
HETATM   28  O   UNL     1      -9.887   3.696  70.205  1.00  0.00    -0.174 OA 
ENDBRANCH   3  19
TORSDOF 8
ENDMDL
MODEL      310
REMARK 921   NORMALIZED FREE ENERGY PREDICTED BY IDOCK:   -3.17 KCAL/MOL
REMARK 922        TOTAL FREE ENERGY PREDICTED BY IDOCK:   -5.86 KCAL/MOL
REMARK 923 INTER-LIGAND FREE ENERGY PREDICTED BY IDOCK:   -5.68 KCAL/MOL
REMARK 924 INTRA-LIGAND FREE ENERGY PREDICTED BY IDOCK:   -0.18 KCAL/MOL
REMARK 927      BINDING AFFINITY PREDICTED BY RF-SCORE:    0.00 PKD
ROOT
HETATM    1  O   UNL     1      -7.105  10.500  68.460  1.00  0.00    -0.071 OA 
HETATM    2  H   UNL     1      -6.436  10.108  69.010  1.00  0.00     0.000 HD 
HETATM    3  C   UNL     1      -8.228  10.876  69.268  1.00  0.00    -0.036 C  
ENDROOT
BRANCH   3   4
HETATM    4  C   UNL     1      -9.317  11.514  68.373  1.00  0.00    -0.194 C  
BRANCH   4   5
HETATM    5  N   UNL     1     -10.458  12.017  69.169  1.00  0.00    -0.425 NA 
HETATM    6  H   UNL     1     -10.213  12.140  70.152  1.00  0.00     0.000 HD 
BRANCH   5   7
HETATM    7  C   UNL     1     -10.982  13.252  68.575  1.00  0.00    -0.266 C  
BRANCH   7   8
HETATM    8  C   UNL     1      -9.827  14.177  68.181  1.00  0.00    -0.229 C  
BRANCH   8   9
HETATM    9  C   UNL     1     -10.271  15.165  67.101  1.00  0.00    -0.247 C  
BRANCH   9  10
HETATM   10  C   UNL     1      -9.117  15.546  66.170  1.00  0.00    -0.359 C  
BRANCH  10  11
HETATM   11  C   UNL     1      -8.688  16.975  66.400  1.00  0.00    -0.308 A  
HETATM   12  C   UNL     1      -9.624  17.946  66.789  1.00  0.00    -0.305 A  
HETATM   13  C   UNL     1      -9.239  19.279  66.949  1.00  0.00    -0.359 A  
HETATM   14  C   UNL     1      -7.917  19.642  66.717  1.00  0.00    -0.292 A  
HETATM   15  O   UNL     1      -7.502  20.935  66.844  1.00  0.00    -0.506 OA 
HETATM   16  C   UNL     1      -6.974  18.695  66.339  1.00  0.00    -0.254 A  
HETATM   17  H   UNL     1      -6.599  21.183  66.685  1.00  0.00     0.000 HD 
HETATM   18  C   UNL     1      -7.359  17.362  66.179  1.00  0.00    -0.331 A  
ENDBRANCH  10  11
ENDBRANCH   9  10
ENDBRANCH   8   9
ENDBRANCH   7   8
ENDBRANCH   5   7
ENDBRANCH   4   5
ENDBRANCH   3   4
BRANCH   3  19
HETATM   19  C   UNL     1      -8.762   9.665  70.006  1.00  0.00    -0.256 A  
HETATM   20  C   UNL     1      -9.999   9.089  69.670  1.00  0.00    -0.196 A  
HETATM   21  H   UNL     1      -9.706   6.047  72.869  1.00  0.00     0.000 HD 
HETATM   22  C   UNL     1      -8.026   9.120  71.077  1.00  0.00    -0.166 A  
HETATM   23  H   UNL     1     -11.998   6.662  70.589  1.00  0.00     0.000 HD 
HETATM   24  C   UNL     1     -10.474   7.998  70.389  1.00  0.00    -0.218 A  
HETATM   25  C   UNL     1      -8.510   8.023  71.794  1.00  0.00    -0.164 A  
HETATM   26  O   UNL     1     -11.673   7.408  70.098  1.00  0.00    -0.143 OA 
HETATM   27  C   UNL     1      -9.733   7.473  71.445  1.00  0.00    -0.166 A  
HETATM   28  O   UNL     1     -10.212   6.405  72.149  1.00  0.00    -0.185 OA 
ENDBRANCH   3  19
TORSDOF 8
ENDMDL
MODEL      311
REMARK 921   NORMALIZED FREE ENERGY PREDICTED BY IDOCK:   -3.10 KCAL/MOL
REMARK 922        TOTAL FREE ENERGY PREDICTED BY IDOCK:   -5.75 KCAL/MOL
REMARK 923 INTER-LIGAND FREE ENERGY PREDICTED BY IDOCK:   -5.26 KCAL/MOL
REMARK 924 INTRA-LIGAND FREE ENERGY PREDICTED BY IDOCK:   -0.49 KCAL/MOL
REMARK 927      BINDING AFFINITY PREDICTED BY RF-SCORE:    0.00 PKD
ROOT
HETATM    1  O   UNL     1      -7.079   6.958  69.804  1.00  0.00    -0.064 OA 
HETATM    2  H   UNL     1      -7.006   7.358  70.663  1.00  0.00     0.000 HD 
HETATM    3  C   UNL     1      -8.384   6.384  69.653  1.00  0.00    -0.126 C  
ENDROOT
BRANCH   3   4
HETATM    4  C   UNL     1      -8.504   5.733  68.254  1.00  0.00    -0.113 C  
BRANCH   4   5
HETATM    5  N   UNL     1      -9.471   6.451  67.395  1.00  0.00    -0.115 NA 
HETATM    6  H   UNL     1      -9.882   7.254  67.870  1.00  0.00     0.000 HD 
BRANCH   5   7
HETATM    7  C   UNL     1      -8.835   6.829  66.128  1.00  0.00    -0.148 C  
BRANCH   7   8
HETATM    8  C   UNL     1      -8.455   8.312  66.153  1.00  0.00    -0.141 C  
BRANCH   8   9
HETATM    9  C   UNL     1      -9.534   9.159  65.474  1.00  0.00    -0.276 C  
BRANCH   9  10
HETATM   10  C   UNL     1      -9.060  10.593  65.228  1.00  0.00    -0.221 C  
BRANCH  10  11
HETATM   11  C   UNL     1     -10.215  11.562  65.293  1.00  0.00    -0.315 A  
HETATM   12  C   UNL     1     -10.388  12.390  66.412  1.00  0.00    -0.255 A  
HETATM   13  C   UNL     1     -11.487  13.248  66.498  1.00  0.00    -0.372 A  
HETATM   14  C   UNL     1     -12.416  13.275  65.462  1.00  0.00    -0.474 A  
HETATM   15  O   UNL     1     -13.513  14.084  65.513  1.00  0.00    -0.705 OA 
HETATM   16  C   UNL     1     -12.258  12.469  64.343  1.00  0.00    -0.528 A  
HETATM   17  H   UNL     1     -14.147  14.102  64.807  1.00  0.00     0.000 HD 
HETATM   18  C   UNL     1     -11.159  11.611  64.258  1.00  0.00    -0.406 A  
ENDBRANCH  10  11
ENDBRANCH   9  10
ENDBRANCH   8   9
ENDBRANCH   7   8
ENDBRANCH   5   7
ENDBRANCH   4   5
ENDBRANCH   3   4
BRANCH   3  19
HETATM   19  C   UNL     1      -8.635   5.374  70.754  1.00  0.00    -0.131 A  
HETATM   20  C   UNL     1      -7.624   5.013  71.662  1.00  0.00    -0.104 A  
HETATM   21  H   UNL     1     -10.221   2.101  73.746  1.00  0.00     0.000 HD 
HETATM   22  C   UNL     1      -9.895   4.751  70.858  1.00  0.00    -0.279 A  
HETATM   23  H   UNL     1      -7.097   3.025  74.210  1.00  0.00     0.000 HD 
HETATM   24  C   UNL     1      -7.878   4.059  72.640  1.00  0.00    -0.075 A  
HETATM   25  C   UNL     1     -10.143   3.794  71.844  1.00  0.00    -0.194 A  
HETATM   26  O   UNL     1      -6.923   3.676  73.541  1.00  0.00    -0.043 OA 
HETATM   27  C   UNL     1      -9.130   3.454  72.726  1.00  0.00    -0.088 A  
HETATM   28  O   UNL     1      -9.368   2.513  73.687  1.00  0.00    -0.082 OA 
ENDBRANCH   3  19
TORSDOF 8
ENDMDL
MODEL      312
REMARK 921   NORMALIZED FREE ENERGY PREDICTED BY IDOCK:   -3.08 KCAL/MOL
REMARK 922        TOTAL FREE ENERGY PREDICTED BY IDOCK:   -5.72 KCAL/MOL
REMARK 923 INTER-LIGAND FREE ENERGY PREDICTED BY IDOCK:   -4.15 KCAL/MOL
REMARK 924 INTRA-LIGAND FREE ENERGY PREDICTED BY IDOCK:   -1.57 KCAL/MOL
REMARK 927      BINDING AFFINITY PREDICTED BY RF-SCORE:    0.00 PKD
ROOT
HETATM    1  O   UNL     1      -7.553   4.090  66.027  1.00  0.00    -0.086 OA 
HETATM    2  H   UNL     1      -7.076   4.475  65.300  1.00  0.00     0.000 HD 
HETATM    3  C   UNL     1      -8.854   4.686  66.116  1.00  0.00    -0.118 C  
ENDROOT
BRANCH   3   4
HETATM    4  C   UNL     1      -9.630   4.058  67.298  1.00  0.00    -0.189 C  
BRANCH   4   5
HETATM    5  N   UNL     1      -8.794   3.964  68.516  1.00  0.00    -0.101 NA 
HETATM    6  H   UNL     1      -8.578   4.883  68.903  1.00  0.00     0.000 HD 
BRANCH   5   7
HETATM    7  C   UNL     1      -9.438   3.090  69.503  1.00  0.00    -0.103 C  
BRANCH   7   8
HETATM    8  C   UNL     1      -9.545   3.808  70.851  1.00  0.00    -0.256 C  
BRANCH   8   9
HETATM    9  C   UNL     1     -10.535   4.972  70.766  1.00  0.00    -0.222 C  
BRANCH   9  10
HETATM   10  C   UNL     1     -10.240   6.047  71.815  1.00  0.00    -0.242 C  
BRANCH  10  11
HETATM   11  C   UNL     1      -9.998   7.386  71.162  1.00  0.00    -0.188 A  
HETATM   12  C   UNL     1     -11.077   8.195  70.775  1.00  0.00    -0.275 A  
HETATM   13  C   UNL     1     -10.856   9.409  70.122  1.00  0.00    -0.287 A  
HETATM   14  C   UNL     1      -9.552   9.814  69.853  1.00  0.00    -0.235 A  
HETATM   15  O   UNL     1      -9.291  10.983  69.202  1.00  0.00    -0.360 OA 
HETATM   16  C   UNL     1      -8.471   9.032  70.236  1.00  0.00    -0.180 A  
HETATM   17  H   UNL     1      -8.401  11.259  69.018  1.00  0.00     0.000 HD 
HETATM   18  C   UNL     1      -8.693   7.817  70.888  1.00  0.00    -0.137 A  
ENDBRANCH  10  11
ENDBRANCH   9  10
ENDBRANCH   8   9
ENDBRANCH   7   8
ENDBRANCH   5   7
ENDBRANCH   4   5
ENDBRANCH   3   4
BRANCH   3  19
HETATM   19  C   UNL     1      -8.724   6.187  66.277  1.00  0.00    -0.144 A  
HETATM   20  C   UNL     1      -9.846   6.996  66.527  1.00  0.00    -0.175 A  
HETATM   21  H   UNL     1      -7.449  10.715  66.509  1.00  0.00     0.000 HD 
HETATM   22  C   UNL     1      -7.462   6.798  66.141  1.00  0.00    -0.081 A  
HETATM   23  H   UNL     1     -10.659  10.140  66.954  1.00  0.00     0.000 HD 
HETATM   24  C   UNL     1      -9.696   8.374  66.638  1.00  0.00    -0.251 A  
HETATM   25  C   UNL     1      -7.320   8.183  66.254  1.00  0.00    -0.078 A  
HETATM   26  O   UNL     1     -10.761   9.199  66.878  1.00  0.00    -0.203 OA 
HETATM   27  C   UNL     1      -8.440   8.960  66.499  1.00  0.00    -0.119 A  
HETATM   28  O   UNL     1      -8.306  10.315  66.603  1.00  0.00    -0.122 OA 
ENDBRANCH   3  19
TORSDOF 8
ENDMDL
MODEL      313
REMARK 921   NORMALIZED FREE ENERGY PREDICTED BY IDOCK:   -2.92 KCAL/MOL
REMARK 922        TOTAL FREE ENERGY PREDICTED BY IDOCK:   -5.49 KCAL/MOL
REMARK 923 INTER-LIGAND FREE ENERGY PREDICTED BY IDOCK:   -5.06 KCAL/MOL
REMARK 924 INTRA-LIGAND FREE ENERGY PREDICTED BY IDOCK:   -0.42 KCAL/MOL
REMARK 927      BINDING AFFINITY PREDICTED BY RF-SCORE:    0.00 PKD
ROOT
HETATM    1  O   UNL     1      -6.190  18.560  64.663  1.00  0.00    -0.387 OA 
HETATM    2  H   UNL     1      -5.542  17.904  64.435  1.00  0.00     0.000 HD 
HETATM    3  C   UNL     1      -5.791  19.230  65.865  1.00  0.00    -0.167 C  
ENDROOT
BRANCH   3   4
HETATM    4  C   UNL     1      -6.847  20.299  66.236  1.00  0.00    -0.241 C  
BRANCH   4   5
HETATM    5  N   UNL     1      -8.225  19.770  66.127  1.00  0.00    -0.350 NA 
HETATM    6  H   UNL     1      -8.252  18.869  65.650  1.00  0.00     0.000 HD 
BRANCH   5   7
HETATM    7  C   UNL     1      -8.848  19.709  67.454  1.00  0.00    -0.316 C  
BRANCH   7   8
HETATM    8  C   UNL     1      -9.914  18.610  67.483  1.00  0.00    -0.371 C  
BRANCH   8   9
HETATM    9  C   UNL     1      -9.324  17.298  68.004  1.00  0.00    -0.264 C  
BRANCH   9  10
HETATM   10  C   UNL     1     -10.376  16.188  68.072  1.00  0.00    -0.271 C  
BRANCH  10  11
HETATM   11  C   UNL     1      -9.763  14.844  67.766  1.00  0.00    -0.212 A  
HETATM   12  C   UNL     1     -10.566  13.696  67.687  1.00  0.00    -0.245 A  
HETATM   13  C   UNL     1      -9.994  12.443  67.457  1.00  0.00    -0.196 A  
HETATM   14  C   UNL     1      -8.615  12.338  67.310  1.00  0.00    -0.183 A  
HETATM   15  O   UNL     1      -8.012  11.132  67.103  1.00  0.00    -0.127 OA 
HETATM   16  C   UNL     1      -7.804  13.463  67.378  1.00  0.00    -0.154 A  
HETATM   17  H   UNL     1      -7.071  11.060  67.004  1.00  0.00     0.000 HD 
HETATM   18  C   UNL     1      -8.377  14.715  67.608  1.00  0.00    -0.186 A  
ENDBRANCH  10  11
ENDBRANCH   9  10
ENDBRANCH   8   9
ENDBRANCH   7   8
ENDBRANCH   5   7
ENDBRANCH   4   5
ENDBRANCH   3   4
BRANCH   3  19
HETATM   19  C   UNL     1      -5.610  18.223  66.983  1.00  0.00    -0.155 A  
HETATM   20  C   UNL     1      -5.496  16.847  66.718  1.00  0.00    -0.154 A  
HETATM   21  H   UNL     1      -5.208  15.814  71.010  1.00  0.00     0.000 HD 
HETATM   22  C   UNL     1      -5.589  18.661  68.322  1.00  0.00    -0.186 A  
HETATM   23  H   UNL     1      -5.160  13.986  68.275  1.00  0.00     0.000 HD 
HETATM   24  C   UNL     1      -5.363  15.947  67.769  1.00  0.00    -0.130 A  
HETATM   25  C   UNL     1      -5.455  17.751  69.373  1.00  0.00    -0.201 A  
HETATM   26  O   UNL     1      -5.251  14.601  67.557  1.00  0.00    -0.335 OA 
HETATM   27  C   UNL     1      -5.345  16.400  69.086  1.00  0.00    -0.120 A  
HETATM   28  O   UNL     1      -5.220  15.506  70.112  1.00  0.00    -0.110 OA 
ENDBRANCH   3  19
TORSDOF 8
ENDMDL
MODEL      314
REMARK 921   NORMALIZED FREE ENERGY PREDICTED BY IDOCK:   -2.86 KCAL/MOL
REMARK 922        TOTAL FREE ENERGY PREDICTED BY IDOCK:   -5.41 KCAL/MOL
REMARK 923 INTER-LIGAND FREE ENERGY PREDICTED BY IDOCK:   -4.42 KCAL/MOL
REMARK 924 INTRA-LIGAND FREE ENERGY PREDICTED BY IDOCK:   -0.98 KCAL/MOL
REMARK 927      BINDING AFFINITY PREDICTED BY RF-SCORE:    0.00 PKD
ROOT
HETATM    1  O   UNL     1      -7.351   4.528  64.922  1.00  0.00    -0.069 OA 
HETATM    2  H   UNL     1      -6.680   4.596  64.252  1.00  0.00     0.000 HD 
HETATM    3  C   UNL     1      -8.280   5.609  64.781  1.00  0.00    -0.134 C  
ENDROOT
BRANCH   3   4
HETATM    4  C   UNL     1      -9.372   5.497  65.872  1.00  0.00    -0.125 C  
BRANCH   4   5
HETATM    5  N   UNL     1      -8.866   4.823  67.089  1.00  0.00    -0.107 NA 
HETATM    6  H   UNL     1      -8.096   5.337  67.518  1.00  0.00     0.000 HD 
BRANCH   5   7
HETATM    7  C   UNL     1      -9.967   4.593  68.032  1.00  0.00    -0.066 C  
BRANCH   7   8
HETATM    8  C   UNL     1      -9.670   5.286  69.364  1.00  0.00    -0.241 C  
BRANCH   8   9
HETATM    9  C   UNL     1     -10.690   6.394  69.637  1.00  0.00    -0.339 C  
BRANCH   9  10
HETATM   10  C   UNL     1     -10.033   7.632  70.252  1.00  0.00    -0.189 C  
BRANCH  10  11
HETATM   11  C   UNL     1     -10.538   8.893  69.595  1.00  0.00    -0.230 A  
HETATM   12  C   UNL     1     -11.259   9.843  70.334  1.00  0.00    -0.379 A  
HETATM   13  C   UNL     1     -11.773  10.984  69.716  1.00  0.00    -0.410 A  
HETATM   14  C   UNL     1     -11.568  11.174  68.353  1.00  0.00    -0.306 A  
HETATM   15  O   UNL     1     -12.068  12.265  67.705  1.00  0.00    -0.502 OA 
HETATM   16  C   UNL     1     -10.850  10.250  67.605  1.00  0.00    -0.363 A  
HETATM   17  H   UNL     1     -11.929  12.394  66.774  1.00  0.00     0.000 HD 
HETATM   18  C   UNL     1     -10.337   9.109  68.225  1.00  0.00    -0.256 A  
ENDBRANCH  10  11
ENDBRANCH   9  10
ENDBRANCH   8   9
ENDBRANCH   7   8
ENDBRANCH   5   7
ENDBRANCH   4   5
ENDBRANCH   3   4
BRANCH   3  19
HETATM   19  C   UNL     1      -7.549   6.934  64.867  1.00  0.00    -0.106 A  
HETATM   20  C   UNL     1      -7.726   7.799  65.961  1.00  0.00    -0.093 A  
HETATM   21  H   UNL     1      -5.018  10.860  64.270  1.00  0.00     0.000 HD 
HETATM   22  C   UNL     1      -6.698   7.332  63.818  1.00  0.00    -0.052 A  
HETATM   23  H   UNL     1      -6.759  10.729  67.059  1.00  0.00     0.000 HD 
HETATM   24  C   UNL     1      -7.065   9.021  65.993  1.00  0.00    -0.085 A  
HETATM   25  C   UNL     1      -6.037   8.561  63.857  1.00  0.00    -0.072 A  
HETATM   26  O   UNL     1      -7.211   9.894  67.036  1.00  0.00    -0.089 OA 
HETATM   27  C   UNL     1      -6.229   9.397  64.945  1.00  0.00    -0.072 A  
HETATM   28  O   UNL     1      -5.588  10.603  64.984  1.00  0.00    -0.139 OA 
ENDBRANCH   3  19
TORSDOF 8
ENDMDL
MODEL      315
REMARK 921   NORMALIZED FREE ENERGY PREDICTED BY IDOCK:   -2.82 KCAL/MOL
REMARK 922        TOTAL FREE ENERGY PREDICTED BY IDOCK:   -5.34 KCAL/MOL
REMARK 923 INTER-LIGAND FREE ENERGY PREDICTED BY IDOCK:   -4.81 KCAL/MOL
REMARK 924 INTRA-LIGAND FREE ENERGY PREDICTED BY IDOCK:   -0.53 KCAL/MOL
REMARK 927      BINDING AFFINITY PREDICTED BY RF-SCORE:    0.00 PKD
ROOT
HETATM    1  O   UNL     1      -9.667  12.194  68.905  1.00  0.00    -0.409 OA 
HETATM    2  H   UNL     1      -8.945  12.701  69.260  1.00  0.00     0.000 HD 
HETATM    3  C   UNL     1      -9.761  12.419  67.493  1.00  0.00    -0.191 C  
ENDROOT
BRANCH   3   4
HETATM    4  C   UNL     1     -10.937  11.594  66.916  1.00  0.00    -0.292 C  
BRANCH   4   5
HETATM    5  N   UNL     1     -10.462  10.414  66.160  1.00  0.00    -0.195 NA 
HETATM    6  H   UNL     1      -9.493  10.519  65.857  1.00  0.00     0.000 HD 
BRANCH   5   7
HETATM    7  C   UNL     1     -10.660   9.195  66.952  1.00  0.00    -0.167 C  
BRANCH   7   8
HETATM    8  C   UNL     1      -9.638   8.131  66.543  1.00  0.00    -0.303 C  
BRANCH   8   9
HETATM    9  C   UNL     1      -8.212   8.625  66.798  1.00  0.00    -0.108 C  
BRANCH   9  10
HETATM   10  C   UNL     1      -7.167   7.593  66.367  1.00  0.00    -0.078 C  
BRANCH  10  11
HETATM   11  C   UNL     1      -6.875   6.621  67.484  1.00  0.00    -0.076 A  
HETATM   12  C   UNL     1      -6.151   5.446  67.235  1.00  0.00    -0.030 A  
HETATM   13  C   UNL     1      -5.926   4.520  68.255  1.00  0.00    -0.027 A  
HETATM   14  C   UNL     1      -6.430   4.769  69.528  1.00  0.00    -0.035 A  
HETATM   15  O   UNL     1      -6.251   3.883  70.549  1.00  0.00    -0.018 OA 
HETATM   16  C   UNL     1      -7.143   5.929  69.796  1.00  0.00    -0.068 A  
HETATM   17  H   UNL     1      -6.595   4.053  71.417  1.00  0.00     0.000 HD 
HETATM   18  C   UNL     1      -7.368   6.855  68.775  1.00  0.00    -0.094 A  
ENDBRANCH  10  11
ENDBRANCH   9  10
ENDBRANCH   8   9
ENDBRANCH   7   8
ENDBRANCH   5   7
ENDBRANCH   4   5
ENDBRANCH   3   4
BRANCH   3  19
HETATM   19  C   UNL     1      -9.938  13.898  67.215  1.00  0.00    -0.242 A  
HETATM   20  C   UNL     1     -10.378  14.361  65.963  1.00  0.00    -0.319 A  
HETATM   21  H   UNL     1     -10.082  18.605  67.174  1.00  0.00     0.000 HD 
HETATM   22  C   UNL     1      -9.623  14.839  68.215  1.00  0.00    -0.215 A  
HETATM   23  H   UNL     1     -11.003  17.153  64.369  1.00  0.00     0.000 HD 
HETATM   24  C   UNL     1     -10.498  15.726  65.731  1.00  0.00    -0.367 A  
HETATM   25  C   UNL     1      -9.747  16.210  67.975  1.00  0.00    -0.229 A  
HETATM   26  O   UNL     1     -10.921  16.220  64.527  1.00  0.00    -0.687 OA 
HETATM   27  C   UNL     1     -10.182  16.641  66.732  1.00  0.00    -0.301 A  
HETATM   28  O   UNL     1     -10.298  17.981  66.492  1.00  0.00    -0.361 OA 
ENDBRANCH   3  19
TORSDOF 8
ENDMDL
MODEL      316
REMARK 921   NORMALIZED FREE ENERGY PREDICTED BY IDOCK:   -2.70 KCAL/MOL
REMARK 922        TOTAL FREE ENERGY PREDICTED BY IDOCK:   -5.17 KCAL/MOL
REMARK 923 INTER-LIGAND FREE ENERGY PREDICTED BY IDOCK:   -4.56 KCAL/MOL
REMARK 924 INTRA-LIGAND FREE ENERGY PREDICTED BY IDOCK:   -0.62 KCAL/MOL
REMARK 927      BINDING AFFINITY PREDICTED BY RF-SCORE:    0.00 PKD
ROOT
HETATM    1  O   UNL     1      -6.173   6.893  70.714  1.00  0.00    -0.034 OA 
HETATM    2  H   UNL     1      -5.813   6.321  71.383  1.00  0.00     0.000 HD 
HETATM    3  C   UNL     1      -7.602   6.917  70.821  1.00  0.00    -0.091 C  
ENDROOT
BRANCH   3   4
HETATM    4  C   UNL     1      -8.186   7.848  69.732  1.00  0.00    -0.121 C  
BRANCH   4   5
HETATM    5  N   UNL     1      -9.202   8.771  70.285  1.00  0.00    -0.164 NA 
HETATM    6  H   UNL     1      -8.832   9.328  71.056  1.00  0.00     0.000 HD 
BRANCH   5   7
HETATM    7  C   UNL     1      -9.755   9.610  69.216  1.00  0.00    -0.185 C  
BRANCH   7   8
HETATM    8  C   UNL     1      -8.701   9.838  68.129  1.00  0.00    -0.119 C  
BRANCH   8   9
HETATM    9  C   UNL     1      -8.247  11.299  68.114  1.00  0.00    -0.140 C  
BRANCH   9  10
HETATM   10  C   UNL     1      -8.283  11.891  66.702  1.00  0.00    -0.088 C  
BRANCH  10  11
HETATM   11  C   UNL     1      -9.651  12.443  66.383  1.00  0.00    -0.249 A  
HETATM   12  C   UNL     1     -10.455  11.833  65.408  1.00  0.00    -0.317 A  
HETATM   13  C   UNL     1     -11.698  12.374  65.073  1.00  0.00    -0.420 A  
HETATM   14  C   UNL     1     -12.136  13.529  65.713  1.00  0.00    -0.433 A  
HETATM   15  O   UNL     1     -13.335  14.101  65.403  1.00  0.00    -0.705 OA 
HETATM   16  C   UNL     1     -11.359  14.142  66.686  1.00  0.00    -0.352 A  
HETATM   17  H   UNL     1     -13.634  14.890  65.840  1.00  0.00     0.000 HD 
HETATM   18  C   UNL     1     -10.116  13.602  67.020  1.00  0.00    -0.248 A  
ENDBRANCH  10  11
ENDBRANCH   9  10
ENDBRANCH   8   9
ENDBRANCH   7   8
ENDBRANCH   5   7
ENDBRANCH   4   5
ENDBRANCH   3   4
BRANCH   3  19
HETATM   19  C   UNL     1      -8.153   5.510  70.697  1.00  0.00    -0.115 A  
HETATM   20  C   UNL     1      -8.792   4.876  71.776  1.00  0.00    -0.141 A  
HETATM   21  H   UNL     1      -9.435   1.141  69.495  1.00  0.00     0.000 HD 
HETATM   22  C   UNL     1      -7.995   4.802  69.490  1.00  0.00    -0.066 A  
HETATM   23  H   UNL     1     -10.201   2.028  72.570  1.00  0.00     0.000 HD 
HETATM   24  C   UNL     1      -9.257   3.574  71.639  1.00  0.00    -0.123 A  
HETATM   25  C   UNL     1      -8.466   3.494  69.358  1.00  0.00    -0.098 A  
HETATM   26  O   UNL     1      -9.883   2.918  72.664  1.00  0.00    -0.122 OA 
HETATM   27  C   UNL     1      -9.092   2.889  70.437  1.00  0.00    -0.122 A  
HETATM   28  O   UNL     1      -9.547   1.608  70.315  1.00  0.00    -0.101 OA 
ENDBRANCH   3  19
TORSDOF 8
ENDMDL
MODEL      317
REMARK 921   NORMALIZED FREE ENERGY PREDICTED BY IDOCK:   -2.31 KCAL/MOL
REMARK 922        TOTAL FREE ENERGY PREDICTED BY IDOCK:   -4.60 KCAL/MOL
REMARK 923 INTER-LIGAND FREE ENERGY PREDICTED BY IDOCK:   -4.13 KCAL/MOL
REMARK 924 INTRA-LIGAND FREE ENERGY PREDICTED BY IDOCK:   -0.46 KCAL/MOL
REMARK 927      BINDING AFFINITY PREDICTED BY RF-SCORE:    0.00 PKD
ROOT
HETATM    1  O   UNL     1      -9.799   4.275  68.415  1.00  0.00    -0.123 OA 
HETATM    2  H   UNL     1     -10.710   4.391  68.170  1.00  0.00     0.000 HD 
HETATM    3  C   UNL     1      -9.710   4.019  69.823  1.00  0.00    -0.184 C  
ENDROOT
BRANCH   3   4
HETATM    4  C   UNL     1      -8.227   3.830  70.221  1.00  0.00    -0.056 C  
BRANCH   4   5
HETATM    5  N   UNL     1      -7.542   2.854  69.344  1.00  0.00    -0.044 NA 
HETATM    6  H   UNL     1      -8.194   2.184  68.937  1.00  0.00     0.000 HD 
BRANCH   5   7
HETATM    7  C   UNL     1      -6.765   3.558  68.318  1.00  0.00    -0.046 C  
BRANCH   7   8
HETATM    8  C   UNL     1      -5.675   2.637  67.761  1.00  0.00    -0.019 C  
BRANCH   8   9
HETATM    9  C   UNL     1      -5.916   2.350  66.278  1.00  0.00    -0.023 C  
BRANCH   9  10
HETATM   10  C   UNL     1      -7.278   1.691  66.040  1.00  0.00    -0.052 C  
BRANCH  10  11
HETATM   11  C   UNL     1      -8.084   2.470  65.029  1.00  0.00    -0.082 A  
HETATM   12  C   UNL     1      -7.508   3.542  64.332  1.00  0.00    -0.075 A  
HETATM   13  C   UNL     1      -8.267   4.297  63.435  1.00  0.00    -0.095 A  
HETATM   14  C   UNL     1      -9.608   3.980  63.239  1.00  0.00    -0.149 A  
HETATM   15  O   UNL     1     -10.391   4.702  62.387  1.00  0.00    -0.395 OA 
HETATM   16  C   UNL     1     -10.194   2.917  63.913  1.00  0.00    -0.156 A  
HETATM   17  H   UNL     1     -11.306   4.485  62.254  1.00  0.00     0.000 HD 
HETATM   18  C   UNL     1      -9.434   2.163  64.810  1.00  0.00    -0.065 A  
ENDBRANCH  10  11
ENDBRANCH   9  10
ENDBRANCH   8   9
ENDBRANCH   7   8
ENDBRANCH   5   7
ENDBRANCH   4   5
ENDBRANCH   3   4
BRANCH   3  19
HETATM   19  C   UNL     1     -10.348   5.155  70.596  1.00  0.00    -0.305 A  
HETATM   20  C   UNL     1     -10.105   5.335  71.969  1.00  0.00    -0.247 A  
HETATM   21  H   UNL     1     -12.812   8.823  72.224  1.00  0.00     0.000 HD 
HETATM   22  C   UNL     1     -11.232   6.035  69.943  1.00  0.00    -0.438 A  
HETATM   23  H   UNL     1     -10.952   7.284  74.460  1.00  0.00     0.000 HD 
HETATM   24  C   UNL     1     -10.731   6.368  72.655  1.00  0.00    -0.234 A  
HETATM   25  C   UNL     1     -11.858   7.072  70.639  1.00  0.00    -0.377 A  
HETATM   26  O   UNL     1     -10.525   6.577  73.991  1.00  0.00    -0.331 OA 
HETATM   27  C   UNL     1     -11.603   7.228  71.992  1.00  0.00    -0.274 A  
HETATM   28  O   UNL     1     -12.218   8.237  72.677  1.00  0.00    -0.364 OA 
ENDBRANCH   3  19
TORSDOF 8
ENDMDL
MODEL      318
REMARK 921   NORMALIZED FREE ENERGY PREDICTED BY IDOCK:   -1.90 KCAL/MOL
REMARK 922        TOTAL FREE ENERGY PREDICTED BY IDOCK:   -4.00 KCAL/MOL
REMARK 923 INTER-LIGAND FREE ENERGY PREDICTED BY IDOCK:   -3.04 KCAL/MOL
REMARK 924 INTRA-LIGAND FREE ENERGY PREDICTED BY IDOCK:   -0.96 KCAL/MOL
REMARK 927      BINDING AFFINITY PREDICTED BY RF-SCORE:    0.00 PKD
ROOT
HETATM    1  O   UNL     1      -9.665   4.319  68.470  1.00  0.00    -0.149 OA 
HETATM    2  H   UNL     1     -10.568   4.518  68.245  1.00  0.00     0.000 HD 
HETATM    3  C   UNL     1      -9.542   4.192  69.892  1.00  0.00    -0.211 C  
ENDROOT
BRANCH   3   4
HETATM    4  C   UNL     1      -8.073   3.870  70.256  1.00  0.00    -0.050 C  
BRANCH   4   5
HETATM    5  N   UNL     1      -7.200   3.859  69.062  1.00  0.00    -0.053 NA 
HETATM    6  H   UNL     1      -7.730   3.709  68.203  1.00  0.00     0.000 HD 
BRANCH   5   7
HETATM    7  C   UNL     1      -6.404   5.090  69.008  1.00  0.00    -0.031 C  
BRANCH   7   8
HETATM    8  C   UNL     1      -5.216   4.908  68.059  1.00  0.00    -0.010 C  
BRANCH   8   9
HETATM    9  C   UNL     1      -5.312   5.877  66.880  1.00  0.00    -0.005 C  
BRANCH   9  10
HETATM   10  C   UNL     1      -6.569   5.629  66.041  1.00  0.00    -0.048 C  
BRANCH  10  11
HETATM   11  C   UNL     1      -7.480   6.832  66.066  1.00  0.00    -0.081 A  
HETATM   12  C   UNL     1      -7.054   8.037  66.644  1.00  0.00    -0.076 A  
HETATM   13  C   UNL     1      -7.915   9.134  66.716  1.00  0.00    -0.104 A  
HETATM   14  C   UNL     1      -9.207   9.024  66.212  1.00  0.00    -0.206 A  
HETATM   15  O   UNL     1     -10.086  10.064  66.279  1.00  0.00    -0.234 OA 
HETATM   16  C   UNL     1      -9.645   7.842  65.629  1.00  0.00     0.382 A  
HETATM   17  H   UNL     1     -10.968   9.988  65.935  1.00  0.00     0.000 HD 
HETATM   18  C   UNL     1      -8.783   6.746  65.557  1.00  0.00    -0.046 A  
ENDBRANCH  10  11
ENDBRANCH   9  10
ENDBRANCH   8   9
ENDBRANCH   7   8
ENDBRANCH   5   7
ENDBRANCH   4   5
ENDBRANCH   3   4
BRANCH   3  19
HETATM   19  C   UNL     1     -10.010   5.466  70.567  1.00  0.00    -0.288 A  
HETATM   20  C   UNL     1      -9.669   5.757  71.899  1.00  0.00    -0.184 A  
HETATM   21  H   UNL     1     -11.975   9.532  71.903  1.00  0.00     0.000 HD 
HETATM   22  C   UNL     1     -10.834   6.367  69.865  1.00  0.00    -0.370 A  
HETATM   23  H   UNL     1     -10.159   8.033  74.202  1.00  0.00     0.000 HD 
HETATM   24  C   UNL     1     -10.142   6.918  72.498  1.00  0.00    -0.172 A  
HETATM   25  C   UNL     1     -11.305   7.533  70.473  1.00  0.00    -0.279 A  
HETATM   26  O   UNL     1      -9.837   7.239  73.793  1.00  0.00    -0.276 OA 
HETATM   27  C   UNL     1     -10.956   7.797  71.788  1.00  0.00    -0.239 A  
HETATM   28  O   UNL     1     -11.420   8.932  72.388  1.00  0.00    -0.313 OA 
ENDBRANCH   3  19
TORSDOF 8
ENDMDL
MODEL      319
REMARK 921   NORMALIZED FREE ENERGY PREDICTED BY IDOCK:   -1.54 KCAL/MOL
REMARK 922        TOTAL FREE ENERGY PREDICTED BY IDOCK:   -3.46 KCAL/MOL
REMARK 923 INTER-LIGAND FREE ENERGY PREDICTED BY IDOCK:   -3.21 KCAL/MOL
REMARK 924 INTRA-LIGAND FREE ENERGY PREDICTED BY IDOCK:   -0.25 KCAL/MOL
REMARK 927      BINDING AFFINITY PREDICTED BY RF-SCORE:    0.00 PKD
ROOT
HETATM    1  O   UNL     1      -9.626   4.456  68.482  1.00  0.00    -0.149 OA 
HETATM    2  H   UNL     1     -10.392   4.783  68.024  1.00  0.00     0.000 HD 
HETATM    3  C   UNL     1      -9.895   4.406  69.889  1.00  0.00    -0.220 C  
ENDROOT
BRANCH   3   4
HETATM    4  C   UNL     1      -8.648   3.874  70.635  1.00  0.00    -0.071 C  
BRANCH   4   5
HETATM    5  N   UNL     1      -7.893   2.899  69.817  1.00  0.00    -0.043 NA 
HETATM    6  H   UNL     1      -8.508   2.335  69.229  1.00  0.00     0.000 HD 
BRANCH   5   7
HETATM    7  C   UNL     1      -6.863   3.589  69.033  1.00  0.00    -0.045 C  
BRANCH   7   8
HETATM    8  C   UNL     1      -5.630   2.694  68.881  1.00  0.00    -0.021 C  
BRANCH   8   9
HETATM    9  C   UNL     1      -5.257   2.533  67.406  1.00  0.00    -0.012 C  
BRANCH   9  10
HETATM   10  C   UNL     1      -6.493   2.332  66.525  1.00  0.00    -0.024 C  
BRANCH  10  11
HETATM   11  C   UNL     1      -6.825   3.594  65.766  1.00  0.00    -0.057 A  
HETATM   12  C   UNL     1      -8.141   3.850  65.352  1.00  0.00    -0.097 A  
HETATM   13  C   UNL     1      -8.440   4.990  64.603  1.00  0.00    -0.145 A  
HETATM   14  C   UNL     1      -7.420   5.873  64.264  1.00  0.00    -0.074 A  
HETATM   15  O   UNL     1      -7.665   6.989  63.519  1.00  0.00    -0.106 OA 
HETATM   16  C   UNL     1      -6.113   5.641  64.672  1.00  0.00    -0.025 A  
HETATM   17  H   UNL     1      -6.968   7.591  63.287  1.00  0.00     0.000 HD 
HETATM   18  C   UNL     1      -5.815   4.501  65.420  1.00  0.00    -0.022 A  
ENDBRANCH  10  11
ENDBRANCH   9  10
ENDBRANCH   8   9
ENDBRANCH   7   8
ENDBRANCH   5   7
ENDBRANCH   4   5
ENDBRANCH   3   4
BRANCH   3  19
HETATM   19  C   UNL     1     -10.292   5.780  70.389  1.00  0.00    -0.310 A  
HETATM   20  C   UNL     1      -9.332   6.698  70.849  1.00  0.00    -0.159 A  
HETATM   21  H   UNL     1     -12.388   9.729  71.870  1.00  0.00     0.000 HD 
HETATM   22  C   UNL     1     -11.653   6.142  70.431  1.00  0.00    -0.262 A  
HETATM   23  H   UNL     1      -9.107   9.708  72.119  1.00  0.00     0.000 HD 
HETATM   24  C   UNL     1      -9.733   7.938  71.331  1.00  0.00    -0.164 A  
HETATM   25  C   UNL     1     -12.049   7.391  70.916  1.00  0.00    -0.290 A  
HETATM   26  O   UNL     1      -8.833   8.860  71.790  1.00  0.00    -0.308 OA 
HETATM   27  C   UNL     1     -11.084   8.278  71.365  1.00  0.00    -0.251 A  
HETATM   28  O   UNL     1     -11.468   9.497  71.847  1.00  0.00    -0.355 OA 
ENDBRANCH   3  19
TORSDOF 8
ENDMDL
MODEL      320
REMARK 921   NORMALIZED FREE ENERGY PREDICTED BY IDOCK:   -0.13 KCAL/MOL
REMARK 922        TOTAL FREE ENERGY PREDICTED BY IDOCK:   -1.40 KCAL/MOL
REMARK 923 INTER-LIGAND FREE ENERGY PREDICTED BY IDOCK:   -2.32 KCAL/MOL
REMARK 924 INTRA-LIGAND FREE ENERGY PREDICTED BY IDOCK:    0.92 KCAL/MOL
REMARK 927      BINDING AFFINITY PREDICTED BY RF-SCORE:    0.00 PKD
ROOT
HETATM    1  O   UNL     1     -10.006   4.587  68.566  1.00  0.00    -0.126 OA 
HETATM    2  H   UNL     1     -10.495   5.046  67.892  1.00  0.00     0.000 HD 
HETATM    3  C   UNL     1     -10.694   4.700  69.818  1.00  0.00     0.875 C  
ENDROOT
BRANCH   3   4
HETATM    4  C   UNL     1      -9.898   3.953  70.914  1.00  0.00    -0.143 C  
BRANCH   4   5
HETATM    5  N   UNL     1      -9.044   2.888  70.344  1.00  0.00    -0.108 NA 
HETATM    6  H   UNL     1      -9.588   2.072  70.061  1.00  0.00     0.000 HD 
BRANCH   5   7
HETATM    7  C   UNL     1      -8.240   3.423  69.239  1.00  0.00    -0.059 C  
BRANCH   7   8
HETATM    8  C   UNL     1      -6.750   3.319  69.574  1.00  0.00    -0.034 C  
BRANCH   8   9
HETATM    9  C   UNL     1      -5.985   2.648  68.432  1.00  0.00    -0.024 C  
BRANCH   9  10
HETATM   10  C   UNL     1      -6.872   1.683  67.642  1.00  0.00    -0.035 C  
BRANCH  10  11
HETATM   11  C   UNL     1      -7.142   2.210  66.254  1.00  0.00    -0.052 A  
HETATM   12  C   UNL     1      -8.374   1.972  65.628  1.00  0.00    -0.093 A  
HETATM   13  C   UNL     1      -8.606   2.413  64.323  1.00  0.00    -0.091 A  
HETATM   14  C   UNL     1      -7.600   3.091  63.642  1.00  0.00    -0.067 A  
HETATM   15  O   UNL     1      -7.776   3.523  62.361  1.00  0.00    -0.055 OA 
HETATM   16  C   UNL     1      -6.376   3.344  64.248  1.00  0.00    -0.023 A  
HETATM   17  H   UNL     1      -7.090   3.985  61.896  1.00  0.00     0.000 HD 
HETATM   18  C   UNL     1      -6.146   2.902  65.552  1.00  0.00    -0.023 A  
ENDBRANCH  10  11
ENDBRANCH   9  10
ENDBRANCH   8   9
ENDBRANCH   7   8
ENDBRANCH   5   7
ENDBRANCH   4   5
ENDBRANCH   3   4
BRANCH   3  19
HETATM   19  C   UNL     1     -10.884   6.161  70.173  1.00  0.00    -0.395 A  
HETATM   20  C   UNL     1     -12.095   6.634  70.707  1.00  0.00    -0.364 A  
HETATM   21  H   UNL     1     -10.657  10.814  70.861  1.00  0.00     0.000 HD 
HETATM   22  C   UNL     1      -9.842   7.079  69.935  1.00  0.00    -0.173 A  
HETATM   23  H   UNL     1     -13.513   9.413  71.704  1.00  0.00     0.000 HD 
HETATM   24  C   UNL     1     -12.247   7.986  70.992  1.00  0.00    -0.185 A  
HETATM   25  C   UNL     1     -10.002   8.436  70.225  1.00  0.00    -0.193 A  
HETATM   26  O   UNL     1     -13.409   8.489  71.509  1.00  0.00    -0.331 OA 
HETATM   27  C   UNL     1     -11.206   8.878  70.749  1.00  0.00    -0.272 A  
HETATM   28  O   UNL     1     -11.367  10.206  71.026  1.00  0.00    -0.347 OA 
ENDBRANCH   3  19
TORSDOF 8
ENDMDL
MODEL      321
REMARK 921   NORMALIZED FREE ENERGY PREDICTED BY IDOCK:   28.73 KCAL/MOL
REMARK 922        TOTAL FREE ENERGY PREDICTED BY IDOCK:   40.96 KCAL/MOL
REMARK 923 INTER-LIGAND FREE ENERGY PREDICTED BY IDOCK:   35.02 KCAL/MOL
REMARK 924 INTRA-LIGAND FREE ENERGY PREDICTED BY IDOCK:    5.94 KCAL/MOL
REMARK 927      BINDING AFFINITY PREDICTED BY RF-SCORE:    0.00 PKD
ROOT
HETATM    1  O   UNL     1     -11.695   7.140  72.687  1.00  0.00    -0.466 OA 
HETATM    2  H   UNL     1     -12.489   6.758  72.331  1.00  0.00     0.000 HD 
HETATM    3  C   UNL     1     -11.519   8.459  72.156  1.00  0.00    -0.372 C  
ENDROOT
BRANCH   3   4
HETATM    4  C   UNL     1     -10.226   9.081  72.736  1.00  0.00     0.906 C  
BRANCH   4   5
HETATM    5  N   UNL     1      -9.532   9.933  71.745  1.00  0.00     0.785 NA 
HETATM    6  H   UNL     1      -8.811   9.420  71.238  1.00  0.00     0.000 HD 
BRANCH   5   7
HETATM    7  C   UNL     1     -10.509  10.548  70.838  1.00  0.00     0.998 C  
BRANCH   7   8
HETATM    8  C   UNL     1     -11.440  11.477  71.622  1.00  0.00     2.579 C  
BRANCH   8   9
HETATM    9  C   UNL     1     -10.937  12.921  71.564  1.00  0.00     5.080 C  
BRANCH   9  10
HETATM   10  C   UNL     1     -11.255  13.581  70.220  1.00  0.00     0.305 C  
BRANCH  10  11
HETATM   11  C   UNL     1     -10.143  13.346  69.227  1.00  0.00     0.373 A  
HETATM   12  C   UNL     1      -9.309  12.225  69.344  1.00  0.00     1.091 A  
HETATM   13  C   UNL     1      -8.246  12.035  68.458  1.00  0.00    -0.113 A  
HETATM   14  C   UNL     1      -8.015  12.971  67.455  1.00  0.00    -0.177 A  
HETATM   15  O   UNL     1      -6.978  12.834  66.581  1.00  0.00    -0.310 OA 
HETATM   16  C   UNL     1      -8.835  14.083  67.318  1.00  0.00    -0.225 A  
HETATM   17  H   UNL     1      -6.820  13.474  65.896  1.00  0.00     0.000 HD 
HETATM   18  C   UNL     1      -9.897  14.273  68.204  1.00  0.00    -0.226 A  
ENDBRANCH  10  11
ENDBRANCH   9  10
ENDBRANCH   8   9
ENDBRANCH   7   8
ENDBRANCH   5   7
ENDBRANCH   4   5
ENDBRANCH   3   4
BRANCH   3  19
HETATM   19  C   UNL     1     -11.473   8.405  70.642  1.00  0.00    -0.235 A  
HETATM   20  C   UNL     1     -12.629   8.604  69.867  1.00  0.00     1.671 A  
HETATM   21  H   UNL     1     -10.466   7.943  66.065  1.00  0.00     0.000 HD 
HETATM   22  C   UNL     1     -10.259   8.117  69.990  1.00  0.00    -0.202 A  
HETATM   23  H   UNL     1     -13.610   8.640  66.743  1.00  0.00     0.000 HD 
HETATM   24  C   UNL     1     -12.558   8.516  68.482  1.00  0.00     6.331 A  
HETATM   25  C   UNL     1     -10.195   8.031  68.597  1.00  0.00    -0.225 A  
HETATM   26  O   UNL     1     -13.658   8.700  67.690  1.00  0.00    15.297 OA 
HETATM   27  C   UNL     1     -11.348   8.229  67.855  1.00  0.00     0.988 A  
HETATM   28  O   UNL     1     -11.291   8.139  66.493  1.00  0.00     1.170 OA 
ENDBRANCH   3  19
TORSDOF 8
ENDMDL
