MODEL        1
REMARK 921   NORMALIZED FREE ENERGY PREDICTED BY IDOCK:   -7.25 KCAL/MOL
REMARK 922        TOTAL FREE ENERGY PREDICTED BY IDOCK:   -8.94 KCAL/MOL
REMARK 923 INTER-LIGAND FREE ENERGY PREDICTED BY IDOCK:   -8.52 KCAL/MOL
REMARK 924 INTRA-LIGAND FREE ENERGY PREDICTED BY IDOCK:   -0.42 KCAL/MOL
REMARK 927      BINDING AFFINITY PREDICTED BY RF-SCORE:    0.00 PKD
ROOT
HETATM    1  O   UNL     1     -11.291  16.614  64.069  1.00  0.00    -1.486 OA 
HETATM    2  C   UNL     1     -10.849  16.096  65.315  1.00  0.00    -0.336 C  
HETATM    3  H   UNL     1     -11.695  17.468  64.171  1.00  0.00     0.000 HD 
ENDROOT
BRANCH   2   4
HETATM    4  C   UNL     1     -10.195  14.713  65.150  1.00  0.00    -0.382 C  
HETATM    5  O   UNL     1      -9.831  14.168  66.427  1.00  0.00    -0.276 OA 
HETATM    6  C   UNL     1     -10.891  13.556  67.180  1.00  0.00    -0.284 C  
HETATM    7  O   UNL     1     -10.034  12.756  63.720  1.00  0.00    -0.638 OA 
HETATM    8  C   UNL     1     -11.588  12.442  66.366  1.00  0.00    -0.384 C  
HETATM    9  O   UNL     1     -10.675  11.355  66.103  1.00  0.00    -0.262 OA 
HETATM   10  C   UNL     1     -12.094  12.970  65.018  1.00  0.00    -0.427 C  
HETATM   11  H   UNL     1     -10.511  12.142  63.172  1.00  0.00     0.000 HD 
HETATM   12  H   UNL     1     -11.103  10.671  65.603  1.00  0.00     0.000 HD 
HETATM   13  O   UNL     1     -13.285  13.733  65.179  1.00  0.00    -0.757 OA 
HETATM   14  H   UNL     1     -13.599  14.060  64.344  1.00  0.00     0.000 HD 
HETATM   15  C   UNL     1     -10.972  13.715  64.259  1.00  0.00    -0.300 C  
BRANCH   6  16
HETATM   16  O   UNL     1     -11.837  14.520  67.655  1.00  0.00    -0.371 OA 
BRANCH  16  17
HETATM   17  C   UNL     1     -11.903  14.684  69.012  1.00  0.00    -0.310 A  
HETATM   18  C   UNL     1     -12.264  13.554  69.752  1.00  0.00    -0.330 A  
HETATM   19  C   UNL     1     -12.190  14.850  71.781  1.00  0.00    -0.348 A  
HETATM   20  C   UNL     1     -12.421  13.637  71.139  1.00  0.00    -0.442 A  
HETATM   21  C   UNL     1     -11.769  15.963  71.062  1.00  0.00    -0.473 A  
HETATM   22  O   UNL     1     -12.370  14.998  73.122  1.00  0.00    -0.375 OA 
HETATM   23  C   UNL     1     -11.606  15.873  69.679  1.00  0.00    -0.339 A  
HETATM   24  H   UNL     1     -12.212  15.826  73.560  1.00  0.00     0.000 HD 
ENDBRANCH  16  17
ENDBRANCH   6  16
ENDBRANCH   2   4
TORSDOF 3
ENDMDL
MODEL        2
REMARK 921   NORMALIZED FREE ENERGY PREDICTED BY IDOCK:   -7.03 KCAL/MOL
REMARK 922        TOTAL FREE ENERGY PREDICTED BY IDOCK:   -8.68 KCAL/MOL
REMARK 923 INTER-LIGAND FREE ENERGY PREDICTED BY IDOCK:   -8.03 KCAL/MOL
REMARK 924 INTRA-LIGAND FREE ENERGY PREDICTED BY IDOCK:   -0.66 KCAL/MOL
REMARK 927      BINDING AFFINITY PREDICTED BY RF-SCORE:    0.00 PKD
ROOT
HETATM    1  O   UNL     1      -8.586  11.613  65.722  1.00  0.00    -0.388 OA 
HETATM    2  C   UNL     1      -9.874  11.224  66.176  1.00  0.00    -0.225 C  
HETATM    3  H   UNL     1      -7.903  11.295  66.301  1.00  0.00     0.000 HD 
ENDROOT
BRANCH   2   4
HETATM    4  C   UNL     1     -10.981  11.738  65.240  1.00  0.00    -0.295 C  
HETATM    5  O   UNL     1     -12.150  12.106  65.988  1.00  0.00    -0.612 OA 
HETATM    6  C   UNL     1     -12.115  13.394  66.625  1.00  0.00    -0.373 C  
HETATM    7  O   UNL     1     -11.433  12.775  63.089  1.00  0.00    -0.776 OA 
HETATM    8  C   UNL     1     -11.829  14.518  65.604  1.00  0.00    -0.326 C  
HETATM    9  O   UNL     1     -12.909  14.628  64.652  1.00  0.00    -0.559 OA 
HETATM   10  C   UNL     1     -10.537  14.247  64.823  1.00  0.00    -0.412 C  
HETATM   11  H   UNL     1     -11.163  13.440  62.466  1.00  0.00     0.000 HD 
HETATM   12  H   UNL     1     -12.733  15.320  64.023  1.00  0.00     0.000 HD 
HETATM   13  O   UNL     1      -9.389  14.538  65.613  1.00  0.00    -0.528 OA 
HETATM   14  H   UNL     1      -8.588  14.370  65.129  1.00  0.00     0.000 HD 
HETATM   15  C   UNL     1     -10.541  12.821  64.226  1.00  0.00    -0.400 C  
BRANCH   6  16
HETATM   16  O   UNL     1     -11.183  13.430  67.711  1.00  0.00    -0.259 OA 
BRANCH  16  17
HETATM   17  C   UNL     1     -11.699  13.198  68.957  1.00  0.00    -0.321 A  
HETATM   18  C   UNL     1     -11.743  11.862  69.367  1.00  0.00    -0.401 A  
HETATM   19  C   UNL     1     -12.813  12.520  71.422  1.00  0.00    -0.260 A  
HETATM   20  C   UNL     1     -12.312  11.518  70.597  1.00  0.00    -0.457 A  
HETATM   21  C   UNL     1     -12.716  13.856  71.052  1.00  0.00    -0.428 A  
HETATM   22  O   UNL     1     -13.415  12.238  72.610  1.00  0.00    -0.597 OA 
HETATM   23  C   UNL     1     -12.140  14.195  69.827  1.00  0.00    -0.409 A  
HETATM   24  H   UNL     1     -13.757  12.923  73.173  1.00  0.00     0.000 HD 
ENDBRANCH  16  17
ENDBRANCH   6  16
ENDBRANCH   2   4
TORSDOF 3
ENDMDL
MODEL        3
REMARK 921   NORMALIZED FREE ENERGY PREDICTED BY IDOCK:   -6.93 KCAL/MOL
REMARK 922        TOTAL FREE ENERGY PREDICTED BY IDOCK:   -8.56 KCAL/MOL
REMARK 923 INTER-LIGAND FREE ENERGY PREDICTED BY IDOCK:   -7.90 KCAL/MOL
REMARK 924 INTRA-LIGAND FREE ENERGY PREDICTED BY IDOCK:   -0.66 KCAL/MOL
REMARK 927      BINDING AFFINITY PREDICTED BY RF-SCORE:    0.00 PKD
ROOT
HETATM    1  O   UNL     1     -11.750  16.250  63.703  1.00  0.00    -1.447 OA 
HETATM    2  C   UNL     1     -12.258  15.090  64.347  1.00  0.00    -0.337 C  
HETATM    3  H   UNL     1     -12.444  16.869  63.506  1.00  0.00     0.000 HD 
ENDROOT
BRANCH   2   4
HETATM    4  C   UNL     1     -11.136  14.087  64.667  1.00  0.00    -0.382 C  
HETATM    5  O   UNL     1      -9.917  14.774  64.990  1.00  0.00    -0.333 OA 
HETATM    6  C   UNL     1      -9.814  15.286  66.328  1.00  0.00    -0.294 C  
HETATM    7  O   UNL     1     -10.653  11.840  65.454  1.00  0.00    -0.260 OA 
HETATM    8  C   UNL     1     -10.026  14.170  67.375  1.00  0.00    -0.240 C  
HETATM    9  O   UNL     1      -8.968  13.190  67.296  1.00  0.00    -0.198 OA 
HETATM   10  C   UNL     1     -11.359  13.445  67.157  1.00  0.00    -0.315 C  
HETATM   11  H   UNL     1     -10.879  11.162  66.081  1.00  0.00     0.000 HD 
HETATM   12  H   UNL     1      -9.098  12.503  67.940  1.00  0.00     0.000 HD 
HETATM   13  O   UNL     1     -12.452  14.226  67.626  1.00  0.00    -0.570 OA 
HETATM   14  H   UNL     1     -13.278  13.777  67.491  1.00  0.00     0.000 HD 
HETATM   15  C   UNL     1     -11.504  12.985  65.688  1.00  0.00    -0.333 C  
BRANCH   6  16
HETATM   16  O   UNL     1     -10.708  16.383  66.552  1.00  0.00    -0.270 OA 
BRANCH  16  17
HETATM   17  C   UNL     1     -10.124  17.597  66.792  1.00  0.00    -0.334 A  
HETATM   18  C   UNL     1     -10.520  18.647  65.960  1.00  0.00    -0.456 A  
HETATM   19  C   UNL     1      -8.967  20.120  67.063  1.00  0.00    -0.350 A  
HETATM   20  C   UNL     1      -9.933  19.911  66.085  1.00  0.00    -0.593 A  
HETATM   21  C   UNL     1      -8.611  19.100  67.938  1.00  0.00    -0.340 A  
HETATM   22  O   UNL     1      -8.332  21.317  67.202  1.00  0.00    -0.595 OA 
HETATM   23  C   UNL     1      -9.206  17.843  67.814  1.00  0.00    -0.258 A  
HETATM   24  H   UNL     1      -7.672  21.459  67.870  1.00  0.00     0.000 HD 
ENDBRANCH  16  17
ENDBRANCH   6  16
ENDBRANCH   2   4
TORSDOF 3
ENDMDL
MODEL        4
REMARK 921   NORMALIZED FREE ENERGY PREDICTED BY IDOCK:   -6.89 KCAL/MOL
REMARK 922        TOTAL FREE ENERGY PREDICTED BY IDOCK:   -8.51 KCAL/MOL
REMARK 923 INTER-LIGAND FREE ENERGY PREDICTED BY IDOCK:   -8.16 KCAL/MOL
REMARK 924 INTRA-LIGAND FREE ENERGY PREDICTED BY IDOCK:   -0.35 KCAL/MOL
REMARK 927      BINDING AFFINITY PREDICTED BY RF-SCORE:    0.00 PKD
ROOT
HETATM    1  O   UNL     1     -12.366  10.796  68.407  1.00  0.00    -0.813 OA 
HETATM    2  C   UNL     1     -11.114  11.009  67.772  1.00  0.00    -0.295 C  
HETATM    3  H   UNL     1     -12.328  10.064  69.012  1.00  0.00     0.000 HD 
ENDROOT
BRANCH   2   4
HETATM    4  C   UNL     1     -11.173  12.195  66.793  1.00  0.00    -0.322 C  
HETATM    5  O   UNL     1     -12.194  13.126  67.184  1.00  0.00    -0.326 OA 
HETATM    6  C   UNL     1     -11.849  14.038  68.239  1.00  0.00    -0.371 C  
HETATM    7  O   UNL     1      -9.901  13.509  65.194  1.00  0.00    -0.539 OA 
HETATM    8  C   UNL     1     -10.576  14.843  67.893  1.00  0.00    -0.254 C  
HETATM    9  O   UNL     1     -10.810  15.700  66.754  1.00  0.00    -0.317 OA 
HETATM   10  C   UNL     1      -9.404  13.914  67.553  1.00  0.00    -0.217 C  
HETATM   11  H   UNL     1      -9.067  13.925  65.006  1.00  0.00     0.000 HD 
HETATM   12  H   UNL     1     -10.026  16.194  66.540  1.00  0.00     0.000 HD 
HETATM   13  O   UNL     1      -8.841  13.345  68.730  1.00  0.00    -0.373 OA 
HETATM   14  H   UNL     1      -8.115  12.769  68.519  1.00  0.00     0.000 HD 
HETATM   15  C   UNL     1      -9.816  12.871  66.488  1.00  0.00    -0.254 C  
BRANCH   6  16
HETATM   16  O   UNL     1     -11.714  13.373  69.500  1.00  0.00    -0.292 OA 
BRANCH  16  17
HETATM   17  C   UNL     1     -12.117  14.078  70.601  1.00  0.00    -0.354 A  
HETATM   18  C   UNL     1     -13.010  13.428  71.458  1.00  0.00    -0.429 A  
HETATM   19  C   UNL     1     -13.132  15.396  72.840  1.00  0.00    -0.492 A  
HETATM   20  C   UNL     1     -13.530  14.089  72.575  1.00  0.00    -0.661 A  
HETATM   21  C   UNL     1     -12.196  16.030  72.031  1.00  0.00    -0.582 A  
HETATM   22  O   UNL     1     -13.638  16.102  73.888  1.00  0.00    -0.879 OA 
HETATM   23  C   UNL     1     -11.675  15.362  70.922  1.00  0.00    -0.395 A  
HETATM   24  H   UNL     1     -13.366  16.994  74.069  1.00  0.00     0.000 HD 
ENDBRANCH  16  17
ENDBRANCH   6  16
ENDBRANCH   2   4
TORSDOF 3
ENDMDL
MODEL        5
REMARK 921   NORMALIZED FREE ENERGY PREDICTED BY IDOCK:   -6.85 KCAL/MOL
REMARK 922        TOTAL FREE ENERGY PREDICTED BY IDOCK:   -8.47 KCAL/MOL
REMARK 923 INTER-LIGAND FREE ENERGY PREDICTED BY IDOCK:   -7.89 KCAL/MOL
REMARK 924 INTRA-LIGAND FREE ENERGY PREDICTED BY IDOCK:   -0.59 KCAL/MOL
REMARK 927      BINDING AFFINITY PREDICTED BY RF-SCORE:    0.00 PKD
ROOT
HETATM    1  O   UNL     1      -8.555  11.648  65.475  1.00  0.00    -0.395 OA 
HETATM    2  C   UNL     1      -9.790  11.213  66.024  1.00  0.00    -0.228 C  
HETATM    3  H   UNL     1      -7.818  11.348  65.996  1.00  0.00     0.000 HD 
ENDROOT
BRANCH   2   4
HETATM    4  C   UNL     1     -10.982  11.698  65.181  1.00  0.00    -0.266 C  
HETATM    5  O   UNL     1     -12.097  12.032  66.022  1.00  0.00    -0.561 OA 
HETATM    6  C   UNL     1     -12.047  13.320  66.658  1.00  0.00    -0.361 C  
HETATM    7  O   UNL     1     -11.634  12.725  63.077  1.00  0.00    -0.800 OA 
HETATM    8  C   UNL     1     -11.875  14.453  65.622  1.00  0.00    -0.355 C  
HETATM    9  O   UNL     1     -13.030  14.535  64.759  1.00  0.00    -0.562 OA 
HETATM   10  C   UNL     1     -10.643  14.219  64.739  1.00  0.00    -0.412 C  
HETATM   11  H   UNL     1     -11.433  13.398  62.437  1.00  0.00     0.000 HD 
HETATM   12  H   UNL     1     -12.924  15.231  64.122  1.00  0.00     0.000 HD 
HETATM   13  O   UNL     1      -9.443  14.540  65.435  1.00  0.00    -0.510 OA 
HETATM   14  H   UNL     1      -8.680  14.396  64.889  1.00  0.00     0.000 HD 
HETATM   15  C   UNL     1     -10.655  12.794  64.139  1.00  0.00    -0.415 C  
BRANCH   6  16
HETATM   16  O   UNL     1     -11.032  13.380  67.666  1.00  0.00    -0.251 OA 
BRANCH  16  17
HETATM   17  C   UNL     1     -11.313  14.153  68.760  1.00  0.00    -0.278 A  
HETATM   18  C   UNL     1     -10.794  15.450  68.748  1.00  0.00    -0.252 A  
HETATM   19  C   UNL     1     -11.693  15.839  70.948  1.00  0.00    -0.406 A  
HETATM   20  C   UNL     1     -10.973  16.295  69.848  1.00  0.00    -0.365 A  
HETATM   21  C   UNL     1     -12.267  14.573  70.945  1.00  0.00    -0.409 A  
HETATM   22  O   UNL     1     -11.860  16.603  72.063  1.00  0.00    -0.648 OA 
HETATM   23  C   UNL     1     -12.092  13.737  69.841  1.00  0.00    -0.412 A  
HETATM   24  H   UNL     1     -12.352  16.291  72.814  1.00  0.00     0.000 HD 
ENDBRANCH  16  17
ENDBRANCH   6  16
ENDBRANCH   2   4
TORSDOF 3
ENDMDL
MODEL        6
REMARK 921   NORMALIZED FREE ENERGY PREDICTED BY IDOCK:   -6.83 KCAL/MOL
REMARK 922        TOTAL FREE ENERGY PREDICTED BY IDOCK:   -8.45 KCAL/MOL
REMARK 923 INTER-LIGAND FREE ENERGY PREDICTED BY IDOCK:   -8.02 KCAL/MOL
REMARK 924 INTRA-LIGAND FREE ENERGY PREDICTED BY IDOCK:   -0.43 KCAL/MOL
REMARK 927      BINDING AFFINITY PREDICTED BY RF-SCORE:    0.00 PKD
ROOT
HETATM    1  O   UNL     1     -13.327  12.083  64.064  1.00  0.00    -0.703 OA 
HETATM    2  C   UNL     1     -12.448  12.592  65.056  1.00  0.00    -0.487 C  
HETATM    3  H   UNL     1     -13.294  11.134  64.025  1.00  0.00     0.000 HD 
ENDROOT
BRANCH   2   4
HETATM    4  C   UNL     1     -12.501  14.128  65.121  1.00  0.00    -0.439 C  
HETATM    5  O   UNL     1     -12.779  14.572  66.458  1.00  0.00    -0.094 OA 
HETATM    6  C   UNL     1     -11.663  14.591  67.363  1.00  0.00    -0.400 C  
HETATM    7  O   UNL     1     -11.734  16.183  64.075  1.00  0.00    -1.228 OA 
HETATM    8  C   UNL     1     -10.503  15.447  66.807  1.00  0.00    -0.299 C  
HETATM    9  O   UNL     1     -10.895  16.834  66.708  1.00  0.00    -0.172 OA 
HETATM   10  C   UNL     1     -10.080  14.975  65.411  1.00  0.00    -0.362 C  
HETATM   11  H   UNL     1     -10.997  16.633  63.676  1.00  0.00     0.000 HD 
HETATM   12  H   UNL     1     -10.182  17.360  66.365  1.00  0.00     0.000 HD 
HETATM   13  O   UNL     1      -9.298  13.788  65.485  1.00  0.00    -0.493 OA 
HETATM   14  H   UNL     1      -9.036  13.495  64.620  1.00  0.00     0.000 HD 
HETATM   15  C   UNL     1     -11.303  14.861  64.472  1.00  0.00    -0.300 C  
BRANCH   6  16
HETATM   16  O   UNL     1     -11.220  13.270  67.695  1.00  0.00    -0.260 OA 
BRANCH  16  17
HETATM   17  C   UNL     1     -11.684  12.757  68.876  1.00  0.00    -0.326 A  
HETATM   18  C   UNL     1     -11.524  11.380  69.055  1.00  0.00    -0.366 A  
HETATM   19  C   UNL     1     -12.663  11.515  71.172  1.00  0.00    -0.356 A  
HETATM   20  C   UNL     1     -12.024  10.752  70.200  1.00  0.00    -0.432 A  
HETATM   21  C   UNL     1     -12.772  12.893  71.034  1.00  0.00    -0.338 A  
HETATM   22  O   UNL     1     -13.207  10.949  72.285  1.00  0.00    -0.613 OA 
HETATM   23  C   UNL     1     -12.264  13.516  69.893  1.00  0.00    -0.356 A  
HETATM   24  H   UNL     1     -13.643  11.471  72.949  1.00  0.00     0.000 HD 
ENDBRANCH  16  17
ENDBRANCH   6  16
ENDBRANCH   2   4
TORSDOF 3
ENDMDL
MODEL        7
REMARK 921   NORMALIZED FREE ENERGY PREDICTED BY IDOCK:   -6.77 KCAL/MOL
REMARK 922        TOTAL FREE ENERGY PREDICTED BY IDOCK:   -8.37 KCAL/MOL
REMARK 923 INTER-LIGAND FREE ENERGY PREDICTED BY IDOCK:   -7.90 KCAL/MOL
REMARK 924 INTRA-LIGAND FREE ENERGY PREDICTED BY IDOCK:   -0.48 KCAL/MOL
REMARK 927      BINDING AFFINITY PREDICTED BY RF-SCORE:    0.00 PKD
ROOT
HETATM    1  O   UNL     1     -13.088  13.647  65.058  1.00  0.00    -0.742 OA 
HETATM    2  C   UNL     1     -12.494  14.435  66.079  1.00  0.00    -0.283 C  
HETATM    3  H   UNL     1     -14.013  13.844  64.960  1.00  0.00     0.000 HD 
ENDROOT
BRANCH   2   4
HETATM    4  C   UNL     1     -10.997  14.118  66.236  1.00  0.00    -0.303 C  
HETATM    5  O   UNL     1     -10.450  14.796  67.377  1.00  0.00    -0.252 OA 
HETATM    6  C   UNL     1     -10.695  14.184  68.654  1.00  0.00    -0.254 C  
HETATM    7  O   UNL     1      -9.255  12.494  65.753  1.00  0.00    -0.442 OA 
HETATM    8  C   UNL     1     -10.195  12.722  68.682  1.00  0.00    -0.152 C  
HETATM    9  O   UNL     1      -8.758  12.672  68.542  1.00  0.00    -0.311 OA 
HETATM   10  C   UNL     1     -10.809  11.899  67.543  1.00  0.00    -0.238 C  
HETATM   11  H   UNL     1      -9.029  11.571  65.722  1.00  0.00     0.000 HD 
HETATM   12  H   UNL     1      -8.451  11.773  68.559  1.00  0.00     0.000 HD 
HETATM   13  O   UNL     1     -12.158  11.547  67.834  1.00  0.00    -0.630 OA 
HETATM   14  H   UNL     1     -12.539  11.037  67.128  1.00  0.00     0.000 HD 
HETATM   15  C   UNL     1     -10.629  12.615  66.185  1.00  0.00    -0.258 C  
BRANCH   6  16
HETATM   16  O   UNL     1     -12.074  14.267  69.033  1.00  0.00    -0.326 OA 
BRANCH  16  17
HETATM   17  C   UNL     1     -12.325  14.732  70.295  1.00  0.00    -0.345 A  
HETATM   18  C   UNL     1     -13.357  14.097  70.992  1.00  0.00    -0.288 A  
HETATM   19  C   UNL     1     -13.053  15.611  72.840  1.00  0.00    -0.520 A  
HETATM   20  C   UNL     1     -13.732  14.542  72.264  1.00  0.00    -0.559 A  
HETATM   21  C   UNL     1     -11.984  16.209  72.183  1.00  0.00    -0.623 A  
HETATM   22  O   UNL     1     -13.404  16.113  74.056  1.00  0.00    -0.930 OA 
HETATM   23  C   UNL     1     -11.608  15.755  70.917  1.00  0.00    -0.440 A  
HETATM   24  H   UNL     1     -12.939  16.843  74.449  1.00  0.00     0.000 HD 
ENDBRANCH  16  17
ENDBRANCH   6  16
ENDBRANCH   2   4
TORSDOF 3
ENDMDL
MODEL        8
REMARK 921   NORMALIZED FREE ENERGY PREDICTED BY IDOCK:   -6.72 KCAL/MOL
REMARK 922        TOTAL FREE ENERGY PREDICTED BY IDOCK:   -8.31 KCAL/MOL
REMARK 923 INTER-LIGAND FREE ENERGY PREDICTED BY IDOCK:   -7.69 KCAL/MOL
REMARK 924 INTRA-LIGAND FREE ENERGY PREDICTED BY IDOCK:   -0.63 KCAL/MOL
REMARK 927      BINDING AFFINITY PREDICTED BY RF-SCORE:    0.00 PKD
ROOT
HETATM    1  O   UNL     1     -11.290  11.995  63.195  1.00  0.00    -0.676 OA 
HETATM    2  C   UNL     1     -12.491  12.428  63.816  1.00  0.00    -0.492 C  
HETATM    3  H   UNL     1     -11.374  11.112  62.853  1.00  0.00     0.000 HD 
ENDROOT
BRANCH   2   4
HETATM    4  C   UNL     1     -12.356  13.857  64.369  1.00  0.00    -0.361 C  
HETATM    5  O   UNL     1     -12.989  13.968  65.653  1.00  0.00    -0.608 OA 
HETATM    6  C   UNL     1     -12.235  13.481  66.775  1.00  0.00    -0.340 C  
HETATM    7  O   UNL     1     -11.021  15.887  64.307  1.00  0.00    -0.875 OA 
HETATM    8  C   UNL     1     -10.854  14.168  66.864  1.00  0.00    -0.296 C  
HETATM    9  O   UNL     1     -11.002  15.580  67.129  1.00  0.00    -0.321 OA 
HETATM   10  C   UNL     1     -10.068  14.013  65.556  1.00  0.00    -0.320 C  
HETATM   11  H   UNL     1     -10.142  16.248  64.291  1.00  0.00     0.000 HD 
HETATM   12  H   UNL     1     -10.153  16.002  67.183  1.00  0.00     0.000 HD 
HETATM   13  O   UNL     1      -9.520  12.705  65.438  1.00  0.00    -0.459 OA 
HETATM   14  H   UNL     1      -9.033  12.609  64.627  1.00  0.00     0.000 HD 
HETATM   15  C   UNL     1     -10.924  14.444  64.343  1.00  0.00    -0.153 C  
BRANCH   6  16
HETATM   16  O   UNL     1     -12.105  12.055  66.756  1.00  0.00    -0.613 OA 
BRANCH  16  17
HETATM   17  C   UNL     1     -11.772  11.464  67.945  1.00  0.00    -0.228 A  
HETATM   18  C   UNL     1     -10.960  10.329  67.862  1.00  0.00    -0.350 A  
HETATM   19  C   UNL     1     -11.074  10.064  70.253  1.00  0.00    -0.318 A  
HETATM   20  C   UNL     1     -10.618   9.618  69.016  1.00  0.00    -0.237 A  
HETATM   21  C   UNL     1     -11.828  11.227  70.353  1.00  0.00    -0.443 A  
HETATM   22  O   UNL     1     -10.807   9.386  71.403  1.00  0.00    -0.336 OA 
HETATM   23  C   UNL     1     -12.160  11.938  69.199  1.00  0.00    -0.261 A  
HETATM   24  H   UNL     1     -11.118   9.691  72.248  1.00  0.00     0.000 HD 
ENDBRANCH  16  17
ENDBRANCH   6  16
ENDBRANCH   2   4
TORSDOF 3
ENDMDL
MODEL        9
REMARK 921   NORMALIZED FREE ENERGY PREDICTED BY IDOCK:   -6.58 KCAL/MOL
REMARK 922        TOTAL FREE ENERGY PREDICTED BY IDOCK:   -8.15 KCAL/MOL
REMARK 923 INTER-LIGAND FREE ENERGY PREDICTED BY IDOCK:   -7.52 KCAL/MOL
REMARK 924 INTRA-LIGAND FREE ENERGY PREDICTED BY IDOCK:   -0.63 KCAL/MOL
REMARK 927      BINDING AFFINITY PREDICTED BY RF-SCORE:    0.00 PKD
ROOT
HETATM    1  O   UNL     1      -8.294  11.976  66.209  1.00  0.00    -0.387 OA 
HETATM    2  C   UNL     1      -9.543  11.695  66.823  1.00  0.00    -0.192 C  
HETATM    3  H   UNL     1      -7.573  11.863  66.818  1.00  0.00     0.000 HD 
ENDROOT
BRANCH   2   4
HETATM    4  C   UNL     1     -10.709  11.876  65.837  1.00  0.00    -0.284 C  
HETATM    5  O   UNL     1     -11.913  12.234  66.533  1.00  0.00    -0.596 OA 
HETATM    6  C   UNL     1     -12.040  13.615  66.909  1.00  0.00    -0.386 C  
HETATM    7  O   UNL     1     -11.297  12.411  63.541  1.00  0.00    -0.438 OA 
HETATM    8  C   UNL     1     -11.902  14.546  65.683  1.00  0.00    -0.326 C  
HETATM    9  O   UNL     1     -12.991  14.335  64.758  1.00  0.00    -0.653 OA 
HETATM   10  C   UNL     1     -10.589  14.291  64.933  1.00  0.00    -0.431 C  
HETATM   11  H   UNL     1     -11.115  12.970  62.794  1.00  0.00     0.000 HD 
HETATM   12  H   UNL     1     -12.906  14.907  64.004  1.00  0.00     0.000 HD 
HETATM   13  O   UNL     1      -9.485  14.870  65.620  1.00  0.00    -0.466 OA 
HETATM   14  H   UNL     1      -8.671  14.712  65.155  1.00  0.00     0.000 HD 
HETATM   15  C   UNL     1     -10.414  12.787  64.622  1.00  0.00    -0.350 C  
BRANCH   6  16
HETATM   16  O   UNL     1     -11.116  13.977  67.941  1.00  0.00    -0.244 OA 
BRANCH  16  17
HETATM   17  C   UNL     1     -11.648  14.174  69.186  1.00  0.00    -0.307 A  
HETATM   18  C   UNL     1     -11.869  13.025  69.951  1.00  0.00    -0.377 A  
HETATM   19  C   UNL     1     -12.825  14.367  71.707  1.00  0.00    -0.347 A  
HETATM   20  C   UNL     1     -12.469  13.117  71.211  1.00  0.00    -0.327 A  
HETATM   21  C   UNL     1     -12.552  15.521  70.983  1.00  0.00    -0.513 A  
HETATM   22  O   UNL     1     -13.451  14.511  72.908  1.00  0.00    -0.512 OA 
HETATM   23  C   UNL     1     -11.946  15.424  69.729  1.00  0.00    -0.381 A  
HETATM   24  H   UNL     1     -13.693  15.365  73.247  1.00  0.00     0.000 HD 
ENDBRANCH  16  17
ENDBRANCH   6  16
ENDBRANCH   2   4
TORSDOF 3
ENDMDL
MODEL       10
REMARK 921   NORMALIZED FREE ENERGY PREDICTED BY IDOCK:   -6.56 KCAL/MOL
REMARK 922        TOTAL FREE ENERGY PREDICTED BY IDOCK:   -8.13 KCAL/MOL
REMARK 923 INTER-LIGAND FREE ENERGY PREDICTED BY IDOCK:   -7.70 KCAL/MOL
REMARK 924 INTRA-LIGAND FREE ENERGY PREDICTED BY IDOCK:   -0.43 KCAL/MOL
REMARK 927      BINDING AFFINITY PREDICTED BY RF-SCORE:    0.00 PKD
ROOT
HETATM    1  O   UNL     1     -12.304  13.405  71.009  1.00  0.00    -0.363 OA 
HETATM    2  C   UNL     1     -11.666  12.943  69.828  1.00  0.00    -0.281 C  
HETATM    3  H   UNL     1     -12.028  14.287  71.232  1.00  0.00     0.000 HD 
ENDROOT
BRANCH   2   4
HETATM    4  C   UNL     1     -12.113  11.516  69.467  1.00  0.00    -0.284 C  
HETATM    5  O   UNL     1     -12.261  11.373  68.046  1.00  0.00    -0.607 OA 
HETATM    6  C   UNL     1     -11.050  11.162  67.301  1.00  0.00    -0.302 C  
HETATM    7  O   UNL     1     -12.112   9.197  70.193  1.00  0.00    -0.449 OA 
HETATM    8  C   UNL     1     -10.275   9.933  67.827  1.00  0.00    -0.197 C  
HETATM    9  O   UNL     1     -11.032   8.723  67.611  1.00  0.00    -0.493 OA 
HETATM   10  C   UNL     1      -9.991  10.052  69.329  1.00  0.00    -0.213 C  
HETATM   11  H   UNL     1     -11.603   8.499  70.588  1.00  0.00     0.000 HD 
HETATM   12  H   UNL     1     -10.555   7.967  67.935  1.00  0.00     0.000 HD 
HETATM   13  O   UNL     1      -8.922  10.957  69.580  1.00  0.00    -0.401 OA 
HETATM   14  H   UNL     1      -8.746  11.031  70.511  1.00  0.00     0.000 HD 
HETATM   15  C   UNL     1     -11.284  10.379  70.111  1.00  0.00    -0.321 C  
BRANCH   6  16
HETATM   16  O   UNL     1     -10.222  12.330  67.284  1.00  0.00    -0.209 OA 
BRANCH  16  17
HETATM   17  C   UNL     1     -10.551  13.290  66.365  1.00  0.00    -0.284 A  
HETATM   18  C   UNL     1     -10.159  14.596  66.671  1.00  0.00    -0.277 A  
HETATM   19  C   UNL     1     -11.225  15.394  64.664  1.00  0.00    -0.364 A  
HETATM   20  C   UNL     1     -10.506  15.655  65.826  1.00  0.00    -0.383 A  
HETATM   21  C   UNL     1     -11.564  14.091  64.319  1.00  0.00    -0.348 A  
HETATM   22  O   UNL     1     -11.626  16.392  63.829  1.00  0.00    -1.605 OA 
HETATM   23  C   UNL     1     -11.209  13.037  65.161  1.00  0.00    -0.321 A  
HETATM   24  H   UNL     1     -12.117  16.213  63.035  1.00  0.00     0.000 HD 
ENDBRANCH  16  17
ENDBRANCH   6  16
ENDBRANCH   2   4
TORSDOF 3
ENDMDL
MODEL       11
REMARK 921   NORMALIZED FREE ENERGY PREDICTED BY IDOCK:   -6.55 KCAL/MOL
REMARK 922        TOTAL FREE ENERGY PREDICTED BY IDOCK:   -8.11 KCAL/MOL
REMARK 923 INTER-LIGAND FREE ENERGY PREDICTED BY IDOCK:   -7.48 KCAL/MOL
REMARK 924 INTRA-LIGAND FREE ENERGY PREDICTED BY IDOCK:   -0.64 KCAL/MOL
REMARK 927      BINDING AFFINITY PREDICTED BY RF-SCORE:    0.00 PKD
ROOT
HETATM    1  O   UNL     1      -6.972  16.188  67.199  1.00  0.00    -0.180 OA 
HETATM    2  C   UNL     1      -7.332  17.332  67.958  1.00  0.00    -0.192 C  
HETATM    3  H   UNL     1      -6.709  15.467  67.760  1.00  0.00     0.000 HD 
ENDROOT
BRANCH   2   4
HETATM    4  C   UNL     1      -7.758  18.499  67.051  1.00  0.00    -0.225 C  
HETATM    5  O   UNL     1      -8.514  18.020  65.928  1.00  0.00    -0.509 OA 
HETATM    6  C   UNL     1      -9.900  17.730  66.176  1.00  0.00    -0.244 C  
HETATM    7  O   UNL     1      -8.233  20.881  66.977  1.00  0.00    -0.568 OA 
HETATM    8  C   UNL     1     -10.635  18.958  66.758  1.00  0.00    -0.405 C  
HETATM    9  O   UNL     1     -10.671  20.035  65.796  1.00  0.00    -0.432 OA 
HETATM   10  C   UNL     1      -9.940  19.478  68.022  1.00  0.00    -0.406 C  
HETATM   11  H   UNL     1      -8.645  21.613  67.422  1.00  0.00     0.000 HD 
HETATM   12  H   UNL     1     -11.123  20.790  66.154  1.00  0.00     0.000 HD 
HETATM   13  O   UNL     1     -10.229  18.650  69.144  1.00  0.00    -0.495 OA 
HETATM   14  H   UNL     1      -9.798  18.972  69.928  1.00  0.00     0.000 HD 
HETATM   15  C   UNL     1      -8.429  19.691  67.774  1.00  0.00    -0.318 C  
BRANCH   6  16
HETATM   16  O   UNL     1     -10.066  16.581  67.014  1.00  0.00    -0.265 OA 
BRANCH  16  17
HETATM   17  C   UNL     1     -10.825  15.564  66.500  1.00  0.00    -0.284 A  
HETATM   18  C   UNL     1     -10.868  15.471  65.106  1.00  0.00    -0.452 A  
HETATM   19  C   UNL     1     -12.402  13.622  65.270  1.00  0.00    -0.465 A  
HETATM   20  C   UNL     1     -11.668  14.506  64.486  1.00  0.00    -0.421 A  
HETATM   21  C   UNL     1     -12.317  13.665  66.656  1.00  0.00    -0.381 A  
HETATM   22  O   UNL     1     -13.229  12.691  64.719  1.00  0.00    -0.846 OA 
HETATM   23  C   UNL     1     -11.511  14.625  67.270  1.00  0.00    -0.386 A  
HETATM   24  H   UNL     1     -13.731  12.088  65.255  1.00  0.00     0.000 HD 
ENDBRANCH  16  17
ENDBRANCH   6  16
ENDBRANCH   2   4
TORSDOF 3
ENDMDL
MODEL       12
REMARK 921   NORMALIZED FREE ENERGY PREDICTED BY IDOCK:   -6.50 KCAL/MOL
REMARK 922        TOTAL FREE ENERGY PREDICTED BY IDOCK:   -8.06 KCAL/MOL
REMARK 923 INTER-LIGAND FREE ENERGY PREDICTED BY IDOCK:   -7.63 KCAL/MOL
REMARK 924 INTRA-LIGAND FREE ENERGY PREDICTED BY IDOCK:   -0.43 KCAL/MOL
REMARK 927      BINDING AFFINITY PREDICTED BY RF-SCORE:    0.00 PKD
ROOT
HETATM    1  O   UNL     1     -10.064  17.078  65.765  1.00  0.00    -0.516 OA 
HETATM    2  C   UNL     1     -10.495  16.296  66.869  1.00  0.00    -0.302 C  
HETATM    3  H   UNL     1     -10.413  17.960  65.806  1.00  0.00     0.000 HD 
ENDROOT
BRANCH   2   4
HETATM    4  C   UNL     1      -9.930  14.867  66.802  1.00  0.00    -0.246 C  
HETATM    5  O   UNL     1      -9.891  14.273  68.109  1.00  0.00    -0.214 OA 
HETATM    6  C   UNL     1     -11.132  13.739  68.599  1.00  0.00    -0.267 C  
HETATM    7  O   UNL     1      -9.617  12.924  65.375  1.00  0.00    -0.470 OA 
HETATM    8  C   UNL     1     -11.722  12.700  67.619  1.00  0.00    -0.361 C  
HETATM    9  O   UNL     1     -10.860  11.545  67.522  1.00  0.00    -0.211 OA 
HETATM   10  C   UNL     1     -11.885  13.287  66.213  1.00  0.00    -0.395 C  
HETATM   11  H   UNL     1     -10.012  12.361  64.719  1.00  0.00     0.000 HD 
HETATM   12  H   UNL     1     -11.223  10.906  66.919  1.00  0.00     0.000 HD 
HETATM   13  O   UNL     1     -13.020  14.144  66.142  1.00  0.00    -0.477 OA 
HETATM   14  H   UNL     1     -13.121  14.508  65.270  1.00  0.00     0.000 HD 
HETATM   15  C   UNL     1     -10.572  13.949  65.734  1.00  0.00    -0.297 C  
BRANCH   6  16
HETATM   16  O   UNL     1     -12.080  14.771  68.893  1.00  0.00    -0.279 OA 
BRANCH  16  17
HETATM   17  C   UNL     1     -12.260  15.065  70.217  1.00  0.00    -0.340 A  
HETATM   18  C   UNL     1     -13.273  14.359  70.873  1.00  0.00    -0.347 A  
HETATM   19  C   UNL     1     -12.845  15.603  72.890  1.00  0.00    -0.471 A  
HETATM   20  C   UNL     1     -13.576  14.635  72.210  1.00  0.00    -0.536 A  
HETATM   21  C   UNL     1     -11.794  16.266  72.267  1.00  0.00    -0.601 A  
HETATM   22  O   UNL     1     -13.126  15.942  74.179  1.00  0.00    -0.852 OA 
HETATM   23  C   UNL     1     -11.490  15.982  70.935  1.00  0.00    -0.451 A  
HETATM   24  H   UNL     1     -12.626  16.603  74.643  1.00  0.00     0.000 HD 
ENDBRANCH  16  17
ENDBRANCH   6  16
ENDBRANCH   2   4
TORSDOF 3
ENDMDL
MODEL       13
REMARK 921   NORMALIZED FREE ENERGY PREDICTED BY IDOCK:   -6.46 KCAL/MOL
REMARK 922        TOTAL FREE ENERGY PREDICTED BY IDOCK:   -8.01 KCAL/MOL
REMARK 923 INTER-LIGAND FREE ENERGY PREDICTED BY IDOCK:   -7.35 KCAL/MOL
REMARK 924 INTRA-LIGAND FREE ENERGY PREDICTED BY IDOCK:   -0.65 KCAL/MOL
REMARK 927      BINDING AFFINITY PREDICTED BY RF-SCORE:    0.00 PKD
ROOT
HETATM    1  O   UNL     1     -10.917  13.116  68.600  1.00  0.00    -0.248 OA 
HETATM    2  C   UNL     1     -10.874  12.424  67.361  1.00  0.00    -0.238 C  
HETATM    3  H   UNL     1     -10.193  12.866  69.163  1.00  0.00     0.000 HD 
ENDROOT
BRANCH   2   4
HETATM    4  C   UNL     1     -12.046  12.828  66.449  1.00  0.00    -0.300 C  
HETATM    5  O   UNL     1     -12.329  14.230  66.576  1.00  0.00    -0.445 OA 
HETATM    6  C   UNL     1     -11.473  15.118  65.838  1.00  0.00    -0.159 C  
HETATM    7  O   UNL     1     -13.266  12.266  64.424  1.00  0.00    -0.806 OA 
HETATM    8  C   UNL     1     -11.462  14.767  64.333  1.00  0.00    -0.253 C  
HETATM    9  O   UNL     1     -12.767  14.978  63.752  1.00  0.00    -0.889 OA 
HETATM   10  C   UNL     1     -11.074  13.301  64.104  1.00  0.00    -0.365 C  
HETATM   11  H   UNL     1     -13.197  11.977  63.521  1.00  0.00     0.000 HD 
HETATM   12  H   UNL     1     -12.761  14.761  62.826  1.00  0.00     0.000 HD 
HETATM   13  O   UNL     1      -9.672  13.111  64.259  1.00  0.00    -0.648 OA 
HETATM   14  H   UNL     1      -9.431  12.202  64.117  1.00  0.00     0.000 HD 
HETATM   15  C   UNL     1     -11.934  12.359  64.979  1.00  0.00    -0.402 C  
BRANCH   6  16
HETATM   16  O   UNL     1     -10.145  15.149  66.373  1.00  0.00    -0.253 OA 
BRANCH  16  17
HETATM   17  C   UNL     1      -9.555  16.381  66.451  1.00  0.00    -0.288 A  
HETATM   18  C   UNL     1     -10.399  17.450  66.767  1.00  0.00    -0.305 A  
HETATM   19  C   UNL     1      -8.553  18.982  66.554  1.00  0.00    -0.311 A  
HETATM   20  C   UNL     1      -9.903  18.757  66.808  1.00  0.00    -0.374 A  
HETATM   21  C   UNL     1      -7.693  17.920  66.302  1.00  0.00    -0.302 A  
HETATM   22  O   UNL     1      -8.026  20.237  66.538  1.00  0.00    -0.405 OA 
HETATM   23  C   UNL     1      -8.192  16.617  66.270  1.00  0.00    -0.365 A  
HETATM   24  H   UNL     1      -7.104  20.391  66.364  1.00  0.00     0.000 HD 
ENDBRANCH  16  17
ENDBRANCH   6  16
ENDBRANCH   2   4
TORSDOF 3
ENDMDL
MODEL       14
REMARK 921   NORMALIZED FREE ENERGY PREDICTED BY IDOCK:   -6.42 KCAL/MOL
REMARK 922        TOTAL FREE ENERGY PREDICTED BY IDOCK:   -7.97 KCAL/MOL
REMARK 923 INTER-LIGAND FREE ENERGY PREDICTED BY IDOCK:   -7.33 KCAL/MOL
REMARK 924 INTRA-LIGAND FREE ENERGY PREDICTED BY IDOCK:   -0.64 KCAL/MOL
REMARK 927      BINDING AFFINITY PREDICTED BY RF-SCORE:    0.00 PKD
ROOT
HETATM    1  O   UNL     1     -10.544   9.649  66.836  1.00  0.00    -0.228 OA 
HETATM    2  C   UNL     1      -9.782  10.832  66.644  1.00  0.00    -0.190 C  
HETATM    3  H   UNL     1      -9.987   8.906  67.038  1.00  0.00     0.000 HD 
ENDROOT
BRANCH   2   4
HETATM    4  C   UNL     1     -10.683  12.036  66.317  1.00  0.00    -0.267 C  
HETATM    5  O   UNL     1     -11.915  11.963  67.050  1.00  0.00    -0.615 OA 
HETATM    6  C   UNL     1     -11.864  12.397  68.419  1.00  0.00    -0.309 C  
HETATM    7  O   UNL     1     -10.709  14.341  65.550  1.00  0.00    -0.302 OA 
HETATM    8  C   UNL     1     -11.326  13.842  68.531  1.00  0.00    -0.285 C  
HETATM    9  O   UNL     1     -12.235  14.773  67.903  1.00  0.00    -0.583 OA 
HETATM   10  C   UNL     1      -9.960  13.983  67.849  1.00  0.00    -0.237 C  
HETATM   11  H   UNL     1     -10.288  15.192  65.606  1.00  0.00     0.000 HD 
HETATM   12  H   UNL     1     -11.904  15.661  67.971  1.00  0.00     0.000 HD 
HETATM   13  O   UNL     1      -8.924  13.432  68.655  1.00  0.00    -0.345 OA 
HETATM   14  H   UNL     1      -8.077  13.519  68.233  1.00  0.00     0.000 HD 
HETATM   15  C   UNL     1      -9.999  13.420  66.410  1.00  0.00    -0.293 C  
BRANCH   6  16
HETATM   16  O   UNL     1     -11.108  11.498  69.239  1.00  0.00    -0.239 OA 
BRANCH  16  17
HETATM   17  C   UNL     1     -11.786  10.908  70.271  1.00  0.00    -0.347 A  
HETATM   18  C   UNL     1     -11.409   9.600  70.588  1.00  0.00    -0.379 A  
HETATM   19  C   UNL     1     -13.125   9.507  72.276  1.00  0.00    -0.408 A  
HETATM   20  C   UNL     1     -12.086   8.890  71.585  1.00  0.00    -0.415 A  
HETATM   21  C   UNL     1     -13.466  10.828  72.012  1.00  0.00    -0.296 A  
HETATM   22  O   UNL     1     -13.845   8.848  73.225  1.00  0.00    -1.163 OA 
HETATM   23  C   UNL     1     -12.782  11.535  71.022  1.00  0.00    -0.426 A  
HETATM   24  H   UNL     1     -14.555   9.270  73.696  1.00  0.00     0.000 HD 
ENDBRANCH  16  17
ENDBRANCH   6  16
ENDBRANCH   2   4
TORSDOF 3
ENDMDL
MODEL       15
REMARK 921   NORMALIZED FREE ENERGY PREDICTED BY IDOCK:   -6.42 KCAL/MOL
REMARK 922        TOTAL FREE ENERGY PREDICTED BY IDOCK:   -7.96 KCAL/MOL
REMARK 923 INTER-LIGAND FREE ENERGY PREDICTED BY IDOCK:   -7.32 KCAL/MOL
REMARK 924 INTRA-LIGAND FREE ENERGY PREDICTED BY IDOCK:   -0.64 KCAL/MOL
REMARK 927      BINDING AFFINITY PREDICTED BY RF-SCORE:    0.00 PKD
ROOT
HETATM    1  O   UNL     1      -8.380  13.851  66.583  1.00  0.00    -0.424 OA 
HETATM    2  C   UNL     1      -9.515  14.705  66.600  1.00  0.00    -0.278 C  
HETATM    3  H   UNL     1      -8.048  13.697  67.460  1.00  0.00     0.000 HD 
ENDROOT
BRANCH   2   4
HETATM    4  C   UNL     1     -10.053  14.954  65.181  1.00  0.00    -0.319 C  
HETATM    5  O   UNL     1      -9.919  13.776  64.372  1.00  0.00    -0.250 OA 
HETATM    6  C   UNL     1     -10.924  12.765  64.555  1.00  0.00    -0.341 C  
HETATM    7  O   UNL     1     -11.589  16.287  63.851  1.00  0.00    -1.489 OA 
HETATM    8  C   UNL     1     -12.343  13.335  64.336  1.00  0.00    -0.348 C  
HETATM    9  O   UNL     1     -12.517  13.755  62.965  1.00  0.00    -1.068 OA 
HETATM   10  C   UNL     1     -12.602  14.548  65.238  1.00  0.00    -0.235 C  
HETATM   11  H   UNL     1     -12.456  16.676  63.806  1.00  0.00     0.000 HD 
HETATM   12  H   UNL     1     -13.390  14.107  62.831  1.00  0.00     0.000 HD 
HETATM   13  O   UNL     1     -12.865  14.145  66.578  1.00  0.00    -0.472 OA 
HETATM   14  H   UNL     1     -13.025  14.896  67.137  1.00  0.00     0.000 HD 
HETATM   15  C   UNL     1     -11.464  15.586  65.109  1.00  0.00    -0.156 C  
BRANCH   6  16
HETATM   16  O   UNL     1     -10.813  12.125  65.832  1.00  0.00    -0.260 OA 
BRANCH  16  17
HETATM   17  C   UNL     1     -10.304  10.855  65.828  1.00  0.00    -0.241 A  
HETATM   18  C   UNL     1     -10.598  10.069  66.946  1.00  0.00    -0.261 A  
HETATM   19  C   UNL     1      -9.265   8.276  66.047  1.00  0.00    -0.166 A  
HETATM   20  C   UNL     1     -10.069   8.780  67.065  1.00  0.00    -0.335 A  
HETATM   21  C   UNL     1      -9.019   9.024  64.902  1.00  0.00    -0.170 A  
HETATM   22  O   UNL     1      -8.690   7.045  66.130  1.00  0.00    -0.137 OA 
HETATM   23  C   UNL     1      -9.555  10.307  64.785  1.00  0.00    -0.369 A  
HETATM   24  H   UNL     1      -8.141   6.701  65.435  1.00  0.00     0.000 HD 
ENDBRANCH  16  17
ENDBRANCH   6  16
ENDBRANCH   2   4
TORSDOF 3
ENDMDL
MODEL       16
REMARK 921   NORMALIZED FREE ENERGY PREDICTED BY IDOCK:   -6.41 KCAL/MOL
REMARK 922        TOTAL FREE ENERGY PREDICTED BY IDOCK:   -7.95 KCAL/MOL
REMARK 923 INTER-LIGAND FREE ENERGY PREDICTED BY IDOCK:   -7.32 KCAL/MOL
REMARK 924 INTRA-LIGAND FREE ENERGY PREDICTED BY IDOCK:   -0.63 KCAL/MOL
REMARK 927      BINDING AFFINITY PREDICTED BY RF-SCORE:    0.00 PKD
ROOT
HETATM    1  O   UNL     1      -9.730  20.445  65.933  1.00  0.00    -0.652 OA 
HETATM    2  C   UNL     1     -10.511  19.814  66.937  1.00  0.00    -0.472 C  
HETATM    3  H   UNL     1     -10.272  20.758  65.217  1.00  0.00     0.000 HD 
ENDROOT
BRANCH   2   4
HETATM    4  C   UNL     1      -9.634  19.307  68.096  1.00  0.00    -0.353 C  
HETATM    5  O   UNL     1     -10.053  18.000  68.516  1.00  0.00    -0.357 OA 
HETATM    6  C   UNL     1      -9.596  16.899  67.713  1.00  0.00    -0.249 C  
HETATM    7  O   UNL     1      -7.455  19.484  69.156  1.00  0.00    -0.366 OA 
HETATM    8  C   UNL     1      -8.055  16.892  67.595  1.00  0.00    -0.182 C  
HETATM    9  O   UNL     1      -7.447  16.659  68.884  1.00  0.00    -0.209 OA 
HETATM   10  C   UNL     1      -7.530  18.229  67.059  1.00  0.00    -0.213 C  
HETATM   11  H   UNL     1      -6.517  19.550  69.015  1.00  0.00     0.000 HD 
HETATM   12  H   UNL     1      -6.499  16.655  68.812  1.00  0.00     0.000 HD 
HETATM   13  O   UNL     1      -7.735  18.336  65.655  1.00  0.00    -0.529 OA 
HETATM   14  H   UNL     1      -7.409  19.164  65.322  1.00  0.00     0.000 HD 
HETATM   15  C   UNL     1      -8.108  19.413  67.867  1.00  0.00    -0.298 C  
BRANCH   6  16
HETATM   16  O   UNL     1     -10.215  16.884  66.422  1.00  0.00    -0.302 OA 
BRANCH  16  17
HETATM   17  C   UNL     1     -10.908  15.749  66.098  1.00  0.00    -0.240 A  
HETATM   18  C   UNL     1     -11.166  15.552  64.739  1.00  0.00    -0.399 A  
HETATM   19  C   UNL     1     -12.396  13.547  65.255  1.00  0.00    -0.467 A  
HETATM   20  C   UNL     1     -11.922  14.455  64.314  1.00  0.00    -0.433 A  
HETATM   21  C   UNL     1     -12.092  13.700  66.603  1.00  0.00    -0.459 A  
HETATM   22  O   UNL     1     -13.173  12.486  64.902  1.00  0.00    -0.787 OA 
HETATM   23  C   UNL     1     -11.330  14.792  67.021  1.00  0.00    -0.358 A  
HETATM   24  H   UNL     1     -13.497  11.867  65.545  1.00  0.00     0.000 HD 
ENDBRANCH  16  17
ENDBRANCH   6  16
ENDBRANCH   2   4
TORSDOF 3
ENDMDL
MODEL       17
REMARK 921   NORMALIZED FREE ENERGY PREDICTED BY IDOCK:   -6.37 KCAL/MOL
REMARK 922        TOTAL FREE ENERGY PREDICTED BY IDOCK:   -7.91 KCAL/MOL
REMARK 923 INTER-LIGAND FREE ENERGY PREDICTED BY IDOCK:   -7.22 KCAL/MOL
REMARK 924 INTRA-LIGAND FREE ENERGY PREDICTED BY IDOCK:   -0.69 KCAL/MOL
REMARK 927      BINDING AFFINITY PREDICTED BY RF-SCORE:    0.00 PKD
ROOT
HETATM    1  O   UNL     1      -8.199  12.665  66.539  1.00  0.00    -0.403 OA 
HETATM    2  C   UNL     1      -8.905  13.557  67.390  1.00  0.00    -0.221 C  
HETATM    3  H   UNL     1      -7.259  12.766  66.634  1.00  0.00     0.000 HD 
ENDROOT
BRANCH   2   4
HETATM    4  C   UNL     1     -10.427  13.394  67.237  1.00  0.00    -0.248 C  
HETATM    5  O   UNL     1     -11.082  14.671  67.274  1.00  0.00    -0.307 OA 
HETATM    6  C   UNL     1     -11.059  15.430  66.053  1.00  0.00    -0.233 C  
HETATM    7  O   UNL     1     -12.189  11.969  66.359  1.00  0.00    -0.551 OA 
HETATM    8  C   UNL     1     -11.654  14.622  64.878  1.00  0.00    -0.405 C  
HETATM    9  O   UNL     1     -13.057  14.360  65.099  1.00  0.00    -0.633 OA 
HETATM   10  C   UNL     1     -10.943  13.274  64.710  1.00  0.00    -0.350 C  
HETATM   11  H   UNL     1     -12.469  11.425  65.631  1.00  0.00     0.000 HD 
HETATM   12  H   UNL     1     -13.423  13.863  64.376  1.00  0.00     0.000 HD 
HETATM   13  O   UNL     1      -9.675  13.438  64.084  1.00  0.00    -0.654 OA 
HETATM   14  H   UNL     1      -9.233  12.603  63.979  1.00  0.00     0.000 HD 
HETATM   15  C   UNL     1     -10.883  12.509  66.052  1.00  0.00    -0.276 C  
BRANCH   6  16
HETATM   16  O   UNL     1      -9.744  15.905  65.743  1.00  0.00    -0.323 OA 
BRANCH  16  17
HETATM   17  C   UNL     1      -9.465  17.193  66.114  1.00  0.00    -0.201 A  
HETATM   18  C   UNL     1     -10.531  18.095  66.061  1.00  0.00    -0.346 A  
HETATM   19  C   UNL     1      -9.064  19.882  66.733  1.00  0.00    -0.367 A  
HETATM   20  C   UNL     1     -10.331  19.446  66.359  1.00  0.00    -0.575 A  
HETATM   21  C   UNL     1      -8.011  18.982  66.850  1.00  0.00    -0.270 A  
HETATM   22  O   UNL     1      -8.803  21.193  66.993  1.00  0.00    -0.553 OA 
HETATM   23  C   UNL     1      -8.218  17.633  66.559  1.00  0.00    -0.307 A  
HETATM   24  H   UNL     1      -7.937  21.490  67.248  1.00  0.00     0.000 HD 
ENDBRANCH  16  17
ENDBRANCH   6  16
ENDBRANCH   2   4
TORSDOF 3
ENDMDL
MODEL       18
REMARK 921   NORMALIZED FREE ENERGY PREDICTED BY IDOCK:   -6.35 KCAL/MOL
REMARK 922        TOTAL FREE ENERGY PREDICTED BY IDOCK:   -7.88 KCAL/MOL
REMARK 923 INTER-LIGAND FREE ENERGY PREDICTED BY IDOCK:   -7.22 KCAL/MOL
REMARK 924 INTRA-LIGAND FREE ENERGY PREDICTED BY IDOCK:   -0.66 KCAL/MOL
REMARK 927      BINDING AFFINITY PREDICTED BY RF-SCORE:    0.00 PKD
ROOT
HETATM    1  O   UNL     1     -13.171  13.995  65.356  1.00  0.00    -0.761 OA 
HETATM    2  C   UNL     1     -11.838  14.286  64.962  1.00  0.00    -0.396 C  
HETATM    3  H   UNL     1     -13.801  14.487  64.841  1.00  0.00     0.000 HD 
ENDROOT
BRANCH   2   4
HETATM    4  C   UNL     1     -10.819  13.489  65.793  1.00  0.00    -0.275 C  
HETATM    5  O   UNL     1      -9.618  14.250  65.993  1.00  0.00    -0.295 OA 
HETATM    6  C   UNL     1      -9.663  15.242  67.032  1.00  0.00    -0.226 C  
HETATM    7  O   UNL     1     -10.555  11.722  67.441  1.00  0.00    -0.212 OA 
HETATM    8  C   UNL     1     -10.063  14.617  68.388  1.00  0.00    -0.237 C  
HETATM    9  O   UNL     1      -9.055  13.686  68.837  1.00  0.00    -0.389 OA 
HETATM   10  C   UNL     1     -11.392  13.859  68.283  1.00  0.00    -0.294 C  
HETATM   11  H   UNL     1     -10.894  11.340  68.243  1.00  0.00     0.000 HD 
HETATM   12  H   UNL     1      -9.301  13.302  69.671  1.00  0.00     0.000 HD 
HETATM   13  O   UNL     1     -12.496  14.758  68.260  1.00  0.00    -0.584 OA 
HETATM   14  H   UNL     1     -13.320  14.289  68.195  1.00  0.00     0.000 HD 
HETATM   15  C   UNL     1     -11.370  12.866  67.098  1.00  0.00    -0.306 C  
BRANCH   6  16
HETATM   16  O   UNL     1     -10.522  16.336  66.692  1.00  0.00    -0.300 OA 
BRANCH  16  17
HETATM   17  C   UNL     1      -9.963  17.584  66.759  1.00  0.00    -0.313 A  
HETATM   18  C   UNL     1      -8.619  17.678  66.388  1.00  0.00    -0.269 A  
HETATM   19  C   UNL     1      -8.626  20.025  66.929  1.00  0.00    -0.336 A  
HETATM   20  C   UNL     1      -7.942  18.899  66.483  1.00  0.00    -0.289 A  
HETATM   21  C   UNL     1      -9.979  19.956  67.240  1.00  0.00    -0.556 A  
HETATM   22  O   UNL     1      -8.006  21.227  67.082  1.00  0.00    -0.693 OA 
HETATM   23  C   UNL     1     -10.652  18.738  67.135  1.00  0.00    -0.491 A  
HETATM   24  H   UNL     1      -8.473  21.997  67.387  1.00  0.00     0.000 HD 
ENDBRANCH  16  17
ENDBRANCH   6  16
ENDBRANCH   2   4
TORSDOF 3
ENDMDL
MODEL       19
REMARK 921   NORMALIZED FREE ENERGY PREDICTED BY IDOCK:   -6.34 KCAL/MOL
REMARK 922        TOTAL FREE ENERGY PREDICTED BY IDOCK:   -7.88 KCAL/MOL
REMARK 923 INTER-LIGAND FREE ENERGY PREDICTED BY IDOCK:   -7.19 KCAL/MOL
REMARK 924 INTRA-LIGAND FREE ENERGY PREDICTED BY IDOCK:   -0.69 KCAL/MOL
REMARK 927      BINDING AFFINITY PREDICTED BY RF-SCORE:    0.00 PKD
ROOT
HETATM    1  O   UNL     1      -8.543  11.324  64.461  1.00  0.00    -0.367 OA 
HETATM    2  C   UNL     1      -9.691  10.840  65.142  1.00  0.00    -0.265 C  
HETATM    3  H   UNL     1      -7.748  10.918  64.788  1.00  0.00     0.000 HD 
ENDROOT
BRANCH   2   4
HETATM    4  C   UNL     1     -10.978  11.496  64.612  1.00  0.00    -0.288 C  
HETATM    5  O   UNL     1     -11.979  11.557  65.640  1.00  0.00    -0.150 OA 
HETATM    6  C   UNL     1     -11.846  12.628  66.590  1.00  0.00    -0.380 C  
HETATM    7  O   UNL     1     -11.885  13.029  62.959  1.00  0.00    -0.841 OA 
HETATM    8  C   UNL     1     -11.801  14.002  65.885  1.00  0.00    -0.383 C  
HETATM    9  O   UNL     1     -13.055  14.277  65.223  1.00  0.00    -0.707 OA 
HETATM   10  C   UNL     1     -10.690  14.053  64.830  1.00  0.00    -0.427 C  
HETATM   11  H   UNL     1     -11.763  13.855  62.505  1.00  0.00     0.000 HD 
HETATM   12  H   UNL     1     -13.027  15.122  64.790  1.00  0.00     0.000 HD 
HETATM   13  O   UNL     1      -9.412  14.212  65.437  1.00  0.00    -0.533 OA 
HETATM   14  H   UNL     1      -8.723  14.244  64.783  1.00  0.00     0.000 HD 
HETATM   15  C   UNL     1     -10.780  12.841  63.873  1.00  0.00    -0.409 C  
BRANCH   6  16
HETATM   16  O   UNL     1     -10.712  12.447  67.446  1.00  0.00    -0.222 OA 
BRANCH  16  17
HETATM   17  C   UNL     1     -10.894  11.620  68.521  1.00  0.00    -0.219 A  
HETATM   18  C   UNL     1     -12.082  11.792  69.237  1.00  0.00    -0.292 A  
HETATM   19  C   UNL     1     -11.393  10.097  70.804  1.00  0.00    -0.354 A  
HETATM   20  C   UNL     1     -12.330  11.038  70.389  1.00  0.00    -0.442 A  
HETATM   21  C   UNL     1     -10.238   9.873  70.063  1.00  0.00    -0.319 A  
HETATM   22  O   UNL     1     -11.563   9.367  71.940  1.00  0.00    -0.378 OA 
HETATM   23  C   UNL     1      -9.999  10.622  68.911  1.00  0.00    -0.213 A  
HETATM   24  H   UNL     1     -10.923   8.724  72.223  1.00  0.00     0.000 HD 
ENDBRANCH  16  17
ENDBRANCH   6  16
ENDBRANCH   2   4
TORSDOF 3
ENDMDL
MODEL       20
REMARK 921   NORMALIZED FREE ENERGY PREDICTED BY IDOCK:   -6.32 KCAL/MOL
REMARK 922        TOTAL FREE ENERGY PREDICTED BY IDOCK:   -7.85 KCAL/MOL
REMARK 923 INTER-LIGAND FREE ENERGY PREDICTED BY IDOCK:   -7.27 KCAL/MOL
REMARK 924 INTRA-LIGAND FREE ENERGY PREDICTED BY IDOCK:   -0.58 KCAL/MOL
REMARK 927      BINDING AFFINITY PREDICTED BY RF-SCORE:    0.00 PKD
ROOT
HETATM    1  O   UNL     1      -8.527  13.891  66.650  1.00  0.00    -0.435 OA 
HETATM    2  C   UNL     1      -9.524  14.900  66.582  1.00  0.00    -0.265 C  
HETATM    3  H   UNL     1      -8.174  13.809  67.528  1.00  0.00     0.000 HD 
ENDROOT
BRANCH   2   4
HETATM    4  C   UNL     1     -10.096  15.032  65.160  1.00  0.00    -0.315 C  
HETATM    5  O   UNL     1      -9.956  13.799  64.439  1.00  0.00    -0.250 OA 
HETATM    6  C   UNL     1     -10.937  12.786  64.719  1.00  0.00    -0.305 C  
HETATM    7  O   UNL     1     -11.684  16.234  63.768  1.00  0.00    -1.511 OA 
HETATM    8  C   UNL     1     -12.371  13.314  64.489  1.00  0.00    -0.368 C  
HETATM    9  O   UNL     1     -12.581  13.627  63.095  1.00  0.00    -0.969 OA 
HETATM   10  C   UNL     1     -12.635  14.586  65.303  1.00  0.00    -0.235 C  
HETATM   11  H   UNL     1     -12.559  16.603  63.714  1.00  0.00     0.000 HD 
HETATM   12  H   UNL     1     -13.463  13.952  62.954  1.00  0.00     0.000 HD 
HETATM   13  O   UNL     1     -12.863  14.281  66.675  1.00  0.00    -0.438 OA 
HETATM   14  H   UNL     1     -13.026  15.069  67.180  1.00  0.00     0.000 HD 
HETATM   15  C   UNL     1     -11.520  15.632  65.072  1.00  0.00    -0.175 C  
BRANCH   6  16
HETATM   16  O   UNL     1     -10.788  12.247  66.037  1.00  0.00    -0.258 OA 
BRANCH  16  17
HETATM   17  C   UNL     1     -10.400  10.936  66.112  1.00  0.00    -0.248 A  
HETATM   18  C   UNL     1      -9.526  10.494  65.115  1.00  0.00    -0.285 A  
HETATM   19  C   UNL     1      -9.583   8.271  66.040  1.00  0.00    -0.081 A  
HETATM   20  C   UNL     1      -9.124   9.155  65.069  1.00  0.00    -0.215 A  
HETATM   21  C   UNL     1     -10.402   8.714  67.072  1.00  0.00    -0.368 A  
HETATM   22  O   UNL     1      -9.258   6.949  66.019  1.00  0.00    -0.308 OA 
HETATM   23  C   UNL     1     -10.794  10.053  67.118  1.00  0.00    -0.240 A  
HETATM   24  H   UNL     1      -9.572   6.345  66.682  1.00  0.00     0.000 HD 
ENDBRANCH  16  17
ENDBRANCH   6  16
ENDBRANCH   2   4
TORSDOF 3
ENDMDL
MODEL       21
REMARK 921   NORMALIZED FREE ENERGY PREDICTED BY IDOCK:   -6.32 KCAL/MOL
REMARK 922        TOTAL FREE ENERGY PREDICTED BY IDOCK:   -7.84 KCAL/MOL
REMARK 923 INTER-LIGAND FREE ENERGY PREDICTED BY IDOCK:   -7.27 KCAL/MOL
REMARK 924 INTRA-LIGAND FREE ENERGY PREDICTED BY IDOCK:   -0.58 KCAL/MOL
REMARK 927      BINDING AFFINITY PREDICTED BY RF-SCORE:    0.00 PKD
ROOT
HETATM    1  O   UNL     1     -11.493  12.846  70.189  1.00  0.00    -0.518 OA 
HETATM    2  C   UNL     1     -12.137  13.730  69.283  1.00  0.00    -0.329 C  
HETATM    3  H   UNL     1     -11.576  13.147  71.086  1.00  0.00     0.000 HD 
ENDROOT
BRANCH   2   4
HETATM    4  C   UNL     1     -12.004  13.244  67.830  1.00  0.00    -0.314 C  
HETATM    5  O   UNL     1     -12.050  14.350  66.917  1.00  0.00    -0.425 OA 
HETATM    6  C   UNL     1     -10.831  15.094  66.760  1.00  0.00    -0.322 C  
HETATM    7  O   UNL     1     -11.146  11.472  66.405  1.00  0.00    -0.296 OA 
HETATM    8  C   UNL     1      -9.662  14.175  66.338  1.00  0.00    -0.298 C  
HETATM    9  O   UNL     1      -9.901  13.618  65.027  1.00  0.00    -0.577 OA 
HETATM   10  C   UNL     1      -9.483  13.012  67.321  1.00  0.00    -0.224 C  
HETATM   11  H   UNL     1     -10.422  10.879  66.239  1.00  0.00     0.000 HD 
HETATM   12  H   UNL     1      -9.182  13.052  64.768  1.00  0.00     0.000 HD 
HETATM   13  O   UNL     1      -8.841  13.443  68.516  1.00  0.00    -0.285 OA 
HETATM   14  H   UNL     1      -8.730  12.722  69.125  1.00  0.00     0.000 HD 
HETATM   15  C   UNL     1     -10.824  12.280  67.560  1.00  0.00    -0.234 C  
BRANCH   6  16
HETATM   16  O   UNL     1     -10.504  15.841  67.938  1.00  0.00    -0.257 OA 
BRANCH  16  17
HETATM   17  C   UNL     1     -10.340  17.189  67.771  1.00  0.00    -0.347 A  
HETATM   18  C   UNL     1     -10.392  17.658  66.456  1.00  0.00    -0.337 A  
HETATM   19  C   UNL     1      -9.922  19.892  67.225  1.00  0.00    -0.421 A  
HETATM   20  C   UNL     1     -10.172  19.011  66.177  1.00  0.00    -0.508 A  
HETATM   21  C   UNL     1      -9.931  19.447  68.542  1.00  0.00    -0.520 A  
HETATM   22  O   UNL     1      -9.659  21.210  67.008  1.00  0.00    -0.664 OA 
HETATM   23  C   UNL     1     -10.159  18.098  68.815  1.00  0.00    -0.392 A  
HETATM   24  H   UNL     1      -9.488  21.811  67.724  1.00  0.00     0.000 HD 
ENDBRANCH  16  17
ENDBRANCH   6  16
ENDBRANCH   2   4
TORSDOF 3
ENDMDL
MODEL       22
REMARK 921   NORMALIZED FREE ENERGY PREDICTED BY IDOCK:   -6.28 KCAL/MOL
REMARK 922        TOTAL FREE ENERGY PREDICTED BY IDOCK:   -7.80 KCAL/MOL
REMARK 923 INTER-LIGAND FREE ENERGY PREDICTED BY IDOCK:   -7.19 KCAL/MOL
REMARK 924 INTRA-LIGAND FREE ENERGY PREDICTED BY IDOCK:   -0.61 KCAL/MOL
REMARK 927      BINDING AFFINITY PREDICTED BY RF-SCORE:    0.00 PKD
ROOT
HETATM    1  O   UNL     1     -10.191  11.411  67.008  1.00  0.00    -0.203 OA 
HETATM    2  C   UNL     1     -10.792  12.608  67.479  1.00  0.00    -0.239 C  
HETATM    3  H   UNL     1      -9.463  11.147  67.559  1.00  0.00     0.000 HD 
ENDROOT
BRANCH   2   4
HETATM    4  C   UNL     1     -11.971  13.035  66.588  1.00  0.00    -0.387 C  
HETATM    5  O   UNL     1     -12.157  14.458  66.638  1.00  0.00    -0.419 OA 
HETATM    6  C   UNL     1     -11.275  15.240  65.815  1.00  0.00    -0.247 C  
HETATM    7  O   UNL     1     -13.306  12.437  64.648  1.00  0.00    -0.778 OA 
HETATM    8  C   UNL     1     -11.348  14.801  64.336  1.00  0.00    -0.213 C  
HETATM    9  O   UNL     1     -12.660  15.064  63.790  1.00  0.00    -0.997 OA 
HETATM   10  C   UNL     1     -11.067  13.301  64.184  1.00  0.00    -0.365 C  
HETATM   11  H   UNL     1     -13.293  12.091  63.762  1.00  0.00     0.000 HD 
HETATM   12  H   UNL     1     -12.705  14.793  62.880  1.00  0.00     0.000 HD 
HETATM   13  O   UNL     1      -9.675  13.026  64.299  1.00  0.00    -0.613 OA 
HETATM   14  H   UNL     1      -9.499  12.097  64.206  1.00  0.00     0.000 HD 
HETATM   15  C   UNL     1     -11.949  12.473  65.146  1.00  0.00    -0.434 C  
BRANCH   6  16
HETATM   16  O   UNL     1      -9.927  15.214  66.298  1.00  0.00    -0.257 OA 
BRANCH  16  17
HETATM   17  C   UNL     1      -9.496  16.339  66.947  1.00  0.00    -0.230 A  
HETATM   18  C   UNL     1      -8.112  16.488  67.069  1.00  0.00    -0.235 A  
HETATM   19  C   UNL     1      -8.434  18.515  68.330  1.00  0.00    -0.318 A  
HETATM   20  C   UNL     1      -7.576  17.572  67.772  1.00  0.00    -0.197 A  
HETATM   21  C   UNL     1      -9.809  18.410  68.160  1.00  0.00    -0.365 A  
HETATM   22  O   UNL     1      -7.968  19.565  69.060  1.00  0.00    -0.356 OA 
HETATM   23  C   UNL     1     -10.339  17.331  67.451  1.00  0.00    -0.338 A  
HETATM   24  H   UNL     1      -8.554  20.209  69.441  1.00  0.00     0.000 HD 
ENDBRANCH  16  17
ENDBRANCH   6  16
ENDBRANCH   2   4
TORSDOF 3
ENDMDL
MODEL       23
REMARK 921   NORMALIZED FREE ENERGY PREDICTED BY IDOCK:   -6.24 KCAL/MOL
REMARK 922        TOTAL FREE ENERGY PREDICTED BY IDOCK:   -7.75 KCAL/MOL
REMARK 923 INTER-LIGAND FREE ENERGY PREDICTED BY IDOCK:   -7.35 KCAL/MOL
REMARK 924 INTRA-LIGAND FREE ENERGY PREDICTED BY IDOCK:   -0.40 KCAL/MOL
REMARK 927      BINDING AFFINITY PREDICTED BY RF-SCORE:    0.00 PKD
ROOT
HETATM    1  O   UNL     1     -12.538  13.868  62.861  1.00  0.00    -0.966 OA 
HETATM    2  C   UNL     1     -12.182  13.323  64.123  1.00  0.00    -0.401 C  
HETATM    3  H   UNL     1     -13.471  14.039  62.807  1.00  0.00     0.000 HD 
ENDROOT
BRANCH   2   4
HETATM    4  C   UNL     1     -10.671  13.046  64.211  1.00  0.00    -0.407 C  
HETATM    5  O   UNL     1      -9.991  14.134  64.855  1.00  0.00    -0.322 OA 
HETATM    6  C   UNL     1     -10.052  14.157  66.291  1.00  0.00    -0.300 C  
HETATM    7  O   UNL     1      -8.977  11.306  64.275  1.00  0.00    -0.387 OA 
HETATM    8  C   UNL     1      -9.523  12.837  66.896  1.00  0.00    -0.235 C  
HETATM    9  O   UNL     1      -8.117  12.672  66.609  1.00  0.00    -0.405 OA 
HETATM   10  C   UNL     1     -10.267  11.624  66.327  1.00  0.00    -0.227 C  
HETATM   11  H   UNL     1      -8.738  10.455  64.625  1.00  0.00     0.000 HD 
HETATM   12  H   UNL     1      -7.792  11.860  66.982  1.00  0.00     0.000 HD 
HETATM   13  O   UNL     1     -11.557  11.490  66.913  1.00  0.00    -0.503 OA 
HETATM   14  H   UNL     1     -12.019  10.738  66.560  1.00  0.00     0.000 HD 
HETATM   15  C   UNL     1     -10.283  11.661  64.781  1.00  0.00    -0.275 C  
BRANCH   6  16
HETATM   16  O   UNL     1     -11.369  14.455  66.767  1.00  0.00    -0.329 OA 
BRANCH  16  17
HETATM   17  C   UNL     1     -11.454  14.936  68.045  1.00  0.00    -0.337 A  
HETATM   18  C   UNL     1     -12.124  14.126  68.965  1.00  0.00    -0.348 A  
HETATM   19  C   UNL     1     -11.818  15.798  70.672  1.00  0.00    -0.385 A  
HETATM   20  C   UNL     1     -12.319  14.560  70.281  1.00  0.00    -0.408 A  
HETATM   21  C   UNL     1     -11.095  16.583  69.782  1.00  0.00    -0.248 A  
HETATM   22  O   UNL     1     -12.016  16.288  71.927  1.00  0.00    -0.552 OA 
HETATM   23  C   UNL     1     -10.897  16.142  68.473  1.00  0.00    -0.313 A  
HETATM   24  H   UNL     1     -11.674  17.133  72.194  1.00  0.00     0.000 HD 
ENDBRANCH  16  17
ENDBRANCH   6  16
ENDBRANCH   2   4
TORSDOF 3
ENDMDL
MODEL       24
REMARK 921   NORMALIZED FREE ENERGY PREDICTED BY IDOCK:   -6.21 KCAL/MOL
REMARK 922        TOTAL FREE ENERGY PREDICTED BY IDOCK:   -7.72 KCAL/MOL
REMARK 923 INTER-LIGAND FREE ENERGY PREDICTED BY IDOCK:   -7.14 KCAL/MOL
REMARK 924 INTRA-LIGAND FREE ENERGY PREDICTED BY IDOCK:   -0.59 KCAL/MOL
REMARK 927      BINDING AFFINITY PREDICTED BY RF-SCORE:    0.00 PKD
ROOT
HETATM    1  O   UNL     1     -12.272  15.336  68.021  1.00  0.00    -0.455 OA 
HETATM    2  C   UNL     1     -11.048  14.617  67.961  1.00  0.00    -0.281 C  
HETATM    3  H   UNL     1     -12.618  15.360  68.906  1.00  0.00     0.000 HD 
ENDROOT
BRANCH   2   4
HETATM    4  C   UNL     1     -10.488  14.578  66.529  1.00  0.00    -0.285 C  
HETATM    5  O   UNL     1     -10.064  13.250  66.185  1.00  0.00    -0.282 OA 
HETATM    6  C   UNL     1     -11.100  12.339  65.784  1.00  0.00    -0.323 C  
HETATM    7  O   UNL     1     -10.542  15.653  64.351  1.00  0.00    -0.676 OA 
HETATM    8  C   UNL     1     -11.916  12.902  64.599  1.00  0.00    -0.392 C  
HETATM    9  O   UNL     1     -11.088  13.026  63.423  1.00  0.00    -0.566 OA 
HETATM   10  C   UNL     1     -12.488  14.288  64.923  1.00  0.00    -0.390 C  
HETATM   11  H   UNL     1     -11.092  16.054  63.687  1.00  0.00     0.000 HD 
HETATM   12  H   UNL     1     -11.590  13.373  62.694  1.00  0.00     0.000 HD 
HETATM   13  O   UNL     1     -13.618  14.189  65.782  1.00  0.00    -0.587 OA 
HETATM   14  H   UNL     1     -13.972  15.048  65.983  1.00  0.00     0.000 HD 
HETATM   15  C   UNL     1     -11.382  15.232  65.449  1.00  0.00    -0.253 C  
BRANCH   6  16
HETATM   16  O   UNL     1     -11.953  11.982  66.878  1.00  0.00    -0.612 OA 
BRANCH  16  17
HETATM   17  C   UNL     1     -11.434  11.097  67.784  1.00  0.00    -0.272 A  
HETATM   18  C   UNL     1     -11.834  11.268  69.112  1.00  0.00    -0.423 A  
HETATM   19  C   UNL     1     -10.400   9.454  69.786  1.00  0.00    -0.223 A  
HETATM   20  C   UNL     1     -11.309  10.453  70.120  1.00  0.00    -0.397 A  
HETATM   21  C   UNL     1     -10.044   9.235  68.461  1.00  0.00    -0.211 A  
HETATM   22  O   UNL     1      -9.825   8.661  70.732  1.00  0.00    -0.174 OA 
HETATM   23  C   UNL     1     -10.577  10.045  67.457  1.00  0.00    -0.336 A  
HETATM   24  H   UNL     1      -9.204   7.979  70.503  1.00  0.00     0.000 HD 
ENDBRANCH  16  17
ENDBRANCH   6  16
ENDBRANCH   2   4
TORSDOF 3
ENDMDL
MODEL       25
REMARK 921   NORMALIZED FREE ENERGY PREDICTED BY IDOCK:   -6.19 KCAL/MOL
REMARK 922        TOTAL FREE ENERGY PREDICTED BY IDOCK:   -7.70 KCAL/MOL
REMARK 923 INTER-LIGAND FREE ENERGY PREDICTED BY IDOCK:   -6.96 KCAL/MOL
REMARK 924 INTRA-LIGAND FREE ENERGY PREDICTED BY IDOCK:   -0.74 KCAL/MOL
REMARK 927      BINDING AFFINITY PREDICTED BY RF-SCORE:    0.00 PKD
ROOT
HETATM    1  O   UNL     1     -10.148  16.260  66.594  1.00  0.00    -0.257 OA 
HETATM    2  C   UNL     1      -9.517  15.250  65.820  1.00  0.00    -0.275 C  
HETATM    3  H   UNL     1      -9.569  16.592  67.270  1.00  0.00     0.000 HD 
ENDROOT
BRANCH   2   4
HETATM    4  C   UNL     1     -10.454  14.713  64.724  1.00  0.00    -0.313 C  
HETATM    5  O   UNL     1     -10.219  13.315  64.495  1.00  0.00    -0.382 OA 
HETATM    6  C   UNL     1     -10.825  12.409  65.432  1.00  0.00    -0.285 C  
HETATM    7  O   UNL     1     -12.586  15.038  63.606  1.00  0.00    -0.975 OA 
HETATM    8  C   UNL     1     -12.352  12.629  65.518  1.00  0.00    -0.391 C  
HETATM    9  O   UNL     1     -12.985  12.306  64.261  1.00  0.00    -0.701 OA 
HETATM   10  C   UNL     1     -12.688  14.086  65.855  1.00  0.00    -0.397 C  
HETATM   11  H   UNL     1     -13.506  15.250  63.716  1.00  0.00     0.000 HD 
HETATM   12  H   UNL     1     -13.924  12.441  64.314  1.00  0.00     0.000 HD 
HETATM   13  O   UNL     1     -12.473  14.357  67.236  1.00  0.00    -0.601 OA 
HETATM   14  H   UNL     1     -12.681  15.261  67.445  1.00  0.00     0.000 HD 
HETATM   15  C   UNL     1     -11.951  15.058  64.905  1.00  0.00    -0.255 C  
BRANCH   6  16
HETATM   16  O   UNL     1     -10.216  12.489  66.725  1.00  0.00    -0.227 OA 
BRANCH  16  17
HETATM   17  C   UNL     1     -10.429  11.425  67.559  1.00  0.00    -0.201 A  
HETATM   18  C   UNL     1     -10.046  10.172  67.071  1.00  0.00    -0.277 A  
HETATM   19  C   UNL     1     -10.882   9.127  69.073  1.00  0.00    -0.090 A  
HETATM   20  C   UNL     1     -10.283   9.017  67.823  1.00  0.00    -0.284 A  
HETATM   21  C   UNL     1     -11.209  10.373  69.595  1.00  0.00    -0.333 A  
HETATM   22  O   UNL     1     -11.175   8.033  69.829  1.00  0.00    -0.438 OA 
HETATM   23  C   UNL     1     -10.964  11.524  68.845  1.00  0.00    -0.279 A  
HETATM   24  H   UNL     1     -11.585   8.109  70.683  1.00  0.00     0.000 HD 
ENDBRANCH  16  17
ENDBRANCH   6  16
ENDBRANCH   2   4
TORSDOF 3
ENDMDL
MODEL       26
REMARK 921   NORMALIZED FREE ENERGY PREDICTED BY IDOCK:   -6.17 KCAL/MOL
REMARK 922        TOTAL FREE ENERGY PREDICTED BY IDOCK:   -7.67 KCAL/MOL
REMARK 923 INTER-LIGAND FREE ENERGY PREDICTED BY IDOCK:   -7.13 KCAL/MOL
REMARK 924 INTRA-LIGAND FREE ENERGY PREDICTED BY IDOCK:   -0.54 KCAL/MOL
REMARK 927      BINDING AFFINITY PREDICTED BY RF-SCORE:    0.00 PKD
ROOT
HETATM    1  O   UNL     1      -9.526  12.272  63.476  1.00  0.00    -0.663 OA 
HETATM    2  C   UNL     1     -10.777  11.627  63.661  1.00  0.00    -0.435 C  
HETATM    3  H   UNL     1      -8.860  11.662  63.181  1.00  0.00     0.000 HD 
ENDROOT
BRANCH   2   4
HETATM    4  C   UNL     1     -11.855  12.615  64.138  1.00  0.00    -0.410 C  
HETATM    5  O   UNL     1     -12.465  12.155  65.354  1.00  0.00    -0.523 OA 
HETATM    6  C   UNL     1     -11.729  12.403  66.564  1.00  0.00    -0.379 C  
HETATM    7  O   UNL     1     -12.590  14.931  64.070  1.00  0.00    -0.888 OA 
HETATM    8  C   UNL     1     -11.408  13.905  66.729  1.00  0.00    -0.333 C  
HETATM    9  O   UNL     1     -12.621  14.670  66.896  1.00  0.00    -0.419 OA 
HETATM   10  C   UNL     1     -10.668  14.456  65.504  1.00  0.00    -0.336 C  
HETATM   11  H   UNL     1     -12.320  15.841  64.108  1.00  0.00     0.000 HD 
HETATM   12  H   UNL     1     -12.424  15.594  66.998  1.00  0.00     0.000 HD 
HETATM   13  O   UNL     1      -9.300  14.062  65.511  1.00  0.00    -0.499 OA 
HETATM   14  H   UNL     1      -8.841  14.403  64.752  1.00  0.00     0.000 HD 
HETATM   15  C   UNL     1     -11.415  14.097  64.199  1.00  0.00    -0.173 C  
BRANCH   6  16
HETATM   16  O   UNL     1     -10.541  11.607  66.640  1.00  0.00    -0.225 OA 
BRANCH  16  17
HETATM   17  C   UNL     1     -10.558  10.583  67.548  1.00  0.00    -0.259 A  
HETATM   18  C   UNL     1     -10.981  10.911  68.839  1.00  0.00    -0.278 A  
HETATM   19  C   UNL     1     -10.560   8.652  69.560  1.00  0.00    -0.213 A  
HETATM   20  C   UNL     1     -10.972   9.948  69.854  1.00  0.00    -0.321 A  
HETATM   21  C   UNL     1     -10.198   8.299  68.265  1.00  0.00    -0.246 A  
HETATM   22  O   UNL     1     -10.491   7.687  70.518  1.00  0.00    -0.214 OA 
HETATM   23  C   UNL     1     -10.216   9.262  67.255  1.00  0.00    -0.315 A  
HETATM   24  H   UNL     1     -10.209   6.802  70.317  1.00  0.00     0.000 HD 
ENDBRANCH  16  17
ENDBRANCH   6  16
ENDBRANCH   2   4
TORSDOF 3
ENDMDL
MODEL       27
REMARK 921   NORMALIZED FREE ENERGY PREDICTED BY IDOCK:   -6.16 KCAL/MOL
REMARK 922        TOTAL FREE ENERGY PREDICTED BY IDOCK:   -7.66 KCAL/MOL
REMARK 923 INTER-LIGAND FREE ENERGY PREDICTED BY IDOCK:   -6.98 KCAL/MOL
REMARK 924 INTRA-LIGAND FREE ENERGY PREDICTED BY IDOCK:   -0.68 KCAL/MOL
REMARK 927      BINDING AFFINITY PREDICTED BY RF-SCORE:    0.00 PKD
ROOT
HETATM    1  O   UNL     1     -10.990   7.640  68.069  1.00  0.00    -0.459 OA 
HETATM    2  C   UNL     1     -10.426   8.663  68.876  1.00  0.00    -0.192 C  
HETATM    3  H   UNL     1     -11.280   7.978  67.230  1.00  0.00     0.000 HD 
ENDROOT
BRANCH   2   4
HETATM    4  C   UNL     1      -9.957   8.115  70.234  1.00  0.00    -0.189 C  
HETATM    5  O   UNL     1     -10.104   9.108  71.261  1.00  0.00    -0.283 OA 
HETATM    6  C   UNL     1     -11.425   9.266  71.803  1.00  0.00    -0.378 C  
HETATM    7  O   UNL     1      -9.623   6.099  71.549  1.00  0.00    -0.156 OA 
HETATM    8  C   UNL     1     -11.974   7.929  72.349  1.00  0.00    -0.320 C  
HETATM    9  O   UNL     1     -11.188   7.477  73.474  1.00  0.00    -0.603 OA 
HETATM   10  C   UNL     1     -11.939   6.832  71.278  1.00  0.00    -0.365 C  
HETATM   11  H   UNL     1      -9.980   5.252  71.792  1.00  0.00     0.000 HD 
HETATM   12  H   UNL     1     -11.525   6.654  73.809  1.00  0.00     0.000 HD 
HETATM   13  O   UNL     1     -12.998   6.996  70.341  1.00  0.00    -0.483 OA 
HETATM   14  H   UNL     1     -12.976   6.317  69.676  1.00  0.00     0.000 HD 
HETATM   15  C   UNL     1     -10.539   6.737  70.630  1.00  0.00    -0.224 C  
BRANCH   6  16
HETATM   16  O   UNL     1     -12.327   9.848  70.855  1.00  0.00    -0.297 OA 
BRANCH  16  17
HETATM   17  C   UNL     1     -12.583  11.184  71.006  1.00  0.00    -0.403 A  
HETATM   18  C   UNL     1     -12.010  12.033  70.055  1.00  0.00    -0.400 A  
HETATM   19  C   UNL     1     -12.906  13.946  71.211  1.00  0.00    -0.360 A  
HETATM   20  C   UNL     1     -12.160  13.419  70.162  1.00  0.00    -0.415 A  
HETATM   21  C   UNL     1     -13.533  13.108  72.126  1.00  0.00    -0.653 A  
HETATM   22  O   UNL     1     -13.049  15.289  71.387  1.00  0.00    -0.381 OA 
HETATM   23  C   UNL     1     -13.387  11.725  72.010  1.00  0.00    -0.417 A  
HETATM   24  H   UNL     1     -13.559  15.648  72.104  1.00  0.00     0.000 HD 
ENDBRANCH  16  17
ENDBRANCH   6  16
ENDBRANCH   2   4
TORSDOF 3
ENDMDL
MODEL       28
REMARK 921   NORMALIZED FREE ENERGY PREDICTED BY IDOCK:   -6.16 KCAL/MOL
REMARK 922        TOTAL FREE ENERGY PREDICTED BY IDOCK:   -7.65 KCAL/MOL
REMARK 923 INTER-LIGAND FREE ENERGY PREDICTED BY IDOCK:   -7.00 KCAL/MOL
REMARK 924 INTRA-LIGAND FREE ENERGY PREDICTED BY IDOCK:   -0.65 KCAL/MOL
REMARK 927      BINDING AFFINITY PREDICTED BY RF-SCORE:    0.00 PKD
ROOT
HETATM    1  O   UNL     1      -9.449   6.446  69.959  1.00  0.00    -0.155 OA 
HETATM    2  C   UNL     1      -9.296   7.714  70.579  1.00  0.00    -0.163 C  
HETATM    3  H   UNL     1      -8.963   6.396  69.144  1.00  0.00     0.000 HD 
ENDROOT
BRANCH   2   4
HETATM    4  C   UNL     1     -10.082   7.795  71.899  1.00  0.00    -0.182 C  
HETATM    5  O   UNL     1     -10.549   9.132  72.131  1.00  0.00    -0.276 OA 
HETATM    6  C   UNL     1     -11.737   9.520  71.422  1.00  0.00    -0.393 C  
HETATM    7  O   UNL     1     -11.407   6.531  73.496  1.00  0.00    -0.426 OA 
HETATM    8  C   UNL     1     -12.905   8.550  71.708  1.00  0.00    -0.348 C  
HETATM    9  O   UNL     1     -13.292   8.615  73.098  1.00  0.00    -0.865 OA 
HETATM   10  C   UNL     1     -12.516   7.100  71.393  1.00  0.00    -0.388 C  
HETATM   11  H   UNL     1     -12.084   5.873  73.608  1.00  0.00     0.000 HD 
HETATM   12  H   UNL     1     -14.010   8.017  73.274  1.00  0.00     0.000 HD 
HETATM   13  O   UNL     1     -12.530   6.858  69.991  1.00  0.00    -0.531 OA 
HETATM   14  H   UNL     1     -12.289   5.960  69.795  1.00  0.00     0.000 HD 
HETATM   15  C   UNL     1     -11.184   6.724  72.081  1.00  0.00    -0.259 C  
BRANCH   6  16
HETATM   16  O   UNL     1     -11.503   9.649  70.015  1.00  0.00    -0.225 OA 
BRANCH  16  17
HETATM   17  C   UNL     1     -11.622  10.910  69.497  1.00  0.00    -0.313 A  
HETATM   18  C   UNL     1     -11.951  11.921  70.404  1.00  0.00    -0.400 A  
HETATM   19  C   UNL     1     -12.010  13.525  68.608  1.00  0.00    -0.343 A  
HETATM   20  C   UNL     1     -12.158  13.231  69.960  1.00  0.00    -0.385 A  
HETATM   21  C   UNL     1     -11.622  12.540  67.707  1.00  0.00    -0.401 A  
HETATM   22  O   UNL     1     -12.242  14.773  68.115  1.00  0.00    -0.578 OA 
HETATM   23  C   UNL     1     -11.409  11.236  68.157  1.00  0.00    -0.372 A  
HETATM   24  H   UNL     1     -12.141  14.973  67.192  1.00  0.00     0.000 HD 
ENDBRANCH  16  17
ENDBRANCH   6  16
ENDBRANCH   2   4
TORSDOF 3
ENDMDL
MODEL       29
REMARK 921   NORMALIZED FREE ENERGY PREDICTED BY IDOCK:   -6.10 KCAL/MOL
REMARK 922        TOTAL FREE ENERGY PREDICTED BY IDOCK:   -7.59 KCAL/MOL
REMARK 923 INTER-LIGAND FREE ENERGY PREDICTED BY IDOCK:   -6.95 KCAL/MOL
REMARK 924 INTRA-LIGAND FREE ENERGY PREDICTED BY IDOCK:   -0.64 KCAL/MOL
REMARK 927      BINDING AFFINITY PREDICTED BY RF-SCORE:    0.00 PKD
ROOT
HETATM    1  O   UNL     1      -8.088  13.460  69.153  1.00  0.00    -0.328 OA 
HETATM    2  C   UNL     1      -8.817  14.354  68.325  1.00  0.00    -0.182 C  
HETATM    3  H   UNL     1      -7.813  13.881  69.960  1.00  0.00     0.000 HD 
ENDROOT
BRANCH   2   4
HETATM    4  C   UNL     1      -9.264  13.673  67.019  1.00  0.00    -0.250 C  
HETATM    5  O   UNL     1      -9.626  12.304  67.257  1.00  0.00    -0.182 OA 
HETATM    6  C   UNL     1     -10.937  12.082  67.800  1.00  0.00    -0.232 C  
HETATM    7  O   UNL     1     -10.204  14.049  64.810  1.00  0.00    -0.512 OA 
HETATM    8  C   UNL     1     -12.029  12.716  66.910  1.00  0.00    -0.275 C  
HETATM    9  O   UNL     1     -12.073  12.072  65.618  1.00  0.00    -0.508 OA 
HETATM   10  C   UNL     1     -11.767  14.210  66.684  1.00  0.00    -0.403 C  
HETATM   11  H   UNL     1     -10.852  14.526  64.304  1.00  0.00     0.000 HD 
HETATM   12  H   UNL     1     -12.744  12.463  65.071  1.00  0.00     0.000 HD 
HETATM   13  O   UNL     1     -12.120  14.974  67.832  1.00  0.00    -0.520 OA 
HETATM   14  H   UNL     1     -11.957  15.899  67.692  1.00  0.00     0.000 HD 
HETATM   15  C   UNL     1     -10.319  14.449  66.195  1.00  0.00    -0.298 C  
BRANCH   6  16
HETATM   16  O   UNL     1     -11.042  12.537  69.154  1.00  0.00    -0.243 OA 
BRANCH  16  17
HETATM   17  C   UNL     1     -11.614  11.667  70.041  1.00  0.00    -0.255 A  
HETATM   18  C   UNL     1     -12.545  12.214  70.928  1.00  0.00    -0.340 A  
HETATM   19  C   UNL     1     -12.807  10.069  71.990  1.00  0.00    -0.389 A  
HETATM   20  C   UNL     1     -13.137  11.418  71.914  1.00  0.00    -0.505 A  
HETATM   21  C   UNL     1     -11.931   9.500  71.073  1.00  0.00    -0.407 A  
HETATM   22  O   UNL     1     -13.320   9.258  72.956  1.00  0.00    -0.733 OA 
HETATM   23  C   UNL     1     -11.349  10.297  70.086  1.00  0.00    -0.388 A  
HETATM   24  H   UNL     1     -13.094   8.336  73.008  1.00  0.00     0.000 HD 
ENDBRANCH  16  17
ENDBRANCH   6  16
ENDBRANCH   2   4
TORSDOF 3
ENDMDL
MODEL       30
REMARK 921   NORMALIZED FREE ENERGY PREDICTED BY IDOCK:   -6.10 KCAL/MOL
REMARK 922        TOTAL FREE ENERGY PREDICTED BY IDOCK:   -7.59 KCAL/MOL
REMARK 923 INTER-LIGAND FREE ENERGY PREDICTED BY IDOCK:   -6.91 KCAL/MOL
REMARK 924 INTRA-LIGAND FREE ENERGY PREDICTED BY IDOCK:   -0.68 KCAL/MOL
REMARK 927      BINDING AFFINITY PREDICTED BY RF-SCORE:    0.00 PKD
ROOT
HETATM    1  O   UNL     1     -12.703  10.442  69.358  1.00  0.00    -0.658 OA 
HETATM    2  C   UNL     1     -11.340  10.578  69.732  1.00  0.00    -0.300 C  
HETATM    3  H   UNL     1     -13.275  10.921  69.948  1.00  0.00     0.000 HD 
ENDROOT
BRANCH   2   4
HETATM    4  C   UNL     1     -10.414   9.805  68.777  1.00  0.00    -0.218 C  
HETATM    5  O   UNL     1     -10.871   9.920  67.421  1.00  0.00    -0.280 OA 
HETATM    6  C   UNL     1     -10.529  11.137  66.739  1.00  0.00    -0.252 C  
HETATM    7  O   UNL     1      -8.161   8.952  68.461  1.00  0.00    -0.106 OA 
HETATM    8  C   UNL     1      -9.002  11.377  66.749  1.00  0.00    -0.176 C  
HETATM    9  O   UNL     1      -8.320  10.351  65.996  1.00  0.00    -0.137 OA 
HETATM   10  C   UNL     1      -8.445  11.364  68.178  1.00  0.00    -0.152 C  
HETATM   11  H   UNL     1      -7.232   9.132  68.560  1.00  0.00     0.000 HD 
HETATM   12  H   UNL     1      -7.381  10.498  66.004  1.00  0.00     0.000 HD 
HETATM   13  O   UNL     1      -8.740  12.581  68.856  1.00  0.00    -0.363 OA 
HETATM   14  H   UNL     1      -8.395  12.573  69.741  1.00  0.00     0.000 HD 
HETATM   15  C   UNL     1      -8.903  10.098  68.938  1.00  0.00    -0.154 C  
BRANCH   6  16
HETATM   16  O   UNL     1     -11.235  12.265  67.267  1.00  0.00    -0.264 OA 
BRANCH  16  17
HETATM   17  C   UNL     1     -11.310  13.364  66.455  1.00  0.00    -0.320 A  
HETATM   18  C   UNL     1     -12.077  13.222  65.295  1.00  0.00    -0.456 A  
HETATM   19  C   UNL     1     -11.496  15.462  64.627  1.00  0.00    -0.337 A  
HETATM   20  C   UNL     1     -12.162  14.268  64.370  1.00  0.00    -0.471 A  
HETATM   21  C   UNL     1     -10.784  15.636  65.807  1.00  0.00    -0.350 A  
HETATM   22  O   UNL     1     -11.510  16.496  63.741  1.00  0.00    -1.615 OA 
HETATM   23  C   UNL     1     -10.708  14.593  66.731  1.00  0.00    -0.301 A  
HETATM   24  H   UNL     1     -11.054  17.311  63.917  1.00  0.00     0.000 HD 
ENDBRANCH  16  17
ENDBRANCH   6  16
ENDBRANCH   2   4
TORSDOF 3
ENDMDL
MODEL       31
REMARK 921   NORMALIZED FREE ENERGY PREDICTED BY IDOCK:   -6.09 KCAL/MOL
REMARK 922        TOTAL FREE ENERGY PREDICTED BY IDOCK:   -7.58 KCAL/MOL
REMARK 923 INTER-LIGAND FREE ENERGY PREDICTED BY IDOCK:   -6.91 KCAL/MOL
REMARK 924 INTRA-LIGAND FREE ENERGY PREDICTED BY IDOCK:   -0.68 KCAL/MOL
REMARK 927      BINDING AFFINITY PREDICTED BY RF-SCORE:    0.00 PKD
ROOT
HETATM    1  O   UNL     1      -8.875  14.978  69.781  1.00  0.00    -0.451 OA 
HETATM    2  C   UNL     1      -8.326  14.699  68.501  1.00  0.00    -0.162 C  
HETATM    3  H   UNL     1      -9.097  14.178  70.245  1.00  0.00     0.000 HD 
ENDROOT
BRANCH   2   4
HETATM    4  C   UNL     1      -7.965  15.992  67.750  1.00  0.00    -0.139 C  
HETATM    5  O   UNL     1      -8.369  15.911  66.375  1.00  0.00    -0.288 OA 
HETATM    6  C   UNL     1      -9.758  16.166  66.107  1.00  0.00    -0.323 C  
HETATM    7  O   UNL     1      -7.540  18.372  67.993  1.00  0.00    -0.246 OA 
HETATM    8  C   UNL     1     -10.192  17.545  66.652  1.00  0.00    -0.332 C  
HETATM    9  O   UNL     1      -9.503  18.607  65.957  1.00  0.00    -0.486 OA 
HETATM   10  C   UNL     1      -9.879  17.678  68.148  1.00  0.00    -0.318 C  
HETATM   11  H   UNL     1      -7.812  19.179  68.417  1.00  0.00     0.000 HD 
HETATM   12  H   UNL     1      -9.770  19.455  66.293  1.00  0.00     0.000 HD 
HETATM   13  O   UNL     1     -10.822  16.960  68.936  1.00  0.00    -0.321 OA 
HETATM   14  H   UNL     1     -10.628  17.043  69.863  1.00  0.00     0.000 HD 
HETATM   15  C   UNL     1      -8.407  17.305  68.439  1.00  0.00    -0.261 C  
BRANCH   6  16
HETATM   16  O   UNL     1     -10.600  15.121  66.609  1.00  0.00    -0.292 OA 
BRANCH  16  17
HETATM   17  C   UNL     1     -10.982  14.168  65.705  1.00  0.00    -0.308 A  
HETATM   18  C   UNL     1     -11.787  14.606  64.649  1.00  0.00    -0.459 A  
HETATM   19  C   UNL     1     -11.945  12.349  63.822  1.00  0.00    -0.514 A  
HETATM   20  C   UNL     1     -12.281  13.695  63.710  1.00  0.00    -0.413 A  
HETATM   21  C   UNL     1     -11.094  11.913  64.831  1.00  0.00    -0.363 A  
HETATM   22  O   UNL     1     -12.433  11.414  62.962  1.00  0.00    -0.935 OA 
HETATM   23  C   UNL     1     -10.597  12.828  65.761  1.00  0.00    -0.295 A  
HETATM   24  H   UNL     1     -12.203  10.495  63.039  1.00  0.00     0.000 HD 
ENDBRANCH  16  17
ENDBRANCH   6  16
ENDBRANCH   2   4
TORSDOF 3
ENDMDL
MODEL       32
REMARK 921   NORMALIZED FREE ENERGY PREDICTED BY IDOCK:   -6.03 KCAL/MOL
REMARK 922        TOTAL FREE ENERGY PREDICTED BY IDOCK:   -7.51 KCAL/MOL
REMARK 923 INTER-LIGAND FREE ENERGY PREDICTED BY IDOCK:   -6.87 KCAL/MOL
REMARK 924 INTRA-LIGAND FREE ENERGY PREDICTED BY IDOCK:   -0.64 KCAL/MOL
REMARK 927      BINDING AFFINITY PREDICTED BY RF-SCORE:    0.00 PKD
ROOT
HETATM    1  O   UNL     1      -8.312  10.456  67.385  1.00  0.00    -0.120 OA 
HETATM    2  C   UNL     1      -9.667  10.090  67.169  1.00  0.00    -0.174 C  
HETATM    3  H   UNL     1      -7.807   9.730  67.732  1.00  0.00     0.000 HD 
ENDROOT
BRANCH   2   4
HETATM    4  C   UNL     1     -10.485  11.265  66.607  1.00  0.00    -0.247 C  
HETATM    5  O   UNL     1     -11.713  11.424  67.334  1.00  0.00    -0.574 OA 
HETATM    6  C   UNL     1     -11.618  12.115  68.591  1.00  0.00    -0.321 C  
HETATM    7  O   UNL     1     -10.357  13.370  65.400  1.00  0.00    -0.296 OA 
HETATM    8  C   UNL     1     -10.981  13.512  68.418  1.00  0.00    -0.266 C  
HETATM    9  O   UNL     1     -11.828  14.363  67.615  1.00  0.00    -0.369 OA 
HETATM   10  C   UNL     1      -9.614  13.421  67.728  1.00  0.00    -0.213 C  
HETATM   11  H   UNL     1      -9.878  14.184  65.289  1.00  0.00     0.000 HD 
HETATM   12  H   UNL     1     -11.436  15.222  67.508  1.00  0.00     0.000 HD 
HETATM   13  O   UNL     1      -8.612  12.968  68.632  1.00  0.00    -0.342 OA 
HETATM   14  H   UNL     1      -7.765  12.911  68.205  1.00  0.00     0.000 HD 
HETATM   15  C   UNL     1      -9.706  12.589  66.428  1.00  0.00    -0.249 C  
BRANCH   6  16
HETATM   16  O   UNL     1     -10.919  11.345  69.575  1.00  0.00    -0.232 OA 
BRANCH  16  17
HETATM   17  C   UNL     1     -11.697  10.643  70.456  1.00  0.00    -0.356 A  
HETATM   18  C   UNL     1     -12.720  11.361  71.082  1.00  0.00    -0.479 A  
HETATM   19  C   UNL     1     -13.318   9.409  72.360  1.00  0.00    -0.424 A  
HETATM   20  C   UNL     1     -13.527  10.749  72.046  1.00  0.00    -0.296 A  
HETATM   21  C   UNL     1     -12.346   8.669  71.698  1.00  0.00    -0.384 A  
HETATM   22  O   UNL     1     -14.046   8.775  73.321  1.00  0.00    -1.180 OA 
HETATM   23  C   UNL     1     -11.548   9.283  70.731  1.00  0.00    -0.345 A  
HETATM   24  H   UNL     1     -13.902   7.861  73.535  1.00  0.00     0.000 HD 
ENDBRANCH  16  17
ENDBRANCH   6  16
ENDBRANCH   2   4
TORSDOF 3
ENDMDL
MODEL       33
REMARK 921   NORMALIZED FREE ENERGY PREDICTED BY IDOCK:   -6.03 KCAL/MOL
REMARK 922        TOTAL FREE ENERGY PREDICTED BY IDOCK:   -7.50 KCAL/MOL
REMARK 923 INTER-LIGAND FREE ENERGY PREDICTED BY IDOCK:   -7.02 KCAL/MOL
REMARK 924 INTRA-LIGAND FREE ENERGY PREDICTED BY IDOCK:   -0.49 KCAL/MOL
REMARK 927      BINDING AFFINITY PREDICTED BY RF-SCORE:    0.00 PKD
ROOT
HETATM    1  O   UNL     1      -7.776  11.647  66.357  1.00  0.00    -0.351 OA 
HETATM    2  C   UNL     1      -8.266  10.536  67.092  1.00  0.00    -0.123 C  
HETATM    3  H   UNL     1      -7.539  11.401  65.470  1.00  0.00     0.000 HD 
ENDROOT
BRANCH   2   4
HETATM    4  C   UNL     1      -8.650  10.935  68.527  1.00  0.00    -0.152 C  
HETATM    5  O   UNL     1      -9.302  12.214  68.543  1.00  0.00    -0.183 OA 
HETATM    6  C   UNL     1     -10.694  12.219  68.188  1.00  0.00    -0.216 C  
HETATM    7  O   UNL     1      -9.181  10.090  70.743  1.00  0.00    -0.301 OA 
HETATM    8  C   UNL     1     -11.507  11.259  69.086  1.00  0.00    -0.297 C  
HETATM    9  O   UNL     1     -11.494  11.711  70.458  1.00  0.00    -0.462 OA 
HETATM   10  C   UNL     1     -10.928   9.839  69.051  1.00  0.00    -0.163 C  
HETATM   11  H   UNL     1      -9.647   9.426  71.239  1.00  0.00     0.000 HD 
HETATM   12  H   UNL     1     -11.993  11.120  71.010  1.00  0.00     0.000 HD 
HETATM   13  O   UNL     1     -11.283   9.169  67.846  1.00  0.00    -0.494 OA 
HETATM   14  H   UNL     1     -10.924   8.289  67.824  1.00  0.00     0.000 HD 
HETATM   15  C   UNL     1      -9.409   9.854  69.335  1.00  0.00    -0.214 C  
BRANCH   6  16
HETATM   16  O   UNL     1     -10.895  11.927  66.801  1.00  0.00    -0.242 OA 
BRANCH  16  17
HETATM   17  C   UNL     1     -11.082  13.004  65.978  1.00  0.00    -0.278 A  
HETATM   18  C   UNL     1     -10.162  14.047  66.110  1.00  0.00    -0.308 A  
HETATM   19  C   UNL     1     -11.363  15.327  64.460  1.00  0.00    -0.300 A  
HETATM   20  C   UNL     1     -10.306  15.218  65.359  1.00  0.00    -0.421 A  
HETATM   21  C   UNL     1     -12.247  14.270  64.275  1.00  0.00    -0.451 A  
HETATM   22  O   UNL     1     -11.576  16.460  63.736  1.00  0.00    -1.605 OA 
HETATM   23  C   UNL     1     -12.094  13.101  65.021  1.00  0.00    -0.458 A  
HETATM   24  H   UNL     1     -12.298  16.533  63.122  1.00  0.00     0.000 HD 
ENDBRANCH  16  17
ENDBRANCH   6  16
ENDBRANCH   2   4
TORSDOF 3
ENDMDL
MODEL       34
REMARK 921   NORMALIZED FREE ENERGY PREDICTED BY IDOCK:   -6.02 KCAL/MOL
REMARK 922        TOTAL FREE ENERGY PREDICTED BY IDOCK:   -7.49 KCAL/MOL
REMARK 923 INTER-LIGAND FREE ENERGY PREDICTED BY IDOCK:   -6.86 KCAL/MOL
REMARK 924 INTRA-LIGAND FREE ENERGY PREDICTED BY IDOCK:   -0.63 KCAL/MOL
REMARK 927      BINDING AFFINITY PREDICTED BY RF-SCORE:    0.00 PKD
ROOT
HETATM    1  O   UNL     1     -11.682  14.424  68.988  1.00  0.00    -0.275 OA 
HETATM    2  C   UNL     1     -12.095  14.461  67.630  1.00  0.00    -0.277 C  
HETATM    3  H   UNL     1     -12.418  14.536  69.578  1.00  0.00     0.000 HD 
ENDROOT
BRANCH   2   4
HETATM    4  C   UNL     1     -10.903  14.280  66.674  1.00  0.00    -0.301 C  
HETATM    5  O   UNL     1     -10.076  13.183  67.093  1.00  0.00    -0.237 OA 
HETATM    6  C   UNL     1     -10.539  11.870  66.735  1.00  0.00    -0.229 C  
HETATM    7  O   UNL     1     -10.105  14.655  64.409  1.00  0.00    -0.500 OA 
HETATM    8  C   UNL     1     -10.758  11.748  65.210  1.00  0.00    -0.287 C  
HETATM    9  O   UNL     1      -9.506  11.882  64.502  1.00  0.00    -0.427 OA 
HETATM   10  C   UNL     1     -11.711  12.834  64.694  1.00  0.00    -0.355 C  
HETATM   11  H   UNL     1     -10.325  14.627  63.485  1.00  0.00     0.000 HD 
HETATM   12  H   UNL     1      -9.642  11.807  63.565  1.00  0.00     0.000 HD 
HETATM   13  O   UNL     1     -13.063  12.524  65.013  1.00  0.00    -0.765 OA 
HETATM   14  H   UNL     1     -13.654  13.197  64.694  1.00  0.00     0.000 HD 
HETATM   15  C   UNL     1     -11.261  14.234  65.169  1.00  0.00    -0.345 C  
BRANCH   6  16
HETATM   16  O   UNL     1     -11.717  11.501  67.460  1.00  0.00    -0.555 OA 
BRANCH  16  17
HETATM   17  C   UNL     1     -11.516  10.934  68.689  1.00  0.00    -0.311 A  
HETATM   18  C   UNL     1     -10.353  10.171  68.833  1.00  0.00    -0.223 A  
HETATM   19  C   UNL     1     -10.988   9.615  71.089  1.00  0.00    -0.360 A  
HETATM   20  C   UNL     1     -10.092   9.499  70.032  1.00  0.00    -0.279 A  
HETATM   21  C   UNL     1     -12.115  10.422  70.978  1.00  0.00    -0.488 A  
HETATM   22  O   UNL     1     -10.805   8.949  72.262  1.00  0.00    -0.332 OA 
HETATM   23  C   UNL     1     -12.367  11.097  69.783  1.00  0.00    -0.315 A  
HETATM   24  H   UNL     1     -11.418   9.028  72.984  1.00  0.00     0.000 HD 
ENDBRANCH  16  17
ENDBRANCH   6  16
ENDBRANCH   2   4
TORSDOF 3
ENDMDL
MODEL       35
REMARK 921   NORMALIZED FREE ENERGY PREDICTED BY IDOCK:   -5.96 KCAL/MOL
REMARK 922        TOTAL FREE ENERGY PREDICTED BY IDOCK:   -7.42 KCAL/MOL
REMARK 923 INTER-LIGAND FREE ENERGY PREDICTED BY IDOCK:   -6.90 KCAL/MOL
REMARK 924 INTRA-LIGAND FREE ENERGY PREDICTED BY IDOCK:   -0.52 KCAL/MOL
REMARK 927      BINDING AFFINITY PREDICTED BY RF-SCORE:    0.00 PKD
ROOT
HETATM    1  O   UNL     1      -7.269  16.439  68.499  1.00  0.00    -0.155 OA 
HETATM    2  C   UNL     1      -7.551  17.811  68.735  1.00  0.00    -0.260 C  
HETATM    3  H   UNL     1      -7.062  15.983  69.306  1.00  0.00     0.000 HD 
ENDROOT
BRANCH   2   4
HETATM    4  C   UNL     1      -7.886  18.550  67.428  1.00  0.00    -0.235 C  
HETATM    5  O   UNL     1      -8.722  17.741  66.587  1.00  0.00    -0.245 OA 
HETATM    6  C   UNL     1     -10.122  17.723  66.914  1.00  0.00    -0.342 C  
HETATM    7  O   UNL     1      -8.121  20.735  66.392  1.00  0.00    -0.514 OA 
HETATM    8  C   UNL     1     -10.711  19.151  66.942  1.00  0.00    -0.424 C  
HETATM    9  O   UNL     1     -10.668  19.745  65.626  1.00  0.00    -0.505 OA 
HETATM   10  C   UNL     1      -9.927  20.060  67.896  1.00  0.00    -0.422 C  
HETATM   11  H   UNL     1      -8.443  21.624  66.498  1.00  0.00     0.000 HD 
HETATM   12  H   UNL     1     -11.030  20.624  65.643  1.00  0.00     0.000 HD 
HETATM   13  O   UNL     1     -10.261  19.791  69.253  1.00  0.00    -0.631 OA 
HETATM   14  H   UNL     1      -9.775  20.354  69.844  1.00  0.00     0.000 HD 
HETATM   15  C   UNL     1      -8.411  19.995  67.600  1.00  0.00    -0.319 C  
BRANCH   6  16
HETATM   16  O   UNL     1     -10.375  17.034  68.143  1.00  0.00    -0.310 OA 
BRANCH  16  17
HETATM   17  C   UNL     1     -10.800  15.737  68.032  1.00  0.00    -0.309 A  
HETATM   18  C   UNL     1     -10.437  15.069  66.859  1.00  0.00    -0.279 A  
HETATM   19  C   UNL     1     -11.662  13.125  67.579  1.00  0.00    -0.366 A  
HETATM   20  C   UNL     1     -10.877  13.762  66.623  1.00  0.00    -0.288 A  
HETATM   21  C   UNL     1     -11.976  13.757  68.776  1.00  0.00    -0.400 A  
HETATM   22  O   UNL     1     -12.154  11.870  67.382  1.00  0.00    -0.577 OA 
HETATM   23  C   UNL     1     -11.527  15.058  69.009  1.00  0.00    -0.322 A  
HETATM   24  H   UNL     1     -12.690  11.435  68.035  1.00  0.00     0.000 HD 
ENDBRANCH  16  17
ENDBRANCH   6  16
ENDBRANCH   2   4
TORSDOF 3
ENDMDL
MODEL       36
REMARK 921   NORMALIZED FREE ENERGY PREDICTED BY IDOCK:   -5.94 KCAL/MOL
REMARK 922        TOTAL FREE ENERGY PREDICTED BY IDOCK:   -7.40 KCAL/MOL
REMARK 923 INTER-LIGAND FREE ENERGY PREDICTED BY IDOCK:   -6.81 KCAL/MOL
REMARK 924 INTRA-LIGAND FREE ENERGY PREDICTED BY IDOCK:   -0.59 KCAL/MOL
REMARK 927      BINDING AFFINITY PREDICTED BY RF-SCORE:    0.00 PKD
ROOT
HETATM    1  O   UNL     1     -13.267  12.423  64.531  1.00  0.00    -0.834 OA 
HETATM    2  C   UNL     1     -12.305  13.202  63.835  1.00  0.00    -0.365 C  
HETATM    3  H   UNL     1     -14.131  12.817  64.486  1.00  0.00     0.000 HD 
ENDROOT
BRANCH   2   4
HETATM    4  C   UNL     1     -10.906  12.565  63.907  1.00  0.00    -0.431 C  
HETATM    5  O   UNL     1      -9.926  13.534  64.308  1.00  0.00    -0.270 OA 
HETATM    6  C   UNL     1      -9.851  13.813  65.716  1.00  0.00    -0.221 C  
HETATM    7  O   UNL     1      -9.691  10.484  64.218  1.00  0.00    -0.279 OA 
HETATM    8  C   UNL     1      -9.610  12.523  66.532  1.00  0.00    -0.242 C  
HETATM    9  O   UNL     1      -8.319  11.956  66.220  1.00  0.00    -0.375 OA 
HETATM   10  C   UNL     1     -10.676  11.464  66.230  1.00  0.00    -0.270 C  
HETATM   11  H   UNL     1      -9.638   9.672  64.710  1.00  0.00     0.000 HD 
HETATM   12  H   UNL     1      -8.171  11.163  66.721  1.00  0.00     0.000 HD 
HETATM   13  O   UNL     1     -11.902  11.767  66.887  1.00  0.00    -0.591 OA 
HETATM   14  H   UNL     1     -12.563  11.110  66.700  1.00  0.00     0.000 HD 
HETATM   15  C   UNL     1     -10.820  11.244  64.707  1.00  0.00    -0.244 C  
BRANCH   6  16
HETATM   16  O   UNL     1     -11.007  14.515  66.186  1.00  0.00    -0.310 OA 
BRANCH  16  17
HETATM   17  C   UNL     1     -10.785  15.757  66.716  1.00  0.00    -0.293 A  
HETATM   18  C   UNL     1     -10.655  16.805  65.800  1.00  0.00    -0.259 A  
HETATM   19  C   UNL     1     -10.224  18.340  67.604  1.00  0.00    -0.382 A  
HETATM   20  C   UNL     1     -10.362  18.099  66.241  1.00  0.00    -0.407 A  
HETATM   21  C   UNL     1     -10.414  17.319  68.528  1.00  0.00    -0.375 A  
HETATM   22  O   UNL     1      -9.897  19.571  68.086  1.00  0.00    -0.356 OA 
HETATM   23  C   UNL     1     -10.714  16.031  68.083  1.00  0.00    -0.311 A  
HETATM   24  H   UNL     1      -9.803  19.735  69.017  1.00  0.00     0.000 HD 
ENDBRANCH  16  17
ENDBRANCH   6  16
ENDBRANCH   2   4
TORSDOF 3
ENDMDL
MODEL       37
REMARK 921   NORMALIZED FREE ENERGY PREDICTED BY IDOCK:   -5.94 KCAL/MOL
REMARK 922        TOTAL FREE ENERGY PREDICTED BY IDOCK:   -7.40 KCAL/MOL
REMARK 923 INTER-LIGAND FREE ENERGY PREDICTED BY IDOCK:   -6.69 KCAL/MOL
REMARK 924 INTRA-LIGAND FREE ENERGY PREDICTED BY IDOCK:   -0.71 KCAL/MOL
REMARK 927      BINDING AFFINITY PREDICTED BY RF-SCORE:    0.00 PKD
ROOT
HETATM    1  O   UNL     1     -10.488  19.733  65.738  1.00  0.00    -0.511 OA 
HETATM    2  C   UNL     1     -10.950  19.456  67.052  1.00  0.00    -0.331 C  
HETATM    3  H   UNL     1     -11.211  19.836  65.130  1.00  0.00     0.000 HD 
ENDROOT
BRANCH   2   4
HETATM    4  C   UNL     1      -9.781  19.289  68.037  1.00  0.00    -0.350 C  
HETATM    5  O   UNL     1     -10.105  18.330  69.055  1.00  0.00    -0.379 OA 
HETATM    6  C   UNL     1      -9.969  16.947  68.688  1.00  0.00    -0.279 C  
HETATM    7  O   UNL     1      -7.374  19.491  68.308  1.00  0.00    -0.289 OA 
HETATM    8  C   UNL     1      -8.543  16.639  68.178  1.00  0.00    -0.200 C  
HETATM    9  O   UNL     1      -7.575  16.816  69.235  1.00  0.00    -0.217 OA 
HETATM   10  C   UNL     1      -8.152  17.564  67.020  1.00  0.00    -0.217 C  
HETATM   11  H   UNL     1      -6.524  19.341  67.909  1.00  0.00     0.000 HD 
HETATM   12  H   UNL     1      -6.698  16.626  68.922  1.00  0.00     0.000 HD 
HETATM   13  O   UNL     1      -8.778  17.161  65.807  1.00  0.00    -0.527 OA 
HETATM   14  H   UNL     1      -8.536  17.734  65.088  1.00  0.00     0.000 HD 
HETATM   15  C   UNL     1      -8.397  19.045  67.388  1.00  0.00    -0.276 C  
BRANCH   6  16
HETATM   16  O   UNL     1     -10.959  16.546  67.734  1.00  0.00    -0.327 OA 
BRANCH  16  17
HETATM   17  C   UNL     1     -11.320  15.226  67.757  1.00  0.00    -0.326 A  
HETATM   18  C   UNL     1     -11.543  14.671  69.021  1.00  0.00    -0.328 A  
HETATM   19  C   UNL     1     -11.961  12.524  68.012  1.00  0.00    -0.223 A  
HETATM   20  C   UNL     1     -11.854  13.314  69.152  1.00  0.00    -0.378 A  
HETATM   21  C   UNL     1     -11.804  13.080  66.748  1.00  0.00    -0.451 A  
HETATM   22  O   UNL     1     -12.218  11.189  68.084  1.00  0.00    -0.708 OA 
HETATM   23  C   UNL     1     -11.502  14.437  66.621  1.00  0.00    -0.372 A  
HETATM   24  H   UNL     1     -12.292  10.651  67.305  1.00  0.00     0.000 HD 
ENDBRANCH  16  17
ENDBRANCH   6  16
ENDBRANCH   2   4
TORSDOF 3
ENDMDL
MODEL       38
REMARK 921   NORMALIZED FREE ENERGY PREDICTED BY IDOCK:   -5.93 KCAL/MOL
REMARK 922        TOTAL FREE ENERGY PREDICTED BY IDOCK:   -7.39 KCAL/MOL
REMARK 923 INTER-LIGAND FREE ENERGY PREDICTED BY IDOCK:   -6.68 KCAL/MOL
REMARK 924 INTRA-LIGAND FREE ENERGY PREDICTED BY IDOCK:   -0.71 KCAL/MOL
REMARK 927      BINDING AFFINITY PREDICTED BY RF-SCORE:    0.00 PKD
ROOT
HETATM    1  O   UNL     1     -11.586  12.857  63.262  1.00  0.00    -0.710 OA 
HETATM    2  C   UNL     1     -10.325  12.777  63.909  1.00  0.00    -0.324 C  
HETATM    3  H   UNL     1     -11.494  13.116  62.352  1.00  0.00     0.000 HD 
ENDROOT
BRANCH   2   4
HETATM    4  C   UNL     1     -10.473  12.355  65.381  1.00  0.00    -0.277 C  
HETATM    5  O   UNL     1      -9.612  13.138  66.223  1.00  0.00    -0.268 OA 
HETATM    6  C   UNL     1     -10.088  14.449  66.570  1.00  0.00    -0.276 C  
HETATM    7  O   UNL     1     -11.964  11.345  67.012  1.00  0.00    -0.492 OA 
HETATM    8  C   UNL     1     -11.479  14.384  67.238  1.00  0.00    -0.359 C  
HETATM    9  O   UNL     1     -11.405  13.694  68.505  1.00  0.00    -0.254 OA 
HETATM   10  C   UNL     1     -12.489  13.641  66.355  1.00  0.00    -0.324 C  
HETATM   11  H   UNL     1     -12.857  11.294  67.333  1.00  0.00     0.000 HD 
HETATM   12  H   UNL     1     -12.261  13.653  68.915  1.00  0.00     0.000 HD 
HETATM   13  O   UNL     1     -12.935  14.462  65.281  1.00  0.00    -0.608 OA 
HETATM   14  H   UNL     1     -13.560  14.002  64.733  1.00  0.00     0.000 HD 
HETATM   15  C   UNL     1     -11.927  12.273  65.904  1.00  0.00    -0.287 C  
BRANCH   6  16
HETATM   16  O   UNL     1     -10.095  15.332  65.442  1.00  0.00    -0.354 OA 
BRANCH  16  17
HETATM   17  C   UNL     1      -9.909  16.660  65.715  1.00  0.00    -0.211 A  
HETATM   18  C   UNL     1      -8.660  17.014  66.233  1.00  0.00    -0.298 A  
HETATM   19  C   UNL     1      -9.382  19.304  66.430  1.00  0.00    -0.360 A  
HETATM   20  C   UNL     1      -8.397  18.337  66.604  1.00  0.00    -0.281 A  
HETATM   21  C   UNL     1     -10.605  18.974  65.856  1.00  0.00    -0.466 A  
HETATM   22  O   UNL     1      -9.195  20.597  66.813  1.00  0.00    -0.590 OA 
HETATM   23  C   UNL     1     -10.860  17.654  65.481  1.00  0.00     0.056 A  
HETATM   24  H   UNL     1      -9.869  21.256  66.694  1.00  0.00     0.000 HD 
ENDBRANCH  16  17
ENDBRANCH   6  16
ENDBRANCH   2   4
TORSDOF 3
ENDMDL
MODEL       39
REMARK 921   NORMALIZED FREE ENERGY PREDICTED BY IDOCK:   -5.86 KCAL/MOL
REMARK 922        TOTAL FREE ENERGY PREDICTED BY IDOCK:   -7.31 KCAL/MOL
REMARK 923 INTER-LIGAND FREE ENERGY PREDICTED BY IDOCK:   -6.67 KCAL/MOL
REMARK 924 INTRA-LIGAND FREE ENERGY PREDICTED BY IDOCK:   -0.64 KCAL/MOL
REMARK 927      BINDING AFFINITY PREDICTED BY RF-SCORE:    0.00 PKD
ROOT
HETATM    1  O   UNL     1     -12.387  14.918  68.057  1.00  0.00    -0.563 OA 
HETATM    2  C   UNL     1     -11.386  14.328  68.873  1.00  0.00    -0.274 C  
HETATM    3  H   UNL     1     -13.132  15.205  68.573  1.00  0.00     0.000 HD 
ENDROOT
BRANCH   2   4
HETATM    4  C   UNL     1     -10.180  13.864  68.038  1.00  0.00    -0.246 C  
HETATM    5  O   UNL     1      -9.636  12.645  68.564  1.00  0.00    -0.195 OA 
HETATM    6  C   UNL     1     -10.326  11.436  68.204  1.00  0.00    -0.188 C  
HETATM    7  O   UNL     1      -9.133  13.960  65.847  1.00  0.00    -0.475 OA 
HETATM    8  C   UNL     1     -10.436  11.287  66.670  1.00  0.00    -0.247 C  
HETATM    9  O   UNL     1      -9.128  11.131  66.079  1.00  0.00    -0.192 OA 
HETATM   10  C   UNL     1     -11.097  12.517  66.036  1.00  0.00    -0.294 C  
HETATM   11  H   UNL     1      -9.275  13.932  64.907  1.00  0.00     0.000 HD 
HETATM   12  H   UNL     1      -9.195  11.040  65.135  1.00  0.00     0.000 HD 
HETATM   13  O   UNL     1     -12.507  12.503  66.236  1.00  0.00    -0.475 OA 
HETATM   14  H   UNL     1     -12.917  13.264  65.844  1.00  0.00     0.000 HD 
HETATM   15  C   UNL     1     -10.411  13.819  66.508  1.00  0.00    -0.282 C  
BRANCH   6  16
HETATM   16  O   UNL     1     -11.612  11.348  68.828  1.00  0.00    -0.257 OA 
BRANCH  16  17
HETATM   17  C   UNL     1     -11.688  10.565  69.948  1.00  0.00    -0.294 A  
HETATM   18  C   UNL     1     -10.547   9.819  70.256  1.00  0.00    -0.348 A  
HETATM   19  C   UNL     1     -11.689   8.833  72.133  1.00  0.00    -0.363 A  
HETATM   20  C   UNL     1     -10.548   8.940  71.344  1.00  0.00    -0.374 A  
HETATM   21  C   UNL     1     -12.807   9.617  71.873  1.00  0.00    -0.515 A  
HETATM   22  O   UNL     1     -11.761   7.962  73.177  1.00  0.00    -0.630 OA 
HETATM   23  C   UNL     1     -12.798  10.498  70.791  1.00  0.00    -0.454 A  
HETATM   24  H   UNL     1     -12.540   7.889  73.716  1.00  0.00     0.000 HD 
ENDBRANCH  16  17
ENDBRANCH   6  16
ENDBRANCH   2   4
TORSDOF 3
ENDMDL
MODEL       40
REMARK 921   NORMALIZED FREE ENERGY PREDICTED BY IDOCK:   -5.84 KCAL/MOL
REMARK 922        TOTAL FREE ENERGY PREDICTED BY IDOCK:   -7.29 KCAL/MOL
REMARK 923 INTER-LIGAND FREE ENERGY PREDICTED BY IDOCK:   -6.60 KCAL/MOL
REMARK 924 INTRA-LIGAND FREE ENERGY PREDICTED BY IDOCK:   -0.69 KCAL/MOL
REMARK 927      BINDING AFFINITY PREDICTED BY RF-SCORE:    0.00 PKD
ROOT
HETATM    1  O   UNL     1     -10.788  18.640  67.140  1.00  0.00    -0.408 OA 
HETATM    2  C   UNL     1     -10.254  18.037  68.309  1.00  0.00    -0.395 C  
HETATM    3  H   UNL     1     -11.540  19.185  67.342  1.00  0.00     0.000 HD 
ENDROOT
BRANCH   2   4
HETATM    4  C   UNL     1      -9.036  17.155  67.982  1.00  0.00    -0.240 C  
HETATM    5  O   UNL     1      -9.051  15.955  68.770  1.00  0.00    -0.194 OA 
HETATM    6  C   UNL     1      -9.914  14.904  68.306  1.00  0.00    -0.222 C  
HETATM    7  O   UNL     1      -7.390  16.602  66.283  1.00  0.00    -0.239 OA 
HETATM    8  C   UNL     1      -9.588  14.513  66.847  1.00  0.00    -0.250 C  
HETATM    9  O   UNL     1      -8.264  13.944  66.755  1.00  0.00    -0.402 OA 
HETATM   10  C   UNL     1      -9.644  15.731  65.917  1.00  0.00    -0.347 C  
HETATM   11  H   UNL     1      -7.240  16.442  65.358  1.00  0.00     0.000 HD 
HETATM   12  H   UNL     1      -8.064  13.704  65.857  1.00  0.00     0.000 HD 
HETATM   13  O   UNL     1     -10.990  16.092  65.624  1.00  0.00    -0.272 OA 
HETATM   14  H   UNL     1     -11.025  16.847  65.048  1.00  0.00     0.000 HD 
HETATM   15  C   UNL     1      -8.793  16.893  66.477  1.00  0.00    -0.271 C  
BRANCH   6  16
HETATM   16  O   UNL     1     -11.297  15.240  68.457  1.00  0.00    -0.293 OA 
BRANCH  16  17
HETATM   17  C   UNL     1     -11.922  14.741  69.567  1.00  0.00    -0.311 A  
HETATM   18  C   UNL     1     -11.931  13.349  69.696  1.00  0.00    -0.386 A  
HETATM   19  C   UNL     1     -13.238  13.536  71.711  1.00  0.00    -0.404 A  
HETATM   20  C   UNL     1     -12.601  12.741  70.764  1.00  0.00    -0.308 A  
HETATM   21  C   UNL     1     -13.181  14.922  71.627  1.00  0.00    -0.444 A  
HETATM   22  O   UNL     1     -13.940  12.997  72.745  1.00  0.00    -0.745 OA 
HETATM   23  C   UNL     1     -12.505  15.524  70.564  1.00  0.00    -0.472 A  
HETATM   24  H   UNL     1     -14.375  13.540  73.392  1.00  0.00     0.000 HD 
ENDBRANCH  16  17
ENDBRANCH   6  16
ENDBRANCH   2   4
TORSDOF 3
ENDMDL
MODEL       41
REMARK 921   NORMALIZED FREE ENERGY PREDICTED BY IDOCK:   -5.80 KCAL/MOL
REMARK 922        TOTAL FREE ENERGY PREDICTED BY IDOCK:   -7.24 KCAL/MOL
REMARK 923 INTER-LIGAND FREE ENERGY PREDICTED BY IDOCK:   -6.62 KCAL/MOL
REMARK 924 INTRA-LIGAND FREE ENERGY PREDICTED BY IDOCK:   -0.61 KCAL/MOL
REMARK 927      BINDING AFFINITY PREDICTED BY RF-SCORE:    0.00 PKD
ROOT
HETATM    1  O   UNL     1      -8.052  13.985  67.867  1.00  0.00    -0.130 OA 
HETATM    2  C   UNL     1      -9.310  13.912  67.211  1.00  0.00    -0.231 C  
HETATM    3  H   UNL     1      -7.819  13.154  68.265  1.00  0.00     0.000 HD 
ENDROOT
BRANCH   2   4
HETATM    4  C   UNL     1      -9.687  15.256  66.565  1.00  0.00    -0.268 C  
HETATM    5  O   UNL     1     -11.020  15.641  66.934  1.00  0.00    -0.315 OA 
HETATM    6  C   UNL     1     -11.169  16.243  68.231  1.00  0.00    -0.324 C  
HETATM    7  O   UNL     1      -8.811  17.336  65.663  1.00  0.00    -0.476 OA 
HETATM    8  C   UNL     1     -10.255  17.479  68.385  1.00  0.00    -0.372 C  
HETATM    9  O   UNL     1     -10.650  18.523  67.469  1.00  0.00    -0.409 OA 
HETATM   10  C   UNL     1      -8.789  17.129  68.099  1.00  0.00    -0.237 C  
HETATM   11  H   UNL     1      -8.175  18.033  65.774  1.00  0.00     0.000 HD 
HETATM   12  H   UNL     1     -10.087  19.283  67.564  1.00  0.00     0.000 HD 
HETATM   13  O   UNL     1      -8.203  16.437  69.195  1.00  0.00    -0.240 OA 
HETATM   14  H   UNL     1      -7.295  16.219  69.018  1.00  0.00     0.000 HD 
HETATM   15  C   UNL     1      -8.652  16.392  66.747  1.00  0.00    -0.235 C  
BRANCH   6  16
HETATM   16  O   UNL     1     -10.950  15.301  69.287  1.00  0.00    -0.234 OA 
BRANCH  16  17
HETATM   17  C   UNL     1     -11.683  15.492  70.427  1.00  0.00    -0.339 A  
HETATM   18  C   UNL     1     -13.008  15.051  70.390  1.00  0.00    -0.283 A  
HETATM   19  C   UNL     1     -13.360  15.891  72.619  1.00  0.00    -0.472 A  
HETATM   20  C   UNL     1     -13.855  15.260  71.483  1.00  0.00    -0.617 A  
HETATM   21  C   UNL     1     -12.026  16.276  72.691  1.00  0.00    -0.644 A  
HETATM   22  O   UNL     1     -14.151  16.158  73.695  1.00  0.00    -0.658 OA 
HETATM   23  C   UNL     1     -11.183  16.059  71.601  1.00  0.00    -0.140 A  
HETATM   24  H   UNL     1     -13.812  16.589  74.471  1.00  0.00     0.000 HD 
ENDBRANCH  16  17
ENDBRANCH   6  16
ENDBRANCH   2   4
TORSDOF 3
ENDMDL
MODEL       42
REMARK 921   NORMALIZED FREE ENERGY PREDICTED BY IDOCK:   -5.78 KCAL/MOL
REMARK 922        TOTAL FREE ENERGY PREDICTED BY IDOCK:   -7.21 KCAL/MOL
REMARK 923 INTER-LIGAND FREE ENERGY PREDICTED BY IDOCK:   -6.78 KCAL/MOL
REMARK 924 INTRA-LIGAND FREE ENERGY PREDICTED BY IDOCK:   -0.43 KCAL/MOL
REMARK 927      BINDING AFFINITY PREDICTED BY RF-SCORE:    0.00 PKD
ROOT
HETATM    1  O   UNL     1     -11.908  16.365  63.787  1.00  0.00    -1.455 OA 
HETATM    2  C   UNL     1     -11.027  15.607  64.603  1.00  0.00    -0.325 C  
HETATM    3  H   UNL     1     -11.697  17.292  63.815  1.00  0.00     0.000 HD 
ENDROOT
BRANCH   2   4
HETATM    4  C   UNL     1     -11.367  14.108  64.558  1.00  0.00    -0.348 C  
HETATM    5  O   UNL     1     -10.219  13.315  64.898  1.00  0.00    -0.325 OA 
HETATM    6  C   UNL     1      -9.931  13.188  66.300  1.00  0.00    -0.285 C  
HETATM    7  O   UNL     1     -13.158  12.476  64.743  1.00  0.00    -0.853 OA 
HETATM    8  C   UNL     1     -11.144  12.628  67.075  1.00  0.00    -0.281 C  
HETATM    9  O   UNL     1     -11.438  11.277  66.655  1.00  0.00    -0.373 OA 
HETATM   10  C   UNL     1     -12.398  13.478  66.839  1.00  0.00    -0.238 C  
HETATM   11  H   UNL     1     -13.943  12.222  65.216  1.00  0.00     0.000 HD 
HETATM   12  H   UNL     1     -12.185  10.933  67.132  1.00  0.00     0.000 HD 
HETATM   13  O   UNL     1     -12.350  14.685  67.593  1.00  0.00    -0.597 OA 
HETATM   14  H   UNL     1     -13.127  15.213  67.447  1.00  0.00     0.000 HD 
HETATM   15  C   UNL     1     -12.644  13.694  65.328  1.00  0.00    -0.469 C  
BRANCH   6  16
HETATM   16  O   UNL     1      -9.477  14.422  66.867  1.00  0.00    -0.236 OA 
BRANCH  16  17
HETATM   17  C   UNL     1      -8.410  14.338  67.720  1.00  0.00    -0.171 A  
HETATM   18  C   UNL     1      -7.499  13.308  67.467  1.00  0.00    -0.163 A  
HETATM   19  C   UNL     1      -6.230  13.943  69.413  1.00  0.00    -0.106 A  
HETATM   20  C   UNL     1      -6.411  13.101  68.321  1.00  0.00    -0.096 A  
HETATM   21  C   UNL     1      -7.093  15.009  69.637  1.00  0.00    -0.193 A  
HETATM   22  O   UNL     1      -5.213  13.761  70.300  1.00  0.00    -0.091 OA 
HETATM   23  C   UNL     1      -8.173  15.217  68.778  1.00  0.00    -0.169 A  
HETATM   24  H   UNL     1      -5.089  14.337  71.046  1.00  0.00     0.000 HD 
ENDBRANCH  16  17
ENDBRANCH   6  16
ENDBRANCH   2   4
TORSDOF 3
ENDMDL
MODEL       43
REMARK 921   NORMALIZED FREE ENERGY PREDICTED BY IDOCK:   -5.74 KCAL/MOL
REMARK 922        TOTAL FREE ENERGY PREDICTED BY IDOCK:   -7.16 KCAL/MOL
REMARK 923 INTER-LIGAND FREE ENERGY PREDICTED BY IDOCK:   -6.72 KCAL/MOL
REMARK 924 INTRA-LIGAND FREE ENERGY PREDICTED BY IDOCK:   -0.44 KCAL/MOL
REMARK 927      BINDING AFFINITY PREDICTED BY RF-SCORE:    0.00 PKD
ROOT
HETATM    1  O   UNL     1     -12.483  14.457  63.659  1.00  0.00    -1.066 OA 
HETATM    2  C   UNL     1     -12.178  13.244  64.331  1.00  0.00    -0.390 C  
HETATM    3  H   UNL     1     -12.358  14.376  62.721  1.00  0.00     0.000 HD 
ENDROOT
BRANCH   2   4
HETATM    4  C   UNL     1     -12.381  13.375  65.851  1.00  0.00    -0.437 C  
HETATM    5  O   UNL     1     -12.250  12.099  66.494  1.00  0.00    -0.584 OA 
HETATM    6  C   UNL     1     -10.907  11.645  66.731  1.00  0.00    -0.277 C  
HETATM    7  O   UNL     1     -12.241  14.892  67.744  1.00  0.00    -0.545 OA 
HETATM    8  C   UNL     1     -10.101  12.678  67.551  1.00  0.00    -0.212 C  
HETATM    9  O   UNL     1     -10.659  12.824  68.875  1.00  0.00    -0.353 OA 
HETATM   10  C   UNL     1     -10.113  14.056  66.879  1.00  0.00    -0.259 C  
HETATM   11  H   UNL     1     -11.735  15.577  68.165  1.00  0.00     0.000 HD 
HETATM   12  H   UNL     1     -10.164  13.460  69.379  1.00  0.00     0.000 HD 
HETATM   13  O   UNL     1      -9.221  14.094  65.770  1.00  0.00    -0.505 OA 
HETATM   14  H   UNL     1      -9.228  14.948  65.353  1.00  0.00     0.000 HD 
HETATM   15  C   UNL     1     -11.556  14.491  66.536  1.00  0.00    -0.371 C  
BRANCH   6  16
HETATM   16  O   UNL     1     -10.232  11.309  65.514  1.00  0.00    -0.239 OA 
BRANCH  16  17
HETATM   17  C   UNL     1      -9.665  10.064  65.463  1.00  0.00    -0.289 A  
HETATM   18  C   UNL     1     -10.137   9.133  66.392  1.00  0.00    -0.345 A  
HETATM   19  C   UNL     1      -8.557   7.508  65.579  1.00  0.00    -0.083 A  
HETATM   20  C   UNL     1      -9.576   7.854  66.461  1.00  0.00    -0.281 A  
HETATM   21  C   UNL     1      -8.124   8.404  64.609  1.00  0.00    -0.156 A  
HETATM   22  O   UNL     1      -7.945   6.292  65.630  1.00  0.00    -0.103 OA 
HETATM   23  C   UNL     1      -8.693   9.677  64.540  1.00  0.00    -0.227 A  
HETATM   24  H   UNL     1      -7.249   6.056  65.027  1.00  0.00     0.000 HD 
ENDBRANCH  16  17
ENDBRANCH   6  16
ENDBRANCH   2   4
TORSDOF 3
ENDMDL
MODEL       44
REMARK 921   NORMALIZED FREE ENERGY PREDICTED BY IDOCK:   -5.73 KCAL/MOL
REMARK 922        TOTAL FREE ENERGY PREDICTED BY IDOCK:   -7.15 KCAL/MOL
REMARK 923 INTER-LIGAND FREE ENERGY PREDICTED BY IDOCK:   -6.52 KCAL/MOL
REMARK 924 INTRA-LIGAND FREE ENERGY PREDICTED BY IDOCK:   -0.64 KCAL/MOL
REMARK 927      BINDING AFFINITY PREDICTED BY RF-SCORE:    0.00 PKD
ROOT
HETATM    1  O   UNL     1     -11.202   6.874  67.958  1.00  0.00    -0.515 OA 
HETATM    2  C   UNL     1     -10.415   7.601  67.026  1.00  0.00    -0.349 C  
HETATM    3  H   UNL     1     -11.989   6.528  67.552  1.00  0.00     0.000 HD 
ENDROOT
BRANCH   2   4
HETATM    4  C   UNL     1      -9.141   8.161  67.681  1.00  0.00    -0.134 C  
HETATM    5  O   UNL     1      -8.741   9.388  67.051  1.00  0.00    -0.126 OA 
HETATM    6  C   UNL     1      -9.449  10.569  67.461  1.00  0.00    -0.149 C  
HETATM    7  O   UNL     1      -7.816   8.206  69.718  1.00  0.00    -0.100 OA 
HETATM    8  C   UNL     1      -9.369  10.771  68.991  1.00  0.00    -0.156 C  
HETATM    9  O   UNL     1      -8.006  11.020  69.401  1.00  0.00    -0.338 OA 
HETATM   10  C   UNL     1      -9.869   9.532  69.744  1.00  0.00    -0.215 C  
HETATM   11  H   UNL     1      -7.837   8.261  70.667  1.00  0.00     0.000 HD 
HETATM   12  H   UNL     1      -7.957  11.143  70.342  1.00  0.00     0.000 HD 
HETATM   13  O   UNL     1     -11.291   9.462  69.729  1.00  0.00    -0.398 OA 
HETATM   14  H   UNL     1     -11.602   8.695  70.195  1.00  0.00     0.000 HD 
HETATM   15  C   UNL     1      -9.175   8.252  69.225  1.00  0.00    -0.151 C  
BRANCH   6  16
HETATM   16  O   UNL     1     -10.808  10.564  67.009  1.00  0.00    -0.268 OA 
BRANCH  16  17
HETATM   17  C   UNL     1     -11.123  11.470  66.033  1.00  0.00    -0.230 A  
HETATM   18  C   UNL     1     -11.896  12.564  66.433  1.00  0.00    -0.445 A  
HETATM   19  C   UNL     1     -11.951  13.366  64.163  1.00  0.00    -0.450 A  
HETATM   20  C   UNL     1     -12.323  13.510  65.496  1.00  0.00    -0.524 A  
HETATM   21  C   UNL     1     -11.129  12.318  63.766  1.00  0.00    -0.507 A  
HETATM   22  O   UNL     1     -12.374  14.233  63.202  1.00  0.00    -1.096 OA 
HETATM   23  C   UNL     1     -10.699  11.381  64.706  1.00  0.00    -0.362 A  
HETATM   24  H   UNL     1     -12.119  14.134  62.292  1.00  0.00     0.000 HD 
ENDBRANCH  16  17
ENDBRANCH   6  16
ENDBRANCH   2   4
TORSDOF 3
ENDMDL
MODEL       45
REMARK 921   NORMALIZED FREE ENERGY PREDICTED BY IDOCK:   -5.64 KCAL/MOL
REMARK 922        TOTAL FREE ENERGY PREDICTED BY IDOCK:   -7.05 KCAL/MOL
REMARK 923 INTER-LIGAND FREE ENERGY PREDICTED BY IDOCK:   -6.75 KCAL/MOL
REMARK 924 INTRA-LIGAND FREE ENERGY PREDICTED BY IDOCK:   -0.30 KCAL/MOL
REMARK 927      BINDING AFFINITY PREDICTED BY RF-SCORE:    0.00 PKD
ROOT
HETATM    1  O   UNL     1      -9.324   9.720  65.709  1.00  0.00    -0.186 OA 
HETATM    2  C   UNL     1      -9.684  11.079  65.916  1.00  0.00    -0.224 C  
HETATM    3  H   UNL     1      -8.434   9.549  65.994  1.00  0.00     0.000 HD 
ENDROOT
BRANCH   2   4
HETATM    4  C   UNL     1     -11.125  11.356  65.455  1.00  0.00    -0.136 C  
HETATM    5  O   UNL     1     -11.906  11.901  66.529  1.00  0.00    -0.579 OA 
HETATM    6  C   UNL     1     -11.738  13.305  66.785  1.00  0.00    -0.385 C  
HETATM    7  O   UNL     1     -12.533  11.840  63.534  1.00  0.00    -0.577 OA 
HETATM    8  C   UNL     1     -12.016  14.145  65.519  1.00  0.00    -0.391 C  
HETATM    9  O   UNL     1     -13.400  14.027  65.123  1.00  0.00    -0.703 OA 
HETATM   10  C   UNL     1     -11.147  13.685  64.342  1.00  0.00    -0.364 C  
HETATM   11  H   UNL     1     -12.614  12.332  62.725  1.00  0.00     0.000 HD 
HETATM   12  H   UNL     1     -13.571  14.543  64.343  1.00  0.00     0.000 HD 
HETATM   13  O   UNL     1      -9.809  14.153  64.477  1.00  0.00    -0.634 OA 
HETATM   14  H   UNL     1      -9.271  13.868  63.748  1.00  0.00     0.000 HD 
HETATM   15  C   UNL     1     -11.257  12.157  64.138  1.00  0.00    -0.368 C  
BRANCH   6  16
HETATM   16  O   UNL     1     -10.446  13.599  67.329  1.00  0.00    -0.257 OA 
BRANCH  16  17
HETATM   17  C   UNL     1     -10.264  14.872  67.796  1.00  0.00    -0.236 A  
HETATM   18  C   UNL     1     -11.007  15.227  68.926  1.00  0.00    -0.261 A  
HETATM   19  C   UNL     1     -10.103  17.458  68.830  1.00  0.00    -0.346 A  
HETATM   20  C   UNL     1     -10.937  16.526  69.440  1.00  0.00    -0.288 A  
HETATM   21  C   UNL     1      -9.312  17.098  67.745  1.00  0.00    -0.245 A  
HETATM   22  O   UNL     1     -10.030  18.747  69.261  1.00  0.00    -0.352 OA 
HETATM   23  C   UNL     1      -9.379  15.798  67.241  1.00  0.00    -0.219 A  
HETATM   24  H   UNL     1      -9.460  19.383  68.844  1.00  0.00     0.000 HD 
ENDBRANCH  16  17
ENDBRANCH   6  16
ENDBRANCH   2   4
TORSDOF 3
ENDMDL
MODEL       46
REMARK 921   NORMALIZED FREE ENERGY PREDICTED BY IDOCK:   -5.63 KCAL/MOL
REMARK 922        TOTAL FREE ENERGY PREDICTED BY IDOCK:   -7.03 KCAL/MOL
REMARK 923 INTER-LIGAND FREE ENERGY PREDICTED BY IDOCK:   -6.36 KCAL/MOL
REMARK 924 INTRA-LIGAND FREE ENERGY PREDICTED BY IDOCK:   -0.67 KCAL/MOL
REMARK 927      BINDING AFFINITY PREDICTED BY RF-SCORE:    0.00 PKD
ROOT
HETATM    1  O   UNL     1      -8.596  10.695  69.717  1.00  0.00    -0.385 OA 
HETATM    2  C   UNL     1      -9.939  10.395  69.366  1.00  0.00    -0.218 C  
HETATM    3  H   UNL     1      -8.554  11.344  70.409  1.00  0.00     0.000 HD 
ENDROOT
BRANCH   2   4
HETATM    4  C   UNL     1     -10.007   9.343  68.245  1.00  0.00    -0.174 C  
HETATM    5  O   UNL     1     -10.968   9.723  67.249  1.00  0.00    -0.235 OA 
HETATM    6  C   UNL     1     -10.529  10.694  66.285  1.00  0.00    -0.203 C  
HETATM    7  O   UNL     1      -8.776   7.593  67.094  1.00  0.00    -0.122 OA 
HETATM    8  C   UNL     1      -9.247  10.227  65.559  1.00  0.00    -0.190 C  
HETATM    9  O   UNL     1      -9.510   9.047  64.769  1.00  0.00    -0.416 OA 
HETATM   10  C   UNL     1      -8.133   9.890  66.556  1.00  0.00    -0.117 C  
HETATM   11  H   UNL     1      -7.938   7.334  66.727  1.00  0.00     0.000 HD 
HETATM   12  H   UNL     1      -8.722   8.760  64.324  1.00  0.00     0.000 HD 
HETATM   13  O   UNL     1      -7.528  11.071  67.071  1.00  0.00    -0.113 OA 
HETATM   14  H   UNL     1      -6.838  10.862  67.689  1.00  0.00     0.000 HD 
HETATM   15  C   UNL     1      -8.643   8.921  67.648  1.00  0.00    -0.124 C  
BRANCH   6  16
HETATM   16  O   UNL     1     -10.351  11.989  66.872  1.00  0.00    -0.210 OA 
BRANCH  16  17
HETATM   17  C   UNL     1     -10.681  13.058  66.085  1.00  0.00    -0.273 A  
HETATM   18  C   UNL     1      -9.792  14.137  66.106  1.00  0.00    -0.326 A  
HETATM   19  C   UNL     1     -11.239  15.369  64.627  1.00  0.00    -0.364 A  
HETATM   20  C   UNL     1     -10.074  15.302  65.385  1.00  0.00    -0.397 A  
HETATM   21  C   UNL     1     -12.098  14.280  64.549  1.00  0.00    -0.499 A  
HETATM   22  O   UNL     1     -11.585  16.494  63.942  1.00  0.00    -1.598 OA 
HETATM   23  C   UNL     1     -11.807  13.117  65.263  1.00  0.00    -0.400 A  
HETATM   24  H   UNL     1     -12.380  16.540  63.424  1.00  0.00     0.000 HD 
ENDBRANCH  16  17
ENDBRANCH   6  16
ENDBRANCH   2   4
TORSDOF 3
ENDMDL
MODEL       47
REMARK 921   NORMALIZED FREE ENERGY PREDICTED BY IDOCK:   -5.62 KCAL/MOL
REMARK 922        TOTAL FREE ENERGY PREDICTED BY IDOCK:   -7.02 KCAL/MOL
REMARK 923 INTER-LIGAND FREE ENERGY PREDICTED BY IDOCK:   -6.37 KCAL/MOL
REMARK 924 INTRA-LIGAND FREE ENERGY PREDICTED BY IDOCK:   -0.65 KCAL/MOL
REMARK 927      BINDING AFFINITY PREDICTED BY RF-SCORE:    0.00 PKD
ROOT
HETATM    1  O   UNL     1      -9.337   8.253  65.456  1.00  0.00    -0.417 OA 
HETATM    2  C   UNL     1      -8.867   9.578  65.653  1.00  0.00    -0.161 C  
HETATM    3  H   UNL     1      -9.562   8.095  64.546  1.00  0.00     0.000 HD 
ENDROOT
BRANCH   2   4
HETATM    4  C   UNL     1      -8.502   9.834  67.125  1.00  0.00    -0.125 C  
HETATM    5  O   UNL     1      -9.058  11.077  67.579  1.00  0.00    -0.137 OA 
HETATM    6  C   UNL     1     -10.447  11.052  67.947  1.00  0.00    -0.192 C  
HETATM    7  O   UNL     1      -7.891   8.778  69.227  1.00  0.00    -0.096 OA 
HETATM    8  C   UNL     1     -10.724   9.983  69.027  1.00  0.00    -0.220 C  
HETATM    9  O   UNL     1     -10.043  10.314  70.258  1.00  0.00    -0.418 OA 
HETATM   10  C   UNL     1     -10.241   8.598  68.579  1.00  0.00    -0.195 C  
HETATM   11  H   UNL     1      -8.059   8.053  69.820  1.00  0.00     0.000 HD 
HETATM   12  H   UNL     1     -10.213   9.656  70.922  1.00  0.00     0.000 HD 
HETATM   13  O   UNL     1     -11.140   8.021  67.638  1.00  0.00    -0.495 OA 
HETATM   14  H   UNL     1     -10.841   7.163  67.360  1.00  0.00     0.000 HD 
HETATM   15  C   UNL     1      -8.776   8.655  68.090  1.00  0.00    -0.142 C  
BRANCH   6  16
HETATM   16  O   UNL     1     -11.299  10.873  66.810  1.00  0.00    -0.288 OA 
BRANCH  16  17
HETATM   17  C   UNL     1     -11.607  12.003  66.102  1.00  0.00    -0.304 A  
HETATM   18  C   UNL     1     -11.528  11.900  64.711  1.00  0.00    -0.323 A  
HETATM   19  C   UNL     1     -12.096  14.230  64.497  1.00  0.00    -0.480 A  
HETATM   20  C   UNL     1     -11.761  13.018  63.903  1.00  0.00    -0.531 A  
HETATM   21  C   UNL     1     -12.240  14.328  65.876  1.00  0.00    -0.422 A  
HETATM   22  O   UNL     1     -12.291  15.360  63.762  1.00  0.00    -0.979 OA 
HETATM   23  C   UNL     1     -12.014  13.208  66.677  1.00  0.00    -0.451 A  
HETATM   24  H   UNL     1     -12.520  16.188  64.169  1.00  0.00     0.000 HD 
ENDBRANCH  16  17
ENDBRANCH   6  16
ENDBRANCH   2   4
TORSDOF 3
ENDMDL
MODEL       48
REMARK 921   NORMALIZED FREE ENERGY PREDICTED BY IDOCK:   -5.61 KCAL/MOL
REMARK 922        TOTAL FREE ENERGY PREDICTED BY IDOCK:   -7.02 KCAL/MOL
REMARK 923 INTER-LIGAND FREE ENERGY PREDICTED BY IDOCK:   -6.48 KCAL/MOL
REMARK 924 INTRA-LIGAND FREE ENERGY PREDICTED BY IDOCK:   -0.54 KCAL/MOL
REMARK 927      BINDING AFFINITY PREDICTED BY RF-SCORE:    0.00 PKD
ROOT
HETATM    1  O   UNL     1      -9.261  17.642  67.827  1.00  0.00    -0.246 OA 
HETATM    2  C   UNL     1     -10.240  16.842  68.473  1.00  0.00    -0.298 C  
HETATM    3  H   UNL     1      -9.657  18.373  67.368  1.00  0.00     0.000 HD 
ENDROOT
BRANCH   2   4
HETATM    4  C   UNL     1      -9.599  15.658  69.217  1.00  0.00    -0.268 C  
HETATM    5  O   UNL     1     -10.372  14.462  69.033  1.00  0.00    -0.232 OA 
HETATM    6  C   UNL     1     -10.174  13.765  67.792  1.00  0.00    -0.241 C  
HETATM    7  O   UNL     1      -7.517  14.762  70.093  1.00  0.00    -0.358 OA 
HETATM    8  C   UNL     1      -8.685  13.409  67.579  1.00  0.00    -0.205 C  
HETATM    9  O   UNL     1      -8.238  12.471  68.581  1.00  0.00    -0.297 OA 
HETATM   10  C   UNL     1      -7.795  14.654  67.667  1.00  0.00    -0.181 C  
HETATM   11  H   UNL     1      -6.588  14.636  69.934  1.00  0.00     0.000 HD 
HETATM   12  H   UNL     1      -7.322  12.252  68.450  1.00  0.00     0.000 HD 
HETATM   13  O   UNL     1      -7.881  15.432  66.477  1.00  0.00    -0.286 OA 
HETATM   14  H   UNL     1      -7.329  16.204  66.531  1.00  0.00     0.000 HD 
HETATM   15  C   UNL     1      -8.087  15.453  68.958  1.00  0.00    -0.213 C  
BRANCH   6  16
HETATM   16  O   UNL     1     -10.697  14.496  66.677  1.00  0.00    -0.295 OA 
BRANCH  16  17
HETATM   17  C   UNL     1     -11.124  13.750  65.613  1.00  0.00    -0.295 A  
HETATM   18  C   UNL     1     -12.497  13.493  65.551  1.00  0.00    -0.538 A  
HETATM   19  C   UNL     1     -12.167  12.158  63.575  1.00  0.00    -0.567 A  
HETATM   20  C   UNL     1     -13.021  12.685  64.537  1.00  0.00    -0.236 A  
HETATM   21  C   UNL     1     -10.810  12.458  63.590  1.00  0.00    -0.509 A  
HETATM   22  O   UNL     1     -12.617  11.331  62.591  1.00  0.00    -0.821 OA 
HETATM   23  C   UNL     1     -10.293  13.271  64.600  1.00  0.00    -0.394 A  
HETATM   24  H   UNL     1     -12.033  10.970  61.934  1.00  0.00     0.000 HD 
ENDBRANCH  16  17
ENDBRANCH   6  16
ENDBRANCH   2   4
TORSDOF 3
ENDMDL
MODEL       49
REMARK 921   NORMALIZED FREE ENERGY PREDICTED BY IDOCK:   -5.61 KCAL/MOL
REMARK 922        TOTAL FREE ENERGY PREDICTED BY IDOCK:   -7.02 KCAL/MOL
REMARK 923 INTER-LIGAND FREE ENERGY PREDICTED BY IDOCK:   -6.35 KCAL/MOL
REMARK 924 INTRA-LIGAND FREE ENERGY PREDICTED BY IDOCK:   -0.67 KCAL/MOL
REMARK 927      BINDING AFFINITY PREDICTED BY RF-SCORE:    0.00 PKD
ROOT
HETATM    1  O   UNL     1     -12.473  13.627  62.987  1.00  0.00    -1.020 OA 
HETATM    2  C   UNL     1     -12.448  12.404  63.707  1.00  0.00    -0.492 C  
HETATM    3  H   UNL     1     -12.480  13.478  62.048  1.00  0.00     0.000 HD 
ENDROOT
BRANCH   2   4
HETATM    4  C   UNL     1     -12.437  12.645  65.226  1.00  0.00    -0.416 C  
HETATM    5  O   UNL     1     -11.682  11.624  65.898  1.00  0.00    -0.348 OA 
HETATM    6  C   UNL     1     -10.254  11.779  65.881  1.00  0.00    -0.237 C  
HETATM    7  O   UNL     1     -12.635  14.329  66.966  1.00  0.00    -0.553 OA 
HETATM    8  C   UNL     1      -9.830  13.147  66.462  1.00  0.00    -0.265 C  
HETATM    9  O   UNL     1     -10.174  13.234  67.862  1.00  0.00    -0.222 OA 
HETATM   10  C   UNL     1     -10.524  14.303  65.733  1.00  0.00    -0.316 C  
HETATM   11  H   UNL     1     -12.398  15.209  67.237  1.00  0.00     0.000 HD 
HETATM   12  H   UNL     1      -9.914  14.076  68.220  1.00  0.00     0.000 HD 
HETATM   13  O   UNL     1      -9.923  14.545  64.465  1.00  0.00    -0.583 OA 
HETATM   14  H   UNL     1     -10.353  15.262  64.012  1.00  0.00     0.000 HD 
HETATM   15  C   UNL     1     -12.052  14.077  65.667  1.00  0.00    -0.417 C  
BRANCH   6  16
HETATM   16  O   UNL     1      -9.708  11.581  64.572  1.00  0.00    -0.238 OA 
BRANCH  16  17
HETATM   17  C   UNL     1      -9.120  10.367  64.342  1.00  0.00    -0.234 A  
HETATM   18  C   UNL     1      -8.913  10.027  63.002  1.00  0.00    -0.272 A  
HETATM   19  C   UNL     1      -8.029   7.889  63.672  1.00  0.00    -0.118 A  
HETATM   20  C   UNL     1      -8.377   8.780  62.662  1.00  0.00    -0.198 A  
HETATM   21  C   UNL     1      -8.171   8.242  65.009  1.00  0.00    -0.160 A  
HETATM   22  O   UNL     1      -7.544   6.647  63.398  1.00  0.00    -0.073 OA 
HETATM   23  C   UNL     1      -8.699   9.490  65.343  1.00  0.00    -0.190 A  
HETATM   24  H   UNL     1      -7.307   6.038  64.088  1.00  0.00     0.000 HD 
ENDBRANCH  16  17
ENDBRANCH   6  16
ENDBRANCH   2   4
TORSDOF 3
ENDMDL
MODEL       50
REMARK 921   NORMALIZED FREE ENERGY PREDICTED BY IDOCK:   -5.53 KCAL/MOL
REMARK 922        TOTAL FREE ENERGY PREDICTED BY IDOCK:   -6.92 KCAL/MOL
REMARK 923 INTER-LIGAND FREE ENERGY PREDICTED BY IDOCK:   -6.28 KCAL/MOL
REMARK 924 INTRA-LIGAND FREE ENERGY PREDICTED BY IDOCK:   -0.64 KCAL/MOL
REMARK 927      BINDING AFFINITY PREDICTED BY RF-SCORE:    0.00 PKD
ROOT
HETATM    1  O   UNL     1     -10.498  15.968  64.703  1.00  0.00    -0.679 OA 
HETATM    2  C   UNL     1     -10.821  16.772  65.828  1.00  0.00    -0.087 C  
HETATM    3  H   UNL     1     -11.276  15.582  64.317  1.00  0.00     0.000 HD 
ENDROOT
BRANCH   2   4
HETATM    4  C   UNL     1      -9.562  17.398  66.453  1.00  0.00    -0.276 C  
HETATM    5  O   UNL     1      -9.743  17.607  67.861  1.00  0.00    -0.278 OA 
HETATM    6  C   UNL     1      -9.563  16.454  68.701  1.00  0.00    -0.240 C  
HETATM    7  O   UNL     1      -7.156  17.652  66.228  1.00  0.00    -0.245 OA 
HETATM    8  C   UNL     1      -8.173  15.815  68.488  1.00  0.00    -0.166 C  
HETATM    9  O   UNL     1      -7.127  16.718  68.908  1.00  0.00    -0.190 OA 
HETATM   10  C   UNL     1      -7.936  15.472  67.012  1.00  0.00    -0.233 C  
HETATM   11  H   UNL     1      -6.337  17.218  66.015  1.00  0.00     0.000 HD 
HETATM   12  H   UNL     1      -6.272  16.325  68.776  1.00  0.00     0.000 HD 
HETATM   13  O   UNL     1      -8.643  14.294  66.638  1.00  0.00    -0.413 OA 
HETATM   14  H   UNL     1      -8.496  14.082  65.724  1.00  0.00     0.000 HD 
HETATM   15  C   UNL     1      -8.229  16.691  66.107  1.00  0.00    -0.260 C  
BRANCH   6  16
HETATM   16  O   UNL     1     -10.609  15.492  68.521  1.00  0.00    -0.234 OA 
BRANCH  16  17
HETATM   17  C   UNL     1     -11.325  15.163  69.640  1.00  0.00    -0.283 A  
HETATM   18  C   UNL     1     -11.509  16.184  70.577  1.00  0.00    -0.363 A  
HETATM   19  C   UNL     1     -12.666  14.652  72.031  1.00  0.00    -0.334 A  
HETATM   20  C   UNL     1     -12.171  15.928  71.782  1.00  0.00    -0.551 A  
HETATM   21  C   UNL     1     -12.545  13.647  71.079  1.00  0.00    -0.441 A  
HETATM   22  O   UNL     1     -13.281  14.337  73.204  1.00  0.00    -0.616 OA 
HETATM   23  C   UNL     1     -11.890  13.909  69.875  1.00  0.00    -0.394 A  
HETATM   24  H   UNL     1     -13.619  13.466  73.374  1.00  0.00     0.000 HD 
ENDBRANCH  16  17
ENDBRANCH   6  16
ENDBRANCH   2   4
TORSDOF 3
ENDMDL
MODEL       51
REMARK 921   NORMALIZED FREE ENERGY PREDICTED BY IDOCK:   -5.42 KCAL/MOL
REMARK 922        TOTAL FREE ENERGY PREDICTED BY IDOCK:   -6.79 KCAL/MOL
REMARK 923 INTER-LIGAND FREE ENERGY PREDICTED BY IDOCK:   -6.11 KCAL/MOL
REMARK 924 INTRA-LIGAND FREE ENERGY PREDICTED BY IDOCK:   -0.67 KCAL/MOL
REMARK 927      BINDING AFFINITY PREDICTED BY RF-SCORE:    0.00 PKD
ROOT
HETATM    1  O   UNL     1     -11.705   6.713  68.943  1.00  0.00    -0.575 OA 
HETATM    2  C   UNL     1     -11.390   6.035  70.151  1.00  0.00    -0.281 C  
HETATM    3  H   UNL     1     -12.578   6.492  68.639  1.00  0.00     0.000 HD 
ENDROOT
BRANCH   2   4
HETATM    4  C   UNL     1      -9.977   6.392  70.644  1.00  0.00    -0.185 C  
HETATM    5  O   UNL     1      -9.608   7.712  70.217  1.00  0.00    -0.171 OA 
HETATM    6  C   UNL     1     -10.134   8.800  70.994  1.00  0.00    -0.237 C  
HETATM    7  O   UNL     1      -8.301   5.943  72.345  1.00  0.00    -0.117 OA 
HETATM    8  C   UNL     1      -9.758   8.659  72.486  1.00  0.00    -0.188 C  
HETATM    9  O   UNL     1      -8.328   8.763  72.663  1.00  0.00    -0.407 OA 
HETATM   10  C   UNL     1     -10.205   7.304  73.049  1.00  0.00    -0.268 C  
HETATM   11  H   UNL     1      -8.142   5.790  73.269  1.00  0.00     0.000 HD 
HETATM   12  H   UNL     1      -8.097   8.676  73.581  1.00  0.00     0.000 HD 
HETATM   13  O   UNL     1     -11.606   7.290  73.300  1.00  0.00    -0.557 OA 
HETATM   14  H   UNL     1     -11.884   6.451  73.648  1.00  0.00     0.000 HD 
HETATM   15  C   UNL     1      -9.719   6.144  72.150  1.00  0.00    -0.154 C  
BRANCH   6  16
HETATM   16  O   UNL     1     -11.549   8.942  70.827  1.00  0.00    -0.280 OA 
BRANCH  16  17
HETATM   17  C   UNL     1     -12.046  10.212  70.945  1.00  0.00    -0.356 A  
HETATM   18  C   UNL     1     -11.612  11.135  69.989  1.00  0.00    -0.421 A  
HETATM   19  C   UNL     1     -12.868  12.873  71.085  1.00  0.00    -0.238 A  
HETATM   20  C   UNL     1     -12.013  12.473  70.063  1.00  0.00    -0.372 A  
HETATM   21  C   UNL     1     -13.357  11.950  72.003  1.00  0.00    -0.425 A  
HETATM   22  O   UNL     1     -13.256  14.170  71.229  1.00  0.00    -0.338 OA 
HETATM   23  C   UNL     1     -12.959  10.615  71.920  1.00  0.00    -0.542 A  
HETATM   24  H   UNL     1     -13.840  14.443  71.927  1.00  0.00     0.000 HD 
ENDBRANCH  16  17
ENDBRANCH   6  16
ENDBRANCH   2   4
TORSDOF 3
ENDMDL
MODEL       52
REMARK 921   NORMALIZED FREE ENERGY PREDICTED BY IDOCK:   -5.40 KCAL/MOL
REMARK 922        TOTAL FREE ENERGY PREDICTED BY IDOCK:   -6.77 KCAL/MOL
REMARK 923 INTER-LIGAND FREE ENERGY PREDICTED BY IDOCK:   -6.24 KCAL/MOL
REMARK 924 INTRA-LIGAND FREE ENERGY PREDICTED BY IDOCK:   -0.54 KCAL/MOL
REMARK 927      BINDING AFFINITY PREDICTED BY RF-SCORE:    0.00 PKD
ROOT
HETATM    1  O   UNL     1     -10.059  17.874  66.621  1.00  0.00    -0.326 OA 
HETATM    2  C   UNL     1      -9.681  17.213  67.820  1.00  0.00    -0.271 C  
HETATM    3  H   UNL     1      -9.306  18.044  66.066  1.00  0.00     0.000 HD 
ENDROOT
BRANCH   2   4
HETATM    4  C   UNL     1     -10.899  16.936  68.718  1.00  0.00    -0.289 C  
HETATM    5  O   UNL     1     -11.957  16.324  67.966  1.00  0.00     0.102 OA 
HETATM    6  C   UNL     1     -11.832  14.912  67.732  1.00  0.00    -0.251 C  
HETATM    7  O   UNL     1     -11.625  16.529  71.001  1.00  0.00    -0.598 OA 
HETATM    8  C   UNL     1     -11.677  14.134  69.058  1.00  0.00    -0.324 C  
HETATM    9  O   UNL     1     -12.873  14.250  69.860  1.00  0.00    -0.477 OA 
HETATM   10  C   UNL     1     -10.501  14.668  69.884  1.00  0.00     0.074 C  
HETATM   11  H   UNL     1     -11.435  16.078  71.817  1.00  0.00     0.000 HD 
HETATM   12  H   UNL     1     -12.777  13.772  70.676  1.00  0.00     0.000 HD 
HETATM   13  O   UNL     1      -9.257  14.215  69.360  1.00  0.00    -0.349 OA 
HETATM   14  H   UNL     1      -8.528  14.546  69.871  1.00  0.00     0.000 HD 
HETATM   15  C   UNL     1     -10.590  16.203  70.045  1.00  0.00    -0.269 C  
BRANCH   6  16
HETATM   16  O   UNL     1     -10.764  14.611  66.826  1.00  0.00    -0.291 OA 
BRANCH  16  17
HETATM   17  C   UNL     1     -11.072  13.775  65.788  1.00  0.00    -0.289 A  
HETATM   18  C   UNL     1     -12.305  13.991  65.166  1.00  0.00    -0.468 A  
HETATM   19  C   UNL     1     -11.917  12.104  63.721  1.00  0.00    -0.513 A  
HETATM   20  C   UNL     1     -12.737  13.147  64.138  1.00  0.00    -0.158 A  
HETATM   21  C   UNL     1     -10.662  11.919  64.289  1.00  0.00    -0.388 A  
HETATM   22  O   UNL     1     -12.306  11.227  62.754  1.00  0.00    -0.856 OA 
HETATM   23  C   UNL     1     -10.232  12.768  65.309  1.00  0.00    -0.296 A  
HETATM   24  H   UNL     1     -11.745  10.514  62.470  1.00  0.00     0.000 HD 
ENDBRANCH  16  17
ENDBRANCH   6  16
ENDBRANCH   2   4
TORSDOF 3
ENDMDL
MODEL       53
REMARK 921   NORMALIZED FREE ENERGY PREDICTED BY IDOCK:   -5.37 KCAL/MOL
REMARK 922        TOTAL FREE ENERGY PREDICTED BY IDOCK:   -6.73 KCAL/MOL
REMARK 923 INTER-LIGAND FREE ENERGY PREDICTED BY IDOCK:   -6.14 KCAL/MOL
REMARK 924 INTRA-LIGAND FREE ENERGY PREDICTED BY IDOCK:   -0.59 KCAL/MOL
REMARK 927      BINDING AFFINITY PREDICTED BY RF-SCORE:    0.00 PKD
ROOT
HETATM    1  O   UNL     1     -11.546   9.774  68.991  1.00  0.00    -0.468 OA 
HETATM    2  C   UNL     1     -10.303   9.136  69.244  1.00  0.00    -0.216 C  
HETATM    3  H   UNL     1     -11.688  10.505  69.582  1.00  0.00     0.000 HD 
ENDROOT
BRANCH   2   4
HETATM    4  C   UNL     1     -10.072   7.954  68.287  1.00  0.00    -0.194 C  
HETATM    5  O   UNL     1     -10.755   8.166  67.043  1.00  0.00    -0.321 OA 
HETATM    6  C   UNL     1     -10.101   9.032  66.101  1.00  0.00    -0.172 C  
HETATM    7  O   UNL     1      -8.566   6.135  67.713  1.00  0.00    -0.115 OA 
HETATM    8  C   UNL     1      -8.672   8.539  65.783  1.00  0.00    -0.179 C  
HETATM    9  O   UNL     1      -8.711   7.261  65.112  1.00  0.00    -0.348 OA 
HETATM   10  C   UNL     1      -7.840   8.376  67.061  1.00  0.00    -0.096 C  
HETATM   11  H   UNL     1      -7.659   5.872  67.602  1.00  0.00     0.000 HD 
HETATM   12  H   UNL     1      -7.832   6.958  64.916  1.00  0.00     0.000 HD 
HETATM   13  O   UNL     1      -7.401   9.638  67.552  1.00  0.00    -0.089 OA 
HETATM   14  H   UNL     1      -6.886   9.537  68.344  1.00  0.00     0.000 HD 
HETATM   15  C   UNL     1      -8.596   7.526  68.107  1.00  0.00    -0.123 C  
BRANCH   6  16
HETATM   16  O   UNL     1     -10.094  10.395  66.542  1.00  0.00    -0.211 OA 
BRANCH  16  17
HETATM   17  C   UNL     1     -10.621  11.312  65.674  1.00  0.00    -0.244 A  
HETATM   18  C   UNL     1     -11.616  12.148  66.189  1.00  0.00    -0.418 A  
HETATM   19  C   UNL     1     -11.886  13.174  64.027  1.00  0.00    -0.453 A  
HETATM   20  C   UNL     1     -12.260  13.074  65.363  1.00  0.00    -0.520 A  
HETATM   21  C   UNL     1     -10.854  12.392  63.520  1.00  0.00    -0.487 A  
HETATM   22  O   UNL     1     -12.509  14.027  63.168  1.00  0.00    -1.137 OA 
HETATM   23  C   UNL     1     -10.209  11.475  64.350  1.00  0.00    -0.350 A  
HETATM   24  H   UNL     1     -12.253  14.095  62.256  1.00  0.00     0.000 HD 
ENDBRANCH  16  17
ENDBRANCH   6  16
ENDBRANCH   2   4
TORSDOF 3
ENDMDL
MODEL       54
REMARK 921   NORMALIZED FREE ENERGY PREDICTED BY IDOCK:   -5.34 KCAL/MOL
REMARK 922        TOTAL FREE ENERGY PREDICTED BY IDOCK:   -6.70 KCAL/MOL
REMARK 923 INTER-LIGAND FREE ENERGY PREDICTED BY IDOCK:   -6.24 KCAL/MOL
REMARK 924 INTRA-LIGAND FREE ENERGY PREDICTED BY IDOCK:   -0.45 KCAL/MOL
REMARK 927      BINDING AFFINITY PREDICTED BY RF-SCORE:    0.00 PKD
ROOT
HETATM    1  O   UNL     1     -11.487   6.792  66.871  1.00  0.00    -0.752 OA 
HETATM    2  C   UNL     1     -10.207   7.349  67.134  1.00  0.00    -0.277 C  
HETATM    3  H   UNL     1     -11.566   5.917  67.233  1.00  0.00     0.000 HD 
ENDROOT
BRANCH   2   4
HETATM    4  C   UNL     1     -10.078   8.765  66.548  1.00  0.00    -0.279 C  
HETATM    5  O   UNL     1     -10.864   9.701  67.302  1.00  0.00    -0.254 OA 
HETATM    6  C   UNL     1     -10.280  10.175  68.527  1.00  0.00    -0.174 C  
HETATM    7  O   UNL     1      -8.657  10.253  65.255  1.00  0.00    -0.152 OA 
HETATM    8  C   UNL     1      -8.891  10.806  68.281  1.00  0.00    -0.139 C  
HETATM    9  O   UNL     1      -9.008  11.994  67.468  1.00  0.00    -0.163 OA 
HETATM   10  C   UNL     1      -7.955   9.830  67.558  1.00  0.00    -0.106 C  
HETATM   11  H   UNL     1      -7.767  10.549  65.099  1.00  0.00     0.000 HD 
HETATM   12  H   UNL     1      -8.154  12.382  67.316  1.00  0.00     0.000 HD 
HETATM   13  O   UNL     1      -7.455   8.841  68.451  1.00  0.00    -0.088 OA 
HETATM   14  H   UNL     1      -6.875   8.236  68.004  1.00  0.00     0.000 HD 
HETATM   15  C   UNL     1      -8.630   9.249  66.295  1.00  0.00    -0.128 C  
BRANCH   6  16
HETATM   16  O   UNL     1     -10.214   9.147  69.521  1.00  0.00    -0.190 OA 
BRANCH  16  17
HETATM   17  C   UNL     1     -11.188   9.173  70.482  1.00  0.00    -0.264 A  
HETATM   18  C   UNL     1     -11.161   8.133  71.416  1.00  0.00    -0.297 A  
HETATM   19  C   UNL     1     -13.154   9.001  72.452  1.00  0.00    -0.423 A  
HETATM   20  C   UNL     1     -12.153   8.037  72.398  1.00  0.00    -0.374 A  
HETATM   21  C   UNL     1     -13.154  10.075  71.569  1.00  0.00    -0.531 A  
HETATM   22  O   UNL     1     -14.167   8.933  73.359  1.00  0.00    -1.241 OA 
HETATM   23  C   UNL     1     -12.158  10.170  70.596  1.00  0.00    -0.411 A  
HETATM   24  H   UNL     1     -14.851   9.592  73.396  1.00  0.00     0.000 HD 
ENDBRANCH  16  17
ENDBRANCH   6  16
ENDBRANCH   2   4
TORSDOF 3
ENDMDL
MODEL       55
REMARK 921   NORMALIZED FREE ENERGY PREDICTED BY IDOCK:   -5.33 KCAL/MOL
REMARK 922        TOTAL FREE ENERGY PREDICTED BY IDOCK:   -6.69 KCAL/MOL
REMARK 923 INTER-LIGAND FREE ENERGY PREDICTED BY IDOCK:   -5.99 KCAL/MOL
REMARK 924 INTRA-LIGAND FREE ENERGY PREDICTED BY IDOCK:   -0.70 KCAL/MOL
REMARK 927      BINDING AFFINITY PREDICTED BY RF-SCORE:    0.00 PKD
ROOT
HETATM    1  O   UNL     1      -6.863   8.716  67.966  1.00  0.00    -0.068 OA 
HETATM    2  C   UNL     1      -7.319   7.532  68.604  1.00  0.00    -0.095 C  
HETATM    3  H   UNL     1      -6.374   9.267  68.566  1.00  0.00     0.000 HD 
ENDROOT
BRANCH   2   4
HETATM    4  C   UNL     1      -8.112   6.639  67.634  1.00  0.00    -0.119 C  
HETATM    5  O   UNL     1      -9.101   5.874  68.339  1.00  0.00    -0.116 OA 
HETATM    6  C   UNL     1     -10.318   6.564  68.668  1.00  0.00    -0.191 C  
HETATM    7  O   UNL     1      -8.842   6.376  65.331  1.00  0.00    -0.329 OA 
HETATM    8  C   UNL     1     -10.984   7.161  67.408  1.00  0.00    -0.226 C  
HETATM    9  O   UNL     1     -11.410   6.112  66.511  1.00  0.00    -0.745 OA 
HETATM   10  C   UNL     1     -10.017   8.072  66.643  1.00  0.00    -0.256 C  
HETATM   11  H   UNL     1      -9.186   6.816  64.562  1.00  0.00     0.000 HD 
HETATM   12  H   UNL     1     -11.819   6.479  65.736  1.00  0.00     0.000 HD 
HETATM   13  O   UNL     1      -9.881   9.334  67.288  1.00  0.00    -0.161 OA 
HETATM   14  H   UNL     1      -9.281   9.898  66.815  1.00  0.00     0.000 HD 
HETATM   15  C   UNL     1      -8.672   7.355  66.382  1.00  0.00    -0.142 C  
BRANCH   6  16
HETATM   16  O   UNL     1     -10.112   7.566  69.670  1.00  0.00    -0.181 OA 
BRANCH  16  17
HETATM   17  C   UNL     1     -11.191   7.864  70.457  1.00  0.00    -0.253 A  
HETATM   18  C   UNL     1     -11.387   9.217  70.749  1.00  0.00    -0.337 A  
HETATM   19  C   UNL     1     -13.276   8.653  72.131  1.00  0.00    -0.383 A  
HETATM   20  C   UNL     1     -12.425   9.615  71.598  1.00  0.00    -0.494 A  
HETATM   21  C   UNL     1     -13.130   7.312  71.797  1.00  0.00    -0.365 A  
HETATM   22  O   UNL     1     -14.275   8.981  72.997  1.00  0.00    -1.107 OA 
HETATM   23  C   UNL     1     -12.097   6.921  70.943  1.00  0.00    -0.424 A  
HETATM   24  H   UNL     1     -14.857   8.323  73.361  1.00  0.00     0.000 HD 
ENDBRANCH  16  17
ENDBRANCH   6  16
ENDBRANCH   2   4
TORSDOF 3
ENDMDL
MODEL       56
REMARK 921   NORMALIZED FREE ENERGY PREDICTED BY IDOCK:   -5.25 KCAL/MOL
REMARK 922        TOTAL FREE ENERGY PREDICTED BY IDOCK:   -6.59 KCAL/MOL
REMARK 923 INTER-LIGAND FREE ENERGY PREDICTED BY IDOCK:   -5.95 KCAL/MOL
REMARK 924 INTRA-LIGAND FREE ENERGY PREDICTED BY IDOCK:   -0.64 KCAL/MOL
REMARK 927      BINDING AFFINITY PREDICTED BY RF-SCORE:    0.00 PKD
ROOT
HETATM    1  O   UNL     1     -12.267  12.332  66.243  1.00  0.00    -0.628 OA 
HETATM    2  C   UNL     1     -11.156  11.551  65.829  1.00  0.00    -0.210 C  
HETATM    3  H   UNL     1     -13.078  12.012  65.864  1.00  0.00     0.000 HD 
ENDROOT
BRANCH   2   4
HETATM    4  C   UNL     1      -9.843  12.068  66.442  1.00  0.00    -0.220 C  
HETATM    5  O   UNL     1     -10.049  12.500  67.795  1.00  0.00    -0.209 OA 
HETATM    6  C   UNL     1     -10.085  11.465  68.792  1.00  0.00    -0.188 C  
HETATM    7  O   UNL     1      -7.419  11.933  66.337  1.00  0.00    -0.372 OA 
HETATM    8  C   UNL     1      -8.801  10.605  68.755  1.00  0.00    -0.161 C  
HETATM    9  O   UNL     1      -7.648  11.396  69.115  1.00  0.00    -0.245 OA 
HETATM   10  C   UNL     1      -8.558  10.024  67.357  1.00  0.00    -0.125 C  
HETATM   11  H   UNL     1      -6.669  11.358  66.238  1.00  0.00     0.000 HD 
HETATM   12  H   UNL     1      -6.859  10.867  69.092  1.00  0.00     0.000 HD 
HETATM   13  O   UNL     1      -9.421   8.922  67.100  1.00  0.00    -0.146 OA 
HETATM   14  H   UNL     1      -9.271   8.562  66.234  1.00  0.00     0.000 HD 
HETATM   15  C   UNL     1      -8.622  11.132  66.280  1.00  0.00    -0.180 C  
BRANCH   6  16
HETATM   16  O   UNL     1     -11.258  10.651  68.677  1.00  0.00    -0.244 OA 
BRANCH  16  17
HETATM   17  C   UNL     1     -11.881  10.322  69.850  1.00  0.00    -0.193 A  
HETATM   18  C   UNL     1     -11.845   8.972  70.210  1.00  0.00     0.076 A  
HETATM   19  C   UNL     1     -13.186   9.445  72.154  1.00  0.00    -0.460 A  
HETATM   20  C   UNL     1     -12.509   8.527  71.358  1.00  0.00    -0.327 A  
HETATM   21  C   UNL     1     -13.174  10.799  71.840  1.00  0.00    -0.524 A  
HETATM   22  O   UNL     1     -13.884   9.061  73.258  1.00  0.00    -1.159 OA 
HETATM   23  C   UNL     1     -12.504  11.239  70.698  1.00  0.00    -0.439 A  
HETATM   24  H   UNL     1     -14.346   9.689  73.801  1.00  0.00     0.000 HD 
ENDBRANCH  16  17
ENDBRANCH   6  16
ENDBRANCH   2   4
TORSDOF 3
ENDMDL
MODEL       57
REMARK 921   NORMALIZED FREE ENERGY PREDICTED BY IDOCK:   -5.24 KCAL/MOL
REMARK 922        TOTAL FREE ENERGY PREDICTED BY IDOCK:   -6.58 KCAL/MOL
REMARK 923 INTER-LIGAND FREE ENERGY PREDICTED BY IDOCK:   -5.95 KCAL/MOL
REMARK 924 INTRA-LIGAND FREE ENERGY PREDICTED BY IDOCK:   -0.63 KCAL/MOL
REMARK 927      BINDING AFFINITY PREDICTED BY RF-SCORE:    0.00 PKD
ROOT
HETATM    1  O   UNL     1     -12.212  15.251  69.881  1.00  0.00    -0.351 OA 
HETATM    2  C   UNL     1     -11.869  13.911  69.558  1.00  0.00    -0.329 C  
HETATM    3  H   UNL     1     -12.212  15.393  70.821  1.00  0.00     0.000 HD 
ENDROOT
BRANCH   2   4
HETATM    4  C   UNL     1     -11.867  13.682  68.037  1.00  0.00    -0.362 C  
HETATM    5  O   UNL     1     -11.510  14.886  67.341  1.00  0.00    -0.339 OA 
HETATM    6  C   UNL     1     -10.107  15.188  67.278  1.00  0.00    -0.235 C  
HETATM    7  O   UNL     1     -11.622  12.015  66.285  1.00  0.00    -0.411 OA 
HETATM    8  C   UNL     1      -9.308  14.021  66.655  1.00  0.00    -0.277 C  
HETATM    9  O   UNL     1      -9.684  13.826  65.274  1.00  0.00    -0.549 OA 
HETATM   10  C   UNL     1      -9.562  12.708  67.404  1.00  0.00    -0.194 C  
HETATM   11  H   UNL     1     -11.137  11.253  65.989  1.00  0.00     0.000 HD 
HETATM   12  H   UNL     1      -9.193  13.108  64.891  1.00  0.00     0.000 HD 
HETATM   13  O   UNL     1      -8.846  12.670  68.633  1.00  0.00    -0.365 OA 
HETATM   14  H   UNL     1      -9.003  11.857  69.098  1.00  0.00     0.000 HD 
HETATM   15  C   UNL     1     -11.077  12.442  67.555  1.00  0.00    -0.266 C  
BRANCH   6  16
HETATM   16  O   UNL     1      -9.579  15.552  68.559  1.00  0.00    -0.194 OA 
BRANCH  16  17
HETATM   17  C   UNL     1      -8.873  16.723  68.610  1.00  0.00    -0.255 A  
HETATM   18  C   UNL     1      -7.490  16.603  68.765  1.00  0.00    -0.224 A  
HETATM   19  C   UNL     1      -7.281  19.001  68.839  1.00  0.00    -0.329 A  
HETATM   20  C   UNL     1      -6.689  17.743  68.893  1.00  0.00    -0.237 A  
HETATM   21  C   UNL     1      -8.647  19.133  68.621  1.00  0.00    -0.396 A  
HETATM   22  O   UNL     1      -6.556  20.142  69.000  1.00  0.00    -0.312 OA 
HETATM   23  C   UNL     1      -9.440  17.993  68.487  1.00  0.00    -0.326 A  
HETATM   24  H   UNL     1      -6.960  21.001  68.964  1.00  0.00     0.000 HD 
ENDBRANCH  16  17
ENDBRANCH   6  16
ENDBRANCH   2   4
TORSDOF 3
ENDMDL
MODEL       58
REMARK 921   NORMALIZED FREE ENERGY PREDICTED BY IDOCK:   -5.19 KCAL/MOL
REMARK 922        TOTAL FREE ENERGY PREDICTED BY IDOCK:   -6.52 KCAL/MOL
REMARK 923 INTER-LIGAND FREE ENERGY PREDICTED BY IDOCK:   -6.12 KCAL/MOL
REMARK 924 INTRA-LIGAND FREE ENERGY PREDICTED BY IDOCK:   -0.40 KCAL/MOL
REMARK 927      BINDING AFFINITY PREDICTED BY RF-SCORE:    0.00 PKD
ROOT
HETATM    1  O   UNL     1     -11.832  16.061  64.166  1.00  0.00    -0.932 OA 
HETATM    2  C   UNL     1     -10.752  15.609  64.969  1.00  0.00    -0.436 C  
HETATM    3  H   UNL     1     -11.667  15.907  63.243  1.00  0.00     0.000 HD 
ENDROOT
BRANCH   2   4
HETATM    4  C   UNL     1     -11.018  15.858  66.464  1.00  0.00    -0.121 C  
HETATM    5  O   UNL     1     -11.548  14.680  67.090  1.00  0.00    -0.363 OA 
HETATM    6  C   UNL     1     -10.591  13.669  67.448  1.00  0.00    -0.259 C  
HETATM    7  O   UNL     1     -10.384  17.192  68.394  1.00  0.00    -0.318 OA 
HETATM    8  C   UNL     1      -9.486  14.241  68.364  1.00  0.00    -0.213 C  
HETATM    9  O   UNL     1     -10.040  14.661  69.630  1.00  0.00    -0.422 OA 
HETATM   10  C   UNL     1      -8.801  15.454  67.723  1.00  0.00    -0.168 C  
HETATM   11  H   UNL     1      -9.663  17.581  68.876  1.00  0.00     0.000 HD 
HETATM   12  H   UNL     1      -9.360  15.013  70.193  1.00  0.00     0.000 HD 
HETATM   13  O   UNL     1      -7.888  15.051  66.708  1.00  0.00    -0.314 OA 
HETATM   14  H   UNL     1      -7.463  15.802  66.310  1.00  0.00     0.000 HD 
HETATM   15  C   UNL     1      -9.845  16.491  67.249  1.00  0.00    -0.254 C  
BRANCH   6  16
HETATM   16  O   UNL     1     -10.031  13.029  66.296  1.00  0.00    -0.271 OA 
BRANCH  16  17
HETATM   17  C   UNL     1      -9.985  11.662  66.328  1.00  0.00    -0.217 A  
HETATM   18  C   UNL     1      -9.254  11.046  65.307  1.00  0.00    -0.229 A  
HETATM   19  C   UNL     1      -9.865   8.881  66.167  1.00  0.00    -0.256 A  
HETATM   20  C   UNL     1      -9.202   9.651  65.217  1.00  0.00    -0.295 A  
HETATM   21  C   UNL     1     -10.541   9.482  67.221  1.00  0.00    -0.317 A  
HETATM   22  O   UNL     1      -9.883   7.521  66.102  1.00  0.00    -0.439 OA 
HETATM   23  C   UNL     1     -10.583  10.874  67.312  1.00  0.00    -0.296 A  
HETATM   24  H   UNL     1     -10.336   6.995  66.751  1.00  0.00     0.000 HD 
ENDBRANCH  16  17
ENDBRANCH   6  16
ENDBRANCH   2   4
TORSDOF 3
ENDMDL
MODEL       59
REMARK 921   NORMALIZED FREE ENERGY PREDICTED BY IDOCK:   -5.12 KCAL/MOL
REMARK 922        TOTAL FREE ENERGY PREDICTED BY IDOCK:   -6.44 KCAL/MOL
REMARK 923 INTER-LIGAND FREE ENERGY PREDICTED BY IDOCK:   -6.03 KCAL/MOL
REMARK 924 INTRA-LIGAND FREE ENERGY PREDICTED BY IDOCK:   -0.41 KCAL/MOL
REMARK 927      BINDING AFFINITY PREDICTED BY RF-SCORE:    0.00 PKD
ROOT
HETATM    1  O   UNL     1     -12.973  13.876  64.845  1.00  0.00    -0.711 OA 
HETATM    2  C   UNL     1     -12.374  13.217  65.951  1.00  0.00    -0.418 C  
HETATM    3  H   UNL     1     -13.216  13.260  64.163  1.00  0.00     0.000 HD 
ENDROOT
BRANCH   2   4
HETATM    4  C   UNL     1     -11.982  14.214  67.056  1.00  0.00    -0.439 C  
HETATM    5  O   UNL     1     -12.042  13.591  68.348  1.00  0.00    -0.352 OA 
HETATM    6  C   UNL     1     -10.917  12.775  68.710  1.00  0.00    -0.250 C  
HETATM    7  O   UNL     1     -10.720  16.232  67.546  1.00  0.00    -0.316 OA 
HETATM    8  C   UNL     1      -9.595  13.570  68.625  1.00  0.00    -0.075 C  
HETATM    9  O   UNL     1      -9.578  14.637  69.598  1.00  0.00    -0.408 OA 
HETATM   10  C   UNL     1      -9.407  14.193  67.237  1.00  0.00    -0.225 C  
HETATM   11  H   UNL     1      -9.910  16.707  67.396  1.00  0.00     0.000 HD 
HETATM   12  H   UNL     1      -8.765  15.127  69.545  1.00  0.00     0.000 HD 
HETATM   13  O   UNL     1      -8.994  13.216  66.287  1.00  0.00    -0.448 OA 
HETATM   14  H   UNL     1      -8.878  13.602  65.426  1.00  0.00     0.000 HD 
HETATM   15  C   UNL     1     -10.664  14.987  66.812  1.00  0.00    -0.308 C  
BRANCH   6  16
HETATM   16  O   UNL     1     -10.852  11.575  67.931  1.00  0.00    -0.189 OA 
BRANCH  16  17
HETATM   17  C   UNL     1     -10.768  10.403  68.633  1.00  0.00    -0.218 A  
HETATM   18  C   UNL     1     -11.080  10.476  69.993  1.00  0.00    -0.376 A  
HETATM   19  C   UNL     1     -10.553   8.140  70.247  1.00  0.00    -0.228 A  
HETATM   20  C   UNL     1     -10.962   9.345  70.808  1.00  0.00    -0.371 A  
HETATM   21  C   UNL     1     -10.302   8.041  68.884  1.00  0.00    -0.222 A  
HETATM   22  O   UNL     1     -10.380   7.019  71.001  1.00  0.00    -0.201 OA 
HETATM   23  C   UNL     1     -10.428   9.171  68.074  1.00  0.00    -0.276 A  
HETATM   24  H   UNL     1     -10.100   6.196  70.618  1.00  0.00     0.000 HD 
ENDBRANCH  16  17
ENDBRANCH   6  16
ENDBRANCH   2   4
TORSDOF 3
ENDMDL
MODEL       60
REMARK 921   NORMALIZED FREE ENERGY PREDICTED BY IDOCK:   -5.10 KCAL/MOL
REMARK 922        TOTAL FREE ENERGY PREDICTED BY IDOCK:   -6.42 KCAL/MOL
REMARK 923 INTER-LIGAND FREE ENERGY PREDICTED BY IDOCK:   -6.01 KCAL/MOL
REMARK 924 INTRA-LIGAND FREE ENERGY PREDICTED BY IDOCK:   -0.40 KCAL/MOL
REMARK 927      BINDING AFFINITY PREDICTED BY RF-SCORE:    0.00 PKD
ROOT
HETATM    1  O   UNL     1     -11.886  16.336  70.654  1.00  0.00    -0.493 OA 
HETATM    2  C   UNL     1     -11.401  15.661  69.502  1.00  0.00    -0.327 C  
HETATM    3  H   UNL     1     -12.827  16.238  70.744  1.00  0.00     0.000 HD 
ENDROOT
BRANCH   2   4
HETATM    4  C   UNL     1      -9.878  15.820  69.357  1.00  0.00    -0.286 C  
HETATM    5  O   UNL     1      -9.265  14.564  69.027  1.00  0.00    -0.160 OA 
HETATM    6  C   UNL     1      -9.337  14.167  67.648  1.00  0.00    -0.209 C  
HETATM    7  O   UNL     1      -8.089  17.384  68.849  1.00  0.00    -0.260 OA 
HETATM    8  C   UNL     1      -8.739  15.249  66.720  1.00  0.00    -0.270 C  
HETATM    9  O   UNL     1      -7.324  15.405  66.964  1.00  0.00    -0.196 OA 
HETATM   10  C   UNL     1      -9.410  16.609  66.944  1.00  0.00    -0.231 C  
HETATM   11  H   UNL     1      -7.806  18.098  68.289  1.00  0.00     0.000 HD 
HETATM   12  H   UNL     1      -6.957  16.070  66.394  1.00  0.00     0.000 HD 
HETATM   13  O   UNL     1     -10.695  16.656  66.333  1.00  0.00    -0.245 OA 
HETATM   14  H   UNL     1     -11.111  17.499  66.471  1.00  0.00     0.000 HD 
HETATM   15  C   UNL     1      -9.417  16.982  68.444  1.00  0.00    -0.269 C  
BRANCH   6  16
HETATM   16  O   UNL     1     -10.672  13.829  67.257  1.00  0.00    -0.279 OA 
BRANCH  16  17
HETATM   17  C   UNL     1     -10.796  13.092  66.110  1.00  0.00    -0.279 A  
HETATM   18  C   UNL     1      -9.885  12.044  65.949  1.00  0.00    -0.259 A  
HETATM   19  C   UNL     1     -10.828  11.546  63.790  1.00  0.00    -0.416 A  
HETATM   20  C   UNL     1      -9.890  11.275  64.781  1.00  0.00    -0.312 A  
HETATM   21  C   UNL     1     -11.779  12.543  63.967  1.00  0.00    -0.499 A  
HETATM   22  O   UNL     1     -10.850  10.857  62.615  1.00  0.00    -0.667 OA 
HETATM   23  C   UNL     1     -11.775  13.303  65.138  1.00  0.00    -0.358 A  
HETATM   24  H   UNL     1     -11.491  11.042  61.938  1.00  0.00     0.000 HD 
ENDBRANCH  16  17
ENDBRANCH   6  16
ENDBRANCH   2   4
TORSDOF 3
ENDMDL
MODEL       61
REMARK 921   NORMALIZED FREE ENERGY PREDICTED BY IDOCK:   -5.08 KCAL/MOL
REMARK 922        TOTAL FREE ENERGY PREDICTED BY IDOCK:   -6.39 KCAL/MOL
REMARK 923 INTER-LIGAND FREE ENERGY PREDICTED BY IDOCK:   -5.72 KCAL/MOL
REMARK 924 INTRA-LIGAND FREE ENERGY PREDICTED BY IDOCK:   -0.67 KCAL/MOL
REMARK 927      BINDING AFFINITY PREDICTED BY RF-SCORE:    0.00 PKD
ROOT
HETATM    1  O   UNL     1     -11.301  12.099  69.981  1.00  0.00    -0.506 OA 
HETATM    2  C   UNL     1     -11.858  13.261  69.384  1.00  0.00    -0.329 C  
HETATM    3  H   UNL     1     -11.977  11.530  70.331  1.00  0.00     0.000 HD 
ENDROOT
BRANCH   2   4
HETATM    4  C   UNL     1     -10.764  14.181  68.816  1.00  0.00    -0.256 C  
HETATM    5  O   UNL     1      -9.684  13.410  68.267  1.00  0.00    -0.222 OA 
HETATM    6  C   UNL     1      -9.894  12.877  66.949  1.00  0.00    -0.235 C  
HETATM    7  O   UNL     1     -10.310  16.382  67.891  1.00  0.00    -0.267 OA 
HETATM    8  C   UNL     1     -10.245  13.993  65.940  1.00  0.00    -0.320 C  
HETATM    9  O   UNL     1      -9.133  14.900  65.776  1.00  0.00    -0.479 OA 
HETATM   10  C   UNL     1     -11.455  14.810  66.409  1.00  0.00    -0.319 C  
HETATM   11  H   UNL     1     -10.617  17.067  67.307  1.00  0.00     0.000 HD 
HETATM   12  H   UNL     1      -9.349  15.587  65.156  1.00  0.00     0.000 HD 
HETATM   13  O   UNL     1     -12.669  14.100  66.194  1.00  0.00    -0.494 OA 
HETATM   14  H   UNL     1     -13.419  14.606  66.485  1.00  0.00     0.000 HD 
HETATM   15  C   UNL     1     -11.263  15.295  67.865  1.00  0.00    -0.331 C  
BRANCH   6  16
HETATM   16  O   UNL     1     -10.883  11.841  66.941  1.00  0.00    -0.244 OA 
BRANCH  16  17
HETATM   17  C   UNL     1     -10.422  10.567  66.749  1.00  0.00    -0.242 A  
HETATM   18  C   UNL     1      -9.838  10.304  65.507  1.00  0.00    -0.347 A  
HETATM   19  C   UNL     1      -9.518   8.002  66.136  1.00  0.00    -0.122 A  
HETATM   20  C   UNL     1      -9.394   9.016  65.192  1.00  0.00    -0.099 A  
HETATM   21  C   UNL     1     -10.039   8.267  67.397  1.00  0.00    -0.298 A  
HETATM   22  O   UNL     1      -9.143   6.721  65.867  1.00  0.00    -0.301 OA 
HETATM   23  C   UNL     1     -10.473   9.556  67.709  1.00  0.00    -0.309 A  
HETATM   24  H   UNL     1      -9.228   6.028  66.512  1.00  0.00     0.000 HD 
ENDBRANCH  16  17
ENDBRANCH   6  16
ENDBRANCH   2   4
TORSDOF 3
ENDMDL
MODEL       62
REMARK 921   NORMALIZED FREE ENERGY PREDICTED BY IDOCK:   -5.04 KCAL/MOL
REMARK 922        TOTAL FREE ENERGY PREDICTED BY IDOCK:   -6.34 KCAL/MOL
REMARK 923 INTER-LIGAND FREE ENERGY PREDICTED BY IDOCK:   -5.69 KCAL/MOL
REMARK 924 INTRA-LIGAND FREE ENERGY PREDICTED BY IDOCK:   -0.65 KCAL/MOL
REMARK 927      BINDING AFFINITY PREDICTED BY RF-SCORE:    0.00 PKD
ROOT
HETATM    1  O   UNL     1      -7.536  12.141  67.447  1.00  0.00    -0.136 OA 
HETATM    2  C   UNL     1      -7.361  10.827  67.954  1.00  0.00    -0.088 C  
HETATM    3  H   UNL     1      -6.939  12.320  66.730  1.00  0.00     0.000 HD 
ENDROOT
BRANCH   2   4
HETATM    4  C   UNL     1      -8.329  10.537  69.114  1.00  0.00    -0.151 C  
HETATM    5  O   UNL     1      -9.588  11.193  68.902  1.00  0.00    -0.198 OA 
HETATM    6  C   UNL     1     -10.499  10.540  68.003  1.00  0.00    -0.197 C  
HETATM    7  O   UNL     1      -8.890   8.965  70.880  1.00  0.00    -0.180 OA 
HETATM    8  C   UNL     1     -10.787   9.089  68.450  1.00  0.00    -0.011 C  
HETATM    9  O   UNL     1     -11.477   9.074  69.718  1.00  0.00    -0.446 OA 
HETATM   10  C   UNL     1      -9.490   8.287  68.609  1.00  0.00    -0.147 C  
HETATM   11  H   UNL     1      -8.980   8.048  71.115  1.00  0.00     0.000 HD 
HETATM   12  H   UNL     1     -11.654   8.182  69.993  1.00  0.00     0.000 HD 
HETATM   13  O   UNL     1      -8.968   7.897  67.343  1.00  0.00    -0.126 OA 
HETATM   14  H   UNL     1      -8.164   7.400  67.441  1.00  0.00     0.000 HD 
HETATM   15  C   UNL     1      -8.476   9.045  69.497  1.00  0.00    -0.125 C  
BRANCH   6  16
HETATM   16  O   UNL     1     -10.038  10.584  66.648  1.00  0.00    -0.206 OA 
BRANCH  16  17
HETATM   17  C   UNL     1     -10.717  11.423  65.806  1.00  0.00    -0.251 A  
HETATM   18  C   UNL     1     -10.562  11.183  64.438  1.00  0.00    -0.411 A  
HETATM   19  C   UNL     1     -11.938  13.095  63.938  1.00  0.00    -0.488 A  
HETATM   20  C   UNL     1     -11.164  12.026  63.498  1.00  0.00    -0.526 A  
HETATM   21  C   UNL     1     -12.150  13.306  65.295  1.00  0.00    -0.456 A  
HETATM   22  O   UNL     1     -12.511  13.972  63.068  1.00  0.00    -1.101 OA 
HETATM   23  C   UNL     1     -11.554  12.457  66.229  1.00  0.00    -0.449 A  
HETATM   24  H   UNL     1     -13.040  14.702  63.368  1.00  0.00     0.000 HD 
ENDBRANCH  16  17
ENDBRANCH   6  16
ENDBRANCH   2   4
TORSDOF 3
ENDMDL
MODEL       63
REMARK 921   NORMALIZED FREE ENERGY PREDICTED BY IDOCK:   -5.03 KCAL/MOL
REMARK 922        TOTAL FREE ENERGY PREDICTED BY IDOCK:   -6.33 KCAL/MOL
REMARK 923 INTER-LIGAND FREE ENERGY PREDICTED BY IDOCK:   -5.82 KCAL/MOL
REMARK 924 INTRA-LIGAND FREE ENERGY PREDICTED BY IDOCK:   -0.50 KCAL/MOL
REMARK 927      BINDING AFFINITY PREDICTED BY RF-SCORE:    0.00 PKD
ROOT
HETATM    1  O   UNL     1      -6.585  16.217  66.816  1.00  0.00    -0.255 OA 
HETATM    2  C   UNL     1      -7.921  15.842  66.518  1.00  0.00    -0.196 C  
HETATM    3  H   UNL     1      -6.042  15.458  66.996  1.00  0.00     0.000 HD 
ENDROOT
BRANCH   2   4
HETATM    4  C   UNL     1      -8.800  17.071  66.226  1.00  0.00    -0.254 C  
HETATM    5  O   UNL     1     -10.143  16.856  66.684  1.00  0.00    -0.281 OA 
HETATM    6  C   UNL     1     -10.372  17.051  68.089  1.00  0.00    -0.347 C  
HETATM    7  O   UNL     1      -8.787  19.473  65.861  1.00  0.00    -0.412 OA 
HETATM    8  C   UNL     1      -9.933  18.462  68.540  1.00  0.00    -0.387 C  
HETATM    9  O   UNL     1     -10.749  19.474  67.911  1.00  0.00    -0.416 OA 
HETATM   10  C   UNL     1      -8.471  18.737  68.170  1.00  0.00    -0.306 C  
HETATM   11  H   UNL     1      -8.425  20.308  66.138  1.00  0.00     0.000 HD 
HETATM   12  H   UNL     1     -10.479  20.342  68.189  1.00  0.00     0.000 HD 
HETATM   13  O   UNL     1      -7.582  18.070  69.059  1.00  0.00    -0.239 OA 
HETATM   14  H   UNL     1      -6.675  18.240  68.830  1.00  0.00     0.000 HD 
HETATM   15  C   UNL     1      -8.211  18.429  66.678  1.00  0.00    -0.266 C  
BRANCH   6  16
HETATM   16  O   UNL     1      -9.744  16.035  68.879  1.00  0.00    -0.210 OA 
BRANCH  16  17
HETATM   17  C   UNL     1     -10.407  14.841  68.965  1.00  0.00    -0.243 A  
HETATM   18  C   UNL     1      -9.798  13.751  68.336  1.00  0.00    -0.227 A  
HETATM   19  C   UNL     1     -11.661  12.350  68.944  1.00  0.00    -0.316 A  
HETATM   20  C   UNL     1     -10.430  12.503  68.313  1.00  0.00    -0.243 A  
HETATM   21  C   UNL     1     -12.244  13.411  69.627  1.00  0.00    -0.279 A  
HETATM   22  O   UNL     1     -12.340  11.170  68.916  1.00  0.00    -0.597 OA 
HETATM   23  C   UNL     1     -11.606  14.652  69.653  1.00  0.00    -0.349 A  
HETATM   24  H   UNL     1     -13.180  11.066  69.346  1.00  0.00     0.000 HD 
ENDBRANCH  16  17
ENDBRANCH   6  16
ENDBRANCH   2   4
TORSDOF 3
ENDMDL
MODEL       64
REMARK 921   NORMALIZED FREE ENERGY PREDICTED BY IDOCK:   -4.95 KCAL/MOL
REMARK 922        TOTAL FREE ENERGY PREDICTED BY IDOCK:   -6.24 KCAL/MOL
REMARK 923 INTER-LIGAND FREE ENERGY PREDICTED BY IDOCK:   -5.92 KCAL/MOL
REMARK 924 INTRA-LIGAND FREE ENERGY PREDICTED BY IDOCK:   -0.32 KCAL/MOL
REMARK 927      BINDING AFFINITY PREDICTED BY RF-SCORE:    0.00 PKD
ROOT
HETATM    1  O   UNL     1     -12.295  11.019  68.743  1.00  0.00    -0.730 OA 
HETATM    2  C   UNL     1     -11.339  11.935  68.231  1.00  0.00    -0.277 C  
HETATM    3  H   UNL     1     -11.937  10.506  69.459  1.00  0.00     0.000 HD 
ENDROOT
BRANCH   2   4
HETATM    4  C   UNL     1     -11.918  12.765  67.072  1.00  0.00    -0.295 C  
HETATM    5  O   UNL     1     -11.629  14.159  67.251  1.00  0.00    -0.333 OA 
HETATM    6  C   UNL     1     -10.310  14.587  66.874  1.00  0.00    -0.264 C  
HETATM    7  O   UNL     1     -12.603  12.704  64.741  1.00  0.00    -0.542 OA 
HETATM    8  C   UNL     1      -9.999  14.220  65.405  1.00  0.00    -0.303 C  
HETATM    9  O   UNL     1     -10.870  14.940  64.505  1.00  0.00    -0.609 OA 
HETATM   10  C   UNL     1     -10.193  12.720  65.151  1.00  0.00    -0.278 C  
HETATM   11  H   UNL     1     -12.394  12.387  63.870  1.00  0.00     0.000 HD 
HETATM   12  H   UNL     1     -10.679  14.713  63.602  1.00  0.00     0.000 HD 
HETATM   13  O   UNL     1      -9.104  11.966  65.673  1.00  0.00    -0.403 OA 
HETATM   14  H   UNL     1      -9.224  11.037  65.516  1.00  0.00     0.000 HD 
HETATM   15  C   UNL     1     -11.577  12.249  65.653  1.00  0.00    -0.380 C  
BRANCH   6  16
HETATM   16  O   UNL     1      -9.308  14.076  67.759  1.00  0.00    -0.193 OA 
BRANCH  16  17
HETATM   17  C   UNL     1      -8.439  14.996  68.282  1.00  0.00    -0.147 A  
HETATM   18  C   UNL     1      -8.568  16.304  67.808  1.00  0.00    -0.175 A  
HETATM   19  C   UNL     1      -6.689  16.985  69.151  1.00  0.00    -0.241 A  
HETATM   20  C   UNL     1      -7.685  17.302  68.233  1.00  0.00    -0.234 A  
HETATM   21  C   UNL     1      -6.592  15.702  69.677  1.00  0.00    -0.181 A  
HETATM   22  O   UNL     1      -5.776  17.906  69.566  1.00  0.00    -0.206 OA 
HETATM   23  C   UNL     1      -7.480  14.712  69.255  1.00  0.00    -0.132 A  
HETATM   24  H   UNL     1      -5.096  17.689  70.194  1.00  0.00     0.000 HD 
ENDBRANCH  16  17
ENDBRANCH   6  16
ENDBRANCH   2   4
TORSDOF 3
ENDMDL
MODEL       65
REMARK 921   NORMALIZED FREE ENERGY PREDICTED BY IDOCK:   -4.94 KCAL/MOL
REMARK 922        TOTAL FREE ENERGY PREDICTED BY IDOCK:   -6.22 KCAL/MOL
REMARK 923 INTER-LIGAND FREE ENERGY PREDICTED BY IDOCK:   -5.74 KCAL/MOL
REMARK 924 INTRA-LIGAND FREE ENERGY PREDICTED BY IDOCK:   -0.48 KCAL/MOL
REMARK 927      BINDING AFFINITY PREDICTED BY RF-SCORE:    0.00 PKD
ROOT
HETATM    1  O   UNL     1     -11.162   6.348  66.480  1.00  0.00    -0.699 OA 
HETATM    2  C   UNL     1     -10.882   7.549  67.183  1.00  0.00    -0.228 C  
HETATM    3  H   UNL     1     -11.848   6.475  65.834  1.00  0.00     0.000 HD 
ENDROOT
BRANCH   2   4
HETATM    4  C   UNL     1      -9.771   7.343  68.228  1.00  0.00    -0.152 C  
HETATM    5  O   UNL     1      -9.376   8.597  68.804  1.00  0.00    -0.142 OA 
HETATM    6  C   UNL     1     -10.228   9.115  69.839  1.00  0.00    -0.205 C  
HETATM    7  O   UNL     1      -8.784   5.759  69.784  1.00  0.00    -0.124 OA 
HETATM    8  C   UNL     1     -10.400   8.095  70.987  1.00  0.00    -0.195 C  
HETATM    9  O   UNL     1      -9.141   7.863  71.655  1.00  0.00    -0.128 OA 
HETATM   10  C   UNL     1     -10.913   6.748  70.465  1.00  0.00    -0.280 C  
HETATM   11  H   UNL     1      -8.955   5.086  70.433  1.00  0.00     0.000 HD 
HETATM   12  H   UNL     1      -9.247   7.235  72.361  1.00  0.00     0.000 HD 
HETATM   13  O   UNL     1     -12.306   6.806  70.176  1.00  0.00    -0.614 OA 
HETATM   14  H   UNL     1     -12.624   5.971  69.852  1.00  0.00     0.000 HD 
HETATM   15  C   UNL     1     -10.050   6.248  69.284  1.00  0.00    -0.175 C  
BRANCH   6  16
HETATM   16  O   UNL     1     -11.496   9.539  69.327  1.00  0.00     0.008 OA 
BRANCH  16  17
HETATM   17  C   UNL     1     -11.623  10.875  69.061  1.00  0.00    -0.316 A  
HETATM   18  C   UNL     1     -11.817  11.708  70.166  1.00  0.00    -0.428 A  
HETATM   19  C   UNL     1     -12.007  13.615  68.706  1.00  0.00    -0.359 A  
HETATM   20  C   UNL     1     -12.022  13.081  69.991  1.00  0.00    -0.383 A  
HETATM   21  C   UNL     1     -11.751  12.805  67.606  1.00  0.00    -0.422 A  
HETATM   22  O   UNL     1     -12.243  14.935  68.475  1.00  0.00    -0.576 OA 
HETATM   23  C   UNL     1     -11.540  11.438  67.786  1.00  0.00    -0.325 A  
HETATM   24  H   UNL     1     -12.233  15.300  67.597  1.00  0.00     0.000 HD 
ENDBRANCH  16  17
ENDBRANCH   6  16
ENDBRANCH   2   4
TORSDOF 3
ENDMDL
MODEL       66
REMARK 921   NORMALIZED FREE ENERGY PREDICTED BY IDOCK:   -4.93 KCAL/MOL
REMARK 922        TOTAL FREE ENERGY PREDICTED BY IDOCK:   -6.22 KCAL/MOL
REMARK 923 INTER-LIGAND FREE ENERGY PREDICTED BY IDOCK:   -5.88 KCAL/MOL
REMARK 924 INTRA-LIGAND FREE ENERGY PREDICTED BY IDOCK:   -0.34 KCAL/MOL
REMARK 927      BINDING AFFINITY PREDICTED BY RF-SCORE:    0.00 PKD
ROOT
HETATM    1  O   UNL     1     -11.336  14.813  71.295  1.00  0.00    -0.515 OA 
HETATM    2  C   UNL     1     -11.645  14.490  69.947  1.00  0.00    -0.287 C  
HETATM    3  H   UNL     1     -12.015  14.512  71.889  1.00  0.00     0.000 HD 
ENDROOT
BRANCH   2   4
HETATM    4  C   UNL     1     -10.547  14.977  68.986  1.00  0.00    -0.245 C  
HETATM    5  O   UNL     1      -9.599  13.931  68.725  1.00  0.00    -0.177 OA 
HETATM    6  C   UNL     1      -9.992  12.950  67.751  1.00  0.00    -0.230 C  
HETATM    7  O   UNL     1     -10.018  16.565  67.225  1.00  0.00    -0.253 OA 
HETATM    8  C   UNL     1     -10.356  13.611  66.403  1.00  0.00    -0.286 C  
HETATM    9  O   UNL     1      -9.198  14.242  65.815  1.00  0.00    -0.515 OA 
HETATM   10  C   UNL     1     -11.439  14.683  66.581  1.00  0.00    -0.357 C  
HETATM   11  H   UNL     1     -10.329  16.995  66.435  1.00  0.00     0.000 HD 
HETATM   12  H   UNL     1      -9.423  14.649  64.986  1.00  0.00     0.000 HD 
HETATM   13  O   UNL     1     -12.723  14.092  66.751  1.00  0.00    -0.510 OA 
HETATM   14  H   UNL     1     -13.394  14.756  66.862  1.00  0.00     0.000 HD 
HETATM   15  C   UNL     1     -11.053  15.676  67.701  1.00  0.00    -0.305 C  
BRANCH   6  16
HETATM   16  O   UNL     1     -11.057  12.119  68.226  1.00  0.00    -0.212 OA 
BRANCH  16  17
HETATM   17  C   UNL     1     -10.722  11.194  69.177  1.00  0.00    -0.221 A  
HETATM   18  C   UNL     1      -9.445  10.634  69.070  1.00  0.00    -0.202 A  
HETATM   19  C   UNL     1      -9.900   9.215  70.963  1.00  0.00    -0.296 A  
HETATM   20  C   UNL     1      -9.035   9.633  69.957  1.00  0.00    -0.266 A  
HETATM   21  C   UNL     1     -11.147   9.810  71.117  1.00  0.00    -0.414 A  
HETATM   22  O   UNL     1      -9.569   8.216  71.825  1.00  0.00    -0.160 OA 
HETATM   23  C   UNL     1     -11.549  10.814  70.235  1.00  0.00    -0.427 A  
HETATM   24  H   UNL     1     -10.160   7.930  72.512  1.00  0.00     0.000 HD 
ENDBRANCH  16  17
ENDBRANCH   6  16
ENDBRANCH   2   4
TORSDOF 3
ENDMDL
MODEL       67
REMARK 921   NORMALIZED FREE ENERGY PREDICTED BY IDOCK:   -4.92 KCAL/MOL
REMARK 922        TOTAL FREE ENERGY PREDICTED BY IDOCK:   -6.20 KCAL/MOL
REMARK 923 INTER-LIGAND FREE ENERGY PREDICTED BY IDOCK:   -5.73 KCAL/MOL
REMARK 924 INTRA-LIGAND FREE ENERGY PREDICTED BY IDOCK:   -0.48 KCAL/MOL
REMARK 927      BINDING AFFINITY PREDICTED BY RF-SCORE:    0.00 PKD
ROOT
HETATM    1  O   UNL     1     -12.575  10.391  69.140  1.00  0.00    -0.645 OA 
HETATM    2  C   UNL     1     -11.500  11.214  68.712  1.00  0.00    -0.299 C  
HETATM    3  H   UNL     1     -12.597  10.312  70.087  1.00  0.00     0.000 HD 
ENDROOT
BRANCH   2   4
HETATM    4  C   UNL     1     -11.464  11.343  67.180  1.00  0.00    -0.190 C  
HETATM    5  O   UNL     1     -11.915  12.642  66.768  1.00  0.00    -0.466 OA 
HETATM    6  C   UNL     1     -10.952  13.705  66.861  1.00  0.00    -0.289 C  
HETATM    7  O   UNL     1     -10.416  10.523  65.146  1.00  0.00    -0.270 OA 
HETATM    8  C   UNL     1      -9.668  13.371  66.068  1.00  0.00    -0.215 C  
HETATM    9  O   UNL     1      -9.952  13.280  64.655  1.00  0.00    -0.589 OA 
HETATM   10  C   UNL     1      -9.067  12.034  66.516  1.00  0.00    -0.202 C  
HETATM   11  H   UNL     1      -9.600  10.262  64.734  1.00  0.00     0.000 HD 
HETATM   12  H   UNL     1      -9.162  13.074  64.167  1.00  0.00     0.000 HD 
HETATM   13  O   UNL     1      -8.383  12.168  67.757  1.00  0.00    -0.140 OA 
HETATM   14  H   UNL     1      -8.010  11.340  68.036  1.00  0.00     0.000 HD 
HETATM   15  C   UNL     1     -10.136  10.917  66.509  1.00  0.00    -0.222 C  
BRANCH   6  16
HETATM   16  O   UNL     1     -10.650  14.037  68.221  1.00  0.00    -0.236 OA 
BRANCH  16  17
HETATM   17  C   UNL     1     -10.065  15.256  68.428  1.00  0.00    -0.220 A  
HETATM   18  C   UNL     1     -10.839  16.375  68.106  1.00  0.00    -0.346 A  
HETATM   19  C   UNL     1      -9.004  17.823  68.685  1.00  0.00    -0.256 A  
HETATM   20  C   UNL     1     -10.306  17.662  68.223  1.00  0.00    -0.384 A  
HETATM   21  C   UNL     1      -8.248  16.721  69.068  1.00  0.00    -0.172 A  
HETATM   22  O   UNL     1      -8.421  19.049  68.777  1.00  0.00    -0.355 OA 
HETATM   23  C   UNL     1      -8.787  15.439  68.958  1.00  0.00    -0.231 A  
HETATM   24  H   UNL     1      -7.531  19.158  69.093  1.00  0.00     0.000 HD 
ENDBRANCH  16  17
ENDBRANCH   6  16
ENDBRANCH   2   4
TORSDOF 3
ENDMDL
MODEL       68
REMARK 921   NORMALIZED FREE ENERGY PREDICTED BY IDOCK:   -4.92 KCAL/MOL
REMARK 922        TOTAL FREE ENERGY PREDICTED BY IDOCK:   -6.20 KCAL/MOL
REMARK 923 INTER-LIGAND FREE ENERGY PREDICTED BY IDOCK:   -5.60 KCAL/MOL
REMARK 924 INTRA-LIGAND FREE ENERGY PREDICTED BY IDOCK:   -0.60 KCAL/MOL
REMARK 927      BINDING AFFINITY PREDICTED BY RF-SCORE:    0.00 PKD
ROOT
HETATM    1  O   UNL     1     -12.154   7.497  72.817  1.00  0.00    -0.556 OA 
HETATM    2  C   UNL     1     -12.555   7.274  71.473  1.00  0.00    -0.379 C  
HETATM    3  H   UNL     1     -12.856   7.881  73.330  1.00  0.00     0.000 HD 
ENDROOT
BRANCH   2   4
HETATM    4  C   UNL     1     -11.419   6.653  70.642  1.00  0.00    -0.364 C  
HETATM    5  O   UNL     1     -11.272   7.338  69.389  1.00  0.00    -0.125 OA 
HETATM    6  C   UNL     1     -10.544   8.576  69.427  1.00  0.00    -0.195 C  
HETATM    7  O   UNL     1      -9.346   5.389  70.752  1.00  0.00    -0.152 OA 
HETATM    8  C   UNL     1      -9.135   8.382  70.032  1.00  0.00    -0.150 C  
HETATM    9  O   UNL     1      -8.331   7.529  69.188  1.00  0.00    -0.131 OA 
HETATM   10  C   UNL     1      -9.209   7.737  71.421  1.00  0.00    -0.134 C  
HETATM   11  H   UNL     1      -8.523   5.270  71.213  1.00  0.00     0.000 HD 
HETATM   12  H   UNL     1      -7.465   7.409  69.561  1.00  0.00     0.000 HD 
HETATM   13  O   UNL     1      -9.609   8.683  72.407  1.00  0.00    -0.288 OA 
HETATM   14  H   UNL     1      -9.655   8.284  73.268  1.00  0.00     0.000 HD 
HETATM   15  C   UNL     1     -10.079   6.459  71.392  1.00  0.00    -0.189 C  
BRANCH   6  16
HETATM   16  O   UNL     1     -11.267   9.603  70.115  1.00  0.00    -0.245 OA 
BRANCH  16  17
HETATM   17  C   UNL     1     -11.466  10.767  69.424  1.00  0.00    -0.295 A  
HETATM   18  C   UNL     1     -11.820  11.884  70.186  1.00  0.00    -0.390 A  
HETATM   19  C   UNL     1     -12.015  13.202  68.180  1.00  0.00    -0.294 A  
HETATM   20  C   UNL     1     -12.108  13.104  69.565  1.00  0.00    -0.296 A  
HETATM   21  C   UNL     1     -11.602  12.116  67.418  1.00  0.00    -0.410 A  
HETATM   22  O   UNL     1     -12.325  14.352  67.520  1.00  0.00    -0.621 OA 
HETATM   23  C   UNL     1     -11.309  10.903  68.044  1.00  0.00    -0.382 A  
HETATM   24  H   UNL     1     -12.261  14.419  66.574  1.00  0.00     0.000 HD 
ENDBRANCH  16  17
ENDBRANCH   6  16
ENDBRANCH   2   4
TORSDOF 3
ENDMDL
MODEL       69
REMARK 921   NORMALIZED FREE ENERGY PREDICTED BY IDOCK:   -4.82 KCAL/MOL
REMARK 922        TOTAL FREE ENERGY PREDICTED BY IDOCK:   -6.09 KCAL/MOL
REMARK 923 INTER-LIGAND FREE ENERGY PREDICTED BY IDOCK:   -5.47 KCAL/MOL
REMARK 924 INTRA-LIGAND FREE ENERGY PREDICTED BY IDOCK:   -0.62 KCAL/MOL
REMARK 927      BINDING AFFINITY PREDICTED BY RF-SCORE:    0.00 PKD
ROOT
HETATM    1  O   UNL     1     -12.685   6.895  70.663  1.00  0.00    -0.559 OA 
HETATM    2  C   UNL     1     -11.625   6.372  69.877  1.00  0.00    -0.353 C  
HETATM    3  H   UNL     1     -13.531   6.721  70.266  1.00  0.00     0.000 HD 
ENDROOT
BRANCH   2   4
HETATM    4  C   UNL     1     -10.256   6.652  70.519  1.00  0.00    -0.189 C  
HETATM    5  O   UNL     1      -9.333   7.167  69.547  1.00  0.00    -0.149 OA 
HETATM    6  C   UNL     1      -9.454   8.565  69.238  1.00  0.00    -0.158 C  
HETATM    7  O   UNL     1      -9.113   7.175  72.599  1.00  0.00    -0.132 OA 
HETATM    8  C   UNL     1      -9.341   9.434  70.511  1.00  0.00    -0.262 C  
HETATM    9  O   UNL     1      -8.023   9.318  71.091  1.00  0.00    -0.292 OA 
HETATM   10  C   UNL     1     -10.363   9.008  71.571  1.00  0.00    -0.342 C  
HETATM   11  H   UNL     1      -9.137   7.686  73.401  1.00  0.00     0.000 HD 
HETATM   12  H   UNL     1      -7.954   9.852  71.874  1.00  0.00     0.000 HD 
HETATM   13  O   UNL     1     -11.666   9.479  71.247  1.00  0.00    -0.312 OA 
HETATM   14  H   UNL     1     -12.300   9.215  71.904  1.00  0.00     0.000 HD 
HETATM   15  C   UNL     1     -10.294   7.484  71.824  1.00  0.00    -0.192 C  
BRANCH   6  16
HETATM   16  O   UNL     1     -10.659   8.853  68.519  1.00  0.00    -0.204 OA 
BRANCH  16  17
HETATM   17  C   UNL     1     -10.537   9.700  67.452  1.00  0.00    -0.268 A  
HETATM   18  C   UNL     1     -11.067  10.983  67.619  1.00  0.00    -0.363 A  
HETATM   19  C   UNL     1     -10.475  11.532  65.350  1.00  0.00    -0.281 A  
HETATM   20  C   UNL     1     -11.048  11.900  66.563  1.00  0.00    -0.357 A  
HETATM   21  C   UNL     1      -9.889  10.282  65.193  1.00  0.00    -0.389 A  
HETATM   22  O   UNL     1     -10.469  12.369  64.276  1.00  0.00    -0.317 OA 
HETATM   23  C   UNL     1      -9.903   9.373  66.252  1.00  0.00    -0.351 A  
HETATM   24  H   UNL     1     -10.077  12.117  63.447  1.00  0.00     0.000 HD 
ENDBRANCH  16  17
ENDBRANCH   6  16
ENDBRANCH   2   4
TORSDOF 3
ENDMDL
MODEL       70
REMARK 921   NORMALIZED FREE ENERGY PREDICTED BY IDOCK:   -4.82 KCAL/MOL
REMARK 922        TOTAL FREE ENERGY PREDICTED BY IDOCK:   -6.08 KCAL/MOL
REMARK 923 INTER-LIGAND FREE ENERGY PREDICTED BY IDOCK:   -5.45 KCAL/MOL
REMARK 924 INTRA-LIGAND FREE ENERGY PREDICTED BY IDOCK:   -0.64 KCAL/MOL
REMARK 927      BINDING AFFINITY PREDICTED BY RF-SCORE:    0.00 PKD
ROOT
HETATM    1  O   UNL     1     -12.990   8.564  73.059  1.00  0.00    -0.719 OA 
HETATM    2  C   UNL     1     -13.183   8.138  71.719  1.00  0.00    -0.341 C  
HETATM    3  H   UNL     1     -13.473   9.362  73.244  1.00  0.00     0.000 HD 
ENDROOT
BRANCH   2   4
HETATM    4  C   UNL     1     -12.401   6.847  71.420  1.00  0.00    -0.376 C  
HETATM    5  O   UNL     1     -11.963   6.822  70.053  1.00  0.00    -0.291 OA 
HETATM    6  C   UNL     1     -10.782   7.584  69.753  1.00  0.00    -0.242 C  
HETATM    7  O   UNL     1     -11.053   5.076  72.397  1.00  0.00    -0.185 OA 
HETATM    8  C   UNL     1      -9.594   7.154  70.644  1.00  0.00    -0.165 C  
HETATM    9  O   UNL     1      -9.211   5.791  70.359  1.00  0.00    -0.149 OA 
HETATM   10  C   UNL     1      -9.952   7.243  72.132  1.00  0.00    -0.165 C  
HETATM   11  H   UNL     1     -10.363   4.866  73.016  1.00  0.00     0.000 HD 
HETATM   12  H   UNL     1      -8.481   5.526  70.907  1.00  0.00     0.000 HD 
HETATM   13  O   UNL     1      -9.930   8.592  72.586  1.00  0.00    -0.278 OA 
HETATM   14  H   UNL     1     -10.152   8.647  73.508  1.00  0.00     0.000 HD 
HETATM   15  C   UNL     1     -11.277   6.505  72.427  1.00  0.00    -0.275 C  
BRANCH   6  16
HETATM   16  O   UNL     1     -11.016   8.994  69.846  1.00  0.00    -0.235 OA 
BRANCH  16  17
HETATM   17  C   UNL     1     -10.855   9.709  68.691  1.00  0.00    -0.167 A  
HETATM   18  C   UNL     1     -11.462  10.968  68.656  1.00  0.00    -0.375 A  
HETATM   19  C   UNL     1     -10.724  11.269  66.383  1.00  0.00    -0.267 A  
HETATM   20  C   UNL     1     -11.408  11.748  67.496  1.00  0.00    -0.377 A  
HETATM   21  C   UNL     1     -10.064  10.047  66.428  1.00  0.00    -0.307 A  
HETATM   22  O   UNL     1     -10.677  11.967  65.214  1.00  0.00    -0.267 OA 
HETATM   23  C   UNL     1     -10.114   9.276  67.591  1.00  0.00    -0.266 A  
HETATM   24  H   UNL     1     -10.210  11.639  64.454  1.00  0.00     0.000 HD 
ENDBRANCH  16  17
ENDBRANCH   6  16
ENDBRANCH   2   4
TORSDOF 3
ENDMDL
MODEL       71
REMARK 921   NORMALIZED FREE ENERGY PREDICTED BY IDOCK:   -4.79 KCAL/MOL
REMARK 922        TOTAL FREE ENERGY PREDICTED BY IDOCK:   -6.06 KCAL/MOL
REMARK 923 INTER-LIGAND FREE ENERGY PREDICTED BY IDOCK:   -5.40 KCAL/MOL
REMARK 924 INTRA-LIGAND FREE ENERGY PREDICTED BY IDOCK:   -0.65 KCAL/MOL
REMARK 927      BINDING AFFINITY PREDICTED BY RF-SCORE:    0.00 PKD
ROOT
HETATM    1  O   UNL     1      -7.288  19.166  65.660  1.00  0.00    -0.423 OA 
HETATM    2  C   UNL     1      -8.366  18.826  66.520  1.00  0.00    -0.297 C  
HETATM    3  H   UNL     1      -7.600  19.507  64.830  1.00  0.00     0.000 HD 
ENDROOT
BRANCH   2   4
HETATM    4  C   UNL     1      -7.862  18.275  67.865  1.00  0.00    -0.249 C  
HETATM    5  O   UNL     1      -8.579  17.086  68.228  1.00  0.00    -0.218 OA 
HETATM    6  C   UNL     1      -8.152  15.870  67.591  1.00  0.00    -0.144 C  
HETATM    7  O   UNL     1      -5.967  18.185  69.384  1.00  0.00    -0.222 OA 
HETATM    8  C   UNL     1      -6.647  15.611  67.826  1.00  0.00    -0.161 C  
HETATM    9  O   UNL     1      -6.381  15.382  69.227  1.00  0.00    -0.115 OA 
HETATM   10  C   UNL     1      -5.798  16.805  67.373  1.00  0.00    -0.161 C  
HETATM   11  H   UNL     1      -5.024  18.092  69.457  1.00  0.00     0.000 HD 
HETATM   12  H   UNL     1      -5.455  15.223  69.371  1.00  0.00     0.000 HD 
HETATM   13  O   UNL     1      -5.671  16.838  65.956  1.00  0.00    -0.073 OA 
HETATM   14  H   UNL     1      -5.145  17.578  65.675  1.00  0.00     0.000 HD 
HETATM   15  C   UNL     1      -6.327  18.123  67.985  1.00  0.00    -0.181 C  
BRANCH   6  16
HETATM   16  O   UNL     1      -8.469  15.857  66.195  1.00  0.00    -0.318 OA 
BRANCH  16  17
HETATM   17  C   UNL     1      -9.607  15.185  65.841  1.00  0.00    -0.338 A  
HETATM   18  C   UNL     1      -9.700  13.859  66.274  1.00  0.00    -0.304 A  
HETATM   19  C   UNL     1     -11.805  13.623  65.128  1.00  0.00    -0.348 A  
HETATM   20  C   UNL     1     -10.795  13.069  65.909  1.00  0.00    -0.291 A  
HETATM   21  C   UNL     1     -11.754  14.958  64.745  1.00  0.00    -0.402 A  
HETATM   22  O   UNL     1     -12.872  12.888  64.708  1.00  0.00    -0.706 OA 
HETATM   23  C   UNL     1     -10.663  15.744  65.119  1.00  0.00    -0.455 A  
HETATM   24  H   UNL     1     -13.561  13.267  64.174  1.00  0.00     0.000 HD 
ENDBRANCH  16  17
ENDBRANCH   6  16
ENDBRANCH   2   4
TORSDOF 3
ENDMDL
MODEL       72
REMARK 921   NORMALIZED FREE ENERGY PREDICTED BY IDOCK:   -4.79 KCAL/MOL
REMARK 922        TOTAL FREE ENERGY PREDICTED BY IDOCK:   -6.05 KCAL/MOL
REMARK 923 INTER-LIGAND FREE ENERGY PREDICTED BY IDOCK:   -5.66 KCAL/MOL
REMARK 924 INTRA-LIGAND FREE ENERGY PREDICTED BY IDOCK:   -0.38 KCAL/MOL
REMARK 927      BINDING AFFINITY PREDICTED BY RF-SCORE:    0.00 PKD
ROOT
HETATM    1  O   UNL     1     -12.534  13.997  67.547  1.00  0.00    -0.506 OA 
HETATM    2  C   UNL     1     -12.029  12.740  67.975  1.00  0.00    -0.264 C  
HETATM    3  H   UNL     1     -12.997  14.442  68.247  1.00  0.00     0.000 HD 
ENDROOT
BRANCH   2   4
HETATM    4  C   UNL     1     -11.280  12.019  66.842  1.00  0.00    -0.320 C  
HETATM    5  O   UNL     1     -10.516  12.952  66.063  1.00  0.00    -0.267 OA 
HETATM    6  C   UNL     1      -9.253  13.355  66.617  1.00  0.00    -0.214 C  
HETATM    7  O   UNL     1     -10.331   9.898  66.130  1.00  0.00    -0.230 OA 
HETATM    8  C   UNL     1      -8.354  12.133  66.915  1.00  0.00    -0.151 C  
HETATM    9  O   UNL     1      -7.997  11.453  65.691  1.00  0.00    -0.366 OA 
HETATM   10  C   UNL     1      -9.066  11.125  67.825  1.00  0.00    -0.149 C  
HETATM   11  H   UNL     1      -9.831   9.133  66.395  1.00  0.00     0.000 HD 
HETATM   12  H   UNL     1      -7.445  10.702  65.875  1.00  0.00     0.000 HD 
HETATM   13  O   UNL     1      -9.076  11.571  69.177  1.00  0.00    -0.390 OA 
HETATM   14  H   UNL     1      -9.517  10.947  69.741  1.00  0.00     0.000 HD 
HETATM   15  C   UNL     1     -10.467  10.775  67.272  1.00  0.00    -0.237 C  
BRANCH   6  16
HETATM   16  O   UNL     1      -9.415  14.175  67.780  1.00  0.00    -0.198 OA 
BRANCH  16  17
HETATM   17  C   UNL     1      -9.730  15.487  67.553  1.00  0.00    -0.215 A  
HETATM   18  C   UNL     1      -9.890  16.287  68.688  1.00  0.00    -0.230 A  
HETATM   19  C   UNL     1     -10.475  18.162  67.293  1.00  0.00    -0.393 A  
HETATM   20  C   UNL     1     -10.276  17.626  68.562  1.00  0.00    -0.386 A  
HETATM   21  C   UNL     1     -10.256  17.393  66.156  1.00  0.00    -0.334 A  
HETATM   22  O   UNL     1     -10.892  19.446  67.114  1.00  0.00    -0.484 OA 
HETATM   23  C   UNL     1      -9.864  16.060  66.288  1.00  0.00    -0.331 A  
HETATM   24  H   UNL     1     -11.028  19.811  66.247  1.00  0.00     0.000 HD 
ENDBRANCH  16  17
ENDBRANCH   6  16
ENDBRANCH   2   4
TORSDOF 3
ENDMDL
MODEL       73
REMARK 921   NORMALIZED FREE ENERGY PREDICTED BY IDOCK:   -4.78 KCAL/MOL
REMARK 922        TOTAL FREE ENERGY PREDICTED BY IDOCK:   -6.04 KCAL/MOL
REMARK 923 INTER-LIGAND FREE ENERGY PREDICTED BY IDOCK:   -5.36 KCAL/MOL
REMARK 924 INTRA-LIGAND FREE ENERGY PREDICTED BY IDOCK:   -0.68 KCAL/MOL
REMARK 927      BINDING AFFINITY PREDICTED BY RF-SCORE:    0.00 PKD
ROOT
HETATM    1  O   UNL     1      -9.527  10.015  66.569  1.00  0.00    -0.162 OA 
HETATM    2  C   UNL     1      -9.183  10.565  67.832  1.00  0.00    -0.140 C  
HETATM    3  H   UNL     1      -9.856  10.682  65.977  1.00  0.00     0.000 HD 
ENDROOT
BRANCH   2   4
HETATM    4  C   UNL     1      -8.650   9.486  68.790  1.00  0.00    -0.123 C  
HETATM    5  O   UNL     1      -9.136   9.705  70.123  1.00  0.00    -0.222 OA 
HETATM    6  C   UNL     1     -10.475   9.255  70.391  1.00  0.00    -0.245 C  
HETATM    7  O   UNL     1      -7.818   7.208  68.942  1.00  0.00    -0.110 OA 
HETATM    8  C   UNL     1     -10.640   7.755  70.063  1.00  0.00    -0.238 C  
HETATM    9  O   UNL     1      -9.820   6.949  70.937  1.00  0.00    -0.185 OA 
HETATM   10  C   UNL     1     -10.229   7.450  68.618  1.00  0.00    -0.191 C  
HETATM   11  H   UNL     1      -7.927   6.311  68.646  1.00  0.00     0.000 HD 
HETATM   12  H   UNL     1      -9.922   6.025  70.735  1.00  0.00     0.000 HD 
HETATM   13  O   UNL     1     -11.236   7.862  67.700  1.00  0.00    -0.433 OA 
HETATM   14  H   UNL     1     -10.982   7.674  66.804  1.00  0.00     0.000 HD 
HETATM   15  C   UNL     1      -8.828   8.026  68.309  1.00  0.00    -0.133 C  
BRANCH   6  16
HETATM   16  O   UNL     1     -11.452  10.047  69.707  1.00  0.00    -0.236 OA 
BRANCH  16  17
HETATM   17  C   UNL     1     -12.105  10.984  70.461  1.00  0.00    -0.377 A  
HETATM   18  C   UNL     1     -11.981  12.310  70.038  1.00  0.00    -0.379 A  
HETATM   19  C   UNL     1     -13.278  13.043  71.930  1.00  0.00    -0.430 A  
HETATM   20  C   UNL     1     -12.559  13.347  70.779  1.00  0.00    -0.369 A  
HETATM   21  C   UNL     1     -13.461  11.723  72.324  1.00  0.00    -0.143 A  
HETATM   22  O   UNL     1     -13.824  14.015  72.712  1.00  0.00    -0.674 OA 
HETATM   23  C   UNL     1     -12.890  10.692  71.577  1.00  0.00    -0.567 A  
HETATM   24  H   UNL     1     -14.316  13.807  73.499  1.00  0.00     0.000 HD 
ENDBRANCH  16  17
ENDBRANCH   6  16
ENDBRANCH   2   4
TORSDOF 3
ENDMDL
MODEL       74
REMARK 921   NORMALIZED FREE ENERGY PREDICTED BY IDOCK:   -4.77 KCAL/MOL
REMARK 922        TOTAL FREE ENERGY PREDICTED BY IDOCK:   -6.02 KCAL/MOL
REMARK 923 INTER-LIGAND FREE ENERGY PREDICTED BY IDOCK:   -5.38 KCAL/MOL
REMARK 924 INTRA-LIGAND FREE ENERGY PREDICTED BY IDOCK:   -0.64 KCAL/MOL
REMARK 927      BINDING AFFINITY PREDICTED BY RF-SCORE:    0.00 PKD
ROOT
HETATM    1  O   UNL     1      -9.910  12.728  68.849  1.00  0.00    -0.417 OA 
HETATM    2  C   UNL     1      -8.900  12.017  68.148  1.00  0.00    -0.182 C  
HETATM    3  H   UNL     1      -9.936  12.480  69.767  1.00  0.00     0.000 HD 
ENDROOT
BRANCH   2   4
HETATM    4  C   UNL     1      -8.858  12.418  66.663  1.00  0.00    -0.156 C  
HETATM    5  O   UNL     1      -8.504  11.294  65.843  1.00  0.00    -0.150 OA 
HETATM    6  C   UNL     1      -9.563  10.370  65.544  1.00  0.00    -0.234 C  
HETATM    7  O   UNL     1      -9.708  13.981  65.008  1.00  0.00    -0.574 OA 
HETATM    8  C   UNL     1     -10.763  11.085  64.883  1.00  0.00    -0.208 C  
HETATM    9  O   UNL     1     -10.390  11.618  63.593  1.00  0.00    -0.334 OA 
HETATM   10  C   UNL     1     -11.265  12.248  65.747  1.00  0.00    -0.337 C  
HETATM   11  H   UNL     1     -10.471  14.451  64.691  1.00  0.00     0.000 HD 
HETATM   12  H   UNL     1     -11.128  12.057  63.187  1.00  0.00     0.000 HD 
HETATM   13  O   UNL     1     -12.030  11.775  66.851  1.00  0.00    -0.605 OA 
HETATM   14  H   UNL     1     -12.341  12.495  67.386  1.00  0.00     0.000 HD 
HETATM   15  C   UNL     1     -10.100  13.182  66.147  1.00  0.00    -0.291 C  
BRANCH   6  16
HETATM   16  O   UNL     1      -9.972   9.632  66.701  1.00  0.00    -0.205 OA 
BRANCH  16  17
HETATM   17  C   UNL     1      -9.845   8.272  66.625  1.00  0.00    -0.267 A  
HETATM   18  C   UNL     1     -10.868   7.523  67.213  1.00  0.00    -0.297 A  
HETATM   19  C   UNL     1      -9.706   5.487  66.661  1.00  0.00    -0.159 A  
HETATM   20  C   UNL     1     -10.796   6.126  67.243  1.00  0.00    -0.438 A  
HETATM   21  C   UNL     1      -8.715   6.219  66.018  1.00  0.00    -0.155 A  
HETATM   22  O   UNL     1      -9.564   4.133  66.700  1.00  0.00    -0.182 OA 
HETATM   23  C   UNL     1      -8.796   7.611  65.984  1.00  0.00    -0.186 A  
HETATM   24  H   UNL     1      -8.819   3.696  66.302  1.00  0.00     0.000 HD 
ENDBRANCH  16  17
ENDBRANCH   6  16
ENDBRANCH   2   4
TORSDOF 3
ENDMDL
MODEL       75
REMARK 921   NORMALIZED FREE ENERGY PREDICTED BY IDOCK:   -4.72 KCAL/MOL
REMARK 922        TOTAL FREE ENERGY PREDICTED BY IDOCK:   -5.96 KCAL/MOL
REMARK 923 INTER-LIGAND FREE ENERGY PREDICTED BY IDOCK:   -5.45 KCAL/MOL
REMARK 924 INTRA-LIGAND FREE ENERGY PREDICTED BY IDOCK:   -0.52 KCAL/MOL
REMARK 927      BINDING AFFINITY PREDICTED BY RF-SCORE:    0.00 PKD
ROOT
HETATM    1  O   UNL     1      -9.596   9.257  63.432  1.00  0.00    -0.350 OA 
HETATM    2  C   UNL     1      -8.960  10.487  63.750  1.00  0.00    -0.215 C  
HETATM    3  H   UNL     1     -10.151   9.341  62.665  1.00  0.00     0.000 HD 
ENDROOT
BRANCH   2   4
HETATM    4  C   UNL     1      -8.061  10.352  64.991  1.00  0.00    -0.136 C  
HETATM    5  O   UNL     1      -8.168  11.515  65.825  1.00  0.00     0.051 OA 
HETATM    6  C   UNL     1      -9.317  11.572  66.687  1.00  0.00    -0.189 C  
HETATM    7  O   UNL     1      -6.974   8.776  66.488  1.00  0.00    -0.077 OA 
HETATM    8  C   UNL     1      -9.403  10.324  67.594  1.00  0.00    -0.144 C  
HETATM    9  O   UNL     1      -8.284  10.280  68.507  1.00  0.00    -0.103 OA 
HETATM   10  C   UNL     1      -9.389   9.032  66.768  1.00  0.00    -0.165 C  
HETATM   11  H   UNL     1      -7.063   7.961  66.968  1.00  0.00     0.000 HD 
HETATM   12  H   UNL     1      -8.337   9.512  69.064  1.00  0.00     0.000 HD 
HETATM   13  O   UNL     1     -10.655   8.797  66.160  1.00  0.00    -0.134 OA 
HETATM   14  H   UNL     1     -10.647   7.997  65.649  1.00  0.00     0.000 HD 
HETATM   15  C   UNL     1      -8.206   9.024  65.773  1.00  0.00    -0.120 C  
BRANCH   6  16
HETATM   16  O   UNL     1     -10.531  11.762  65.950  1.00  0.00    -0.238 OA 
BRANCH  16  17
HETATM   17  C   UNL     1     -10.783  13.036  65.521  1.00  0.00    -0.281 A  
HETATM   18  C   UNL     1     -11.913  13.203  64.715  1.00  0.00    -0.435 A  
HETATM   19  C   UNL     1     -11.399  15.543  64.465  1.00  0.00    -0.314 A  
HETATM   20  C   UNL     1     -12.219  14.456  64.175  1.00  0.00    -0.393 A  
HETATM   21  C   UNL     1     -10.309  15.401  65.316  1.00  0.00    -0.420 A  
HETATM   22  O   UNL     1     -11.625  16.775  63.931  1.00  0.00    -1.451 OA 
HETATM   23  C   UNL     1     -10.013  14.150  65.859  1.00  0.00    -0.331 A  
HETATM   24  H   UNL     1     -11.065  17.516  64.129  1.00  0.00     0.000 HD 
ENDBRANCH  16  17
ENDBRANCH   6  16
ENDBRANCH   2   4
TORSDOF 3
ENDMDL
MODEL       76
REMARK 921   NORMALIZED FREE ENERGY PREDICTED BY IDOCK:   -4.71 KCAL/MOL
REMARK 922        TOTAL FREE ENERGY PREDICTED BY IDOCK:   -5.95 KCAL/MOL
REMARK 923 INTER-LIGAND FREE ENERGY PREDICTED BY IDOCK:   -5.45 KCAL/MOL
REMARK 924 INTRA-LIGAND FREE ENERGY PREDICTED BY IDOCK:   -0.51 KCAL/MOL
REMARK 927      BINDING AFFINITY PREDICTED BY RF-SCORE:    0.00 PKD
ROOT
HETATM    1  O   UNL     1     -12.533   6.839  70.074  1.00  0.00    -0.546 OA 
HETATM    2  C   UNL     1     -11.285   6.758  70.747  1.00  0.00    -0.304 C  
HETATM    3  H   UNL     1     -13.256   6.634  70.657  1.00  0.00     0.000 HD 
ENDROOT
BRANCH   2   4
HETATM    4  C   UNL     1     -10.115   7.090  69.804  1.00  0.00    -0.189 C  
HETATM    5  O   UNL     1     -10.472   8.149  68.903  1.00  0.00    -0.215 OA 
HETATM    6  C   UNL     1     -10.399   9.483  69.433  1.00  0.00    -0.214 C  
HETATM    7  O   UNL     1      -7.700   7.023  69.545  1.00  0.00    -0.102 OA 
HETATM    8  C   UNL     1      -8.992   9.788  69.995  1.00  0.00    -0.222 C  
HETATM    9  O   UNL     1      -8.008   9.778  68.938  1.00  0.00    -0.086 OA 
HETATM   10  C   UNL     1      -8.572   8.749  71.042  1.00  0.00    -0.192 C  
HETATM   11  H   UNL     1      -6.861   7.160  69.971  1.00  0.00     0.000 HD 
HETATM   12  H   UNL     1      -7.143   9.966  69.284  1.00  0.00     0.000 HD 
HETATM   13  O   UNL     1      -9.225   8.978  72.285  1.00  0.00    -0.344 OA 
HETATM   14  H   UNL     1      -8.965   8.334  72.934  1.00  0.00     0.000 HD 
HETATM   15  C   UNL     1      -8.749   7.313  70.497  1.00  0.00    -0.148 C  
BRANCH   6  16
HETATM   16  O   UNL     1     -11.414   9.726  70.414  1.00  0.00    -0.257 OA 
BRANCH  16  17
HETATM   17  C   UNL     1     -11.880  11.010  70.495  1.00  0.00    -0.367 A  
HETATM   18  C   UNL     1     -12.713  11.296  71.580  1.00  0.00    -0.481 A  
HETATM   19  C   UNL     1     -13.010  13.545  70.769  1.00  0.00    -0.098 A  
HETATM   20  C   UNL     1     -13.291  12.563  71.714  1.00  0.00    -0.382 A  
HETATM   21  C   UNL     1     -12.132  13.290  69.722  1.00  0.00    -0.355 A  
HETATM   22  O   UNL     1     -13.578  14.780  70.827  1.00  0.00    -0.575 OA 
HETATM   23  C   UNL     1     -11.552  12.027  69.597  1.00  0.00    -0.371 A  
HETATM   24  H   UNL     1     -13.386  15.451  70.181  1.00  0.00     0.000 HD 
ENDBRANCH  16  17
ENDBRANCH   6  16
ENDBRANCH   2   4
TORSDOF 3
ENDMDL
MODEL       77
REMARK 921   NORMALIZED FREE ENERGY PREDICTED BY IDOCK:   -4.71 KCAL/MOL
REMARK 922        TOTAL FREE ENERGY PREDICTED BY IDOCK:   -5.95 KCAL/MOL
REMARK 923 INTER-LIGAND FREE ENERGY PREDICTED BY IDOCK:   -5.33 KCAL/MOL
REMARK 924 INTRA-LIGAND FREE ENERGY PREDICTED BY IDOCK:   -0.62 KCAL/MOL
REMARK 927      BINDING AFFINITY PREDICTED BY RF-SCORE:    0.00 PKD
ROOT
HETATM    1  O   UNL     1      -6.406   8.606  68.340  1.00  0.00    -0.053 OA 
HETATM    2  C   UNL     1      -7.600   9.288  68.692  1.00  0.00    -0.081 C  
HETATM    3  H   UNL     1      -5.703   9.215  68.144  1.00  0.00     0.000 HD 
ENDROOT
BRANCH   2   4
HETATM    4  C   UNL     1      -8.739   8.303  69.010  1.00  0.00    -0.143 C  
HETATM    5  O   UNL     1     -10.017   8.904  68.754  1.00  0.00    -0.173 OA 
HETATM    6  C   UNL     1     -10.443   8.926  67.381  1.00  0.00    -0.277 C  
HETATM    7  O   UNL     1      -9.332   5.954  69.193  1.00  0.00    -0.119 OA 
HETATM    8  C   UNL     1     -10.453   7.505  66.774  1.00  0.00    -0.249 C  
HETATM    9  O   UNL     1     -11.437   6.676  67.431  1.00  0.00    -0.747 OA 
HETATM   10  C   UNL     1      -9.087   6.825  66.922  1.00  0.00    -0.137 C  
HETATM   11  H   UNL     1      -9.241   5.089  68.810  1.00  0.00     0.000 HD 
HETATM   12  H   UNL     1     -11.442   5.802  67.057  1.00  0.00     0.000 HD 
HETATM   13  O   UNL     1      -8.155   7.331  65.972  1.00  0.00    -0.108 OA 
HETATM   14  H   UNL     1      -7.308   6.910  66.064  1.00  0.00     0.000 HD 
HETATM   15  C   UNL     1      -8.591   6.896  68.385  1.00  0.00    -0.125 C  
BRANCH   6  16
HETATM   16  O   UNL     1      -9.657   9.823  66.590  1.00  0.00    -0.168 OA 
BRANCH  16  17
HETATM   17  C   UNL     1     -10.349  10.764  65.878  1.00  0.00    -0.238 A  
HETATM   18  C   UNL     1     -10.933  11.794  66.621  1.00  0.00    -0.342 A  
HETATM   19  C   UNL     1     -11.886  12.716  64.611  1.00  0.00    -0.380 A  
HETATM   20  C   UNL     1     -11.714  12.768  65.991  1.00  0.00    -0.470 A  
HETATM   21  C   UNL     1     -11.258  11.734  63.855  1.00  0.00    -0.493 A  
HETATM   22  O   UNL     1     -12.671  13.613  63.952  1.00  0.00    -0.675 OA 
HETATM   23  C   UNL     1     -10.473  10.769  64.488  1.00  0.00    -0.351 A  
HETATM   24  H   UNL     1     -12.788  13.577  63.010  1.00  0.00     0.000 HD 
ENDBRANCH  16  17
ENDBRANCH   6  16
ENDBRANCH   2   4
TORSDOF 3
ENDMDL
MODEL       78
REMARK 921   NORMALIZED FREE ENERGY PREDICTED BY IDOCK:   -4.69 KCAL/MOL
REMARK 922        TOTAL FREE ENERGY PREDICTED BY IDOCK:   -5.93 KCAL/MOL
REMARK 923 INTER-LIGAND FREE ENERGY PREDICTED BY IDOCK:   -5.50 KCAL/MOL
REMARK 924 INTRA-LIGAND FREE ENERGY PREDICTED BY IDOCK:   -0.43 KCAL/MOL
REMARK 927      BINDING AFFINITY PREDICTED BY RF-SCORE:    0.00 PKD
ROOT
HETATM    1  O   UNL     1      -7.084  18.127  67.088  1.00  0.00    -0.190 OA 
HETATM    2  C   UNL     1      -8.106  17.418  66.402  1.00  0.00    -0.280 C  
HETATM    3  H   UNL     1      -6.231  17.969  66.700  1.00  0.00     0.000 HD 
ENDROOT
BRANCH   2   4
HETATM    4  C   UNL     1      -9.487  17.673  67.030  1.00  0.00    -0.266 C  
HETATM    5  O   UNL     1     -10.507  16.948  66.327  1.00  0.00    -0.313 OA 
HETATM    6  C   UNL     1     -10.634  15.555  66.657  1.00  0.00    -0.307 C  
HETATM    7  O   UNL     1     -10.651  18.299  69.069  1.00  0.00    -0.378 OA 
HETATM    8  C   UNL     1     -10.864  15.355  68.172  1.00  0.00    -0.285 C  
HETATM    9  O   UNL     1     -12.128  15.926  68.576  1.00  0.00    -0.469 OA 
HETATM   10  C   UNL     1      -9.758  16.024  68.997  1.00  0.00    -0.244 C  
HETATM   11  H   UNL     1     -10.696  18.189  70.013  1.00  0.00     0.000 HD 
HETATM   12  H   UNL     1     -12.268  15.803  69.507  1.00  0.00     0.000 HD 
HETATM   13  O   UNL     1      -8.563  15.251  68.977  1.00  0.00    -0.194 OA 
HETATM   14  H   UNL     1      -7.877  15.665  69.488  1.00  0.00     0.000 HD 
HETATM   15  C   UNL     1      -9.560  17.495  68.565  1.00  0.00    -0.305 C  
BRANCH   6  16
HETATM   16  O   UNL     1      -9.514  14.790  66.197  1.00  0.00    -0.296 OA 
BRANCH  16  17
HETATM   17  C   UNL     1      -9.741  13.459  65.979  1.00  0.00    -0.215 A  
HETATM   18  C   UNL     1      -9.144  12.576  66.883  1.00  0.00    -0.213 A  
HETATM   19  C   UNL     1     -10.005  10.704  65.637  1.00  0.00    -0.268 A  
HETATM   20  C   UNL     1      -9.264  11.193  66.708  1.00  0.00    -0.183 A  
HETATM   21  C   UNL     1     -10.656  11.572  64.769  1.00  0.00    -0.362 A  
HETATM   22  O   UNL     1     -10.119   9.369  65.394  1.00  0.00    -0.392 OA 
HETATM   23  C   UNL     1     -10.539  12.951  64.953  1.00  0.00    -0.342 A  
HETATM   24  H   UNL     1     -10.625   9.035  64.662  1.00  0.00     0.000 HD 
ENDBRANCH  16  17
ENDBRANCH   6  16
ENDBRANCH   2   4
TORSDOF 3
ENDMDL
MODEL       79
REMARK 921   NORMALIZED FREE ENERGY PREDICTED BY IDOCK:   -4.69 KCAL/MOL
REMARK 922        TOTAL FREE ENERGY PREDICTED BY IDOCK:   -5.93 KCAL/MOL
REMARK 923 INTER-LIGAND FREE ENERGY PREDICTED BY IDOCK:   -5.24 KCAL/MOL
REMARK 924 INTRA-LIGAND FREE ENERGY PREDICTED BY IDOCK:   -0.68 KCAL/MOL
REMARK 927      BINDING AFFINITY PREDICTED BY RF-SCORE:    0.00 PKD
ROOT
HETATM    1  O   UNL     1      -9.492   5.634  69.978  1.00  0.00    -0.150 OA 
HETATM    2  C   UNL     1      -8.908   6.920  69.830  1.00  0.00    -0.141 C  
HETATM    3  H   UNL     1      -9.226   5.049  69.278  1.00  0.00     0.000 HD 
ENDROOT
BRANCH   2   4
HETATM    4  C   UNL     1      -9.337   7.867  70.964  1.00  0.00    -0.152 C  
HETATM    5  O   UNL     1      -9.541   9.198  70.465  1.00  0.00    -0.204 OA 
HETATM    6  C   UNL     1     -10.797   9.442  69.810  1.00  0.00    -0.232 C  
HETATM    7  O   UNL     1     -10.408   7.993  73.141  1.00  0.00    -0.332 OA 
HETATM    8  C   UNL     1     -11.988   9.088  70.728  1.00  0.00    -0.170 C  
HETATM    9  O   UNL     1     -12.020   9.960  71.880  1.00  0.00    -0.331 OA 
HETATM   10  C   UNL     1     -11.895   7.643  71.232  1.00  0.00    -0.292 C  
HETATM   11  H   UNL     1     -11.125   7.681  73.682  1.00  0.00     0.000 HD 
HETATM   12  H   UNL     1     -12.752   9.741  72.445  1.00  0.00     0.000 HD 
HETATM   13  O   UNL     1     -12.276   6.720  70.218  1.00  0.00    -0.611 OA 
HETATM   14  H   UNL     1     -12.218   5.824  70.529  1.00  0.00     0.000 HD 
HETATM   15  C   UNL     1     -10.504   7.360  71.844  1.00  0.00    -0.201 C  
BRANCH   6  16
HETATM   16  O   UNL     1     -10.889   8.759  68.555  1.00  0.00    -0.110 OA 
BRANCH  16  17
HETATM   17  C   UNL     1     -10.621   9.506  67.440  1.00  0.00    -0.271 A  
HETATM   18  C   UNL     1      -9.822   8.898  66.468  1.00  0.00    -0.344 A  
HETATM   19  C   UNL     1      -9.883  10.911  65.147  1.00  0.00    -0.275 A  
HETATM   20  C   UNL     1      -9.440   9.604  65.322  1.00  0.00    -0.342 A  
HETATM   21  C   UNL     1     -10.729  11.504  66.077  1.00  0.00    -0.332 A  
HETATM   22  O   UNL     1      -9.507  11.659  64.073  1.00  0.00    -0.417 OA 
HETATM   23  C   UNL     1     -11.114  10.792  67.214  1.00  0.00    -0.339 A  
HETATM   24  H   UNL     1      -9.809  12.552  63.954  1.00  0.00     0.000 HD 
ENDBRANCH  16  17
ENDBRANCH   6  16
ENDBRANCH   2   4
TORSDOF 3
ENDMDL
MODEL       80
REMARK 921   NORMALIZED FREE ENERGY PREDICTED BY IDOCK:   -4.67 KCAL/MOL
REMARK 922        TOTAL FREE ENERGY PREDICTED BY IDOCK:   -5.91 KCAL/MOL
REMARK 923 INTER-LIGAND FREE ENERGY PREDICTED BY IDOCK:   -5.25 KCAL/MOL
REMARK 924 INTRA-LIGAND FREE ENERGY PREDICTED BY IDOCK:   -0.66 KCAL/MOL
REMARK 927      BINDING AFFINITY PREDICTED BY RF-SCORE:    0.00 PKD
ROOT
HETATM    1  O   UNL     1      -7.166   5.561  69.871  1.00  0.00    -0.064 OA 
HETATM    2  C   UNL     1      -8.482   5.305  70.339  1.00  0.00    -0.115 C  
HETATM    3  H   UNL     1      -6.588   5.813  70.582  1.00  0.00     0.000 HD 
ENDROOT
BRANCH   2   4
HETATM    4  C   UNL     1      -9.419   4.897  69.189  1.00  0.00    -0.141 C  
HETATM    5  O   UNL     1     -10.759   5.349  69.440  1.00  0.00    -0.274 OA 
HETATM    6  C   UNL     1     -11.027   6.729  69.144  1.00  0.00    -0.244 C  
HETATM    7  O   UNL     1      -9.528   4.334  66.828  1.00  0.00    -0.157 OA 
HETATM    8  C   UNL     1     -10.676   7.069  67.679  1.00  0.00    -0.261 C  
HETATM    9  O   UNL     1     -11.531   6.345  66.768  1.00  0.00    -0.733 OA 
HETATM   10  C   UNL     1      -9.223   6.702  67.354  1.00  0.00    -0.122 C  
HETATM   11  H   UNL     1      -9.218   4.548  65.955  1.00  0.00     0.000 HD 
HETATM   12  H   UNL     1     -11.315   6.553  65.867  1.00  0.00     0.000 HD 
HETATM   13  O   UNL     1      -8.318   7.659  67.895  1.00  0.00    -0.121 OA 
HETATM   14  H   UNL     1      -7.417   7.432  67.694  1.00  0.00     0.000 HD 
HETATM   15  C   UNL     1      -8.915   5.245  67.768  1.00  0.00    -0.109 C  
BRANCH   6  16
HETATM   16  O   UNL     1     -10.362   7.611  70.055  1.00  0.00    -0.212 OA 
BRANCH  16  17
HETATM   17  C   UNL     1     -11.104   8.658  70.532  1.00  0.00    -0.242 A  
HETATM   18  C   UNL     1     -12.020   8.354  71.543  1.00  0.00    -0.344 A  
HETATM   19  C   UNL     1     -12.778  10.640  71.555  1.00  0.00    -0.444 A  
HETATM   20  C   UNL     1     -12.870   9.343  72.050  1.00  0.00    -0.496 A  
HETATM   21  C   UNL     1     -11.828  10.967  70.595  1.00  0.00    -0.453 A  
HETATM   22  O   UNL     1     -13.609  11.631  71.981  1.00  0.00    -0.350 OA 
HETATM   23  C   UNL     1     -10.978   9.978  70.098  1.00  0.00    -0.368 A  
HETATM   24  H   UNL     1     -13.546  12.517  71.643  1.00  0.00     0.000 HD 
ENDBRANCH  16  17
ENDBRANCH   6  16
ENDBRANCH   2   4
TORSDOF 3
ENDMDL
MODEL       81
REMARK 921   NORMALIZED FREE ENERGY PREDICTED BY IDOCK:   -4.67 KCAL/MOL
REMARK 922        TOTAL FREE ENERGY PREDICTED BY IDOCK:   -5.91 KCAL/MOL
REMARK 923 INTER-LIGAND FREE ENERGY PREDICTED BY IDOCK:   -5.26 KCAL/MOL
REMARK 924 INTRA-LIGAND FREE ENERGY PREDICTED BY IDOCK:   -0.65 KCAL/MOL
REMARK 927      BINDING AFFINITY PREDICTED BY RF-SCORE:    0.00 PKD
ROOT
HETATM    1  O   UNL     1     -11.901  10.240  68.609  1.00  0.00    -0.637 OA 
HETATM    2  C   UNL     1     -12.383  11.569  68.745  1.00  0.00     0.214 C  
HETATM    3  H   UNL     1     -12.593   9.645  68.344  1.00  0.00     0.000 HD 
ENDROOT
BRANCH   2   4
HETATM    4  C   UNL     1     -11.263  12.533  69.174  1.00  0.00    -0.239 C  
HETATM    5  O   UNL     1     -10.029  12.204  68.518  1.00  0.00    -0.210 OA 
HETATM    6  C   UNL     1      -9.888  12.671  67.166  1.00  0.00    -0.212 C  
HETATM    7  O   UNL     1     -10.782  14.756  70.030  1.00  0.00    -0.425 OA 
HETATM    8  C   UNL     1     -10.083  14.201  67.077  1.00  0.00    -0.261 C  
HETATM    9  O   UNL     1      -9.037  14.891  67.795  1.00  0.00    -0.180 OA 
HETATM   10  C   UNL     1     -11.428  14.628  67.676  1.00  0.00    -0.346 C  
HETATM   11  H   UNL     1     -10.998  15.680  69.979  1.00  0.00     0.000 HD 
HETATM   12  H   UNL     1      -9.157  15.832  67.740  1.00  0.00     0.000 HD 
HETATM   13  O   UNL     1     -12.501  14.341  66.785  1.00  0.00    -0.575 OA 
HETATM   14  H   UNL     1     -13.335  14.605  67.156  1.00  0.00     0.000 HD 
HETATM   15  C   UNL     1     -11.615  14.037  69.092  1.00  0.00    -0.313 C  
BRANCH   6  16
HETATM   16  O   UNL     1     -10.764  11.983  66.267  1.00  0.00    -0.249 OA 
BRANCH  16  17
HETATM   17  C   UNL     1     -10.163  11.283  65.256  1.00  0.00    -0.274 A  
HETATM   18  C   UNL     1      -9.269  10.282  65.646  1.00  0.00    -0.225 A  
HETATM   19  C   UNL     1      -8.765   9.822  63.336  1.00  0.00    -0.226 A  
HETATM   20  C   UNL     1      -8.557   9.555  64.686  1.00  0.00    -0.207 A  
HETATM   21  C   UNL     1      -9.698  10.771  62.936  1.00  0.00    -0.337 A  
HETATM   22  O   UNL     1      -8.068   9.175  62.362  1.00  0.00    -0.125 OA 
HETATM   23  C   UNL     1     -10.412  11.487  63.898  1.00  0.00    -0.439 A  
HETATM   24  H   UNL     1      -8.209   9.357  61.440  1.00  0.00     0.000 HD 
ENDBRANCH  16  17
ENDBRANCH   6  16
ENDBRANCH   2   4
TORSDOF 3
ENDMDL
MODEL       82
REMARK 921   NORMALIZED FREE ENERGY PREDICTED BY IDOCK:   -4.65 KCAL/MOL
REMARK 922        TOTAL FREE ENERGY PREDICTED BY IDOCK:   -5.88 KCAL/MOL
REMARK 923 INTER-LIGAND FREE ENERGY PREDICTED BY IDOCK:   -5.24 KCAL/MOL
REMARK 924 INTRA-LIGAND FREE ENERGY PREDICTED BY IDOCK:   -0.64 KCAL/MOL
REMARK 927      BINDING AFFINITY PREDICTED BY RF-SCORE:    0.00 PKD
ROOT
HETATM    1  O   UNL     1      -8.774  15.933  66.256  1.00  0.00    -0.306 OA 
HETATM    2  C   UNL     1     -10.189  16.016  66.182  1.00  0.00    -0.324 C  
HETATM    3  H   UNL     1      -8.434  16.424  66.995  1.00  0.00     0.000 HD 
ENDROOT
BRANCH   2   4
HETATM    4  C   UNL     1     -10.739  15.222  64.985  1.00  0.00    -0.439 C  
HETATM    5  O   UNL     1      -9.946  14.049  64.745  1.00  0.00    -0.294 OA 
HETATM    6  C   UNL     1     -10.213  12.920  65.594  1.00  0.00    -0.285 C  
HETATM    7  O   UNL     1     -12.724  14.745  63.667  1.00  0.00    -0.903 OA 
HETATM    8  C   UNL     1     -11.701  12.510  65.532  1.00  0.00    -0.409 C  
HETATM    9  O   UNL     1     -12.047  12.043  64.210  1.00  0.00    -0.362 OA 
HETATM   10  C   UNL     1     -12.620  13.691  65.870  1.00  0.00    -0.425 C  
HETATM   11  H   UNL     1     -13.658  14.568  63.690  1.00  0.00     0.000 HD 
HETATM   12  H   UNL     1     -12.963  11.791  64.172  1.00  0.00     0.000 HD 
HETATM   13  O   UNL     1     -12.644  13.937  67.272  1.00  0.00    -0.433 OA 
HETATM   14  H   UNL     1     -13.213  14.669  67.482  1.00  0.00     0.000 HD 
HETATM   15  C   UNL     1     -12.259  14.933  65.023  1.00  0.00    -0.169 C  
BRANCH   6  16
HETATM   16  O   UNL     1      -9.794  13.153  66.943  1.00  0.00    -0.237 OA 
BRANCH  16  17
HETATM   17  C   UNL     1      -8.881  12.270  67.452  1.00  0.00    -0.185 A  
HETATM   18  C   UNL     1      -9.240  11.628  68.640  1.00  0.00    -0.112 A  
HETATM   19  C   UNL     1      -7.105  10.516  68.695  1.00  0.00    -0.077 A  
HETATM   20  C   UNL     1      -8.347  10.756  69.272  1.00  0.00    -0.072 A  
HETATM   21  C   UNL     1      -6.762  11.101  67.482  1.00  0.00    -0.075 A  
HETATM   22  O   UNL     1      -6.181   9.712  69.289  1.00  0.00    -0.040 OA 
HETATM   23  C   UNL     1      -7.660  11.963  66.851  1.00  0.00    -0.093 A  
HETATM   24  H   UNL     1      -5.332   9.548  68.895  1.00  0.00     0.000 HD 
ENDBRANCH  16  17
ENDBRANCH   6  16
ENDBRANCH   2   4
TORSDOF 3
ENDMDL
MODEL       83
REMARK 921   NORMALIZED FREE ENERGY PREDICTED BY IDOCK:   -4.64 KCAL/MOL
REMARK 922        TOTAL FREE ENERGY PREDICTED BY IDOCK:   -5.87 KCAL/MOL
REMARK 923 INTER-LIGAND FREE ENERGY PREDICTED BY IDOCK:   -5.29 KCAL/MOL
REMARK 924 INTRA-LIGAND FREE ENERGY PREDICTED BY IDOCK:   -0.58 KCAL/MOL
REMARK 927      BINDING AFFINITY PREDICTED BY RF-SCORE:    0.00 PKD
ROOT
HETATM    1  O   UNL     1      -8.365   5.611  69.029  1.00  0.00    -0.099 OA 
HETATM    2  C   UNL     1      -9.744   5.536  68.697  1.00  0.00    -0.142 C  
HETATM    3  H   UNL     1      -8.205   5.316  69.918  1.00  0.00     0.000 HD 
ENDROOT
BRANCH   2   4
HETATM    4  C   UNL     1     -10.002   6.014  67.257  1.00  0.00    -0.150 C  
HETATM    5  O   UNL     1     -10.912   7.124  67.245  1.00  0.00    -0.310 OA 
HETATM    6  C   UNL     1     -10.346   8.409  67.550  1.00  0.00    -0.265 C  
HETATM    7  O   UNL     1      -9.091   6.106  65.007  1.00  0.00    -0.360 OA 
HETATM    8  C   UNL     1      -9.171   8.744  66.604  1.00  0.00    -0.177 C  
HETATM    9  O   UNL     1      -9.635   8.882  65.243  1.00  0.00    -0.454 OA 
HETATM   10  C   UNL     1      -8.103   7.645  66.630  1.00  0.00    -0.119 C  
HETATM   11  H   UNL     1      -8.312   6.254  64.481  1.00  0.00     0.000 HD 
HETATM   12  H   UNL     1      -8.913   9.087  64.662  1.00  0.00     0.000 HD 
HETATM   13  O   UNL     1      -7.307   7.729  67.807  1.00  0.00    -0.091 OA 
HETATM   14  H   UNL     1      -6.645   7.047  67.823  1.00  0.00     0.000 HD 
HETATM   15  C   UNL     1      -8.736   6.253  66.401  1.00  0.00    -0.137 C  
BRANCH   6  16
HETATM   16  O   UNL     1      -9.951   8.509  68.923  1.00  0.00    -0.179 OA 
BRANCH  16  17
HETATM   17  C   UNL     1     -10.845   9.113  69.765  1.00  0.00    -0.211 A  
HETATM   18  C   UNL     1     -11.257  10.400  69.406  1.00  0.00    -0.314 A  
HETATM   19  C   UNL     1     -12.581  10.544  71.413  1.00  0.00    -0.434 A  
HETATM   20  C   UNL     1     -12.119  11.124  70.236  1.00  0.00    -0.462 A  
HETATM   21  C   UNL     1     -12.228   9.242  71.747  1.00  0.00    -0.457 A  
HETATM   22  O   UNL     1     -13.387  11.219  72.278  1.00  0.00    -0.625 OA 
HETATM   23  C   UNL     1     -11.375   8.520  70.912  1.00  0.00    -0.304 A  
HETATM   24  H   UNL     1     -13.702  10.822  73.082  1.00  0.00     0.000 HD 
ENDBRANCH  16  17
ENDBRANCH   6  16
ENDBRANCH   2   4
TORSDOF 3
ENDMDL
MODEL       84
REMARK 921   NORMALIZED FREE ENERGY PREDICTED BY IDOCK:   -4.63 KCAL/MOL
REMARK 922        TOTAL FREE ENERGY PREDICTED BY IDOCK:   -5.86 KCAL/MOL
REMARK 923 INTER-LIGAND FREE ENERGY PREDICTED BY IDOCK:   -5.37 KCAL/MOL
REMARK 924 INTRA-LIGAND FREE ENERGY PREDICTED BY IDOCK:   -0.49 KCAL/MOL
REMARK 927      BINDING AFFINITY PREDICTED BY RF-SCORE:    0.00 PKD
ROOT
HETATM    1  O   UNL     1     -10.880  18.220  68.033  1.00  0.00    -0.321 OA 
HETATM    2  C   UNL     1     -10.162  17.493  69.020  1.00  0.00    -0.314 C  
HETATM    3  H   UNL     1     -11.818  18.167  68.177  1.00  0.00     0.000 HD 
ENDROOT
BRANCH   2   4
HETATM    4  C   UNL     1      -8.643  17.579  68.789  1.00  0.00    -0.209 C  
HETATM    5  O   UNL     1      -8.109  16.295  68.435  1.00  0.00    -0.168 OA 
HETATM    6  C   UNL     1      -8.276  15.895  67.065  1.00  0.00    -0.221 C  
HETATM    7  O   UNL     1      -6.814  19.055  68.171  1.00  0.00    -0.235 OA 
HETATM    8  C   UNL     1      -7.681  16.942  66.097  1.00  0.00    -0.224 C  
HETATM    9  O   UNL     1      -6.249  17.032  66.262  1.00  0.00    -0.245 OA 
HETATM   10  C   UNL     1      -8.274  18.334  66.348  1.00  0.00    -0.251 C  
HETATM   11  H   UNL     1      -6.529  19.752  67.590  1.00  0.00     0.000 HD 
HETATM   12  H   UNL     1      -5.884  17.676  65.666  1.00  0.00     0.000 HD 
HETATM   13  O   UNL     1      -9.587  18.438  65.808  1.00  0.00    -0.463 OA 
HETATM   14  H   UNL     1      -9.955  19.300  65.963  1.00  0.00     0.000 HD 
HETATM   15  C   UNL     1      -8.180  18.713  67.843  1.00  0.00    -0.265 C  
BRANCH   6  16
HETATM   16  O   UNL     1      -9.646  15.617  66.751  1.00  0.00    -0.224 OA 
BRANCH  16  17
HETATM   17  C   UNL     1     -10.045  14.316  66.892  1.00  0.00    -0.264 A  
HETATM   18  C   UNL     1     -11.415  14.073  66.754  1.00  0.00    -0.379 A  
HETATM   19  C   UNL     1     -11.060  11.743  67.248  1.00  0.00    -0.287 A  
HETATM   20  C   UNL     1     -11.929  12.786  66.944  1.00  0.00    -0.380 A  
HETATM   21  C   UNL     1      -9.690  11.961  67.324  1.00  0.00    -0.191 A  
HETATM   22  O   UNL     1     -11.510  10.480  67.485  1.00  0.00    -0.497 OA 
HETATM   23  C   UNL     1      -9.181  13.246  67.126  1.00  0.00    -0.235 A  
HETATM   24  H   UNL     1     -10.917   9.768  67.693  1.00  0.00     0.000 HD 
ENDBRANCH  16  17
ENDBRANCH   6  16
ENDBRANCH   2   4
TORSDOF 3
ENDMDL
MODEL       85
REMARK 921   NORMALIZED FREE ENERGY PREDICTED BY IDOCK:   -4.63 KCAL/MOL
REMARK 922        TOTAL FREE ENERGY PREDICTED BY IDOCK:   -5.86 KCAL/MOL
REMARK 923 INTER-LIGAND FREE ENERGY PREDICTED BY IDOCK:   -5.22 KCAL/MOL
REMARK 924 INTRA-LIGAND FREE ENERGY PREDICTED BY IDOCK:   -0.64 KCAL/MOL
REMARK 927      BINDING AFFINITY PREDICTED BY RF-SCORE:    0.00 PKD
ROOT
HETATM    1  O   UNL     1     -10.600   7.797  66.563  1.00  0.00    -0.470 OA 
HETATM    2  C   UNL     1      -9.456   7.889  67.399  1.00  0.00    -0.144 C  
HETATM    3  H   UNL     1     -11.397   7.715  67.074  1.00  0.00     0.000 HD 
ENDROOT
BRANCH   2   4
HETATM    4  C   UNL     1      -8.164   8.022  66.574  1.00  0.00    -0.115 C  
HETATM    5  O   UNL     1      -8.418   8.711  65.340  1.00  0.00    -0.153 OA 
HETATM    6  C   UNL     1      -8.494  10.144  65.418  1.00  0.00    -0.156 C  
HETATM    7  O   UNL     1      -5.739   8.109  66.690  1.00  0.00    -0.041 OA 
HETATM    8  C   UNL     1      -7.213  10.740  66.044  1.00  0.00    -0.105 C  
HETATM    9  O   UNL     1      -6.070  10.498  65.194  1.00  0.00    -0.169 OA 
HETATM   10  C   UNL     1      -6.921  10.122  67.416  1.00  0.00    -0.082 C  
HETATM   11  H   UNL     1      -4.987   8.450  67.162  1.00  0.00     0.000 HD 
HETATM   12  H   UNL     1      -5.282  10.864  65.579  1.00  0.00     0.000 HD 
HETATM   13  O   UNL     1      -7.778  10.662  68.416  1.00  0.00    -0.097 OA 
HETATM   14  H   UNL     1      -7.597  10.278  69.266  1.00  0.00     0.000 HD 
HETATM   15  C   UNL     1      -6.941   8.578  67.341  1.00  0.00    -0.078 C  
BRANCH   6  16
HETATM   16  O   UNL     1      -9.664  10.581  66.118  1.00  0.00    -0.191 OA 
BRANCH  16  17
HETATM   17  C   UNL     1     -10.437  11.512  65.478  1.00  0.00    -0.275 A  
HETATM   18  C   UNL     1     -10.624  11.320  64.106  1.00  0.00    -0.437 A  
HETATM   19  C   UNL     1     -11.894  13.363  63.985  1.00  0.00    -0.445 A  
HETATM   20  C   UNL     1     -11.344  12.252  63.352  1.00  0.00    -0.508 A  
HETATM   21  C   UNL     1     -11.768  13.530  65.359  1.00  0.00    -0.351 A  
HETATM   22  O   UNL     1     -12.567  14.323  63.293  1.00  0.00    -1.069 OA 
HETATM   23  C   UNL     1     -11.055  12.593  66.108  1.00  0.00    -0.327 A  
HETATM   24  H   UNL     1     -12.942  15.082  63.726  1.00  0.00     0.000 HD 
ENDBRANCH  16  17
ENDBRANCH   6  16
ENDBRANCH   2   4
TORSDOF 3
ENDMDL
MODEL       86
REMARK 921   NORMALIZED FREE ENERGY PREDICTED BY IDOCK:   -4.62 KCAL/MOL
REMARK 922        TOTAL FREE ENERGY PREDICTED BY IDOCK:   -5.85 KCAL/MOL
REMARK 923 INTER-LIGAND FREE ENERGY PREDICTED BY IDOCK:   -5.18 KCAL/MOL
REMARK 924 INTRA-LIGAND FREE ENERGY PREDICTED BY IDOCK:   -0.67 KCAL/MOL
REMARK 927      BINDING AFFINITY PREDICTED BY RF-SCORE:    0.00 PKD
ROOT
HETATM    1  O   UNL     1      -8.418  10.583  66.586  1.00  0.00    -0.125 OA 
HETATM    2  C   UNL     1      -8.648   9.186  66.478  1.00  0.00    -0.127 C  
HETATM    3  H   UNL     1      -8.570  11.025  65.758  1.00  0.00     0.000 HD 
ENDROOT
BRANCH   2   4
HETATM    4  C   UNL     1      -8.402   8.470  67.818  1.00  0.00    -0.130 C  
HETATM    5  O   UNL     1      -8.881   9.264  68.914  1.00  0.00    -0.132 OA 
HETATM    6  C   UNL     1     -10.295   9.209  69.165  1.00  0.00    -0.212 C  
HETATM    7  O   UNL     1      -8.095   6.307  68.880  1.00  0.00    -0.107 OA 
HETATM    8  C   UNL     1     -10.771   7.756  69.384  1.00  0.00    -0.171 C  
HETATM    9  O   UNL     1     -10.183   7.202  70.581  1.00  0.00    -0.195 OA 
HETATM   10  C   UNL     1     -10.380   6.856  68.206  1.00  0.00    -0.193 C  
HETATM   11  H   UNL     1      -8.385   5.402  68.918  1.00  0.00     0.000 HD 
HETATM   12  H   UNL     1     -10.476   6.308  70.716  1.00  0.00     0.000 HD 
HETATM   13  O   UNL     1     -11.235   7.072  67.089  1.00  0.00    -0.590 OA 
HETATM   14  H   UNL     1     -10.992   6.514  66.358  1.00  0.00     0.000 HD 
HETATM   15  C   UNL     1      -8.875   6.998  67.879  1.00  0.00    -0.124 C  
BRANCH   6  16
HETATM   16  O   UNL     1     -11.048   9.851  68.130  1.00  0.00    -0.239 OA 
BRANCH  16  17
HETATM   17  C   UNL     1     -11.402  11.153  68.360  1.00  0.00    -0.288 A  
HETATM   18  C   UNL     1     -11.443  11.988  67.240  1.00  0.00    -0.403 A  
HETATM   19  C   UNL     1     -12.000  13.862  68.647  1.00  0.00    -0.366 A  
HETATM   20  C   UNL     1     -11.731  13.350  67.382  1.00  0.00    -0.415 A  
HETATM   21  C   UNL     1     -12.025  13.028  69.759  1.00  0.00    -0.377 A  
HETATM   22  O   UNL     1     -12.244  15.186  68.848  1.00  0.00    -0.569 OA 
HETATM   23  C   UNL     1     -11.745  11.669  69.611  1.00  0.00    -0.418 A  
HETATM   24  H   UNL     1     -12.428  15.536  69.712  1.00  0.00     0.000 HD 
ENDBRANCH  16  17
ENDBRANCH   6  16
ENDBRANCH   2   4
TORSDOF 3
ENDMDL
MODEL       87
REMARK 921   NORMALIZED FREE ENERGY PREDICTED BY IDOCK:   -4.60 KCAL/MOL
REMARK 922        TOTAL FREE ENERGY PREDICTED BY IDOCK:   -5.82 KCAL/MOL
REMARK 923 INTER-LIGAND FREE ENERGY PREDICTED BY IDOCK:   -5.17 KCAL/MOL
REMARK 924 INTRA-LIGAND FREE ENERGY PREDICTED BY IDOCK:   -0.65 KCAL/MOL
REMARK 927      BINDING AFFINITY PREDICTED BY RF-SCORE:    0.00 PKD
ROOT
HETATM    1  O   UNL     1     -12.137  13.137  68.954  1.00  0.00    -0.301 OA 
HETATM    2  C   UNL     1     -11.491  12.441  70.010  1.00  0.00    -0.031 C  
HETATM    3  H   UNL     1     -11.760  13.999  68.824  1.00  0.00     0.000 HD 
ENDROOT
BRANCH   2   4
HETATM    4  C   UNL     1     -12.100  11.044  70.220  1.00  0.00    -0.362 C  
HETATM    5  O   UNL     1     -12.347  10.402  68.960  1.00  0.00    -0.146 OA 
HETATM    6  C   UNL     1     -11.210   9.791  68.327  1.00  0.00    -0.012 C  
HETATM    7  O   UNL     1     -12.290   9.177  71.763  1.00  0.00    -0.325 OA 
HETATM    8  C   UNL     1     -10.532   8.764  69.262  1.00  0.00    -0.219 C  
HETATM    9  O   UNL     1     -11.419   7.656  69.530  1.00  0.00    -0.442 OA 
HETATM   10  C   UNL     1     -10.149   9.399  70.604  1.00  0.00    -0.291 C  
HETATM   11  H   UNL     1     -11.830   8.621  72.383  1.00  0.00     0.000 HD 
HETATM   12  H   UNL     1     -11.002   7.025  70.105  1.00  0.00     0.000 HD 
HETATM   13  O   UNL     1      -8.980  10.202  70.478  1.00  0.00    -0.298 OA 
HETATM   14  H   UNL     1      -8.743  10.595  71.309  1.00  0.00     0.000 HD 
HETATM   15  C   UNL     1     -11.353  10.140  71.229  1.00  0.00    -0.166 C  
BRANCH   6  16
HETATM   16  O   UNL     1     -10.271  10.765  67.857  1.00  0.00    -0.167 OA 
BRANCH  16  17
HETATM   17  C   UNL     1     -10.203  10.933  66.501  1.00  0.00    -0.232 A  
HETATM   18  C   UNL     1      -9.491   9.960  65.794  1.00  0.00    -0.280 A  
HETATM   19  C   UNL     1      -9.869  11.162  63.742  1.00  0.00    -0.331 A  
HETATM   20  C   UNL     1      -9.311  10.078  64.412  1.00  0.00    -0.348 A  
HETATM   21  C   UNL     1     -10.633  12.101  64.425  1.00  0.00    -0.363 A  
HETATM   22  O   UNL     1      -9.689  11.350  62.405  1.00  0.00    -0.526 OA 
HETATM   23  C   UNL     1     -10.816  11.974  65.803  1.00  0.00    -0.329 A  
HETATM   24  H   UNL     1     -10.070  12.090  61.948  1.00  0.00     0.000 HD 
ENDBRANCH  16  17
ENDBRANCH   6  16
ENDBRANCH   2   4
TORSDOF 3
ENDMDL
MODEL       88
REMARK 921   NORMALIZED FREE ENERGY PREDICTED BY IDOCK:   -4.54 KCAL/MOL
REMARK 922        TOTAL FREE ENERGY PREDICTED BY IDOCK:   -5.76 KCAL/MOL
REMARK 923 INTER-LIGAND FREE ENERGY PREDICTED BY IDOCK:   -5.26 KCAL/MOL
REMARK 924 INTRA-LIGAND FREE ENERGY PREDICTED BY IDOCK:   -0.50 KCAL/MOL
REMARK 927      BINDING AFFINITY PREDICTED BY RF-SCORE:    0.00 PKD
ROOT
HETATM    1  O   UNL     1      -8.583  19.641  66.444  1.00  0.00    -0.333 OA 
HETATM    2  C   UNL     1      -8.256  19.235  67.765  1.00  0.00    -0.287 C  
HETATM    3  H   UNL     1      -9.268  20.300  66.442  1.00  0.00     0.000 HD 
ENDROOT
BRANCH   2   4
HETATM    4  C   UNL     1      -7.147  18.168  67.768  1.00  0.00    -0.212 C  
HETATM    5  O   UNL     1      -7.298  17.282  68.887  1.00  0.00    -0.241 OA 
HETATM    6  C   UNL     1      -8.276  16.239  68.740  1.00  0.00    -0.227 C  
HETATM    7  O   UNL     1      -5.578  16.939  66.379  1.00  0.00    -0.341 OA 
HETATM    8  C   UNL     1      -8.000  15.381  67.485  1.00  0.00    -0.170 C  
HETATM    9  O   UNL     1      -6.749  14.670  67.618  1.00  0.00    -0.168 OA 
HETATM   10  C   UNL     1      -7.918  16.248  66.223  1.00  0.00    -0.173 C  
HETATM   11  H   UNL     1      -5.449  16.483  65.554  1.00  0.00     0.000 HD 
HETATM   12  H   UNL     1      -6.579  14.143  66.846  1.00  0.00     0.000 HD 
HETATM   13  O   UNL     1      -9.213  16.645  65.787  1.00  0.00    -0.502 OA 
HETATM   14  H   UNL     1      -9.163  17.183  65.006  1.00  0.00     0.000 HD 
HETATM   15  C   UNL     1      -6.938  17.427  66.426  1.00  0.00    -0.279 C  
BRANCH   6  16
HETATM   16  O   UNL     1      -9.612  16.754  68.733  1.00  0.00    -0.244 OA 
BRANCH  16  17
HETATM   17  C   UNL     1     -10.545  16.020  69.413  1.00  0.00    -0.275 A  
HETATM   18  C   UNL     1     -11.111  16.631  70.536  1.00  0.00     0.028 A  
HETATM   19  C   UNL     1     -12.388  14.640  70.986  1.00  0.00    -0.333 A  
HETATM   20  C   UNL     1     -12.027  15.937  71.333  1.00  0.00    -0.515 A  
HETATM   21  C   UNL     1     -11.880  14.046  69.836  1.00  0.00    -0.393 A  
HETATM   22  O   UNL     1     -13.242  13.903  71.750  1.00  0.00    -0.335 OA 
HETATM   23  C   UNL     1     -10.973  14.746  69.039  1.00  0.00    -0.257 A  
HETATM   24  H   UNL     1     -13.489  13.017  71.512  1.00  0.00     0.000 HD 
ENDBRANCH  16  17
ENDBRANCH   6  16
ENDBRANCH   2   4
TORSDOF 3
ENDMDL
MODEL       89
REMARK 921   NORMALIZED FREE ENERGY PREDICTED BY IDOCK:   -4.54 KCAL/MOL
REMARK 922        TOTAL FREE ENERGY PREDICTED BY IDOCK:   -5.76 KCAL/MOL
REMARK 923 INTER-LIGAND FREE ENERGY PREDICTED BY IDOCK:   -5.09 KCAL/MOL
REMARK 924 INTRA-LIGAND FREE ENERGY PREDICTED BY IDOCK:   -0.66 KCAL/MOL
REMARK 927      BINDING AFFINITY PREDICTED BY RF-SCORE:    0.00 PKD
ROOT
HETATM    1  O   UNL     1     -10.561   9.033  68.881  1.00  0.00    -0.242 OA 
HETATM    2  C   UNL     1     -10.396   9.129  70.288  1.00  0.00    -0.214 C  
HETATM    3  H   UNL     1      -9.798   9.360  68.418  1.00  0.00     0.000 HD 
ENDROOT
BRANCH   2   4
HETATM    4  C   UNL     1     -11.630   8.599  71.038  1.00  0.00    -0.281 C  
HETATM    5  O   UNL     1     -12.161   7.436  70.384  1.00  0.00    -0.114 OA 
HETATM    6  C   UNL     1     -11.487   6.195  70.654  1.00  0.00    -0.261 C  
HETATM    7  O   UNL     1     -12.748   8.500  73.193  1.00  0.00    -0.637 OA 
HETATM    8  C   UNL     1     -11.428   5.906  72.171  1.00  0.00    -0.276 C  
HETATM    9  O   UNL     1     -12.755   5.705  72.703  1.00  0.00    -0.418 OA 
HETATM   10  C   UNL     1     -10.784   7.068  72.936  1.00  0.00    -0.288 C  
HETATM   11  H   UNL     1     -12.637   8.386  74.130  1.00  0.00     0.000 HD 
HETATM   12  H   UNL     1     -12.719   5.527  73.636  1.00  0.00     0.000 HD 
HETATM   13  O   UNL     1      -9.369   7.063  72.781  1.00  0.00    -0.134 OA 
HETATM   14  H   UNL     1      -8.969   7.783  73.255  1.00  0.00     0.000 HD 
HETATM   15  C   UNL     1     -11.450   8.412  72.563  1.00  0.00    -0.352 C  
BRANCH   6  16
HETATM   16  O   UNL     1     -10.181   6.156  70.067  1.00  0.00    -0.177 OA 
BRANCH  16  17
HETATM   17  C   UNL     1     -10.053   5.407  68.930  1.00  0.00    -0.195 A  
HETATM   18  C   UNL     1      -9.430   4.164  69.077  1.00  0.00    -0.244 A  
HETATM   19  C   UNL     1      -9.609   3.784  66.705  1.00  0.00    -0.180 A  
HETATM   20  C   UNL     1      -9.196   3.353  67.962  1.00  0.00    -0.238 A  
HETATM   21  C   UNL     1     -10.286   4.989  66.557  1.00  0.00    -0.325 A  
HETATM   22  O   UNL     1      -9.368   3.055  65.581  1.00  0.00    -0.219 OA 
HETATM   23  C   UNL     1     -10.525   5.791  67.674  1.00  0.00    -0.299 A  
HETATM   24  H   UNL     1      -9.651   3.350  64.723  1.00  0.00     0.000 HD 
ENDBRANCH  16  17
ENDBRANCH   6  16
ENDBRANCH   2   4
TORSDOF 3
ENDMDL
MODEL       90
REMARK 921   NORMALIZED FREE ENERGY PREDICTED BY IDOCK:   -4.53 KCAL/MOL
REMARK 922        TOTAL FREE ENERGY PREDICTED BY IDOCK:   -5.75 KCAL/MOL
REMARK 923 INTER-LIGAND FREE ENERGY PREDICTED BY IDOCK:   -5.28 KCAL/MOL
REMARK 924 INTRA-LIGAND FREE ENERGY PREDICTED BY IDOCK:   -0.47 KCAL/MOL
REMARK 927      BINDING AFFINITY PREDICTED BY RF-SCORE:    0.00 PKD
ROOT
HETATM    1  O   UNL     1     -11.149   5.696  66.206  1.00  0.00    -0.734 OA 
HETATM    2  C   UNL     1     -11.137   6.592  67.308  1.00  0.00    -0.350 C  
HETATM    3  H   UNL     1     -11.802   5.946  65.562  1.00  0.00     0.000 HD 
ENDROOT
BRANCH   2   4
HETATM    4  C   UNL     1     -10.080   6.188  68.350  1.00  0.00    -0.158 C  
HETATM    5  O   UNL     1      -9.188   7.281  68.620  1.00  0.00    -0.137 OA 
HETATM    6  C   UNL     1      -9.673   8.284  69.527  1.00  0.00    -0.174 C  
HETATM    7  O   UNL     1      -9.596   4.695  70.205  1.00  0.00    -0.162 OA 
HETATM    8  C   UNL     1     -10.091   7.664  70.880  1.00  0.00    -0.191 C  
HETATM    9  O   UNL     1      -8.947   7.103  71.559  1.00  0.00    -0.134 OA 
HETATM   10  C   UNL     1     -11.121   6.544  70.686  1.00  0.00    -0.309 C  
HETATM   11  H   UNL     1      -9.937   4.286  70.993  1.00  0.00     0.000 HD 
HETATM   12  H   UNL     1      -9.205   6.722  72.391  1.00  0.00     0.000 HD 
HETATM   13  O   UNL     1     -12.414   7.076  70.418  1.00  0.00    -0.622 OA 
HETATM   14  H   UNL     1     -13.052   6.383  70.297  1.00  0.00     0.000 HD 
HETATM   15  C   UNL     1     -10.634   5.523  69.633  1.00  0.00    -0.305 C  
BRANCH   6  16
HETATM   16  O   UNL     1     -10.738   9.053  68.957  1.00  0.00    -0.215 OA 
BRANCH  16  17
HETATM   17  C   UNL     1     -10.367  10.133  68.203  1.00  0.00    -0.185 A  
HETATM   18  C   UNL     1      -9.672  11.143  68.874  1.00  0.00    -0.163 A  
HETATM   19  C   UNL     1      -9.619  12.457  66.857  1.00  0.00    -0.219 A  
HETATM   20  C   UNL     1      -9.306  12.315  68.205  1.00  0.00    -0.205 A  
HETATM   21  C   UNL     1     -10.254  11.433  66.165  1.00  0.00    -0.282 A  
HETATM   22  O   UNL     1      -9.325  13.594  66.168  1.00  0.00    -0.454 OA 
HETATM   23  C   UNL     1     -10.610  10.262  66.835  1.00  0.00    -0.282 A  
HETATM   24  H   UNL     1      -9.540  13.691  65.247  1.00  0.00     0.000 HD 
ENDBRANCH  16  17
ENDBRANCH   6  16
ENDBRANCH   2   4
TORSDOF 3
ENDMDL
MODEL       91
REMARK 921   NORMALIZED FREE ENERGY PREDICTED BY IDOCK:   -4.53 KCAL/MOL
REMARK 922        TOTAL FREE ENERGY PREDICTED BY IDOCK:   -5.74 KCAL/MOL
REMARK 923 INTER-LIGAND FREE ENERGY PREDICTED BY IDOCK:   -5.51 KCAL/MOL
REMARK 924 INTRA-LIGAND FREE ENERGY PREDICTED BY IDOCK:   -0.23 KCAL/MOL
REMARK 927      BINDING AFFINITY PREDICTED BY RF-SCORE:    0.00 PKD
ROOT
HETATM    1  O   UNL     1      -9.106  10.172  69.630  1.00  0.00    -0.240 OA 
HETATM    2  C   UNL     1     -10.112  10.987  69.048  1.00  0.00    -0.180 C  
HETATM    3  H   UNL     1      -8.756  10.564  70.422  1.00  0.00     0.000 HD 
ENDROOT
BRANCH   2   4
HETATM    4  C   UNL     1     -10.679  10.353  67.766  1.00  0.00    -0.279 C  
HETATM    5  O   UNL     1     -11.567  11.262  67.098  1.00  0.00    -0.513 OA 
HETATM    6  C   UNL     1     -10.945  12.280  66.297  1.00  0.00    -0.291 C  
HETATM    7  O   UNL     1     -10.282   8.697  66.032  1.00  0.00    -0.422 OA 
HETATM    8  C   UNL     1     -10.005  11.665  65.236  1.00  0.00    -0.255 C  
HETATM    9  O   UNL     1     -10.756  10.882  64.283  1.00  0.00    -0.368 OA 
HETATM   10  C   UNL     1      -8.959  10.748  65.881  1.00  0.00    -0.184 C  
HETATM   11  H   UNL     1      -9.638   8.308  65.451  1.00  0.00     0.000 HD 
HETATM   12  H   UNL     1     -10.178  10.503  63.631  1.00  0.00     0.000 HD 
HETATM   13  O   UNL     1      -7.925  11.504  66.501  1.00  0.00    -0.237 OA 
HETATM   14  H   UNL     1      -7.277  10.937  66.901  1.00  0.00     0.000 HD 
HETATM   15  C   UNL     1      -9.630   9.719  66.820  1.00  0.00    -0.177 C  
BRANCH   6  16
HETATM   16  O   UNL     1     -10.259  13.248  67.099  1.00  0.00    -0.242 OA 
BRANCH  16  17
HETATM   17  C   UNL     1     -10.370  14.552  66.697  1.00  0.00    -0.274 A  
HETATM   18  C   UNL     1     -10.978  14.765  65.457  1.00  0.00    -0.350 A  
HETATM   19  C   UNL     1     -10.591  17.133  65.665  1.00  0.00    -0.179 A  
HETATM   20  C   UNL     1     -11.080  16.057  64.931  1.00  0.00    -0.381 A  
HETATM   21  C   UNL     1     -10.043  16.939  66.928  1.00  0.00    -0.289 A  
HETATM   22  O   UNL     1     -10.625  18.406  65.183  1.00  0.00    -0.419 OA 
HETATM   23  C   UNL     1      -9.950  15.649  67.451  1.00  0.00    -0.232 A  
HETATM   24  H   UNL     1     -10.291  19.141  65.685  1.00  0.00     0.000 HD 
ENDBRANCH  16  17
ENDBRANCH   6  16
ENDBRANCH   2   4
TORSDOF 3
ENDMDL
MODEL       92
REMARK 921   NORMALIZED FREE ENERGY PREDICTED BY IDOCK:   -4.50 KCAL/MOL
REMARK 922        TOTAL FREE ENERGY PREDICTED BY IDOCK:   -5.71 KCAL/MOL
REMARK 923 INTER-LIGAND FREE ENERGY PREDICTED BY IDOCK:   -4.98 KCAL/MOL
REMARK 924 INTRA-LIGAND FREE ENERGY PREDICTED BY IDOCK:   -0.73 KCAL/MOL
REMARK 927      BINDING AFFINITY PREDICTED BY RF-SCORE:    0.00 PKD
ROOT
HETATM    1  O   UNL     1     -12.009  11.645  67.181  1.00  0.00    -0.614 OA 
HETATM    2  C   UNL     1     -11.041  12.138  68.096  1.00  0.00    -0.248 C  
HETATM    3  H   UNL     1     -12.890  11.880  67.449  1.00  0.00     0.000 HD 
ENDROOT
BRANCH   2   4
HETATM    4  C   UNL     1      -9.614  11.759  67.664  1.00  0.00    -0.183 C  
HETATM    5  O   UNL     1      -8.788  11.499  68.809  1.00  0.00    -0.138 OA 
HETATM    6  C   UNL     1      -8.930  10.202  69.411  1.00  0.00    -0.191 C  
HETATM    7  O   UNL     1      -8.271  10.818  65.870  1.00  0.00    -0.157 OA 
HETATM    8  C   UNL     1      -8.688   9.075  68.381  1.00  0.00    -0.130 C  
HETATM    9  O   UNL     1      -7.321   9.096  67.916  1.00  0.00    -0.082 OA 
HETATM   10  C   UNL     1      -9.604   9.227  67.161  1.00  0.00    -0.159 C  
HETATM   11  H   UNL     1      -8.213  10.142  65.205  1.00  0.00     0.000 HD 
HETATM   12  H   UNL     1      -7.172   8.403  67.282  1.00  0.00     0.000 HD 
HETATM   13  O   UNL     1     -10.930   8.804  67.459  1.00  0.00    -0.482 OA 
HETATM   14  H   UNL     1     -11.499   8.898  66.704  1.00  0.00     0.000 HD 
HETATM   15  C   UNL     1      -9.520  10.658  66.581  1.00  0.00    -0.167 C  
BRANCH   6  16
HETATM   16  O   UNL     1     -10.197  10.049  70.059  1.00  0.00    -0.249 OA 
BRANCH  16  17
HETATM   17  C   UNL     1     -10.263   9.092  71.036  1.00  0.00    -0.302 A  
HETATM   18  C   UNL     1     -11.352   8.218  70.970  1.00  0.00    -0.299 A  
HETATM   19  C   UNL     1     -10.623   7.144  72.999  1.00  0.00    -0.308 A  
HETATM   20  C   UNL     1     -11.541   7.247  71.959  1.00  0.00    -0.311 A  
HETATM   21  C   UNL     1      -9.503   7.966  73.039  1.00  0.00    -0.336 A  
HETATM   22  O   UNL     1     -10.782   6.247  74.010  1.00  0.00    -0.405 OA 
HETATM   23  C   UNL     1      -9.314   8.928  72.046  1.00  0.00    -0.219 A  
HETATM   24  H   UNL     1     -10.154   6.177  74.721  1.00  0.00     0.000 HD 
ENDBRANCH  16  17
ENDBRANCH   6  16
ENDBRANCH   2   4
TORSDOF 3
ENDMDL
MODEL       93
REMARK 921   NORMALIZED FREE ENERGY PREDICTED BY IDOCK:   -4.49 KCAL/MOL
REMARK 922        TOTAL FREE ENERGY PREDICTED BY IDOCK:   -5.69 KCAL/MOL
REMARK 923 INTER-LIGAND FREE ENERGY PREDICTED BY IDOCK:   -5.29 KCAL/MOL
REMARK 924 INTRA-LIGAND FREE ENERGY PREDICTED BY IDOCK:   -0.40 KCAL/MOL
REMARK 927      BINDING AFFINITY PREDICTED BY RF-SCORE:    0.00 PKD
ROOT
HETATM    1  O   UNL     1      -6.912  14.998  67.764  1.00  0.00    -0.140 OA 
HETATM    2  C   UNL     1      -8.018  14.112  67.666  1.00  0.00    -0.178 C  
HETATM    3  H   UNL     1      -6.189  14.600  68.235  1.00  0.00     0.000 HD 
ENDROOT
BRANCH   2   4
HETATM    4  C   UNL     1      -9.189  14.755  66.903  1.00  0.00    -0.245 C  
HETATM    5  O   UNL     1      -9.805  13.804  66.021  1.00  0.00    -0.297 OA 
HETATM    6  C   UNL     1     -10.728  12.885  66.627  1.00  0.00    -0.265 C  
HETATM    7  O   UNL     1     -10.857  16.521  66.956  1.00  0.00    -0.245 OA 
HETATM    8  C   UNL     1     -11.851  13.632  67.383  1.00  0.00    -0.393 C  
HETATM    9  O   UNL     1     -12.666  14.390  66.463  1.00  0.00    -0.493 OA 
HETATM   10  C   UNL     1     -11.274  14.606  68.417  1.00  0.00    -0.274 C  
HETATM   11  H   UNL     1     -11.483  16.994  67.494  1.00  0.00     0.000 HD 
HETATM   12  H   UNL     1     -13.356  14.850  66.928  1.00  0.00     0.000 HD 
HETATM   13  O   UNL     1     -10.820  13.915  69.576  1.00  0.00    -0.427 OA 
HETATM   14  H   UNL     1     -10.463  14.518  70.217  1.00  0.00     0.000 HD 
HETATM   15  C   UNL     1     -10.208  15.524  67.778  1.00  0.00    -0.243 C  
BRANCH   6  16
HETATM   16  O   UNL     1     -10.067  11.944  67.480  1.00  0.00    -0.191 OA 
BRANCH  16  17
HETATM   17  C   UNL     1      -9.950  10.669  66.996  1.00  0.00    -0.202 A  
HETATM   18  C   UNL     1     -10.635   9.676  67.702  1.00  0.00    -0.334 A  
HETATM   19  C   UNL     1      -9.745   7.998  66.221  1.00  0.00    -0.126 A  
HETATM   20  C   UNL     1     -10.525   8.334  67.323  1.00  0.00    -0.373 A  
HETATM   21  C   UNL     1      -9.111   8.984  65.474  1.00  0.00    -0.271 A  
HETATM   22  O   UNL     1      -9.569   6.704  65.834  1.00  0.00    -0.391 OA 
HETATM   23  C   UNL     1      -9.230  10.322  65.851  1.00  0.00    -0.205 A  
HETATM   24  H   UNL     1      -9.036   6.475  65.082  1.00  0.00     0.000 HD 
ENDBRANCH  16  17
ENDBRANCH   6  16
ENDBRANCH   2   4
TORSDOF 3
ENDMDL
MODEL       94
REMARK 921   NORMALIZED FREE ENERGY PREDICTED BY IDOCK:   -4.47 KCAL/MOL
REMARK 922        TOTAL FREE ENERGY PREDICTED BY IDOCK:   -5.67 KCAL/MOL
REMARK 923 INTER-LIGAND FREE ENERGY PREDICTED BY IDOCK:   -5.25 KCAL/MOL
REMARK 924 INTRA-LIGAND FREE ENERGY PREDICTED BY IDOCK:   -0.42 KCAL/MOL
REMARK 927      BINDING AFFINITY PREDICTED BY RF-SCORE:    0.00 PKD
ROOT
HETATM    1  O   UNL     1      -9.588  11.099  65.637  1.00  0.00    -0.206 OA 
HETATM    2  C   UNL     1     -10.492  11.237  66.723  1.00  0.00    -0.248 C  
HETATM    3  H   UNL     1      -8.914  10.456  65.825  1.00  0.00     0.000 HD 
ENDROOT
BRANCH   2   4
HETATM    4  C   UNL     1     -11.584  12.277  66.419  1.00  0.00    -0.383 C  
HETATM    5  O   UNL     1     -11.300  13.520  67.079  1.00  0.00    -0.302 OA 
HETATM    6  C   UNL     1     -10.336  14.372  66.437  1.00  0.00    -0.287 C  
HETATM    7  O   UNL     1     -13.290  12.949  64.824  1.00  0.00    -0.655 OA 
HETATM    8  C   UNL     1     -10.745  14.686  64.981  1.00  0.00    -0.430 C  
HETATM    9  O   UNL     1     -11.966  15.457  64.949  1.00  0.00    -0.165 OA 
HETATM   10  C   UNL     1     -10.977  13.402  64.176  1.00  0.00    -0.304 C  
HETATM   11  H   UNL     1     -13.507  13.054  63.905  1.00  0.00     0.000 HD 
HETATM   12  H   UNL     1     -12.218  15.650  64.054  1.00  0.00     0.000 HD 
HETATM   13  O   UNL     1      -9.742  12.800  63.803  1.00  0.00    -0.678 OA 
HETATM   14  H   UNL     1      -9.885  12.004  63.304  1.00  0.00     0.000 HD 
HETATM   15  C   UNL     1     -11.937  12.448  64.922  1.00  0.00    -0.398 C  
BRANCH   6  16
HETATM   16  O   UNL     1      -9.014  13.825  66.498  1.00  0.00    -0.179 OA 
BRANCH  16  17
HETATM   17  C   UNL     1      -8.217  14.286  67.511  1.00  0.00    -0.189 A  
HETATM   18  C   UNL     1      -7.425  13.331  68.155  1.00  0.00    -0.128 A  
HETATM   19  C   UNL     1      -6.607  15.017  69.667  1.00  0.00    -0.166 A  
HETATM   20  C   UNL     1      -6.625  13.692  69.243  1.00  0.00    -0.110 A  
HETATM   21  C   UNL     1      -7.341  15.986  68.994  1.00  0.00    -0.191 A  
HETATM   22  O   UNL     1      -5.880  15.416  70.747  1.00  0.00    -0.084 OA 
HETATM   23  C   UNL     1      -8.132  15.622  67.903  1.00  0.00    -0.149 A  
HETATM   24  H   UNL     1      -5.868  16.321  71.036  1.00  0.00     0.000 HD 
ENDBRANCH  16  17
ENDBRANCH   6  16
ENDBRANCH   2   4
TORSDOF 3
ENDMDL
MODEL       95
REMARK 921   NORMALIZED FREE ENERGY PREDICTED BY IDOCK:   -4.41 KCAL/MOL
REMARK 922        TOTAL FREE ENERGY PREDICTED BY IDOCK:   -5.60 KCAL/MOL
REMARK 923 INTER-LIGAND FREE ENERGY PREDICTED BY IDOCK:   -5.12 KCAL/MOL
REMARK 924 INTRA-LIGAND FREE ENERGY PREDICTED BY IDOCK:   -0.48 KCAL/MOL
REMARK 927      BINDING AFFINITY PREDICTED BY RF-SCORE:    0.00 PKD
ROOT
HETATM    1  O   UNL     1     -11.523  13.480  70.254  1.00  0.00    -0.506 OA 
HETATM    2  C   UNL     1     -11.277  12.734  69.071  1.00  0.00    -0.264 C  
HETATM    3  H   UNL     1     -11.125  14.341  70.211  1.00  0.00     0.000 HD 
ENDROOT
BRANCH   2   4
HETATM    4  C   UNL     1     -11.922  11.339  69.140  1.00  0.00    -0.336 C  
HETATM    5  O   UNL     1     -11.926  10.715  67.847  1.00  0.00    -0.420 OA 
HETATM    6  C   UNL     1     -10.692  10.104  67.436  1.00  0.00    -0.277 C  
HETATM    7  O   UNL     1     -12.414   9.453  70.591  1.00  0.00    -0.483 OA 
HETATM    8  C   UNL     1     -10.211   9.060  68.468  1.00  0.00    -0.200 C  
HETATM    9  O   UNL     1     -11.138   7.955  68.546  1.00  0.00    -0.412 OA 
HETATM   10  C   UNL     1     -10.089   9.674  69.868  1.00  0.00    -0.246 C  
HETATM   11  H   UNL     1     -12.085   8.886  71.280  1.00  0.00     0.000 HD 
HETATM   12  H   UNL     1     -10.842   7.313  69.181  1.00  0.00     0.000 HD 
HETATM   13  O   UNL     1      -8.914  10.470  69.980  1.00  0.00    -0.338 OA 
HETATM   14  H   UNL     1      -8.839  10.850  70.847  1.00  0.00     0.000 HD 
HETATM   15  C   UNL     1     -11.387  10.416  70.260  1.00  0.00    -0.328 C  
BRANCH   6  16
HETATM   16  O   UNL     1      -9.675  11.076  67.169  1.00  0.00    -0.171 OA 
BRANCH  16  17
HETATM   17  C   UNL     1      -8.822  10.790  66.137  1.00  0.00    -0.177 A  
HETATM   18  C   UNL     1      -9.417  10.549  64.895  1.00  0.00    -0.304 A  
HETATM   19  C   UNL     1      -7.254  10.088  63.941  1.00  0.00    -0.125 A  
HETATM   20  C   UNL     1      -8.634  10.186  63.794  1.00  0.00    -0.203 A  
HETATM   21  C   UNL     1      -6.647  10.388  65.154  1.00  0.00    -0.090 A  
HETATM   22  O   UNL     1      -6.450   9.697  62.914  1.00  0.00    -0.099 OA 
HETATM   23  C   UNL     1      -7.432  10.758  66.248  1.00  0.00    -0.138 A  
HETATM   24  H   UNL     1      -5.507   9.630  63.015  1.00  0.00     0.000 HD 
ENDBRANCH  16  17
ENDBRANCH   6  16
ENDBRANCH   2   4
TORSDOF 3
ENDMDL
MODEL       96
REMARK 921   NORMALIZED FREE ENERGY PREDICTED BY IDOCK:   -4.38 KCAL/MOL
REMARK 922        TOTAL FREE ENERGY PREDICTED BY IDOCK:   -5.56 KCAL/MOL
REMARK 923 INTER-LIGAND FREE ENERGY PREDICTED BY IDOCK:   -4.87 KCAL/MOL
REMARK 924 INTRA-LIGAND FREE ENERGY PREDICTED BY IDOCK:   -0.69 KCAL/MOL
REMARK 927      BINDING AFFINITY PREDICTED BY RF-SCORE:    0.00 PKD
ROOT
HETATM    1  O   UNL     1      -9.036  12.107  68.609  1.00  0.00    -0.348 OA 
HETATM    2  C   UNL     1      -8.481  10.876  69.048  1.00  0.00    -0.105 C  
HETATM    3  H   UNL     1      -9.169  12.707  69.335  1.00  0.00     0.000 HD 
ENDROOT
BRANCH   2   4
HETATM    4  C   UNL     1      -8.266   9.906  67.874  1.00  0.00    -0.113 C  
HETATM    5  O   UNL     1      -8.438   8.546  68.300  1.00  0.00    -0.132 OA 
HETATM    6  C   UNL     1      -9.794   8.083  68.410  1.00  0.00    -0.171 C  
HETATM    7  O   UNL     1      -8.345   9.672  65.456  1.00  0.00    -0.130 OA 
HETATM    8  C   UNL     1     -10.560   8.267  67.081  1.00  0.00    -0.270 C  
HETATM    9  O   UNL     1      -9.991   7.436  66.046  1.00  0.00    -0.427 OA 
HETATM   10  C   UNL     1     -10.504   9.723  66.601  1.00  0.00    -0.163 C  
HETATM   11  H   UNL     1      -8.826   9.880  64.663  1.00  0.00     0.000 HD 
HETATM   12  H   UNL     1     -10.462   7.550  65.228  1.00  0.00     0.000 HD 
HETATM   13  O   UNL     1     -11.400  10.543  67.344  1.00  0.00    -0.381 OA 
HETATM   14  H   UNL     1     -11.366  11.445  67.048  1.00  0.00     0.000 HD 
HETATM   15  C   UNL     1      -9.049  10.243  66.583  1.00  0.00    -0.144 C  
BRANCH   6  16
HETATM   16  O   UNL     1     -10.486   8.706  69.498  1.00  0.00    -0.216 OA 
BRANCH  16  17
HETATM   17  C   UNL     1     -10.539   7.995  70.666  1.00  0.00    -0.219 A  
HETATM   18  C   UNL     1     -10.995   6.677  70.565  1.00  0.00    -0.337 A  
HETATM   19  C   UNL     1     -10.815   6.423  72.953  1.00  0.00    -0.256 A  
HETATM   20  C   UNL     1     -11.145   5.890  71.711  1.00  0.00    -0.324 A  
HETATM   21  C   UNL     1     -10.301   7.710  73.058  1.00  0.00    -0.393 A  
HETATM   22  O   UNL     1     -10.983   5.717  74.105  1.00  0.00    -0.379 OA 
HETATM   23  C   UNL     1     -10.145   8.489  71.910  1.00  0.00    -0.367 A  
HETATM   24  H   UNL     1     -10.757   6.081  74.953  1.00  0.00     0.000 HD 
ENDBRANCH  16  17
ENDBRANCH   6  16
ENDBRANCH   2   4
TORSDOF 3
ENDMDL
MODEL       97
REMARK 921   NORMALIZED FREE ENERGY PREDICTED BY IDOCK:   -4.31 KCAL/MOL
REMARK 922        TOTAL FREE ENERGY PREDICTED BY IDOCK:   -5.48 KCAL/MOL
REMARK 923 INTER-LIGAND FREE ENERGY PREDICTED BY IDOCK:   -4.82 KCAL/MOL
REMARK 924 INTRA-LIGAND FREE ENERGY PREDICTED BY IDOCK:   -0.66 KCAL/MOL
REMARK 927      BINDING AFFINITY PREDICTED BY RF-SCORE:    0.00 PKD
ROOT
HETATM    1  O   UNL     1      -8.426  10.480  68.816  1.00  0.00    -0.125 OA 
HETATM    2  C   UNL     1      -8.198   9.630  67.702  1.00  0.00    -0.114 C  
HETATM    3  H   UNL     1      -8.859  11.286  68.556  1.00  0.00     0.000 HD 
ENDROOT
BRANCH   2   4
HETATM    4  C   UNL     1      -7.499   8.326  68.123  1.00  0.00    -0.097 C  
HETATM    5  O   UNL     1      -7.984   7.877  69.397  1.00  0.00    -0.112 OA 
HETATM    6  C   UNL     1      -9.240   7.178  69.386  1.00  0.00    -0.148 C  
HETATM    7  O   UNL     1      -6.350   6.344  67.312  1.00  0.00    -0.034 OA 
HETATM    8  C   UNL     1      -9.197   5.961  68.436  1.00  0.00    -0.117 C  
HETATM    9  O   UNL     1      -8.254   4.976  68.911  1.00  0.00    -0.084 OA 
HETATM   10  C   UNL     1      -8.777   6.373  67.020  1.00  0.00    -0.115 C  
HETATM   11  H   UNL     1      -6.337   5.658  66.654  1.00  0.00     0.000 HD 
HETATM   12  H   UNL     1      -8.228   4.227  68.326  1.00  0.00     0.000 HD 
HETATM   13  O   UNL     1      -9.850   7.000  66.327  1.00  0.00    -0.399 OA 
HETATM   14  H   UNL     1      -9.590   7.256  65.449  1.00  0.00     0.000 HD 
HETATM   15  C   UNL     1      -7.478   7.210  67.051  1.00  0.00    -0.097 C  
BRANCH   6  16
HETATM   16  O   UNL     1     -10.333   8.047  69.069  1.00  0.00    -0.214 OA 
BRANCH  16  17
HETATM   17  C   UNL     1     -11.270   8.221  70.051  1.00  0.00    -0.081 A  
HETATM   18  C   UNL     1     -11.501   9.538  70.457  1.00  0.00    -0.337 A  
HETATM   19  C   UNL     1     -13.067   8.763  72.113  1.00  0.00    -0.406 A  
HETATM   20  C   UNL     1     -12.393   9.813  71.498  1.00  0.00    -0.495 A  
HETATM   21  C   UNL     1     -12.893   7.456  71.675  1.00  0.00    -0.406 A  
HETATM   22  O   UNL     1     -13.914   8.969  73.160  1.00  0.00    -1.130 OA 
HETATM   23  C   UNL     1     -12.008   7.188  70.630  1.00  0.00    -0.312 A  
HETATM   24  H   UNL     1     -14.374   8.251  73.579  1.00  0.00     0.000 HD 
ENDBRANCH  16  17
ENDBRANCH   6  16
ENDBRANCH   2   4
TORSDOF 3
ENDMDL
MODEL       98
REMARK 921   NORMALIZED FREE ENERGY PREDICTED BY IDOCK:   -4.27 KCAL/MOL
REMARK 922        TOTAL FREE ENERGY PREDICTED BY IDOCK:   -5.44 KCAL/MOL
REMARK 923 INTER-LIGAND FREE ENERGY PREDICTED BY IDOCK:   -4.99 KCAL/MOL
REMARK 924 INTRA-LIGAND FREE ENERGY PREDICTED BY IDOCK:   -0.45 KCAL/MOL
REMARK 927      BINDING AFFINITY PREDICTED BY RF-SCORE:    0.00 PKD
ROOT
HETATM    1  O   UNL     1     -13.512  12.186  72.494  1.00  0.00    -0.591 OA 
HETATM    2  C   UNL     1     -12.593  11.520  71.641  1.00  0.00    -0.194 C  
HETATM    3  H   UNL     1     -13.199  13.051  72.735  1.00  0.00     0.000 HD 
ENDROOT
BRANCH   2   4
HETATM    4  C   UNL     1     -13.100  10.121  71.250  1.00  0.00    -0.396 C  
HETATM    5  O   UNL     1     -12.967   9.908  69.837  1.00  0.00     0.315 OA 
HETATM    6  C   UNL     1     -11.658   9.544  69.371  1.00  0.00     0.270 C  
HETATM    7  O   UNL     1     -13.483   7.858  72.050  1.00  0.00    -0.438 OA 
HETATM    8  C   UNL     1     -11.135   8.283  70.095  1.00  0.00    -0.189 C  
HETATM    9  O   UNL     1     -11.951   7.135  69.773  1.00  0.00    -0.514 OA 
HETATM   10  C   UNL     1     -11.154   8.464  71.617  1.00  0.00    -0.278 C  
HETATM   11  H   UNL     1     -13.139   7.141  72.570  1.00  0.00     0.000 HD 
HETATM   12  H   UNL     1     -11.629   6.360  70.218  1.00  0.00     0.000 HD 
HETATM   13  O   UNL     1     -10.073   9.281  72.051  1.00  0.00    -0.168 OA 
HETATM   14  H   UNL     1     -10.085   9.394  72.995  1.00  0.00     0.000 HD 
HETATM   15  C   UNL     1     -12.540   8.953  72.097  1.00  0.00    -0.399 C  
BRANCH   6  16
HETATM   16  O   UNL     1     -10.729  10.628  69.482  1.00  0.00    -0.231 OA 
BRANCH  16  17
HETATM   17  C   UNL     1     -10.586  11.416  68.372  1.00  0.00    -0.202 A  
HETATM   18  C   UNL     1     -10.855  10.806  67.144  1.00  0.00    -0.335 A  
HETATM   19  C   UNL     1     -10.248  12.833  65.994  1.00  0.00    -0.278 A  
HETATM   20  C   UNL     1     -10.676  11.510  65.949  1.00  0.00    -0.325 A  
HETATM   21  C   UNL     1     -10.038  13.469  67.212  1.00  0.00    -0.235 A  
HETATM   22  O   UNL     1     -10.016  13.551  64.861  1.00  0.00    -0.565 OA 
HETATM   23  C   UNL     1     -10.227  12.764  68.402  1.00  0.00    -0.237 A  
HETATM   24  H   UNL     1      -9.723  14.455  64.893  1.00  0.00     0.000 HD 
ENDBRANCH  16  17
ENDBRANCH   6  16
ENDBRANCH   2   4
TORSDOF 3
ENDMDL
MODEL       99
REMARK 921   NORMALIZED FREE ENERGY PREDICTED BY IDOCK:   -4.26 KCAL/MOL
REMARK 922        TOTAL FREE ENERGY PREDICTED BY IDOCK:   -5.43 KCAL/MOL
REMARK 923 INTER-LIGAND FREE ENERGY PREDICTED BY IDOCK:   -4.98 KCAL/MOL
REMARK 924 INTRA-LIGAND FREE ENERGY PREDICTED BY IDOCK:   -0.45 KCAL/MOL
REMARK 927      BINDING AFFINITY PREDICTED BY RF-SCORE:    0.00 PKD
ROOT
HETATM    1  O   UNL     1      -6.924  15.040  67.843  1.00  0.00    -0.123 OA 
HETATM    2  C   UNL     1      -8.027  14.166  67.659  1.00  0.00    -0.178 C  
HETATM    3  H   UNL     1      -6.146  14.566  68.114  1.00  0.00     0.000 HD 
ENDROOT
BRANCH   2   4
HETATM    4  C   UNL     1      -9.286  14.933  67.219  1.00  0.00    -0.204 C  
HETATM    5  O   UNL     1      -9.823  14.379  66.008  1.00  0.00    -0.299 OA 
HETATM    6  C   UNL     1     -10.619  13.192  66.153  1.00  0.00    -0.279 C  
HETATM    7  O   UNL     1     -11.136  16.309  67.986  1.00  0.00    -0.340 OA 
HETATM    8  C   UNL     1     -11.791  13.418  67.135  1.00  0.00    -0.382 C  
HETATM    9  O   UNL     1     -12.715  14.395  66.609  1.00  0.00    -0.485 OA 
HETATM   10  C   UNL     1     -11.292  13.923  68.494  1.00  0.00    -0.280 C  
HETATM   11  H   UNL     1     -11.792  16.437  68.663  1.00  0.00     0.000 HD 
HETATM   12  H   UNL     1     -13.436  14.534  67.213  1.00  0.00     0.000 HD 
HETATM   13  O   UNL     1     -10.726  12.865  69.259  1.00  0.00    -0.436 OA 
HETATM   14  H   UNL     1     -10.416  13.178  70.101  1.00  0.00     0.000 HD 
HETATM   15  C   UNL     1     -10.354  15.140  68.320  1.00  0.00    -0.231 C  
BRANCH   6  16
HETATM   16  O   UNL     1      -9.830  12.061  66.539  1.00  0.00    -0.201 OA 
BRANCH  16  17
HETATM   17  C   UNL     1      -9.347  11.286  65.520  1.00  0.00    -0.221 A  
HETATM   18  C   UNL     1     -10.126  11.236  64.361  1.00  0.00    -0.357 A  
HETATM   19  C   UNL     1      -8.576   9.678  63.376  1.00  0.00    -0.209 A  
HETATM   20  C   UNL     1      -9.749  10.421  63.289  1.00  0.00    -0.308 A  
HETATM   21  C   UNL     1      -7.761   9.770  64.498  1.00  0.00    -0.137 A  
HETATM   22  O   UNL     1      -8.184   8.836  62.381  1.00  0.00    -0.155 OA 
HETATM   23  C   UNL     1      -8.138  10.590  65.562  1.00  0.00    -0.155 A  
HETATM   24  H   UNL     1      -7.382   8.328  62.441  1.00  0.00     0.000 HD 
ENDBRANCH  16  17
ENDBRANCH   6  16
ENDBRANCH   2   4
TORSDOF 3
ENDMDL
MODEL      100
REMARK 921   NORMALIZED FREE ENERGY PREDICTED BY IDOCK:   -4.20 KCAL/MOL
REMARK 922        TOTAL FREE ENERGY PREDICTED BY IDOCK:   -5.35 KCAL/MOL
REMARK 923 INTER-LIGAND FREE ENERGY PREDICTED BY IDOCK:   -4.71 KCAL/MOL
REMARK 924 INTRA-LIGAND FREE ENERGY PREDICTED BY IDOCK:   -0.65 KCAL/MOL
REMARK 927      BINDING AFFINITY PREDICTED BY RF-SCORE:    0.00 PKD
ROOT
HETATM    1  O   UNL     1      -9.081   8.212  73.011  1.00  0.00    -0.239 OA 
HETATM    2  C   UNL     1     -10.359   8.638  72.561  1.00  0.00    -0.159 C  
HETATM    3  H   UNL     1      -8.692   8.845  73.602  1.00  0.00     0.000 HD 
ENDROOT
BRANCH   2   4
HETATM    4  C   UNL     1     -10.991   7.612  71.605  1.00  0.00    -0.233 C  
HETATM    5  O   UNL     1     -11.797   8.269  70.615  1.00  0.00    -0.221 OA 
HETATM    6  C   UNL     1     -11.092   8.844  69.503  1.00  0.00    -0.001 C  
HETATM    7  O   UNL     1     -10.758   5.391  70.648  1.00  0.00    -0.254 OA 
HETATM    8  C   UNL     1     -10.219   7.790  68.785  1.00  0.00    -0.201 C  
HETATM    9  O   UNL     1     -11.045   6.769  68.184  1.00  0.00    -0.463 OA 
HETATM   10  C   UNL     1      -9.256   7.103  69.761  1.00  0.00    -0.143 C  
HETATM   11  H   UNL     1     -10.156   4.754  70.279  1.00  0.00     0.000 HD 
HETATM   12  H   UNL     1     -10.508   6.121  67.743  1.00  0.00     0.000 HD 
HETATM   13  O   UNL     1      -8.153   7.947  70.073  1.00  0.00    -0.113 OA 
HETATM   14  H   UNL     1      -7.556   7.522  70.678  1.00  0.00     0.000 HD 
HETATM   15  C   UNL     1     -10.011   6.576  71.003  1.00  0.00    -0.183 C  
BRANCH   6  16
HETATM   16  O   UNL     1     -10.315   9.982  69.892  1.00  0.00    -0.243 OA 
BRANCH  16  17
HETATM   17  C   UNL     1     -10.933  11.199  69.788  1.00  0.00    -0.150 A  
HETATM   18  C   UNL     1     -10.557  11.990  68.699  1.00  0.00    -0.253 A  
HETATM   19  C   UNL     1     -12.007  13.752  69.469  1.00  0.00    -0.345 A  
HETATM   20  C   UNL     1     -11.086  13.275  68.542  1.00  0.00    -0.294 A  
HETATM   21  C   UNL     1     -12.435  12.950  70.520  1.00  0.00    -0.294 A  
HETATM   22  O   UNL     1     -12.520  15.011  69.389  1.00  0.00    -0.563 OA 
HETATM   23  C   UNL     1     -11.911  11.665  70.668  1.00  0.00    -0.356 A  
HETATM   24  H   UNL     1     -13.150  15.336  70.022  1.00  0.00     0.000 HD 
ENDBRANCH  16  17
ENDBRANCH   6  16
ENDBRANCH   2   4
TORSDOF 3
ENDMDL
MODEL      101
REMARK 921   NORMALIZED FREE ENERGY PREDICTED BY IDOCK:   -4.19 KCAL/MOL
REMARK 922        TOTAL FREE ENERGY PREDICTED BY IDOCK:   -5.34 KCAL/MOL
REMARK 923 INTER-LIGAND FREE ENERGY PREDICTED BY IDOCK:   -4.83 KCAL/MOL
REMARK 924 INTRA-LIGAND FREE ENERGY PREDICTED BY IDOCK:   -0.52 KCAL/MOL
REMARK 927      BINDING AFFINITY PREDICTED BY RF-SCORE:    0.00 PKD
ROOT
HETATM    1  O   UNL     1      -9.766   7.550  68.615  1.00  0.00    -0.150 OA 
HETATM    2  C   UNL     1     -10.525   7.707  67.425  1.00  0.00    -0.297 C  
HETATM    3  H   UNL     1     -10.292   7.186  69.318  1.00  0.00     0.000 HD 
ENDROOT
BRANCH   2   4
HETATM    4  C   UNL     1      -9.674   8.296  66.287  1.00  0.00    -0.183 C  
HETATM    5  O   UNL     1     -10.261   9.506  65.786  1.00  0.00    -0.255 OA 
HETATM    6  C   UNL     1     -10.018  10.694  66.557  1.00  0.00    -0.215 C  
HETATM    7  O   UNL     1      -7.438   8.411  65.342  1.00  0.00    -0.081 OA 
HETATM    8  C   UNL     1      -8.505  10.941  66.748  1.00  0.00    -0.139 C  
HETATM    9  O   UNL     1      -7.869  11.213  65.480  1.00  0.00    -0.368 OA 
HETATM   10  C   UNL     1      -7.814   9.722  67.371  1.00  0.00    -0.099 C  
HETATM   11  H   UNL     1      -6.510   8.495  65.530  1.00  0.00     0.000 HD 
HETATM   12  H   UNL     1      -6.938  11.365  65.598  1.00  0.00     0.000 HD 
HETATM   13  O   UNL     1      -8.077   9.641  68.768  1.00  0.00    -0.093 OA 
HETATM   14  H   UNL     1      -7.649   8.885  69.154  1.00  0.00     0.000 HD 
HETATM   15  C   UNL     1      -8.163   8.432  66.593  1.00  0.00    -0.105 C  
BRANCH   6  16
HETATM   16  O   UNL     1     -10.702  10.665  67.816  1.00  0.00    -0.216 OA 
BRANCH  16  17
HETATM   17  C   UNL     1     -11.176  11.865  68.272  1.00  0.00    -0.261 A  
HETATM   18  C   UNL     1     -11.517  11.918  69.627  1.00  0.00    -0.337 A  
HETATM   19  C   UNL     1     -12.259  14.193  69.360  1.00  0.00    -0.287 A  
HETATM   20  C   UNL     1     -12.071  13.080  70.173  1.00  0.00    -0.377 A  
HETATM   21  C   UNL     1     -11.865  14.172  68.028  1.00  0.00    -0.400 A  
HETATM   22  O   UNL     1     -12.833  15.335  69.829  1.00  0.00    -0.617 OA 
HETATM   23  C   UNL     1     -11.305  13.013  67.489  1.00  0.00    -0.346 A  
HETATM   24  H   UNL     1     -12.961  16.096  69.273  1.00  0.00     0.000 HD 
ENDBRANCH  16  17
ENDBRANCH   6  16
ENDBRANCH   2   4
TORSDOF 3
ENDMDL
MODEL      102
REMARK 921   NORMALIZED FREE ENERGY PREDICTED BY IDOCK:   -4.19 KCAL/MOL
REMARK 922        TOTAL FREE ENERGY PREDICTED BY IDOCK:   -5.34 KCAL/MOL
REMARK 923 INTER-LIGAND FREE ENERGY PREDICTED BY IDOCK:   -4.92 KCAL/MOL
REMARK 924 INTRA-LIGAND FREE ENERGY PREDICTED BY IDOCK:   -0.42 KCAL/MOL
REMARK 927      BINDING AFFINITY PREDICTED BY RF-SCORE:    0.00 PKD
ROOT
HETATM    1  O   UNL     1      -9.457   7.390  69.242  1.00  0.00    -0.154 OA 
HETATM    2  C   UNL     1      -9.734   8.079  68.032  1.00  0.00    -0.160 C  
HETATM    3  H   UNL     1     -10.148   7.519  69.882  1.00  0.00     0.000 HD 
ENDROOT
BRANCH   2   4
HETATM    4  C   UNL     1      -8.616   7.870  66.996  1.00  0.00    -0.128 C  
HETATM    5  O   UNL     1      -9.071   8.221  65.680  1.00  0.00    -0.156 OA 
HETATM    6  C   UNL     1      -9.075   9.623  65.364  1.00  0.00    -0.215 C  
HETATM    7  O   UNL     1      -6.210   7.770  66.671  1.00  0.00    -0.046 OA 
HETATM    8  C   UNL     1      -7.678  10.250  65.570  1.00  0.00    -0.149 C  
HETATM    9  O   UNL     1      -6.725   9.687  64.642  1.00  0.00    -0.090 OA 
HETATM   10  C   UNL     1      -7.158  10.001  66.991  1.00  0.00    -0.089 C  
HETATM   11  H   UNL     1      -5.371   8.158  66.894  1.00  0.00     0.000 HD 
HETATM   12  H   UNL     1      -5.866  10.073  64.769  1.00  0.00     0.000 HD 
HETATM   13  O   UNL     1      -7.792  10.864  67.929  1.00  0.00    -0.105 OA 
HETATM   14  H   UNL     1      -7.470  10.709  68.810  1.00  0.00     0.000 HD 
HETATM   15  C   UNL     1      -7.251   8.502  67.358  1.00  0.00    -0.084 C  
BRANCH   6  16
HETATM   16  O   UNL     1     -10.077  10.334  66.100  1.00  0.00    -0.230 OA 
BRANCH  16  17
HETATM   17  C   UNL     1     -10.663  11.390  65.456  1.00  0.00    -0.253 A  
HETATM   18  C   UNL     1     -11.190  12.394  66.273  1.00  0.00    -0.361 A  
HETATM   19  C   UNL     1     -11.987  13.569  64.327  1.00  0.00    -0.432 A  
HETATM   20  C   UNL     1     -11.865  13.483  65.710  1.00  0.00    -0.403 A  
HETATM   21  C   UNL     1     -11.412  12.609  63.503  1.00  0.00    -0.557 A  
HETATM   22  O   UNL     1     -12.671  14.583  63.729  1.00  0.00    -0.855 OA 
HETATM   23  C   UNL     1     -10.732  11.529  64.069  1.00  0.00    -0.445 A  
HETATM   24  H   UNL     1     -12.754  14.642  62.784  1.00  0.00     0.000 HD 
ENDBRANCH  16  17
ENDBRANCH   6  16
ENDBRANCH   2   4
TORSDOF 3
ENDMDL
MODEL      103
REMARK 921   NORMALIZED FREE ENERGY PREDICTED BY IDOCK:   -4.18 KCAL/MOL
REMARK 922        TOTAL FREE ENERGY PREDICTED BY IDOCK:   -5.33 KCAL/MOL
REMARK 923 INTER-LIGAND FREE ENERGY PREDICTED BY IDOCK:   -4.69 KCAL/MOL
REMARK 924 INTRA-LIGAND FREE ENERGY PREDICTED BY IDOCK:   -0.64 KCAL/MOL
REMARK 927      BINDING AFFINITY PREDICTED BY RF-SCORE:    0.00 PKD
ROOT
HETATM    1  O   UNL     1     -12.648  11.050  69.193  1.00  0.00    -0.590 OA 
HETATM    2  C   UNL     1     -12.952  12.274  69.847  1.00  0.00     0.900 C  
HETATM    3  H   UNL     1     -13.438  10.596  68.920  1.00  0.00     0.000 HD 
ENDROOT
BRANCH   2   4
HETATM    4  C   UNL     1     -11.674  13.008  70.288  1.00  0.00    -0.114 C  
HETATM    5  O   UNL     1     -10.595  12.741  69.380  1.00  0.00     0.066 OA 
HETATM    6  C   UNL     1     -10.589  13.502  68.161  1.00  0.00    -0.245 C  
HETATM    7  O   UNL     1     -10.812  14.915  71.522  1.00  0.00    -0.513 OA 
HETATM    8  C   UNL     1     -10.608  15.020  68.446  1.00  0.00    -0.239 C  
HETATM    9  O   UNL     1      -9.396  15.428  69.117  1.00  0.00    -0.213 OA 
HETATM   10  C   UNL     1     -11.794  15.406  69.338  1.00  0.00    -0.351 C  
HETATM   11  H   UNL     1     -10.920  15.840  71.714  1.00  0.00     0.000 HD 
HETATM   12  H   UNL     1      -9.408  16.362  69.292  1.00  0.00     0.000 HD 
HETATM   13  O   UNL     1     -13.008  15.431  68.596  1.00  0.00     0.335 OA 
HETATM   14  H   UNL     1     -13.744  15.670  69.149  1.00  0.00     0.000 HD 
HETATM   15  C   UNL     1     -11.850  14.514  70.600  1.00  0.00    -0.303 C  
BRANCH   6  16
HETATM   16  O   UNL     1     -11.661  13.124  67.289  1.00  0.00    -0.315 OA 
BRANCH  16  17
HETATM   17  C   UNL     1     -11.300  12.498  66.127  1.00  0.00    -0.343 A  
HETATM   18  C   UNL     1     -12.039  12.837  64.989  1.00  0.00    -0.491 A  
HETATM   19  C   UNL     1     -10.781  11.247  63.689  1.00  0.00    -0.367 A  
HETATM   20  C   UNL     1     -11.789  12.203  63.768  1.00  0.00    -0.592 A  
HETATM   21  C   UNL     1      -9.999  10.949  64.798  1.00  0.00    -0.366 A  
HETATM   22  O   UNL     1     -10.524  10.569  62.537  1.00  0.00    -0.669 OA 
HETATM   23  C   UNL     1     -10.247  11.590  66.013  1.00  0.00    -0.283 A  
HETATM   24  H   UNL     1      -9.835   9.916  62.484  1.00  0.00     0.000 HD 
ENDBRANCH  16  17
ENDBRANCH   6  16
ENDBRANCH   2   4
TORSDOF 3
ENDMDL
MODEL      104
REMARK 921   NORMALIZED FREE ENERGY PREDICTED BY IDOCK:   -4.17 KCAL/MOL
REMARK 922        TOTAL FREE ENERGY PREDICTED BY IDOCK:   -5.32 KCAL/MOL
REMARK 923 INTER-LIGAND FREE ENERGY PREDICTED BY IDOCK:   -4.70 KCAL/MOL
REMARK 924 INTRA-LIGAND FREE ENERGY PREDICTED BY IDOCK:   -0.61 KCAL/MOL
REMARK 927      BINDING AFFINITY PREDICTED BY RF-SCORE:    0.00 PKD
ROOT
HETATM    1  O   UNL     1      -7.802  11.134  69.893  1.00  0.00    -0.274 OA 
HETATM    2  C   UNL     1      -7.946  10.344  68.722  1.00  0.00    -0.122 C  
HETATM    3  H   UNL     1      -7.341  10.661  70.577  1.00  0.00     0.000 HD 
ENDROOT
BRANCH   2   4
HETATM    4  C   UNL     1      -8.692  11.109  67.615  1.00  0.00    -0.129 C  
HETATM    5  O   UNL     1      -9.504  10.216  66.838  1.00  0.00    -0.162 OA 
HETATM    6  C   UNL     1     -10.769   9.849  67.411  1.00  0.00    -0.260 C  
HETATM    7  O   UNL     1      -9.579  13.273  66.956  1.00  0.00    -0.227 OA 
HETATM    8  C   UNL     1     -11.618  11.096  67.746  1.00  0.00    -0.223 C  
HETATM    9  O   UNL     1     -11.974  11.808  66.541  1.00  0.00    -0.545 OA 
HETATM   10  C   UNL     1     -10.853  12.064  68.657  1.00  0.00    -0.237 C  
HETATM   11  H   UNL     1     -10.046  14.050  67.242  1.00  0.00     0.000 HD 
HETATM   12  H   UNL     1     -12.496  12.575  66.747  1.00  0.00     0.000 HD 
HETATM   13  O   UNL     1     -10.833  11.597  70.001  1.00  0.00    -0.420 OA 
HETATM   14  H   UNL     1     -10.359  12.196  70.566  1.00  0.00     0.000 HD 
HETATM   15  C   UNL     1      -9.452  12.374  68.081  1.00  0.00    -0.214 C  
BRANCH   6  16
HETATM   16  O   UNL     1     -10.613   9.005  68.558  1.00  0.00    -0.209 OA 
BRANCH  16  17
HETATM   17  C   UNL     1     -10.346   7.687  68.305  1.00  0.00    -0.198 A  
HETATM   18  C   UNL     1     -10.832   7.180  67.096  1.00  0.00    -0.403 A  
HETATM   19  C   UNL     1      -9.992   4.996  67.664  1.00  0.00    -0.155 A  
HETATM   20  C   UNL     1     -10.667   5.829  66.777  1.00  0.00    -0.369 A  
HETATM   21  C   UNL     1      -9.449   5.503  68.839  1.00  0.00    -0.165 A  
HETATM   22  O   UNL     1      -9.839   3.665  67.424  1.00  0.00    -0.249 OA 
HETATM   23  C   UNL     1      -9.610   6.854  69.149  1.00  0.00    -0.144 A  
HETATM   24  H   UNL     1      -9.378   3.096  68.030  1.00  0.00     0.000 HD 
ENDBRANCH  16  17
ENDBRANCH   6  16
ENDBRANCH   2   4
TORSDOF 3
ENDMDL
MODEL      105
REMARK 921   NORMALIZED FREE ENERGY PREDICTED BY IDOCK:   -4.16 KCAL/MOL
REMARK 922        TOTAL FREE ENERGY PREDICTED BY IDOCK:   -5.31 KCAL/MOL
REMARK 923 INTER-LIGAND FREE ENERGY PREDICTED BY IDOCK:   -4.68 KCAL/MOL
REMARK 924 INTRA-LIGAND FREE ENERGY PREDICTED BY IDOCK:   -0.63 KCAL/MOL
REMARK 927      BINDING AFFINITY PREDICTED BY RF-SCORE:    0.00 PKD
ROOT
HETATM    1  O   UNL     1      -9.553   9.472  63.637  1.00  0.00    -0.455 OA 
HETATM    2  C   UNL     1      -8.846  10.492  64.326  1.00  0.00    -0.197 C  
HETATM    3  H   UNL     1     -10.160   9.837  63.003  1.00  0.00     0.000 HD 
ENDROOT
BRANCH   2   4
HETATM    4  C   UNL     1      -7.863   9.901  65.352  1.00  0.00    -0.132 C  
HETATM    5  O   UNL     1      -7.897  10.647  66.578  1.00  0.00    -0.127 OA 
HETATM    6  C   UNL     1      -8.981  10.346  67.472  1.00  0.00    -0.135 C  
HETATM    7  O   UNL     1      -6.691   7.887  66.040  1.00  0.00    -0.052 OA 
HETATM    8  C   UNL     1      -9.017   8.843  67.826  1.00  0.00    -0.135 C  
HETATM    9  O   UNL     1      -7.837   8.467  68.571  1.00  0.00    -0.105 OA 
HETATM   10  C   UNL     1      -9.077   7.973  66.565  1.00  0.00    -0.173 C  
HETATM   11  H   UNL     1      -6.755   6.947  66.171  1.00  0.00     0.000 HD 
HETATM   12  H   UNL     1      -7.859   7.542  68.788  1.00  0.00     0.000 HD 
HETATM   13  O   UNL     1     -10.385   7.971  66.004  1.00  0.00    -0.282 OA 
HETATM   14  H   UNL     1     -10.422   7.432  65.222  1.00  0.00     0.000 HD 
HETATM   15  C   UNL     1      -7.967   8.372  65.565  1.00  0.00    -0.115 C  
BRANCH   6  16
HETATM   16  O   UNL     1     -10.242  10.787  66.953  1.00  0.00    -0.210 OA 
BRANCH  16  17
HETATM   17  C   UNL     1     -10.873  11.775  67.658  1.00  0.00    -0.217 A  
HETATM   18  C   UNL     1     -11.180  12.939  66.948  1.00  0.00    -0.331 A  
HETATM   19  C   UNL     1     -12.065  13.938  68.953  1.00  0.00    -0.319 A  
HETATM   20  C   UNL     1     -11.767  14.030  67.597  1.00  0.00    -0.412 A  
HETATM   21  C   UNL     1     -11.822  12.762  69.654  1.00  0.00    -0.384 A  
HETATM   22  O   UNL     1     -12.597  14.984  69.644  1.00  0.00    -0.579 OA 
HETATM   23  C   UNL     1     -11.243  11.674  69.000  1.00  0.00    -0.323 A  
HETATM   24  H   UNL     1     -12.799  14.920  70.570  1.00  0.00     0.000 HD 
ENDBRANCH  16  17
ENDBRANCH   6  16
ENDBRANCH   2   4
TORSDOF 3
ENDMDL
MODEL      106
REMARK 921   NORMALIZED FREE ENERGY PREDICTED BY IDOCK:   -4.12 KCAL/MOL
REMARK 922        TOTAL FREE ENERGY PREDICTED BY IDOCK:   -5.26 KCAL/MOL
REMARK 923 INTER-LIGAND FREE ENERGY PREDICTED BY IDOCK:   -4.68 KCAL/MOL
REMARK 924 INTRA-LIGAND FREE ENERGY PREDICTED BY IDOCK:   -0.58 KCAL/MOL
REMARK 927      BINDING AFFINITY PREDICTED BY RF-SCORE:    0.00 PKD
ROOT
HETATM    1  O   UNL     1      -9.686   5.911  68.780  1.00  0.00    -0.124 OA 
HETATM    2  C   UNL     1     -10.378   5.335  69.878  1.00  0.00    -0.304 C  
HETATM    3  H   UNL     1     -10.168   5.799  67.968  1.00  0.00     0.000 HD 
ENDROOT
BRANCH   2   4
HETATM    4  C   UNL     1      -9.600   5.517  71.192  1.00  0.00    -0.162 C  
HETATM    5  O   UNL     1      -9.145   6.872  71.331  1.00  0.00    -0.148 OA 
HETATM    6  C   UNL     1     -10.118   7.821  71.797  1.00  0.00    -0.179 C  
HETATM    7  O   UNL     1      -9.296   4.667  73.448  1.00  0.00    -0.119 OA 
HETATM    8  C   UNL     1     -10.730   7.382  73.146  1.00  0.00    -0.387 C  
HETATM    9  O   UNL     1      -9.724   7.375  74.183  1.00  0.00    -0.398 OA 
HETATM   10  C   UNL     1     -11.326   5.972  73.057  1.00  0.00    -0.141 C  
HETATM   11  H   UNL     1      -9.729   4.336  74.227  1.00  0.00     0.000 HD 
HETATM   12  H   UNL     1     -10.101   7.105  75.013  1.00  0.00     0.000 HD 
HETATM   13  O   UNL     1     -12.579   5.986  72.382  1.00  0.00    -0.507 OA 
HETATM   14  H   UNL     1     -12.949   5.113  72.326  1.00  0.00     0.000 HD 
HETATM   15  C   UNL     1     -10.305   4.977  72.460  1.00  0.00    -0.202 C  
BRANCH   6  16
HETATM   16  O   UNL     1     -11.137   8.068  70.821  1.00  0.00    -0.251 OA 
BRANCH  16  17
HETATM   17  C   UNL     1     -11.009   9.220  70.094  1.00  0.00    -0.246 A  
HETATM   18  C   UNL     1     -12.043  10.151  70.227  1.00  0.00    -0.282 A  
HETATM   19  C   UNL     1     -10.976  11.581  68.610  1.00  0.00    -0.223 A  
HETATM   20  C   UNL     1     -12.036  11.330  69.476  1.00  0.00    -0.421 A  
HETATM   21  C   UNL     1      -9.911  10.692  68.518  1.00  0.00    -0.175 A  
HETATM   22  O   UNL     1     -10.939  12.691  67.823  1.00  0.00    -0.220 OA 
HETATM   23  C   UNL     1      -9.920   9.520  69.276  1.00  0.00    -0.191 A  
HETATM   24  H   UNL     1     -10.214  12.862  67.232  1.00  0.00     0.000 HD 
ENDBRANCH  16  17
ENDBRANCH   6  16
ENDBRANCH   2   4
TORSDOF 3
ENDMDL
MODEL      107
REMARK 921   NORMALIZED FREE ENERGY PREDICTED BY IDOCK:   -4.09 KCAL/MOL
REMARK 922        TOTAL FREE ENERGY PREDICTED BY IDOCK:   -5.23 KCAL/MOL
REMARK 923 INTER-LIGAND FREE ENERGY PREDICTED BY IDOCK:   -4.57 KCAL/MOL
REMARK 924 INTRA-LIGAND FREE ENERGY PREDICTED BY IDOCK:   -0.66 KCAL/MOL
REMARK 927      BINDING AFFINITY PREDICTED BY RF-SCORE:    0.00 PKD
ROOT
HETATM    1  O   UNL     1     -12.398   6.914  70.063  1.00  0.00    -0.619 OA 
HETATM    2  C   UNL     1     -11.233   6.103  70.111  1.00  0.00    -0.382 C  
HETATM    3  H   UNL     1     -12.893   6.764  69.266  1.00  0.00     0.000 HD 
ENDROOT
BRANCH   2   4
HETATM    4  C   UNL     1     -10.432   6.345  71.402  1.00  0.00    -0.218 C  
HETATM    5  O   UNL     1      -9.037   6.522  71.109  1.00  0.00    -0.151 OA 
HETATM    6  C   UNL     1      -8.649   7.826  70.644  1.00  0.00    -0.127 C  
HETATM    7  O   UNL     1     -10.556   7.158  73.688  1.00  0.00    -0.372 OA 
HETATM    8  C   UNL     1      -9.071   8.927  71.643  1.00  0.00    -0.210 C  
HETATM    9  O   UNL     1      -8.365   8.778  72.894  1.00  0.00    -0.414 OA 
HETATM   10  C   UNL     1     -10.574   8.866  71.939  1.00  0.00    -0.349 C  
HETATM   11  H   UNL     1     -10.906   7.828  74.265  1.00  0.00     0.000 HD 
HETATM   12  H   UNL     1      -8.624   9.455  73.509  1.00  0.00     0.000 HD 
HETATM   13  O   UNL     1     -11.332   9.413  70.865  1.00  0.00    -0.270 OA 
HETATM   14  H   UNL     1     -12.263   9.376  71.048  1.00  0.00     0.000 HD 
HETATM   15  C   UNL     1     -11.001   7.436  72.341  1.00  0.00    -0.275 C  
BRANCH   6  16
HETATM   16  O   UNL     1      -9.149   8.098  69.331  1.00  0.00    -0.147 OA 
BRANCH  16  17
HETATM   17  C   UNL     1      -8.466   9.037  68.607  1.00  0.00    -0.128 A  
HETATM   18  C   UNL     1      -9.197  10.159  68.207  1.00  0.00    -0.130 A  
HETATM   19  C   UNL     1      -7.271  11.008  67.037  1.00  0.00    -0.123 A  
HETATM   20  C   UNL     1      -8.604  11.144  67.410  1.00  0.00    -0.137 A  
HETATM   21  C   UNL     1      -6.517   9.929  67.482  1.00  0.00    -0.068 A  
HETATM   22  O   UNL     1      -6.657  11.914  66.227  1.00  0.00    -0.378 OA 
HETATM   23  C   UNL     1      -7.111   8.953  68.284  1.00  0.00    -0.078 A  
HETATM   24  H   UNL     1      -5.746  11.820  65.972  1.00  0.00     0.000 HD 
ENDBRANCH  16  17
ENDBRANCH   6  16
ENDBRANCH   2   4
TORSDOF 3
ENDMDL
MODEL      108
REMARK 921   NORMALIZED FREE ENERGY PREDICTED BY IDOCK:   -4.08 KCAL/MOL
REMARK 922        TOTAL FREE ENERGY PREDICTED BY IDOCK:   -5.22 KCAL/MOL
REMARK 923 INTER-LIGAND FREE ENERGY PREDICTED BY IDOCK:   -4.84 KCAL/MOL
REMARK 924 INTRA-LIGAND FREE ENERGY PREDICTED BY IDOCK:   -0.38 KCAL/MOL
REMARK 927      BINDING AFFINITY PREDICTED BY RF-SCORE:    0.00 PKD
ROOT
HETATM    1  O   UNL     1     -11.309   5.760  66.180  1.00  0.00    -0.711 OA 
HETATM    2  C   UNL     1     -11.093   6.814  67.108  1.00  0.00    -0.333 C  
HETATM    3  H   UNL     1     -12.227   5.684  65.948  1.00  0.00     0.000 HD 
ENDROOT
BRANCH   2   4
HETATM    4  C   UNL     1      -9.607   6.939  67.483  1.00  0.00    -0.128 C  
HETATM    5  O   UNL     1      -9.117   8.256  67.191  1.00  0.00    -0.134 OA 
HETATM    6  C   UNL     1      -9.427   9.275  68.156  1.00  0.00    -0.138 C  
HETATM    7  O   UNL     1      -7.846   6.070  68.915  1.00  0.00    -0.093 OA 
HETATM    8  C   UNL     1      -8.932   8.883  69.566  1.00  0.00    -0.145 C  
HETATM    9  O   UNL     1      -7.490   8.803  69.596  1.00  0.00    -0.068 OA 
HETATM   10  C   UNL     1      -9.490   7.521  69.996  1.00  0.00    -0.161 C  
HETATM   11  H   UNL     1      -7.620   5.772  69.789  1.00  0.00     0.000 HD 
HETATM   12  H   UNL     1      -7.186   8.561  70.463  1.00  0.00     0.000 HD 
HETATM   13  O   UNL     1     -10.852   7.627  70.396  1.00  0.00    -0.236 OA 
HETATM   14  H   UNL     1     -11.198   6.783  70.662  1.00  0.00     0.000 HD 
HETATM   15  C   UNL     1      -9.240   6.453  68.906  1.00  0.00    -0.128 C  
BRANCH   6  16
HETATM   16  O   UNL     1     -10.823   9.596  68.167  1.00  0.00    -0.237 OA 
BRANCH  16  17
HETATM   17  C   UNL     1     -11.165  10.818  67.654  1.00  0.00    -0.299 A  
HETATM   18  C   UNL     1     -10.946  10.995  66.285  1.00  0.00    -0.184 A  
HETATM   19  C   UNL     1     -11.703  13.275  66.450  1.00  0.00    -0.373 A  
HETATM   20  C   UNL     1     -11.204  12.229  65.681  1.00  0.00    -0.375 A  
HETATM   21  C   UNL     1     -11.985  13.090  67.799  1.00  0.00    -0.344 A  
HETATM   22  O   UNL     1     -11.932  14.509  65.923  1.00  0.00    -0.366 OA 
HETATM   23  C   UNL     1     -11.733  11.854  68.396  1.00  0.00    -0.387 A  
HETATM   24  H   UNL     1     -12.273  15.223  66.449  1.00  0.00     0.000 HD 
ENDBRANCH  16  17
ENDBRANCH   6  16
ENDBRANCH   2   4
TORSDOF 3
ENDMDL
MODEL      109
REMARK 921   NORMALIZED FREE ENERGY PREDICTED BY IDOCK:   -4.07 KCAL/MOL
REMARK 922        TOTAL FREE ENERGY PREDICTED BY IDOCK:   -5.20 KCAL/MOL
REMARK 923 INTER-LIGAND FREE ENERGY PREDICTED BY IDOCK:   -4.55 KCAL/MOL
REMARK 924 INTRA-LIGAND FREE ENERGY PREDICTED BY IDOCK:   -0.65 KCAL/MOL
REMARK 927      BINDING AFFINITY PREDICTED BY RF-SCORE:    0.00 PKD
ROOT
HETATM    1  O   UNL     1      -7.281  10.211  67.291  1.00  0.00    -0.088 OA 
HETATM    2  C   UNL     1      -7.871   9.072  67.902  1.00  0.00    -0.101 C  
HETATM    3  H   UNL     1      -7.017  10.028  66.397  1.00  0.00     0.000 HD 
ENDROOT
BRANCH   2   4
HETATM    4  C   UNL     1      -8.299   9.369  69.350  1.00  0.00    -0.125 C  
HETATM    5  O   UNL     1      -8.705  10.738  69.490  1.00  0.00    -0.041 OA 
HETATM    6  C   UNL     1     -10.037  11.052  69.052  1.00  0.00    -0.180 C  
HETATM    7  O   UNL     1      -9.165   8.391  71.399  1.00  0.00    -0.154 OA 
HETATM    8  C   UNL     1     -11.086  10.167  69.764  1.00  0.00    -0.279 C  
HETATM    9  O   UNL     1     -11.110  10.447  71.180  1.00  0.00    -0.257 OA 
HETATM   10  C   UNL     1     -10.775   8.677  69.581  1.00  0.00    -0.200 C  
HETATM   11  H   UNL     1      -9.786   7.776  71.774  1.00  0.00     0.000 HD 
HETATM   12  H   UNL     1     -11.755   9.902  71.618  1.00  0.00     0.000 HD 
HETATM   13  O   UNL     1     -11.140   8.232  68.279  1.00  0.00    -0.429 OA 
HETATM   14  H   UNL     1     -10.947   7.308  68.166  1.00  0.00     0.000 HD 
HETATM   15  C   UNL     1      -9.309   8.368  69.960  1.00  0.00    -0.159 C  
BRANCH   6  16
HETATM   16  O   UNL     1     -10.167  10.966  67.628  1.00  0.00    -0.174 OA 
BRANCH  16  17
HETATM   17  C   UNL     1     -10.235  12.156  66.956  1.00  0.00    -0.207 A  
HETATM   18  C   UNL     1     -10.613  12.084  65.612  1.00  0.00    -0.303 A  
HETATM   19  C   UNL     1     -10.328  14.466  65.396  1.00  0.00    -0.378 A  
HETATM   20  C   UNL     1     -10.649  13.239  64.824  1.00  0.00    -0.402 A  
HETATM   21  C   UNL     1     -10.013  14.557  66.747  1.00  0.00    -0.267 A  
HETATM   22  O   UNL     1     -10.305  15.614  64.665  1.00  0.00    -0.578 OA 
HETATM   23  C   UNL     1      -9.986  13.403  67.531  1.00  0.00    -0.230 A  
HETATM   24  H   UNL     1     -10.085  16.452  65.056  1.00  0.00     0.000 HD 
ENDBRANCH  16  17
ENDBRANCH   6  16
ENDBRANCH   2   4
TORSDOF 3
ENDMDL
MODEL      110
REMARK 921   NORMALIZED FREE ENERGY PREDICTED BY IDOCK:   -4.06 KCAL/MOL
REMARK 922        TOTAL FREE ENERGY PREDICTED BY IDOCK:   -5.19 KCAL/MOL
REMARK 923 INTER-LIGAND FREE ENERGY PREDICTED BY IDOCK:   -4.55 KCAL/MOL
REMARK 924 INTRA-LIGAND FREE ENERGY PREDICTED BY IDOCK:   -0.64 KCAL/MOL
REMARK 927      BINDING AFFINITY PREDICTED BY RF-SCORE:    0.00 PKD
ROOT
HETATM    1  O   UNL     1      -6.611   9.023  69.399  1.00  0.00    -0.044 OA 
HETATM    2  C   UNL     1      -7.526   9.906  70.032  1.00  0.00    -0.168 C  
HETATM    3  H   UNL     1      -5.930   9.500  68.939  1.00  0.00     0.000 HD 
ENDROOT
BRANCH   2   4
HETATM    4  C   UNL     1      -8.629   9.134  70.777  1.00  0.00    -0.219 C  
HETATM    5  O   UNL     1      -9.889   9.814  70.667  1.00  0.00    -0.244 OA 
HETATM    6  C   UNL     1     -10.608   9.618  69.439  1.00  0.00    -0.225 C  
HETATM    7  O   UNL     1      -9.323   6.946  71.574  1.00  0.00    -0.155 OA 
HETATM    8  C   UNL     1     -10.849   8.117  69.162  1.00  0.00    -0.016 C  
HETATM    9  O   UNL     1     -11.715   7.546  70.168  1.00  0.00    -0.489 OA 
HETATM   10  C   UNL     1      -9.534   7.329  69.169  1.00  0.00    -0.148 C  
HETATM   11  H   UNL     1      -9.379   6.019  71.372  1.00  0.00     0.000 HD 
HETATM   12  H   UNL     1     -11.863   6.623  69.997  1.00  0.00     0.000 HD 
HETATM   13  O   UNL     1      -8.806   7.535  67.963  1.00  0.00    -0.128 OA 
HETATM   14  H   UNL     1      -7.990   7.047  67.967  1.00  0.00     0.000 HD 
HETATM   15  C   UNL     1      -8.719   7.625  70.449  1.00  0.00    -0.143 C  
BRANCH   6  16
HETATM   16  O   UNL     1      -9.959  10.252  68.330  1.00  0.00    -0.150 OA 
BRANCH  16  17
HETATM   17  C   UNL     1     -10.664  11.245  67.706  1.00  0.00    -0.220 A  
HETATM   18  C   UNL     1     -10.870  11.085  66.333  1.00  0.00    -0.253 A  
HETATM   19  C   UNL     1     -11.988  13.217  66.244  1.00  0.00    -0.415 A  
HETATM   20  C   UNL     1     -11.523  12.078  65.595  1.00  0.00    -0.372 A  
HETATM   21  C   UNL     1     -11.845  13.356  67.620  1.00  0.00    -0.394 A  
HETATM   22  O   UNL     1     -12.592  14.233  65.568  1.00  0.00    -0.458 OA 
HETATM   23  C   UNL     1     -11.199  12.360  68.353  1.00  0.00    -0.316 A  
HETATM   24  H   UNL     1     -12.909  15.010  66.012  1.00  0.00     0.000 HD 
ENDBRANCH  16  17
ENDBRANCH   6  16
ENDBRANCH   2   4
TORSDOF 3
ENDMDL
MODEL      111
REMARK 921   NORMALIZED FREE ENERGY PREDICTED BY IDOCK:   -4.02 KCAL/MOL
REMARK 922        TOTAL FREE ENERGY PREDICTED BY IDOCK:   -5.15 KCAL/MOL
REMARK 923 INTER-LIGAND FREE ENERGY PREDICTED BY IDOCK:   -4.76 KCAL/MOL
REMARK 924 INTRA-LIGAND FREE ENERGY PREDICTED BY IDOCK:   -0.39 KCAL/MOL
REMARK 927      BINDING AFFINITY PREDICTED BY RF-SCORE:    0.00 PKD
ROOT
HETATM    1  O   UNL     1     -12.867   6.905  72.104  1.00  0.00    -0.529 OA 
HETATM    2  C   UNL     1     -12.059   7.323  71.013  1.00  0.00    -0.324 C  
HETATM    3  H   UNL     1     -13.245   7.647  72.561  1.00  0.00     0.000 HD 
ENDROOT
BRANCH   2   4
HETATM    4  C   UNL     1     -11.446   6.121  70.273  1.00  0.00    -0.287 C  
HETATM    5  O   UNL     1     -11.424   6.354  68.856  1.00  0.00    -0.314 OA 
HETATM    6  C   UNL     1     -10.353   7.177  68.367  1.00  0.00    -0.194 C  
HETATM    7  O   UNL     1      -9.941   4.225  70.479  1.00  0.00    -0.209 OA 
HETATM    8  C   UNL     1      -8.975   6.612  68.780  1.00  0.00    -0.125 C  
HETATM    9  O   UNL     1      -8.742   5.331  68.156  1.00  0.00    -0.103 OA 
HETATM   10  C   UNL     1      -8.882   6.421  70.299  1.00  0.00    -0.151 C  
HETATM   11  H   UNL     1      -9.109   3.917  70.822  1.00  0.00     0.000 HD 
HETATM   12  H   UNL     1      -7.895   4.983  68.411  1.00  0.00     0.000 HD 
HETATM   13  O   UNL     1      -8.680   7.665  70.962  1.00  0.00    -0.134 OA 
HETATM   14  H   UNL     1      -8.623   7.547  71.903  1.00  0.00     0.000 HD 
HETATM   15  C   UNL     1     -10.093   5.619  70.830  1.00  0.00    -0.203 C  
BRANCH   6  16
HETATM   16  O   UNL     1     -10.497   8.542  68.776  1.00  0.00    -0.217 OA 
BRANCH  16  17
HETATM   17  C   UNL     1     -10.231   9.489  67.824  1.00  0.00    -0.216 A  
HETATM   18  C   UNL     1     -10.073  10.799  68.284  1.00  0.00    -0.187 A  
HETATM   19  C   UNL     1      -9.788  11.568  66.020  1.00  0.00    -0.225 A  
HETATM   20  C   UNL     1      -9.862  11.846  67.381  1.00  0.00    -0.192 A  
HETATM   21  C   UNL     1      -9.880  10.261  65.557  1.00  0.00    -0.347 A  
HETATM   22  O   UNL     1      -9.628  12.554  65.094  1.00  0.00    -0.462 OA 
HETATM   23  C   UNL     1     -10.082   9.219  66.463  1.00  0.00    -0.343 A  
HETATM   24  H   UNL     1      -9.577  12.364  64.164  1.00  0.00     0.000 HD 
ENDBRANCH  16  17
ENDBRANCH   6  16
ENDBRANCH   2   4
TORSDOF 3
ENDMDL
MODEL      112
REMARK 921   NORMALIZED FREE ENERGY PREDICTED BY IDOCK:   -3.96 KCAL/MOL
REMARK 922        TOTAL FREE ENERGY PREDICTED BY IDOCK:   -5.07 KCAL/MOL
REMARK 923 INTER-LIGAND FREE ENERGY PREDICTED BY IDOCK:   -4.41 KCAL/MOL
REMARK 924 INTRA-LIGAND FREE ENERGY PREDICTED BY IDOCK:   -0.66 KCAL/MOL
REMARK 927      BINDING AFFINITY PREDICTED BY RF-SCORE:    0.00 PKD
ROOT
HETATM    1  O   UNL     1     -10.855  11.579  66.271  1.00  0.00    -0.272 OA 
HETATM    2  C   UNL     1      -9.474  11.315  66.070  1.00  0.00    -0.216 C  
HETATM    3  H   UNL     1     -11.395  11.086  65.664  1.00  0.00     0.000 HD 
ENDROOT
BRANCH   2   4
HETATM    4  C   UNL     1      -8.600  12.112  67.054  1.00  0.00    -0.191 C  
HETATM    5  O   UNL     1      -9.228  12.193  68.342  1.00  0.00    -0.192 OA 
HETATM    6  C   UNL     1      -9.094  11.038  69.186  1.00  0.00     0.010 C  
HETATM    7  O   UNL     1      -6.328  12.800  67.575  1.00  0.00    -0.142 OA 
HETATM    8  C   UNL     1      -7.609  10.669  69.401  1.00  0.00    -0.134 C  
HETATM    9  O   UNL     1      -6.925  11.713  70.128  1.00  0.00    -0.424 OA 
HETATM   10  C   UNL     1      -6.883  10.470  68.065  1.00  0.00    -0.073 C  
HETATM   11  H   UNL     1      -5.417  12.532  67.619  1.00  0.00     0.000 HD 
HETATM   12  H   UNL     1      -6.012  11.486  70.260  1.00  0.00     0.000 HD 
HETATM   13  O   UNL     1      -7.213   9.213  67.484  1.00  0.00    -0.079 OA 
HETATM   14  H   UNL     1      -6.763   9.090  66.656  1.00  0.00     0.000 HD 
HETATM   15  C   UNL     1      -7.117  11.675  67.125  1.00  0.00    -0.143 C  
BRANCH   6  16
HETATM   16  O   UNL     1      -9.839   9.921  68.688  1.00  0.00    -0.151 OA 
BRANCH  16  17
HETATM   17  C   UNL     1     -10.503   9.174  69.622  1.00  0.00    -0.223 A  
HETATM   18  C   UNL     1     -11.170   9.888  70.622  1.00  0.00    -0.416 A  
HETATM   19  C   UNL     1     -11.825   7.822  71.672  1.00  0.00    -0.287 A  
HETATM   20  C   UNL     1     -11.824   9.213  71.658  1.00  0.00    -0.443 A  
HETATM   21  C   UNL     1     -11.220   7.102  70.649  1.00  0.00    -0.311 A  
HETATM   22  O   UNL     1     -12.409   7.115  72.679  1.00  0.00    -0.485 OA 
HETATM   23  C   UNL     1     -10.576   7.780  69.613  1.00  0.00    -0.242 A  
HETATM   24  H   UNL     1     -12.409   6.165  72.689  1.00  0.00     0.000 HD 
ENDBRANCH  16  17
ENDBRANCH   6  16
ENDBRANCH   2   4
TORSDOF 3
ENDMDL
MODEL      113
REMARK 921   NORMALIZED FREE ENERGY PREDICTED BY IDOCK:   -3.93 KCAL/MOL
REMARK 922        TOTAL FREE ENERGY PREDICTED BY IDOCK:   -5.04 KCAL/MOL
REMARK 923 INTER-LIGAND FREE ENERGY PREDICTED BY IDOCK:   -4.55 KCAL/MOL
REMARK 924 INTRA-LIGAND FREE ENERGY PREDICTED BY IDOCK:   -0.49 KCAL/MOL
REMARK 927      BINDING AFFINITY PREDICTED BY RF-SCORE:    0.00 PKD
ROOT
HETATM    1  O   UNL     1      -7.304  10.044  68.622  1.00  0.00    -0.078 OA 
HETATM    2  C   UNL     1      -8.220  11.003  69.131  1.00  0.00    -0.045 C  
HETATM    3  H   UNL     1      -6.411  10.248  68.876  1.00  0.00     0.000 HD 
ENDROOT
BRANCH   2   4
HETATM    4  C   UNL     1      -9.665  10.673  68.721  1.00  0.00    -0.189 C  
HETATM    5  O   UNL     1     -10.557  11.731  69.105  1.00  0.00    -0.172 OA 
HETATM    6  C   UNL     1     -10.591  12.876  68.236  1.00  0.00    -0.246 C  
HETATM    7  O   UNL     1     -11.046   9.411  67.169  1.00  0.00    -0.275 OA 
HETATM    8  C   UNL     1     -10.929  12.470  66.784  1.00  0.00    -0.265 C  
HETATM    9  O   UNL     1     -12.267  11.931  66.704  1.00  0.00    -0.493 OA 
HETATM   10  C   UNL     1      -9.958  11.404  66.262  1.00  0.00    -0.224 C  
HETATM   11  H   UNL     1     -11.160   9.134  66.267  1.00  0.00     0.000 HD 
HETATM   12  H   UNL     1     -12.474  11.681  65.811  1.00  0.00     0.000 HD 
HETATM   13  O   UNL     1      -8.703  11.979  65.914  1.00  0.00    -0.401 OA 
HETATM   14  H   UNL     1      -8.101  11.318  65.590  1.00  0.00     0.000 HD 
HETATM   15  C   UNL     1      -9.851  10.222  67.253  1.00  0.00    -0.182 C  
BRANCH   6  16
HETATM   16  O   UNL     1      -9.375  13.630  68.295  1.00  0.00    -0.200 OA 
BRANCH  16  17
HETATM   17  C   UNL     1      -9.511  14.989  68.374  1.00  0.00    -0.201 A  
HETATM   18  C   UNL     1      -8.848  15.733  67.394  1.00  0.00    -0.199 A  
HETATM   19  C   UNL     1      -9.586  17.776  68.433  1.00  0.00    -0.323 A  
HETATM   20  C   UNL     1      -8.874  17.131  67.427  1.00  0.00    -0.218 A  
HETATM   21  C   UNL     1     -10.302  17.046  69.375  1.00  0.00    -0.230 A  
HETATM   22  O   UNL     1      -9.609  19.133  68.539  1.00  0.00    -0.348 OA 
HETATM   23  C   UNL     1     -10.279  15.651  69.332  1.00  0.00    -0.261 A  
HETATM   24  H   UNL     1     -10.096  19.574  69.226  1.00  0.00     0.000 HD 
ENDBRANCH  16  17
ENDBRANCH   6  16
ENDBRANCH   2   4
TORSDOF 3
ENDMDL
MODEL      114
REMARK 921   NORMALIZED FREE ENERGY PREDICTED BY IDOCK:   -3.89 KCAL/MOL
REMARK 922        TOTAL FREE ENERGY PREDICTED BY IDOCK:   -4.99 KCAL/MOL
REMARK 923 INTER-LIGAND FREE ENERGY PREDICTED BY IDOCK:   -4.35 KCAL/MOL
REMARK 924 INTRA-LIGAND FREE ENERGY PREDICTED BY IDOCK:   -0.64 KCAL/MOL
REMARK 927      BINDING AFFINITY PREDICTED BY RF-SCORE:    0.00 PKD
ROOT
HETATM    1  O   UNL     1      -8.263   8.837  69.475  1.00  0.00    -0.106 OA 
HETATM    2  C   UNL     1      -8.953   9.186  70.666  1.00  0.00    -0.244 C  
HETATM    3  H   UNL     1      -7.322   8.837  69.606  1.00  0.00     0.000 HD 
ENDROOT
BRANCH   2   4
HETATM    4  C   UNL     1     -10.477   9.187  70.454  1.00  0.00    -0.223 C  
HETATM    5  O   UNL     1     -10.867   8.128  69.566  1.00  0.00    -0.213 OA 
HETATM    6  C   UNL     1     -10.967   6.818  70.148  1.00  0.00    -0.292 C  
HETATM    7  O   UNL     1     -12.612   9.819  71.427  1.00  0.00    -0.332 OA 
HETATM    8  C   UNL     1     -11.933   6.810  71.353  1.00  0.00    -0.355 C  
HETATM    9  O   UNL     1     -13.281   7.106  70.928  1.00  0.00    -0.573 OA 
HETATM   10  C   UNL     1     -11.528   7.855  72.400  1.00  0.00    -0.376 C  
HETATM   11  H   UNL     1     -13.133   9.853  72.222  1.00  0.00     0.000 HD 
HETATM   12  H   UNL     1     -13.875   7.102  71.670  1.00  0.00     0.000 HD 
HETATM   13  O   UNL     1     -10.413   7.410  73.166  1.00  0.00    -0.283 OA 
HETATM   14  H   UNL     1     -10.162   8.058  73.814  1.00  0.00     0.000 HD 
HETATM   15  C   UNL     1     -11.325   9.242  71.747  1.00  0.00    -0.367 C  
BRANCH   6  16
HETATM   16  O   UNL     1      -9.684   6.293  70.507  1.00  0.00    -0.170 OA 
BRANCH  16  17
HETATM   17  C   UNL     1      -9.142   5.380  69.643  1.00  0.00    -0.116 A  
HETATM   18  C   UNL     1      -9.885   4.215  69.431  1.00  0.00    -0.163 A  
HETATM   19  C   UNL     1      -8.149   3.360  67.997  1.00  0.00    -0.078 A  
HETATM   20  C   UNL     1      -9.384   3.195  68.616  1.00  0.00    -0.236 A  
HETATM   21  C   UNL     1      -7.431   4.541  68.151  1.00  0.00    -0.065 A  
HETATM   22  O   UNL     1      -7.594   2.383  67.228  1.00  0.00    -0.060 OA 
HETATM   23  C   UNL     1      -7.939   5.559  68.959  1.00  0.00    -0.095 A  
HETATM   24  H   UNL     1      -6.751   2.496  66.806  1.00  0.00     0.000 HD 
ENDBRANCH  16  17
ENDBRANCH   6  16
ENDBRANCH   2   4
TORSDOF 3
ENDMDL
MODEL      115
REMARK 921   NORMALIZED FREE ENERGY PREDICTED BY IDOCK:   -3.86 KCAL/MOL
REMARK 922        TOTAL FREE ENERGY PREDICTED BY IDOCK:   -4.96 KCAL/MOL
REMARK 923 INTER-LIGAND FREE ENERGY PREDICTED BY IDOCK:   -4.25 KCAL/MOL
REMARK 924 INTRA-LIGAND FREE ENERGY PREDICTED BY IDOCK:   -0.71 KCAL/MOL
REMARK 927      BINDING AFFINITY PREDICTED BY RF-SCORE:    0.00 PKD
ROOT
HETATM    1  O   UNL     1      -9.091   8.240  73.042  1.00  0.00    -0.254 OA 
HETATM    2  C   UNL     1     -10.382   8.561  72.544  1.00  0.00    -0.244 C  
HETATM    3  H   UNL     1      -8.742   8.941  73.580  1.00  0.00     0.000 HD 
ENDROOT
BRANCH   2   4
HETATM    4  C   UNL     1     -10.948   7.426  71.674  1.00  0.00    -0.225 C  
HETATM    5  O   UNL     1     -11.734   7.955  70.596  1.00  0.00    -0.256 OA 
HETATM    6  C   UNL     1     -11.003   8.439  69.457  1.00  0.00    -0.040 C  
HETATM    7  O   UNL     1     -10.617   5.128  70.954  1.00  0.00    -0.216 OA 
HETATM    8  C   UNL     1     -10.075   7.347  68.880  1.00  0.00    -0.186 C  
HETATM    9  O   UNL     1     -10.848   6.246  68.355  1.00  0.00    -0.263 OA 
HETATM   10  C   UNL     1      -9.131   6.791  69.953  1.00  0.00    -0.144 C  
HETATM   11  H   UNL     1      -9.984   4.478  70.671  1.00  0.00     0.000 HD 
HETATM   12  H   UNL     1     -10.278   5.574  68.000  1.00  0.00     0.000 HD 
HETATM   13  O   UNL     1      -8.064   7.696  70.217  1.00  0.00    -0.110 OA 
HETATM   14  H   UNL     1      -7.479   7.352  70.882  1.00  0.00     0.000 HD 
HETATM   15  C   UNL     1      -9.917   6.366  71.214  1.00  0.00    -0.182 C  
BRANCH   6  16
HETATM   16  O   UNL     1     -10.273   9.634  69.757  1.00  0.00    -0.205 OA 
BRANCH  16  17
HETATM   17  C   UNL     1     -10.142  10.534  68.734  1.00  0.00    -0.191 A  
HETATM   18  C   UNL     1      -8.856  11.037  68.516  1.00  0.00    -0.159 A  
HETATM   19  C   UNL     1      -9.699  12.456  66.763  1.00  0.00    -0.223 A  
HETATM   20  C   UNL     1      -8.633  12.009  67.536  1.00  0.00    -0.167 A  
HETATM   21  C   UNL     1     -10.970  11.916  66.928  1.00  0.00    -0.335 A  
HETATM   22  O   UNL     1      -9.547  13.431  65.825  1.00  0.00    -0.462 OA 
HETATM   23  C   UNL     1     -11.186  10.940  67.902  1.00  0.00    -0.387 A  
HETATM   24  H   UNL     1     -10.276  13.736  65.297  1.00  0.00     0.000 HD 
ENDBRANCH  16  17
ENDBRANCH   6  16
ENDBRANCH   2   4
TORSDOF 3
ENDMDL
MODEL      116
REMARK 921   NORMALIZED FREE ENERGY PREDICTED BY IDOCK:   -3.85 KCAL/MOL
REMARK 922        TOTAL FREE ENERGY PREDICTED BY IDOCK:   -4.95 KCAL/MOL
REMARK 923 INTER-LIGAND FREE ENERGY PREDICTED BY IDOCK:   -4.31 KCAL/MOL
REMARK 924 INTRA-LIGAND FREE ENERGY PREDICTED BY IDOCK:   -0.65 KCAL/MOL
REMARK 927      BINDING AFFINITY PREDICTED BY RF-SCORE:    0.00 PKD
ROOT
HETATM    1  O   UNL     1     -12.578   7.054  70.303  1.00  0.00    -0.603 OA 
HETATM    2  C   UNL     1     -12.080   7.408  71.585  1.00  0.00    -0.317 C  
HETATM    3  H   UNL     1     -13.108   7.749  69.931  1.00  0.00     0.000 HD 
ENDROOT
BRANCH   2   4
HETATM    4  C   UNL     1     -11.221   6.282  72.186  1.00  0.00    -0.282 C  
HETATM    5  O   UNL     1     -10.316   5.754  71.205  1.00  0.00    -0.208 OA 
HETATM    6  C   UNL     1      -9.121   6.516  70.971  1.00  0.00    -0.150 C  
HETATM    7  O   UNL     1     -10.288   5.386  74.243  1.00  0.00    -0.249 OA 
HETATM    8  C   UNL     1      -8.330   6.737  72.279  1.00  0.00    -0.106 C  
HETATM    9  O   UNL     1      -7.845   5.481  72.801  1.00  0.00    -0.097 OA 
HETATM   10  C   UNL     1      -9.204   7.390  73.357  1.00  0.00    -0.201 C  
HETATM   11  H   UNL     1      -9.866   5.593  75.069  1.00  0.00     0.000 HD 
HETATM   12  H   UNL     1      -7.359   5.617  73.606  1.00  0.00     0.000 HD 
HETATM   13  O   UNL     1      -9.373   8.781  73.108  1.00  0.00    -0.148 OA 
HETATM   14  H   UNL     1      -9.915   9.186  73.775  1.00  0.00     0.000 HD 
HETATM   15  C   UNL     1     -10.533   6.620  73.531  1.00  0.00    -0.313 C  
BRANCH   6  16
HETATM   16  O   UNL     1      -9.398   7.759  70.315  1.00  0.00    -0.156 OA 
BRANCH  16  17
HETATM   17  C   UNL     1      -9.110   7.813  68.978  1.00  0.00    -0.144 A  
HETATM   18  C   UNL     1     -10.120   8.312  68.151  1.00  0.00    -0.238 A  
HETATM   19  C   UNL     1      -8.747   7.901  66.215  1.00  0.00    -0.154 A  
HETATM   20  C   UNL     1      -9.945   8.347  66.763  1.00  0.00    -0.354 A  
HETATM   21  C   UNL     1      -7.713   7.462  67.033  1.00  0.00    -0.111 A  
HETATM   22  O   UNL     1      -8.540   7.873  64.869  1.00  0.00    -0.351 OA 
HETATM   23  C   UNL     1      -7.889   7.437  68.417  1.00  0.00    -0.122 A  
HETATM   24  H   UNL     1      -7.721   7.568  64.495  1.00  0.00     0.000 HD 
ENDBRANCH  16  17
ENDBRANCH   6  16
ENDBRANCH   2   4
TORSDOF 3
ENDMDL
MODEL      117
REMARK 921   NORMALIZED FREE ENERGY PREDICTED BY IDOCK:   -3.79 KCAL/MOL
REMARK 922        TOTAL FREE ENERGY PREDICTED BY IDOCK:   -4.87 KCAL/MOL
REMARK 923 INTER-LIGAND FREE ENERGY PREDICTED BY IDOCK:   -4.18 KCAL/MOL
REMARK 924 INTRA-LIGAND FREE ENERGY PREDICTED BY IDOCK:   -0.69 KCAL/MOL
REMARK 927      BINDING AFFINITY PREDICTED BY RF-SCORE:    0.00 PKD
ROOT
HETATM    1  O   UNL     1     -10.476   7.835  73.103  1.00  0.00    -0.339 OA 
HETATM    2  C   UNL     1     -10.688   7.743  71.702  1.00  0.00    -0.220 C  
HETATM    3  H   UNL     1     -11.137   8.376  73.520  1.00  0.00     0.000 HD 
ENDROOT
BRANCH   2   4
HETATM    4  C   UNL     1      -9.618   6.867  71.027  1.00  0.00    -0.170 C  
HETATM    5  O   UNL     1      -9.403   7.282  69.670  1.00  0.00    -0.153 OA 
HETATM    6  C   UNL     1      -8.554   8.427  69.485  1.00  0.00    -0.129 C  
HETATM    7  O   UNL     1      -7.681   5.452  71.418  1.00  0.00    -0.101 OA 
HETATM    8  C   UNL     1      -7.173   8.216  70.145  1.00  0.00    -0.056 C  
HETATM    9  O   UNL     1      -6.457   7.143  69.495  1.00  0.00    -0.038 OA 
HETATM   10  C   UNL     1      -7.312   7.859  71.630  1.00  0.00    -0.070 C  
HETATM   11  H   UNL     1      -6.874   5.344  71.909  1.00  0.00     0.000 HD 
HETATM   12  H   UNL     1      -5.607   7.013  69.901  1.00  0.00     0.000 HD 
HETATM   13  O   UNL     1      -7.617   9.011  72.409  1.00  0.00    -0.342 OA 
HETATM   14  H   UNL     1      -7.704   8.791  73.329  1.00  0.00     0.000 HD 
HETATM   15  C   UNL     1      -8.305   6.691  71.827  1.00  0.00    -0.111 C  
BRANCH   6  16
HETATM   16  O   UNL     1      -9.173   9.632  69.950  1.00  0.00    -0.198 OA 
BRANCH  16  17
HETATM   17  C   UNL     1      -9.964  10.291  69.049  1.00  0.00    -0.213 A  
HETATM   18  C   UNL     1      -9.493  10.339  67.734  1.00  0.00    -0.163 A  
HETATM   19  C   UNL     1     -11.390  11.679  67.095  1.00  0.00    -0.306 A  
HETATM   20  C   UNL     1     -10.199  11.045  66.755  1.00  0.00    -0.272 A  
HETATM   21  C   UNL     1     -11.900  11.584  68.385  1.00  0.00    -0.353 A  
HETATM   22  O   UNL     1     -12.095  12.414  66.192  1.00  0.00    -0.611 OA 
HETATM   23  C   UNL     1     -11.195  10.872  69.357  1.00  0.00    -0.335 A  
HETATM   24  H   UNL     1     -12.908  12.848  66.425  1.00  0.00     0.000 HD 
ENDBRANCH  16  17
ENDBRANCH   6  16
ENDBRANCH   2   4
TORSDOF 3
ENDMDL
MODEL      118
REMARK 921   NORMALIZED FREE ENERGY PREDICTED BY IDOCK:   -3.78 KCAL/MOL
REMARK 922        TOTAL FREE ENERGY PREDICTED BY IDOCK:   -4.86 KCAL/MOL
REMARK 923 INTER-LIGAND FREE ENERGY PREDICTED BY IDOCK:   -4.27 KCAL/MOL
REMARK 924 INTRA-LIGAND FREE ENERGY PREDICTED BY IDOCK:   -0.60 KCAL/MOL
REMARK 927      BINDING AFFINITY PREDICTED BY RF-SCORE:    0.00 PKD
ROOT
HETATM    1  O   UNL     1     -11.528   6.014  69.672  1.00  0.00    -0.394 OA 
HETATM    2  C   UNL     1     -10.183   5.795  69.271  1.00  0.00    -0.226 C  
HETATM    3  H   UNL     1     -12.137   5.540  69.117  1.00  0.00     0.000 HD 
ENDROOT
BRANCH   2   4
HETATM    4  C   UNL     1      -9.197   6.562  70.169  1.00  0.00    -0.158 C  
HETATM    5  O   UNL     1      -8.240   7.281  69.375  1.00  0.00    -0.127 OA 
HETATM    6  C   UNL     1      -8.686   8.533  68.828  1.00  0.00    -0.139 C  
HETATM    7  O   UNL     1      -8.888   7.585  72.351  1.00  0.00    -0.120 OA 
HETATM    8  C   UNL     1      -9.197   9.481  69.937  1.00  0.00    -0.220 C  
HETATM    9  O   UNL     1      -8.121   9.852  70.826  1.00  0.00    -0.396 OA 
HETATM   10  C   UNL     1     -10.295   8.817  70.776  1.00  0.00    -0.213 C  
HETATM   11  H   UNL     1      -9.286   8.116  73.032  1.00  0.00     0.000 HD 
HETATM   12  H   UNL     1      -8.435  10.435  71.507  1.00  0.00     0.000 HD 
HETATM   13  O   UNL     1     -11.537   8.804  70.080  1.00  0.00    -0.458 OA 
HETATM   14  H   UNL     1     -12.217   8.392  70.600  1.00  0.00     0.000 HD 
HETATM   15  C   UNL     1      -9.843   7.426  71.277  1.00  0.00    -0.176 C  
BRANCH   6  16
HETATM   16  O   UNL     1      -9.673   8.351  67.807  1.00  0.00    -0.152 OA 
BRANCH  16  17
HETATM   17  C   UNL     1      -9.259   8.572  66.521  1.00  0.00    -0.190 A  
HETATM   18  C   UNL     1      -9.810   9.684  65.879  1.00  0.00    -0.358 A  
HETATM   19  C   UNL     1      -8.614   9.123  63.865  1.00  0.00    -0.170 A  
HETATM   20  C   UNL     1      -9.498   9.957  64.543  1.00  0.00    -0.328 A  
HETATM   21  C   UNL     1      -8.011   8.052  64.513  1.00  0.00    -0.151 A  
HETATM   22  O   UNL     1      -8.309   9.317  62.552  1.00  0.00    -0.156 OA 
HETATM   23  C   UNL     1      -8.320   7.789  65.848  1.00  0.00    -0.135 A  
HETATM   24  H   UNL     1      -7.705   8.747  62.089  1.00  0.00     0.000 HD 
ENDBRANCH  16  17
ENDBRANCH   6  16
ENDBRANCH   2   4
TORSDOF 3
ENDMDL
MODEL      119
REMARK 921   NORMALIZED FREE ENERGY PREDICTED BY IDOCK:   -3.76 KCAL/MOL
REMARK 922        TOTAL FREE ENERGY PREDICTED BY IDOCK:   -4.84 KCAL/MOL
REMARK 923 INTER-LIGAND FREE ENERGY PREDICTED BY IDOCK:   -4.18 KCAL/MOL
REMARK 924 INTRA-LIGAND FREE ENERGY PREDICTED BY IDOCK:   -0.66 KCAL/MOL
REMARK 927      BINDING AFFINITY PREDICTED BY RF-SCORE:    0.00 PKD
ROOT
HETATM    1  O   UNL     1      -9.690   7.059  70.425  1.00  0.00    -0.176 OA 
HETATM    2  C   UNL     1     -10.733   7.497  69.566  1.00  0.00    -0.217 C  
HETATM    3  H   UNL     1      -9.828   7.356  71.318  1.00  0.00     0.000 HD 
ENDROOT
BRANCH   2   4
HETATM    4  C   UNL     1     -10.511   7.016  68.122  1.00  0.00    -0.201 C  
HETATM    5  O   UNL     1     -11.012   7.979  67.183  1.00  0.00    -0.191 OA 
HETATM    6  C   UNL     1     -10.162   9.107  66.918  1.00  0.00    -0.266 C  
HETATM    7  O   UNL     1      -9.145   5.605  66.691  1.00  0.00    -0.123 OA 
HETATM    8  C   UNL     1      -8.763   8.656  66.440  1.00  0.00    -0.130 C  
HETATM    9  O   UNL     1      -8.854   7.981  65.166  1.00  0.00    -0.375 OA 
HETATM   10  C   UNL     1      -8.115   7.692  67.440  1.00  0.00    -0.119 C  
HETATM   11  H   UNL     1      -8.263   5.310  66.491  1.00  0.00     0.000 HD 
HETATM   12  H   UNL     1      -7.993   7.703  64.872  1.00  0.00     0.000 HD 
HETATM   13  O   UNL     1      -7.610   8.390  68.573  1.00  0.00    -0.092 OA 
HETATM   14  H   UNL     1      -7.208   7.793  69.194  1.00  0.00     0.000 HD 
HETATM   15  C   UNL     1      -9.077   6.535  67.796  1.00  0.00    -0.112 C  
BRANCH   6  16
HETATM   16  O   UNL     1     -10.067   9.983  68.047  1.00  0.00    -0.156 OA 
BRANCH  16  17
HETATM   17  C   UNL     1     -10.310  11.307  67.805  1.00  0.00    -0.182 A  
HETATM   18  C   UNL     1     -11.515  11.606  67.162  1.00  0.00    -0.344 A  
HETATM   19  C   UNL     1     -10.931  13.942  67.134  1.00  0.00    -0.291 A  
HETATM   20  C   UNL     1     -11.824  12.924  66.814  1.00  0.00    -0.452 A  
HETATM   21  C   UNL     1      -9.760  13.664  67.829  1.00  0.00    -0.225 A  
HETATM   22  O   UNL     1     -11.161  15.237  66.781  1.00  0.00    -0.317 OA 
HETATM   23  C   UNL     1      -9.460  12.348  68.181  1.00  0.00    -0.214 A  
HETATM   24  H   UNL     1     -10.551  15.931  67.000  1.00  0.00     0.000 HD 
ENDBRANCH  16  17
ENDBRANCH   6  16
ENDBRANCH   2   4
TORSDOF 3
ENDMDL
MODEL      120
REMARK 921   NORMALIZED FREE ENERGY PREDICTED BY IDOCK:   -3.76 KCAL/MOL
REMARK 922        TOTAL FREE ENERGY PREDICTED BY IDOCK:   -4.84 KCAL/MOL
REMARK 923 INTER-LIGAND FREE ENERGY PREDICTED BY IDOCK:   -4.58 KCAL/MOL
REMARK 924 INTRA-LIGAND FREE ENERGY PREDICTED BY IDOCK:   -0.27 KCAL/MOL
REMARK 927      BINDING AFFINITY PREDICTED BY RF-SCORE:    0.00 PKD
ROOT
HETATM    1  O   UNL     1      -9.984   9.368  71.059  1.00  0.00    -0.285 OA 
HETATM    2  C   UNL     1      -9.615   9.044  69.727  1.00  0.00    -0.175 C  
HETATM    3  H   UNL     1     -10.346   8.615  71.513  1.00  0.00     0.000 HD 
ENDROOT
BRANCH   2   4
HETATM    4  C   UNL     1      -9.030  10.263  68.993  1.00  0.00    -0.172 C  
HETATM    5  O   UNL     1      -8.602   9.903  67.670  1.00  0.00    -0.121 OA 
HETATM    6  C   UNL     1      -9.633   9.820  66.672  1.00  0.00    -0.187 C  
HETATM    7  O   UNL     1      -9.044  12.689  68.857  1.00  0.00    -0.384 OA 
HETATM    8  C   UNL     1     -10.428  11.142  66.574  1.00  0.00    -0.255 C  
HETATM    9  O   UNL     1      -9.578  12.214  66.110  1.00  0.00    -0.236 OA 
HETATM   10  C   UNL     1     -11.002  11.551  67.936  1.00  0.00    -0.233 C  
HETATM   11  H   UNL     1      -9.581  13.473  68.876  1.00  0.00     0.000 HD 
HETATM   12  H   UNL     1     -10.067  13.027  66.050  1.00  0.00     0.000 HD 
HETATM   13  O   UNL     1     -12.148  10.772  68.265  1.00  0.00    -0.805 OA 
HETATM   14  H   UNL     1     -12.504  11.025  69.109  1.00  0.00     0.000 HD 
HETATM   15  C   UNL     1      -9.904  11.539  69.025  1.00  0.00     0.007 C  
BRANCH   6  16
HETATM   16  O   UNL     1     -10.505   8.706  66.894  1.00  0.00    -0.294 OA 
BRANCH  16  17
HETATM   17  C   UNL     1     -10.000   7.473  66.582  1.00  0.00    -0.200 A  
HETATM   18  C   UNL     1     -10.792   6.376  66.931  1.00  0.00    -0.428 A  
HETATM   19  C   UNL     1      -9.089   4.878  66.121  1.00  0.00    -0.135 A  
HETATM   20  C   UNL     1     -10.333   5.073  66.712  1.00  0.00    -0.290 A  
HETATM   21  C   UNL     1      -8.321   5.962  65.713  1.00  0.00    -0.140 A  
HETATM   22  O   UNL     1      -8.575   3.632  65.924  1.00  0.00    -0.109 OA 
HETATM   23  C   UNL     1      -8.787   7.260  65.926  1.00  0.00    -0.136 A  
HETATM   24  H   UNL     1      -7.725   3.500  65.521  1.00  0.00     0.000 HD 
ENDBRANCH  16  17
ENDBRANCH   6  16
ENDBRANCH   2   4
TORSDOF 3
ENDMDL
MODEL      121
REMARK 921   NORMALIZED FREE ENERGY PREDICTED BY IDOCK:   -3.75 KCAL/MOL
REMARK 922        TOTAL FREE ENERGY PREDICTED BY IDOCK:   -4.83 KCAL/MOL
REMARK 923 INTER-LIGAND FREE ENERGY PREDICTED BY IDOCK:   -4.26 KCAL/MOL
REMARK 924 INTRA-LIGAND FREE ENERGY PREDICTED BY IDOCK:   -0.57 KCAL/MOL
REMARK 927      BINDING AFFINITY PREDICTED BY RF-SCORE:    0.00 PKD
ROOT
HETATM    1  O   UNL     1      -9.908   6.865  66.226  1.00  0.00    -0.390 OA 
HETATM    2  C   UNL     1      -8.781   7.625  65.818  1.00  0.00    -0.125 C  
HETATM    3  H   UNL     1      -9.652   6.004  66.539  1.00  0.00     0.000 HD 
ENDROOT
BRANCH   2   4
HETATM    4  C   UNL     1      -9.195   9.018  65.311  1.00  0.00    -0.140 C  
HETATM    5  O   UNL     1      -9.984   9.703  66.295  1.00  0.00    -0.237 OA 
HETATM    6  C   UNL     1      -9.258  10.328  67.366  1.00  0.00    -0.141 C  
HETATM    7  O   UNL     1      -8.608  10.834  63.807  1.00  0.00    -0.298 OA 
HETATM    8  C   UNL     1      -8.203  11.320  66.826  1.00  0.00    -0.158 C  
HETATM    9  O   UNL     1      -8.841  12.423  66.147  1.00  0.00    -0.414 OA 
HETATM   10  C   UNL     1      -7.254  10.639  65.833  1.00  0.00    -0.119 C  
HETATM   11  H   UNL     1      -7.903  11.366  63.456  1.00  0.00     0.000 HD 
HETATM   12  H   UNL     1      -8.192  13.032  65.814  1.00  0.00     0.000 HD 
HETATM   13  O   UNL     1      -6.294   9.833  66.508  1.00  0.00    -0.067 OA 
HETATM   14  H   UNL     1      -5.706   9.411  65.893  1.00  0.00     0.000 HD 
HETATM   15  C   UNL     1      -8.046   9.884  64.741  1.00  0.00    -0.151 C  
BRANCH   6  16
HETATM   16  O   UNL     1      -8.664   9.366  68.244  1.00  0.00    -0.124 OA 
BRANCH  16  17
HETATM   17  C   UNL     1      -9.428   8.965  69.306  1.00  0.00    -0.161 A  
HETATM   18  C   UNL     1     -10.343   9.901  69.795  1.00  0.00    -0.278 A  
HETATM   19  C   UNL     1     -10.999   8.366  71.531  1.00  0.00    -0.262 A  
HETATM   20  C   UNL     1     -11.124   9.609  70.918  1.00  0.00    -0.422 A  
HETATM   21  C   UNL     1     -10.139   7.404  71.015  1.00  0.00    -0.191 A  
HETATM   22  O   UNL     1     -11.703   8.044  72.651  1.00  0.00    -0.430 OA 
HETATM   23  C   UNL     1      -9.368   7.699  69.889  1.00  0.00    -0.150 A  
HETATM   24  H   UNL     1     -11.617   7.195  73.070  1.00  0.00     0.000 HD 
ENDBRANCH  16  17
ENDBRANCH   6  16
ENDBRANCH   2   4
TORSDOF 3
ENDMDL
MODEL      122
REMARK 921   NORMALIZED FREE ENERGY PREDICTED BY IDOCK:   -3.70 KCAL/MOL
REMARK 922        TOTAL FREE ENERGY PREDICTED BY IDOCK:   -4.77 KCAL/MOL
REMARK 923 INTER-LIGAND FREE ENERGY PREDICTED BY IDOCK:   -4.22 KCAL/MOL
REMARK 924 INTRA-LIGAND FREE ENERGY PREDICTED BY IDOCK:   -0.55 KCAL/MOL
REMARK 927      BINDING AFFINITY PREDICTED BY RF-SCORE:    0.00 PKD
ROOT
HETATM    1  O   UNL     1      -9.021  12.858  67.873  1.00  0.00    -0.176 OA 
HETATM    2  C   UNL     1      -7.829  12.726  67.113  1.00  0.00    -0.092 C  
HETATM    3  H   UNL     1      -9.785  12.608  67.366  1.00  0.00     0.000 HD 
ENDROOT
BRANCH   2   4
HETATM    4  C   UNL     1      -6.591  13.130  67.933  1.00  0.00    -0.137 C  
HETATM    5  O   UNL     1      -5.930  14.256  67.335  1.00  0.00    -0.346 OA 
HETATM    6  C   UNL     1      -6.507  15.544  67.604  1.00  0.00    -0.168 C  
HETATM    7  O   UNL     1      -5.575  13.085  70.140  1.00  0.00    -0.109 OA 
HETATM    8  C   UNL     1      -6.614  15.806  69.123  1.00  0.00    -0.148 C  
HETATM    9  O   UNL     1      -5.302  15.879  69.722  1.00  0.00    -0.112 OA 
HETATM   10  C   UNL     1      -7.394  14.689  69.828  1.00  0.00    -0.014 C  
HETATM   11  H   UNL     1      -5.722  13.188  71.073  1.00  0.00     0.000 HD 
HETATM   12  H   UNL     1      -5.369  16.039  70.656  1.00  0.00     0.000 HD 
HETATM   13  O   UNL     1      -8.794  14.821  69.607  1.00  0.00    -0.422 OA 
HETATM   14  H   UNL     1      -9.277  14.128  70.043  1.00  0.00     0.000 HD 
HETATM   15  C   UNL     1      -6.829  13.299  69.452  1.00  0.00     0.023 C  
BRANCH   6  16
HETATM   16  O   UNL     1      -7.774  15.710  66.958  1.00  0.00    -0.205 OA 
BRANCH  16  17
HETATM   17  C   UNL     1      -8.208  16.999  66.804  1.00  0.00    -0.238 A  
HETATM   18  C   UNL     1      -9.454  17.300  67.363  1.00  0.00    -0.245 A  
HETATM   19  C   UNL     1      -9.306  19.544  66.501  1.00  0.00    -0.370 A  
HETATM   20  C   UNL     1     -10.013  18.572  67.203  1.00  0.00    -0.357 A  
HETATM   21  C   UNL     1      -8.040  19.274  65.996  1.00  0.00    -0.234 A  
HETATM   22  O   UNL     1      -9.821  20.785  66.279  1.00  0.00    -0.566 OA 
HETATM   23  C   UNL     1      -7.483  18.006  66.166  1.00  0.00    -0.305 A  
HETATM   24  H   UNL     1      -9.338  21.449  65.799  1.00  0.00     0.000 HD 
ENDBRANCH  16  17
ENDBRANCH   6  16
ENDBRANCH   2   4
TORSDOF 3
ENDMDL
MODEL      123
REMARK 921   NORMALIZED FREE ENERGY PREDICTED BY IDOCK:   -3.70 KCAL/MOL
REMARK 922        TOTAL FREE ENERGY PREDICTED BY IDOCK:   -4.76 KCAL/MOL
REMARK 923 INTER-LIGAND FREE ENERGY PREDICTED BY IDOCK:   -4.18 KCAL/MOL
REMARK 924 INTRA-LIGAND FREE ENERGY PREDICTED BY IDOCK:   -0.58 KCAL/MOL
REMARK 927      BINDING AFFINITY PREDICTED BY RF-SCORE:    0.00 PKD
ROOT
HETATM    1  O   UNL     1      -8.906  10.580  69.922  1.00  0.00    -0.377 OA 
HETATM    2  C   UNL     1      -7.834  10.001  69.193  1.00  0.00    -0.112 C  
HETATM    3  H   UNL     1      -8.857  10.361  70.846  1.00  0.00     0.000 HD 
ENDROOT
BRANCH   2   4
HETATM    4  C   UNL     1      -7.914  10.355  67.698  1.00  0.00    -0.106 C  
HETATM    5  O   UNL     1      -7.641   9.202  66.887  1.00  0.00    -0.090 OA 
HETATM    6  C   UNL     1      -8.730   8.281  66.708  1.00  0.00    -0.133 C  
HETATM    7  O   UNL     1      -8.887  11.875  66.071  1.00  0.00    -0.367 OA 
HETATM    8  C   UNL     1      -9.975   8.989  66.128  1.00  0.00    -0.241 C  
HETATM    9  O   UNL     1      -9.709   9.477  64.795  1.00  0.00    -0.441 OA 
HETATM   10  C   UNL     1     -10.392  10.184  66.994  1.00  0.00    -0.244 C  
HETATM   11  H   UNL     1      -9.670  12.344  65.805  1.00  0.00     0.000 HD 
HETATM   12  H   UNL     1     -10.474   9.913  64.439  1.00  0.00     0.000 HD 
HETATM   13  O   UNL     1     -11.065   9.755  68.173  1.00  0.00    -0.462 OA 
HETATM   14  H   UNL     1     -11.323  10.495  68.710  1.00  0.00     0.000 HD 
HETATM   15  C   UNL     1      -9.189  11.117  67.265  1.00  0.00    -0.160 C  
BRANCH   6  16
HETATM   16  O   UNL     1      -9.047   7.584  67.919  1.00  0.00    -0.131 OA 
BRANCH  16  17
HETATM   17  C   UNL     1      -9.110   6.220  67.830  1.00  0.00    -0.111 A  
HETATM   18  C   UNL     1      -8.805   5.668  66.583  1.00  0.00    -0.119 A  
HETATM   19  C   UNL     1      -9.286   3.466  67.431  1.00  0.00    -0.203 A  
HETATM   20  C   UNL     1      -8.904   4.289  66.376  1.00  0.00    -0.116 A  
HETATM   21  C   UNL     1      -9.529   3.997  68.692  1.00  0.00    -0.220 A  
HETATM   22  O   UNL     1      -9.440   2.122  67.273  1.00  0.00    -0.373 OA 
HETATM   23  C   UNL     1      -9.422   5.374  68.895  1.00  0.00    -0.174 A  
HETATM   24  H   UNL     1      -9.701   1.561  67.994  1.00  0.00     0.000 HD 
ENDBRANCH  16  17
ENDBRANCH   6  16
ENDBRANCH   2   4
TORSDOF 3
ENDMDL
MODEL      124
REMARK 921   NORMALIZED FREE ENERGY PREDICTED BY IDOCK:   -3.65 KCAL/MOL
REMARK 922        TOTAL FREE ENERGY PREDICTED BY IDOCK:   -4.71 KCAL/MOL
REMARK 923 INTER-LIGAND FREE ENERGY PREDICTED BY IDOCK:   -4.03 KCAL/MOL
REMARK 924 INTRA-LIGAND FREE ENERGY PREDICTED BY IDOCK:   -0.68 KCAL/MOL
REMARK 927      BINDING AFFINITY PREDICTED BY RF-SCORE:    0.00 PKD
ROOT
HETATM    1  O   UNL     1      -9.792   9.106  68.886  1.00  0.00    -0.166 OA 
HETATM    2  C   UNL     1     -10.657   9.532  67.843  1.00  0.00    -0.244 C  
HETATM    3  H   UNL     1     -10.143   9.329  69.740  1.00  0.00     0.000 HD 
ENDROOT
BRANCH   2   4
HETATM    4  C   UNL     1     -10.090   9.171  66.459  1.00  0.00    -0.287 C  
HETATM    5  O   UNL     1     -10.363  10.214  65.510  1.00  0.00    -0.248 OA 
HETATM    6  C   UNL     1      -9.486  11.352  65.552  1.00  0.00    -0.227 C  
HETATM    7  O   UNL     1      -8.404   7.873  65.285  1.00  0.00    -0.141 OA 
HETATM    8  C   UNL     1      -8.009  10.931  65.387  1.00  0.00     0.046 C  
HETATM    9  O   UNL     1      -7.783  10.365  64.077  1.00  0.00    -0.266 OA 
HETATM   10  C   UNL     1      -7.608   9.881  66.430  1.00  0.00    -0.101 C  
HETATM   11  H   UNL     1      -7.497   7.587  65.279  1.00  0.00     0.000 HD 
HETATM   12  H   UNL     1      -6.875  10.105  63.976  1.00  0.00     0.000 HD 
HETATM   13  O   UNL     1      -7.398  10.478  67.705  1.00  0.00    -0.085 OA 
HETATM   14  H   UNL     1      -7.150   9.828  68.352  1.00  0.00     0.000 HD 
HETATM   15  C   UNL     1      -8.614   8.707  66.448  1.00  0.00    -0.119 C  
BRANCH   6  16
HETATM   16  O   UNL     1      -9.675  12.130  66.739  1.00  0.00    -0.199 OA 
BRANCH  16  17
HETATM   17  C   UNL     1      -9.690  13.488  66.574  1.00  0.00    -0.283 A  
HETATM   18  C   UNL     1      -8.710  14.204  67.268  1.00  0.00    -0.229 A  
HETATM   19  C   UNL     1      -9.627  16.273  66.445  1.00  0.00    -0.291 A  
HETATM   20  C   UNL     1      -8.683  15.602  67.215  1.00  0.00    -0.213 A  
HETATM   21  C   UNL     1     -10.566  15.569  65.701  1.00  0.00    -0.389 A  
HETATM   22  O   UNL     1      -9.674  17.633  66.392  1.00  0.00    -0.287 OA 
HETATM   23  C   UNL     1     -10.584  14.174  65.751  1.00  0.00    -0.306 A  
HETATM   24  H   UNL     1     -10.319  18.092  65.866  1.00  0.00     0.000 HD 
ENDBRANCH  16  17
ENDBRANCH   6  16
ENDBRANCH   2   4
TORSDOF 3
ENDMDL
MODEL      125
REMARK 921   NORMALIZED FREE ENERGY PREDICTED BY IDOCK:   -3.65 KCAL/MOL
REMARK 922        TOTAL FREE ENERGY PREDICTED BY IDOCK:   -4.71 KCAL/MOL
REMARK 923 INTER-LIGAND FREE ENERGY PREDICTED BY IDOCK:   -4.27 KCAL/MOL
REMARK 924 INTRA-LIGAND FREE ENERGY PREDICTED BY IDOCK:   -0.44 KCAL/MOL
REMARK 927      BINDING AFFINITY PREDICTED BY RF-SCORE:    0.00 PKD
ROOT
HETATM    1  O   UNL     1      -7.167  10.916  67.635  1.00  0.00    -0.089 OA 
HETATM    2  C   UNL     1      -8.532  10.787  68.005  1.00  0.00    -0.124 C  
HETATM    3  H   UNL     1      -6.589  10.715  68.363  1.00  0.00     0.000 HD 
ENDROOT
BRANCH   2   4
HETATM    4  C   UNL     1      -9.468  11.112  66.828  1.00  0.00    -0.184 C  
HETATM    5  O   UNL     1     -10.841  11.084  67.247  1.00  0.00    -0.248 OA 
HETATM    6  C   UNL     1     -11.319  12.257  67.927  1.00  0.00    -0.298 C  
HETATM    7  O   UNL     1      -9.635  12.244  64.685  1.00  0.00    -0.461 OA 
HETATM    8  C   UNL     1     -11.105  13.527  67.074  1.00  0.00    -0.296 C  
HETATM    9  O   UNL     1     -11.902  13.473  65.871  1.00  0.00    -0.338 OA 
HETATM   10  C   UNL     1      -9.637  13.683  66.661  1.00  0.00    -0.283 C  
HETATM   11  H   UNL     1      -9.410  13.024  64.189  1.00  0.00     0.000 HD 
HETATM   12  H   UNL     1     -11.770  14.254  65.346  1.00  0.00     0.000 HD 
HETATM   13  O   UNL     1      -8.846  14.159  67.745  1.00  0.00    -0.168 OA 
HETATM   14  H   UNL     1      -7.936  14.255  67.490  1.00  0.00     0.000 HD 
HETATM   15  C   UNL     1      -9.102  12.381  66.022  1.00  0.00     0.030 C  
BRANCH   6  16
HETATM   16  O   UNL     1     -10.733  12.399  69.226  1.00  0.00    -0.103 OA 
BRANCH  16  17
HETATM   17  C   UNL     1     -11.459  13.114  70.140  1.00  0.00     0.055 A  
HETATM   18  C   UNL     1     -10.952  14.370  70.483  1.00  0.00     0.210 A  
HETATM   19  C   UNL     1     -12.744  14.670  72.064  1.00  0.00    -0.334 A  
HETATM   20  C   UNL     1     -11.588  15.149  71.456  1.00  0.00    -0.443 A  
HETATM   21  C   UNL     1     -13.291  13.450  71.685  1.00  0.00    -0.420 A  
HETATM   22  O   UNL     1     -13.379  15.366  73.047  1.00  0.00    -0.470 OA 
HETATM   23  C   UNL     1     -12.658  12.681  70.708  1.00  0.00    -0.302 A  
HETATM   24  H   UNL     1     -14.168  15.039  73.462  1.00  0.00     0.000 HD 
ENDBRANCH  16  17
ENDBRANCH   6  16
ENDBRANCH   2   4
TORSDOF 3
ENDMDL
MODEL      126
REMARK 921   NORMALIZED FREE ENERGY PREDICTED BY IDOCK:   -3.63 KCAL/MOL
REMARK 922        TOTAL FREE ENERGY PREDICTED BY IDOCK:   -4.68 KCAL/MOL
REMARK 923 INTER-LIGAND FREE ENERGY PREDICTED BY IDOCK:   -4.40 KCAL/MOL
REMARK 924 INTRA-LIGAND FREE ENERGY PREDICTED BY IDOCK:   -0.28 KCAL/MOL
REMARK 927      BINDING AFFINITY PREDICTED BY RF-SCORE:    0.00 PKD
ROOT
HETATM    1  O   UNL     1      -9.973   9.195  70.743  1.00  0.00    -0.225 OA 
HETATM    2  C   UNL     1     -10.906   9.258  69.674  1.00  0.00    -0.212 C  
HETATM    3  H   UNL     1     -10.392   9.356  71.580  1.00  0.00     0.000 HD 
ENDROOT
BRANCH   2   4
HETATM    4  C   UNL     1     -10.228   8.997  68.318  1.00  0.00    -0.204 C  
HETATM    5  O   UNL     1     -10.687   9.933  67.331  1.00  0.00    -0.266 OA 
HETATM    6  C   UNL     1     -10.079  11.235  67.363  1.00  0.00    -0.188 C  
HETATM    7  O   UNL     1      -8.263   8.067  67.233  1.00  0.00    -0.119 OA 
HETATM    8  C   UNL     1      -8.540  11.140  67.253  1.00  0.00    -0.140 C  
HETATM    9  O   UNL     1      -8.154  10.606  65.968  1.00  0.00    -0.150 OA 
HETATM   10  C   UNL     1      -7.958  10.226  68.338  1.00  0.00    -0.108 C  
HETATM   11  H   UNL     1      -7.316   7.985  67.260  1.00  0.00     0.000 HD 
HETATM   12  H   UNL     1      -7.207  10.547  65.900  1.00  0.00     0.000 HD 
HETATM   13  O   UNL     1      -7.925  10.884  69.600  1.00  0.00    -0.371 OA 
HETATM   14  H   UNL     1      -7.564  10.318  70.273  1.00  0.00     0.000 HD 
HETATM   15  C   UNL     1      -8.687   8.863  68.363  1.00  0.00    -0.134 C  
BRANCH   6  16
HETATM   16  O   UNL     1     -10.471  11.981  68.521  1.00  0.00    -0.218 OA 
BRANCH  16  17
HETATM   17  C   UNL     1     -10.631  13.328  68.345  1.00  0.00    -0.252 A  
HETATM   18  C   UNL     1     -10.088  13.866  67.174  1.00  0.00    -0.252 A  
HETATM   19  C   UNL     1     -10.767  16.072  67.862  1.00  0.00    -0.316 A  
HETATM   20  C   UNL     1     -10.144  15.243  66.935  1.00  0.00    -0.257 A  
HETATM   21  C   UNL     1     -11.366  15.540  68.998  1.00  0.00    -0.331 A  
HETATM   22  O   UNL     1     -10.812  17.423  67.700  1.00  0.00    -0.338 OA 
HETATM   23  C   UNL     1     -11.314  14.165  69.228  1.00  0.00    -0.324 A  
HETATM   24  H   UNL     1     -11.237  17.989  68.334  1.00  0.00     0.000 HD 
ENDBRANCH  16  17
ENDBRANCH   6  16
ENDBRANCH   2   4
TORSDOF 3
ENDMDL
MODEL      127
REMARK 921   NORMALIZED FREE ENERGY PREDICTED BY IDOCK:   -3.61 KCAL/MOL
REMARK 922        TOTAL FREE ENERGY PREDICTED BY IDOCK:   -4.66 KCAL/MOL
REMARK 923 INTER-LIGAND FREE ENERGY PREDICTED BY IDOCK:   -4.00 KCAL/MOL
REMARK 924 INTRA-LIGAND FREE ENERGY PREDICTED BY IDOCK:   -0.66 KCAL/MOL
REMARK 927      BINDING AFFINITY PREDICTED BY RF-SCORE:    0.00 PKD
ROOT
HETATM    1  O   UNL     1     -11.882  10.146  68.358  1.00  0.00    -0.676 OA 
HETATM    2  C   UNL     1     -11.636  11.500  68.006  1.00  0.00    -0.300 C  
HETATM    3  H   UNL     1     -12.639   9.800  67.899  1.00  0.00     0.000 HD 
ENDROOT
BRANCH   2   4
HETATM    4  C   UNL     1     -10.411  12.061  68.748  1.00  0.00    -0.160 C  
HETATM    5  O   UNL     1      -9.398  11.054  68.892  1.00  0.00    -0.190 OA 
HETATM    6  C   UNL     1      -8.570  10.819  67.741  1.00  0.00    -0.127 C  
HETATM    7  O   UNL     1      -9.168  14.081  69.274  1.00  0.00    -0.374 OA 
HETATM    8  C   UNL     1      -7.885  12.121  67.267  1.00  0.00    -0.176 C  
HETATM    9  O   UNL     1      -6.963  12.605  68.267  1.00  0.00    -0.079 OA 
HETATM   10  C   UNL     1      -8.913  13.227  66.998  1.00  0.00    -0.228 C  
HETATM   11  H   UNL     1      -8.832  14.906  68.940  1.00  0.00     0.000 HD 
HETATM   12  H   UNL     1      -6.542  13.406  67.976  1.00  0.00     0.000 HD 
HETATM   13  O   UNL     1      -9.585  13.014  65.761  1.00  0.00    -0.433 OA 
HETATM   14  H   UNL     1     -10.222  13.698  65.594  1.00  0.00     0.000 HD 
HETATM   15  C   UNL     1      -9.864  13.402  68.204  1.00  0.00    -0.234 C  
BRANCH   6  16
HETATM   16  O   UNL     1      -9.297  10.198  66.676  1.00  0.00    -0.156 OA 
BRANCH  16  17
HETATM   17  C   UNL     1      -8.817   8.993  66.240  1.00  0.00    -0.151 A  
HETATM   18  C   UNL     1      -8.830   7.951  67.172  1.00  0.00    -0.137 A  
HETATM   19  C   UNL     1      -7.782   6.492  65.568  1.00  0.00    -0.097 A  
HETATM   20  C   UNL     1      -8.301   6.699  66.842  1.00  0.00    -0.114 A  
HETATM   21  C   UNL     1      -7.823   7.501  64.614  1.00  0.00    -0.130 A  
HETATM   22  O   UNL     1      -7.216   5.307  65.207  1.00  0.00    -0.065 OA 
HETATM   23  C   UNL     1      -8.359   8.746  64.945  1.00  0.00    -0.179 A  
HETATM   24  H   UNL     1      -6.862   5.166  64.337  1.00  0.00     0.000 HD 
ENDBRANCH  16  17
ENDBRANCH   6  16
ENDBRANCH   2   4
TORSDOF 3
ENDMDL
MODEL      128
REMARK 921   NORMALIZED FREE ENERGY PREDICTED BY IDOCK:   -3.57 KCAL/MOL
REMARK 922        TOTAL FREE ENERGY PREDICTED BY IDOCK:   -4.62 KCAL/MOL
REMARK 923 INTER-LIGAND FREE ENERGY PREDICTED BY IDOCK:   -4.20 KCAL/MOL
REMARK 924 INTRA-LIGAND FREE ENERGY PREDICTED BY IDOCK:   -0.42 KCAL/MOL
REMARK 927      BINDING AFFINITY PREDICTED BY RF-SCORE:    0.00 PKD
ROOT
HETATM    1  O   UNL     1     -11.629   4.969  72.745  1.00  0.00    -0.220 OA 
HETATM    2  C   UNL     1     -11.478   6.151  71.973  1.00  0.00    -0.313 C  
HETATM    3  H   UNL     1     -12.488   4.581  72.622  1.00  0.00     0.000 HD 
ENDROOT
BRANCH   2   4
HETATM    4  C   UNL     1     -10.087   6.779  72.171  1.00  0.00    -0.181 C  
HETATM    5  O   UNL     1      -9.108   6.112  71.360  1.00  0.00    -0.143 OA 
HETATM    6  C   UNL     1      -9.064   6.497  69.976  1.00  0.00    -0.150 C  
HETATM    7  O   UNL     1      -8.900   8.801  72.806  1.00  0.00    -0.382 OA 
HETATM    8  C   UNL     1      -8.855   8.020  69.822  1.00  0.00    -0.144 C  
HETATM    9  O   UNL     1      -7.562   8.411  70.334  1.00  0.00    -0.067 OA 
HETATM   10  C   UNL     1      -9.923   8.811  70.587  1.00  0.00    -0.198 C  
HETATM   11  H   UNL     1      -8.866   9.749  72.732  1.00  0.00     0.000 HD 
HETATM   12  H   UNL     1      -7.433   9.348  70.240  1.00  0.00     0.000 HD 
HETATM   13  O   UNL     1     -11.162   8.811  69.885  1.00  0.00    -0.406 OA 
HETATM   14  H   UNL     1     -11.825   9.300  70.358  1.00  0.00     0.000 HD 
HETATM   15  C   UNL     1     -10.033   8.321  72.049  1.00  0.00    -0.257 C  
BRANCH   6  16
HETATM   16  O   UNL     1     -10.224   6.058  69.261  1.00  0.00    -0.175 OA 
BRANCH  16  17
HETATM   17  C   UNL     1      -9.999   5.227  68.197  1.00  0.00    -0.155 A  
HETATM   18  C   UNL     1     -10.601   5.594  66.990  1.00  0.00    -0.358 A  
HETATM   19  C   UNL     1      -9.739   3.603  65.945  1.00  0.00    -0.086 A  
HETATM   20  C   UNL     1     -10.483   4.776  65.862  1.00  0.00    -0.313 A  
HETATM   21  C   UNL     1      -9.084   3.261  67.122  1.00  0.00    -0.200 A  
HETATM   22  O   UNL     1      -9.627   2.749  64.891  1.00  0.00    -0.250 OA 
HETATM   23  C   UNL     1      -9.199   4.085  68.243  1.00  0.00    -0.202 A  
HETATM   24  H   UNL     1      -9.119   1.947  64.948  1.00  0.00     0.000 HD 
ENDBRANCH  16  17
ENDBRANCH   6  16
ENDBRANCH   2   4
TORSDOF 3
ENDMDL
MODEL      129
REMARK 921   NORMALIZED FREE ENERGY PREDICTED BY IDOCK:   -3.57 KCAL/MOL
REMARK 922        TOTAL FREE ENERGY PREDICTED BY IDOCK:   -4.61 KCAL/MOL
REMARK 923 INTER-LIGAND FREE ENERGY PREDICTED BY IDOCK:   -4.14 KCAL/MOL
REMARK 924 INTRA-LIGAND FREE ENERGY PREDICTED BY IDOCK:   -0.48 KCAL/MOL
REMARK 927      BINDING AFFINITY PREDICTED BY RF-SCORE:    0.00 PKD
ROOT
HETATM    1  O   UNL     1     -12.488   5.469  72.753  1.00  0.00    -0.470 OA 
HETATM    2  C   UNL     1     -11.662   6.478  72.190  1.00  0.00    -0.311 C  
HETATM    3  H   UNL     1     -13.405   5.718  72.730  1.00  0.00     0.000 HD 
ENDROOT
BRANCH   2   4
HETATM    4  C   UNL     1     -10.177   6.076  72.227  1.00  0.00    -0.187 C  
HETATM    5  O   UNL     1      -9.724   5.686  70.921  1.00  0.00    -0.164 OA 
HETATM    6  C   UNL     1      -9.393   6.756  70.020  1.00  0.00    -0.158 C  
HETATM    7  O   UNL     1      -8.073   6.372  73.405  1.00  0.00    -0.109 OA 
HETATM    8  C   UNL     1      -8.333   7.698  70.632  1.00  0.00    -0.125 C  
HETATM    9  O   UNL     1      -7.081   7.003  70.822  1.00  0.00    -0.064 OA 
HETATM   10  C   UNL     1      -8.784   8.237  71.995  1.00  0.00    -0.182 C  
HETATM   11  H   UNL     1      -7.494   6.992  73.834  1.00  0.00     0.000 HD 
HETATM   12  H   UNL     1      -6.429   7.582  71.199  1.00  0.00     0.000 HD 
HETATM   13  O   UNL     1      -9.755   9.268  71.844  1.00  0.00    -0.260 OA 
HETATM   14  H   UNL     1     -10.036   9.602  72.688  1.00  0.00     0.000 HD 
HETATM   15  C   UNL     1      -9.234   7.086  72.923  1.00  0.00    -0.139 C  
BRANCH   6  16
HETATM   16  O   UNL     1     -10.554   7.483  69.602  1.00  0.00    -0.233 OA 
BRANCH  16  17
HETATM   17  C   UNL     1     -10.403   8.277  68.499  1.00  0.00    -0.199 A  
HETATM   18  C   UNL     1      -9.929   7.647  67.345  1.00  0.00    -0.252 A  
HETATM   19  C   UNL     1      -9.933   9.755  66.181  1.00  0.00    -0.268 A  
HETATM   20  C   UNL     1      -9.680   8.386  66.184  1.00  0.00    -0.223 A  
HETATM   21  C   UNL     1     -10.465  10.380  67.302  1.00  0.00    -0.304 A  
HETATM   22  O   UNL     1      -9.669  10.530  65.093  1.00  0.00    -0.236 OA 
HETATM   23  C   UNL     1     -10.718   9.636  68.455  1.00  0.00    -0.251 A  
HETATM   24  H   UNL     1      -9.841  11.465  65.091  1.00  0.00     0.000 HD 
ENDBRANCH  16  17
ENDBRANCH   6  16
ENDBRANCH   2   4
TORSDOF 3
ENDMDL
MODEL      130
REMARK 921   NORMALIZED FREE ENERGY PREDICTED BY IDOCK:   -3.56 KCAL/MOL
REMARK 922        TOTAL FREE ENERGY PREDICTED BY IDOCK:   -4.61 KCAL/MOL
REMARK 923 INTER-LIGAND FREE ENERGY PREDICTED BY IDOCK:   -5.00 KCAL/MOL
REMARK 924 INTRA-LIGAND FREE ENERGY PREDICTED BY IDOCK:    0.40 KCAL/MOL
REMARK 927      BINDING AFFINITY PREDICTED BY RF-SCORE:    0.00 PKD
ROOT
HETATM    1  O   UNL     1     -10.365  10.250  69.403  1.00  0.00    -0.208 OA 
HETATM    2  C   UNL     1     -10.205   9.568  70.638  1.00  0.00    -0.297 C  
HETATM    3  H   UNL     1      -9.541  10.610  69.095  1.00  0.00     0.000 HD 
ENDROOT
BRANCH   2   4
HETATM    4  C   UNL     1     -11.539   8.985  71.136  1.00  0.00    -0.306 C  
HETATM    5  O   UNL     1     -11.884   7.803  70.399  1.00  0.00    -0.128 OA 
HETATM    6  C   UNL     1     -11.226   6.591  70.801  1.00  0.00    -0.321 C  
HETATM    7  O   UNL     1     -13.049   8.835  73.034  1.00  0.00    -0.748 OA 
HETATM    8  C   UNL     1     -11.451   6.300  72.302  1.00  0.00    -0.306 C  
HETATM    9  O   UNL     1     -12.847   6.043  72.567  1.00  0.00    -0.507 OA 
HETATM   10  C   UNL     1     -11.015   7.486  73.172  1.00  0.00    -0.367 C  
HETATM   11  H   UNL     1     -13.118   8.723  73.975  1.00  0.00     0.000 HD 
HETATM   12  H   UNL     1     -12.985   5.865  73.491  1.00  0.00     0.000 HD 
HETATM   13  O   UNL     1      -9.598   7.540  73.294  1.00  0.00    -0.204 OA 
HETATM   14  H   UNL     1      -9.328   8.275  73.833  1.00  0.00     0.000 HD 
HETATM   15  C   UNL     1     -11.651   8.803  72.669  1.00  0.00     0.024 C  
BRANCH   6  16
HETATM   16  O   UNL     1      -9.830   6.607  70.480  1.00  0.00    -0.175 OA 
BRANCH  16  17
HETATM   17  C   UNL     1      -9.515   6.867  69.173  1.00  0.00    -0.142 A  
HETATM   18  C   UNL     1     -10.510   6.590  68.232  1.00  0.00    -0.263 A  
HETATM   19  C   UNL     1      -9.020   7.233  66.454  1.00  0.00    -0.158 A  
HETATM   20  C   UNL     1     -10.261   6.761  66.867  1.00  0.00    -0.300 A  
HETATM   21  C   UNL     1      -8.045   7.573  67.385  1.00  0.00    -0.116 A  
HETATM   22  O   UNL     1      -8.709   7.378  65.136  1.00  0.00    -0.351 OA 
HETATM   23  C   UNL     1      -8.301   7.407  68.747  1.00  0.00    -0.129 A  
HETATM   24  H   UNL     1      -7.860   7.701  64.854  1.00  0.00     0.000 HD 
ENDBRANCH  16  17
ENDBRANCH   6  16
ENDBRANCH   2   4
TORSDOF 3
ENDMDL
MODEL      131
REMARK 921   NORMALIZED FREE ENERGY PREDICTED BY IDOCK:   -3.53 KCAL/MOL
REMARK 922        TOTAL FREE ENERGY PREDICTED BY IDOCK:   -4.57 KCAL/MOL
REMARK 923 INTER-LIGAND FREE ENERGY PREDICTED BY IDOCK:   -3.97 KCAL/MOL
REMARK 924 INTRA-LIGAND FREE ENERGY PREDICTED BY IDOCK:   -0.60 KCAL/MOL
REMARK 927      BINDING AFFINITY PREDICTED BY RF-SCORE:    0.00 PKD
ROOT
HETATM    1  O   UNL     1      -9.002   4.587  67.987  1.00  0.00    -0.108 OA 
HETATM    2  C   UNL     1      -9.988   4.634  69.009  1.00  0.00    -0.116 C  
HETATM    3  H   UNL     1      -9.346   4.198  67.191  1.00  0.00     0.000 HD 
ENDROOT
BRANCH   2   4
HETATM    4  C   UNL     1      -9.433   5.264  70.298  1.00  0.00    -0.168 C  
HETATM    5  O   UNL     1      -8.596   6.391  69.994  1.00  0.00    -0.132 OA 
HETATM    6  C   UNL     1      -9.275   7.624  69.705  1.00  0.00    -0.147 C  
HETATM    7  O   UNL     1      -9.816   5.570  72.678  1.00  0.00    -0.160 OA 
HETATM    8  C   UNL     1     -10.220   8.029  70.859  1.00  0.00    -0.192 C  
HETATM    9  O   UNL     1      -9.467   8.317  72.057  1.00  0.00    -0.187 OA 
HETATM   10  C   UNL     1     -11.215   6.908  71.185  1.00  0.00    -0.274 C  
HETATM   11  H   UNL     1     -10.461   5.753  73.352  1.00  0.00     0.000 HD 
HETATM   12  H   UNL     1     -10.049   8.566  72.767  1.00  0.00     0.000 HD 
HETATM   13  O   UNL     1     -12.259   6.851  70.219  1.00  0.00    -0.624 OA 
HETATM   14  H   UNL     1     -12.875   6.156  70.420  1.00  0.00     0.000 HD 
HETATM   15  C   UNL     1     -10.482   5.563  71.395  1.00  0.00    -0.240 C  
BRANCH   6  16
HETATM   16  O   UNL     1      -9.974   7.572  68.456  1.00  0.00    -0.158 OA 
BRANCH  16  17
HETATM   17  C   UNL     1      -9.478   8.360  67.454  1.00  0.00    -0.147 A  
HETATM   18  C   UNL     1      -8.116   8.666  67.527  1.00  0.00    -0.106 A  
HETATM   19  C   UNL     1      -8.311  10.040  65.558  1.00  0.00    -0.148 A  
HETATM   20  C   UNL     1      -7.530   9.518  66.585  1.00  0.00    -0.093 A  
HETATM   21  C   UNL     1      -9.651   9.691  65.440  1.00  0.00    -0.361 A  
HETATM   22  O   UNL     1      -7.803  10.907  64.640  1.00  0.00    -0.357 OA 
HETATM   23  C   UNL     1     -10.229   8.835  66.378  1.00  0.00    -0.256 A  
HETATM   24  H   UNL     1      -8.336  11.263  63.939  1.00  0.00     0.000 HD 
ENDBRANCH  16  17
ENDBRANCH   6  16
ENDBRANCH   2   4
TORSDOF 3
ENDMDL
MODEL      132
REMARK 921   NORMALIZED FREE ENERGY PREDICTED BY IDOCK:   -3.49 KCAL/MOL
REMARK 922        TOTAL FREE ENERGY PREDICTED BY IDOCK:   -4.53 KCAL/MOL
REMARK 923 INTER-LIGAND FREE ENERGY PREDICTED BY IDOCK:   -4.19 KCAL/MOL
REMARK 924 INTRA-LIGAND FREE ENERGY PREDICTED BY IDOCK:   -0.33 KCAL/MOL
REMARK 927      BINDING AFFINITY PREDICTED BY RF-SCORE:    0.00 PKD
ROOT
HETATM    1  O   UNL     1      -6.888  10.785  65.731  1.00  0.00    -0.240 OA 
HETATM    2  C   UNL     1      -7.906   9.861  66.090  1.00  0.00    -0.110 C  
HETATM    3  H   UNL     1      -7.241  11.515  65.236  1.00  0.00     0.000 HD 
ENDROOT
BRANCH   2   4
HETATM    4  C   UNL     1      -7.336   8.679  66.892  1.00  0.00    -0.079 C  
HETATM    5  O   UNL     1      -7.615   8.833  68.292  1.00  0.00    -0.093 OA 
HETATM    6  C   UNL     1      -8.936   8.461  68.719  1.00  0.00    -0.140 C  
HETATM    7  O   UNL     1      -6.677   6.343  66.780  1.00  0.00    -0.056 OA 
HETATM    8  C   UNL     1      -9.266   7.005  68.323  1.00  0.00    -0.128 C  
HETATM    9  O   UNL     1      -8.402   6.080  69.019  1.00  0.00    -0.109 OA 
HETATM   10  C   UNL     1      -9.082   6.780  66.817  1.00  0.00    -0.140 C  
HETATM   11  H   UNL     1      -6.898   5.480  66.447  1.00  0.00     0.000 HD 
HETATM   12  H   UNL     1      -8.604   5.184  68.776  1.00  0.00     0.000 HD 
HETATM   13  O   UNL     1     -10.169   7.329  66.080  1.00  0.00    -0.428 OA 
HETATM   14  H   UNL     1     -10.056   7.190  65.147  1.00  0.00     0.000 HD 
HETATM   15  C   UNL     1      -7.695   7.275  66.349  1.00  0.00    -0.093 C  
BRANCH   6  16
HETATM   16  O   UNL     1      -9.931   9.369  68.232  1.00  0.00    -0.162 OA 
BRANCH  16  17
HETATM   17  C   UNL     1     -10.792   9.878  69.166  1.00  0.00    -0.221 A  
HETATM   18  C   UNL     1     -10.650   9.388  70.467  1.00  0.00    -0.331 A  
HETATM   19  C   UNL     1     -12.524  10.720  71.182  1.00  0.00    -0.414 A  
HETATM   20  C   UNL     1     -11.524   9.800  71.478  1.00  0.00    -0.393 A  
HETATM   21  C   UNL     1     -12.635  11.262  69.907  1.00  0.00    -0.129 A  
HETATM   22  O   UNL     1     -13.429  11.123  72.117  1.00  0.00    -0.550 OA 
HETATM   23  C   UNL     1     -11.755  10.854  68.903  1.00  0.00    -0.376 A  
HETATM   24  H   UNL     1     -14.112  11.751  71.914  1.00  0.00     0.000 HD 
ENDBRANCH  16  17
ENDBRANCH   6  16
ENDBRANCH   2   4
TORSDOF 3
ENDMDL
MODEL      133
REMARK 921   NORMALIZED FREE ENERGY PREDICTED BY IDOCK:   -3.43 KCAL/MOL
REMARK 922        TOTAL FREE ENERGY PREDICTED BY IDOCK:   -4.46 KCAL/MOL
REMARK 923 INTER-LIGAND FREE ENERGY PREDICTED BY IDOCK:   -4.15 KCAL/MOL
REMARK 924 INTRA-LIGAND FREE ENERGY PREDICTED BY IDOCK:   -0.30 KCAL/MOL
REMARK 927      BINDING AFFINITY PREDICTED BY RF-SCORE:    0.00 PKD
ROOT
HETATM    1  O   UNL     1     -10.707  14.684  63.970  1.00  0.00    -0.256 OA 
HETATM    2  C   UNL     1     -10.079  14.147  65.125  1.00  0.00    -0.317 C  
HETATM    3  H   UNL     1     -10.687  14.069  63.246  1.00  0.00     0.000 HD 
ENDROOT
BRANCH   2   4
HETATM    4  C   UNL     1     -10.112  15.142  66.298  1.00  0.00    -0.283 C  
HETATM    5  O   UNL     1     -10.674  14.530  67.468  1.00  0.00    -0.269 OA 
HETATM    6  C   UNL     1      -9.791  13.690  68.230  1.00  0.00    -0.232 C  
HETATM    7  O   UNL     1      -9.082  17.133  67.235  1.00  0.00    -0.218 OA 
HETATM    8  C   UNL     1      -8.517  14.454  68.655  1.00  0.00    -0.156 C  
HETATM    9  O   UNL     1      -8.846  15.527  69.563  1.00  0.00    -0.262 OA 
HETATM   10  C   UNL     1      -7.800  15.062  67.444  1.00  0.00    -0.200 C  
HETATM   11  H   UNL     1      -8.265  17.588  67.406  1.00  0.00     0.000 HD 
HETATM   12  H   UNL     1      -8.062  15.997  69.825  1.00  0.00     0.000 HD 
HETATM   13  O   UNL     1      -7.081  14.070  66.720  1.00  0.00    -0.208 OA 
HETATM   14  H   UNL     1      -6.637  14.446  65.969  1.00  0.00     0.000 HD 
HETATM   15  C   UNL     1      -8.782  15.882  66.576  1.00  0.00    -0.315 C  
BRANCH   6  16
HETATM   16  O   UNL     1      -9.463  12.484  67.531  1.00  0.00    -0.177 OA 
BRANCH  16  17
HETATM   17  C   UNL     1      -9.455  11.337  68.277  1.00  0.00    -0.190 A  
HETATM   18  C   UNL     1      -8.248  11.022  68.909  1.00  0.00    -0.127 A  
HETATM   19  C   UNL     1      -9.215   8.985  69.757  1.00  0.00    -0.167 A  
HETATM   20  C   UNL     1      -8.121   9.837  69.642  1.00  0.00    -0.158 A  
HETATM   21  C   UNL     1     -10.437   9.320  69.186  1.00  0.00    -0.231 A  
HETATM   22  O   UNL     1      -9.134   7.799  70.421  1.00  0.00    -0.153 OA 
HETATM   23  C   UNL     1     -10.561  10.507  68.462  1.00  0.00    -0.234 A  
HETATM   24  H   UNL     1      -9.882   7.218  70.499  1.00  0.00     0.000 HD 
ENDBRANCH  16  17
ENDBRANCH   6  16
ENDBRANCH   2   4
TORSDOF 3
ENDMDL
MODEL      134
REMARK 921   NORMALIZED FREE ENERGY PREDICTED BY IDOCK:   -3.43 KCAL/MOL
REMARK 922        TOTAL FREE ENERGY PREDICTED BY IDOCK:   -4.45 KCAL/MOL
REMARK 923 INTER-LIGAND FREE ENERGY PREDICTED BY IDOCK:   -3.81 KCAL/MOL
REMARK 924 INTRA-LIGAND FREE ENERGY PREDICTED BY IDOCK:   -0.64 KCAL/MOL
REMARK 927      BINDING AFFINITY PREDICTED BY RF-SCORE:    0.00 PKD
ROOT
HETATM    1  O   UNL     1     -11.637   9.781  68.132  1.00  0.00    -0.527 OA 
HETATM    2  C   UNL     1     -10.664   9.570  67.119  1.00  0.00    -0.182 C  
HETATM    3  H   UNL     1     -12.474   9.399  67.895  1.00  0.00     0.000 HD 
ENDROOT
BRANCH   2   4
HETATM    4  C   UNL     1      -9.308  10.188  67.503  1.00  0.00    -0.151 C  
HETATM    5  O   UNL     1      -9.111  10.138  68.924  1.00  0.00    -0.146 OA 
HETATM    6  C   UNL     1      -8.667   8.879  69.458  1.00  0.00    -0.142 C  
HETATM    7  O   UNL     1      -7.064  10.684  66.715  1.00  0.00    -0.104 OA 
HETATM    8  C   UNL     1      -7.362   8.408  68.777  1.00  0.00    -0.087 C  
HETATM    9  O   UNL     1      -6.278   9.314  69.074  1.00  0.00    -0.042 OA 
HETATM   10  C   UNL     1      -7.520   8.343  67.253  1.00  0.00    -0.093 C  
HETATM   11  H   UNL     1      -6.316  10.364  66.222  1.00  0.00     0.000 HD 
HETATM   12  H   UNL     1      -5.475   9.025  68.655  1.00  0.00     0.000 HD 
HETATM   13  O   UNL     1      -8.256   7.189  66.862  1.00  0.00    -0.114 OA 
HETATM   14  H   UNL     1      -8.353   7.148  65.918  1.00  0.00     0.000 HD 
HETATM   15  C   UNL     1      -8.092   9.668  66.699  1.00  0.00    -0.119 C  
BRANCH   6  16
HETATM   16  O   UNL     1      -9.685   7.875  69.378  1.00  0.00    -0.167 OA 
BRANCH  16  17
HETATM   17  C   UNL     1     -10.050   7.291  70.560  1.00  0.00    -0.191 A  
HETATM   18  C   UNL     1      -9.641   5.967  70.746  1.00  0.00    -0.197 A  
HETATM   19  C   UNL     1     -10.788   5.900  72.862  1.00  0.00    -0.258 A  
HETATM   20  C   UNL     1     -10.019   5.263  71.893  1.00  0.00    -0.240 A  
HETATM   21  C   UNL     1     -11.146   7.235  72.718  1.00  0.00    -0.362 A  
HETATM   22  O   UNL     1     -11.221   5.250  73.977  1.00  0.00    -0.425 OA 
HETATM   23  C   UNL     1     -10.760   7.936  71.574  1.00  0.00    -0.267 A  
HETATM   24  H   UNL     1     -11.746   5.685  74.639  1.00  0.00     0.000 HD 
ENDBRANCH  16  17
ENDBRANCH   6  16
ENDBRANCH   2   4
TORSDOF 3
ENDMDL
MODEL      135
REMARK 921   NORMALIZED FREE ENERGY PREDICTED BY IDOCK:   -3.42 KCAL/MOL
REMARK 922        TOTAL FREE ENERGY PREDICTED BY IDOCK:   -4.44 KCAL/MOL
REMARK 923 INTER-LIGAND FREE ENERGY PREDICTED BY IDOCK:   -4.02 KCAL/MOL
REMARK 924 INTRA-LIGAND FREE ENERGY PREDICTED BY IDOCK:   -0.42 KCAL/MOL
REMARK 927      BINDING AFFINITY PREDICTED BY RF-SCORE:    0.00 PKD
ROOT
HETATM    1  O   UNL     1      -6.487   9.340  67.811  1.00  0.00    -0.058 OA 
HETATM    2  C   UNL     1      -7.154  10.481  67.292  1.00  0.00    -0.088 C  
HETATM    3  H   UNL     1      -5.941   9.565  68.555  1.00  0.00     0.000 HD 
ENDROOT
BRANCH   2   4
HETATM    4  C   UNL     1      -8.038  10.116  66.087  1.00  0.00    -0.123 C  
HETATM    5  O   UNL     1      -9.242   9.464  66.518  1.00  0.00    -0.145 OA 
HETATM    6  C   UNL     1     -10.288  10.322  67.002  1.00  0.00    -0.243 C  
HETATM    7  O   UNL     1      -8.588  10.685  63.789  1.00  0.00    -0.235 OA 
HETATM    8  C   UNL     1     -10.673  11.388  65.952  1.00  0.00    -0.255 C  
HETATM    9  O   UNL     1     -11.246  10.766  64.781  1.00  0.00     0.106 OA 
HETATM   10  C   UNL     1      -9.450  12.198  65.505  1.00  0.00    -0.065 C  
HETATM   11  H   UNL     1      -8.744  11.390  63.171  1.00  0.00     0.000 HD 
HETATM   12  H   UNL     1     -11.482  11.422  64.135  1.00  0.00     0.000 HD 
HETATM   13  O   UNL     1      -9.083  13.159  66.489  1.00  0.00    -0.375 OA 
HETATM   14  H   UNL     1      -8.325  13.661  66.213  1.00  0.00     0.000 HD 
HETATM   15  C   UNL     1      -8.293  11.264  65.081  1.00  0.00     0.308 C  
BRANCH   6  16
HETATM   16  O   UNL     1      -9.948  10.927  68.255  1.00  0.00    -0.165 OA 
BRANCH  16  17
HETATM   17  C   UNL     1     -10.835  10.734  69.279  1.00  0.00    -0.242 A  
HETATM   18  C   UNL     1     -11.699  11.797  69.555  1.00  0.00    -0.408 A  
HETATM   19  C   UNL     1     -12.641  10.565  71.397  1.00  0.00    -0.434 A  
HETATM   20  C   UNL     1     -12.598  11.721  70.623  1.00  0.00    -0.289 A  
HETATM   21  C   UNL     1     -11.831   9.478  71.092  1.00  0.00    -0.436 A  
HETATM   22  O   UNL     1     -13.465  10.453  72.475  1.00  0.00    -0.585 OA 
HETATM   23  C   UNL     1     -10.941   9.556  70.020  1.00  0.00    -0.284 A  
HETATM   24  H   UNL     1     -13.494   9.664  73.003  1.00  0.00     0.000 HD 
ENDBRANCH  16  17
ENDBRANCH   6  16
ENDBRANCH   2   4
TORSDOF 3
ENDMDL
MODEL      136
REMARK 921   NORMALIZED FREE ENERGY PREDICTED BY IDOCK:   -3.39 KCAL/MOL
REMARK 922        TOTAL FREE ENERGY PREDICTED BY IDOCK:   -4.41 KCAL/MOL
REMARK 923 INTER-LIGAND FREE ENERGY PREDICTED BY IDOCK:   -4.41 KCAL/MOL
REMARK 924 INTRA-LIGAND FREE ENERGY PREDICTED BY IDOCK:   -0.00 KCAL/MOL
REMARK 927      BINDING AFFINITY PREDICTED BY RF-SCORE:    0.00 PKD
ROOT
HETATM    1  O   UNL     1      -8.042   9.211  69.191  1.00  0.00    -0.100 OA 
HETATM    2  C   UNL     1      -8.874   9.516  70.301  1.00  0.00    -0.243 C  
HETATM    3  H   UNL     1      -7.122   9.250  69.425  1.00  0.00     0.000 HD 
ENDROOT
BRANCH   2   4
HETATM    4  C   UNL     1     -10.364   9.452  69.923  1.00  0.00    -0.227 C  
HETATM    5  O   UNL     1     -10.678   8.196  69.303  1.00  0.00    -0.211 OA 
HETATM    6  C   UNL     1     -10.875   7.084  70.191  1.00  0.00    -0.256 C  
HETATM    7  O   UNL     1     -12.578  10.306  70.445  1.00  0.00    -0.445 OA 
HETATM    8  C   UNL     1     -11.970   7.387  71.238  1.00  0.00    -0.313 C  
HETATM    9  O   UNL     1     -13.254   7.553  70.597  1.00  0.00    -0.481 OA 
HETATM   10  C   UNL     1     -11.660   8.672  72.015  1.00  0.00    -0.370 C  
HETATM   11  H   UNL     1     -13.184  10.544  71.138  1.00  0.00     0.000 HD 
HETATM   12  H   UNL     1     -13.928   7.740  71.241  1.00  0.00     0.000 HD 
HETATM   13  O   UNL     1     -10.650   8.449  72.993  1.00  0.00    -0.168 OA 
HETATM   14  H   UNL     1     -10.457   9.245  73.474  1.00  0.00     0.000 HD 
HETATM   15  C   UNL     1     -11.350   9.840  71.050  1.00  0.00    -0.387 C  
BRANCH   6  16
HETATM   16  O   UNL     1      -9.654   6.678  70.821  1.00  0.00    -0.174 OA 
BRANCH  16  17
HETATM   17  C   UNL     1      -9.641   5.419  71.357  1.00  0.00    -0.156 A  
HETATM   18  C   UNL     1      -8.605   4.580  70.936  1.00  0.00    -0.115 A  
HETATM   19  C   UNL     1      -9.510   2.784  72.260  1.00  0.00    -0.111 A  
HETATM   20  C   UNL     1      -8.543   3.255  71.378  1.00  0.00    -0.107 A  
HETATM   21  C   UNL     1     -10.508   3.627  72.734  1.00  0.00    -0.219 A  
HETATM   22  O   UNL     1      -9.523   1.491  72.688  1.00  0.00    -0.072 OA 
HETATM   23  C   UNL     1     -10.561   4.951  72.296  1.00  0.00    -0.251 A  
HETATM   24  H   UNL     1     -10.184   1.170  73.290  1.00  0.00     0.000 HD 
ENDBRANCH  16  17
ENDBRANCH   6  16
ENDBRANCH   2   4
TORSDOF 3
ENDMDL
MODEL      137
REMARK 921   NORMALIZED FREE ENERGY PREDICTED BY IDOCK:   -3.30 KCAL/MOL
REMARK 922        TOTAL FREE ENERGY PREDICTED BY IDOCK:   -4.30 KCAL/MOL
REMARK 923 INTER-LIGAND FREE ENERGY PREDICTED BY IDOCK:   -3.61 KCAL/MOL
REMARK 924 INTRA-LIGAND FREE ENERGY PREDICTED BY IDOCK:   -0.69 KCAL/MOL
REMARK 927      BINDING AFFINITY PREDICTED BY RF-SCORE:    0.00 PKD
ROOT
HETATM    1  O   UNL     1     -11.087   9.210  67.842  1.00  0.00    -0.508 OA 
HETATM    2  C   UNL     1     -10.707  10.462  67.291  1.00  0.00    -0.273 C  
HETATM    3  H   UNL     1     -11.435   8.628  67.176  1.00  0.00     0.000 HD 
ENDROOT
BRANCH   2   4
HETATM    4  C   UNL     1     -10.143  11.404  68.369  1.00  0.00    -0.201 C  
HETATM    5  O   UNL     1      -9.350  10.674  69.317  1.00  0.00    -0.187 OA 
HETATM    6  C   UNL     1      -8.006  10.364  68.912  1.00  0.00    -0.123 C  
HETATM    7  O   UNL     1      -9.503  13.696  68.858  1.00  0.00    -0.403 OA 
HETATM    8  C   UNL     1      -7.228  11.640  68.520  1.00  0.00    -0.094 C  
HETATM    9  O   UNL     1      -7.056  12.504  69.664  1.00  0.00    -0.330 OA 
HETATM   10  C   UNL     1      -7.968  12.433  67.436  1.00  0.00    -0.178 C  
HETATM   11  H   UNL     1      -9.071  14.478  68.531  1.00  0.00     0.000 HD 
HETATM   12  H   UNL     1      -6.578  13.289  69.422  1.00  0.00     0.000 HD 
HETATM   13  O   UNL     1      -7.811  11.826  66.158  1.00  0.00    -0.375 OA 
HETATM   14  H   UNL     1      -8.269  12.317  65.486  1.00  0.00     0.000 HD 
HETATM   15  C   UNL     1      -9.441  12.676  67.836  1.00  0.00    -0.204 C  
BRANCH   6  16
HETATM   16  O   UNL     1      -7.975   9.393  67.860  1.00  0.00    -0.092 OA 
BRANCH  16  17
HETATM   17  C   UNL     1      -7.835   8.088  68.247  1.00  0.00    -0.123 A  
HETATM   18  C   UNL     1      -8.206   7.122  67.307  1.00  0.00    -0.119 A  
HETATM   19  C   UNL     1      -7.719   5.377  68.894  1.00  0.00    -0.083 A  
HETATM   20  C   UNL     1      -8.160   5.763  67.632  1.00  0.00    -0.102 A  
HETATM   21  C   UNL     1      -7.288   6.326  69.814  1.00  0.00    -0.079 A  
HETATM   22  O   UNL     1      -7.695   4.071  69.278  1.00  0.00    -0.054 OA 
HETATM   23  C   UNL     1      -7.328   7.680  69.482  1.00  0.00    -0.086 A  
HETATM   24  H   UNL     1      -7.393   3.809  70.140  1.00  0.00     0.000 HD 
ENDBRANCH  16  17
ENDBRANCH   6  16
ENDBRANCH   2   4
TORSDOF 3
ENDMDL
MODEL      138
REMARK 921   NORMALIZED FREE ENERGY PREDICTED BY IDOCK:   -3.30 KCAL/MOL
REMARK 922        TOTAL FREE ENERGY PREDICTED BY IDOCK:   -4.30 KCAL/MOL
REMARK 923 INTER-LIGAND FREE ENERGY PREDICTED BY IDOCK:   -3.83 KCAL/MOL
REMARK 924 INTRA-LIGAND FREE ENERGY PREDICTED BY IDOCK:   -0.47 KCAL/MOL
REMARK 927      BINDING AFFINITY PREDICTED BY RF-SCORE:    0.00 PKD
ROOT
HETATM    1  O   UNL     1     -11.865  10.423  71.226  1.00  0.00    -0.350 OA 
HETATM    2  C   UNL     1     -11.002   9.334  71.521  1.00  0.00    -0.375 C  
HETATM    3  H   UNL     1     -12.546  10.515  71.883  1.00  0.00     0.000 HD 
ENDROOT
BRANCH   2   4
HETATM    4  C   UNL     1      -9.899   9.186  70.459  1.00  0.00    -0.233 C  
HETATM    5  O   UNL     1      -8.821   8.378  70.955  1.00  0.00    -0.139 OA 
HETATM    6  C   UNL     1      -9.026   6.956  70.914  1.00  0.00    -0.149 C  
HETATM    7  O   UNL     1      -9.427   9.220  68.076  1.00  0.00    -0.137 OA 
HETATM    8  C   UNL     1      -9.363   6.477  69.485  1.00  0.00    -0.147 C  
HETATM    9  O   UNL     1      -8.245   6.693  68.597  1.00  0.00    -0.117 OA 
HETATM   10  C   UNL     1     -10.571   7.230  68.914  1.00  0.00    -0.191 C  
HETATM   11  H   UNL     1      -9.726   8.958  67.212  1.00  0.00     0.000 HD 
HETATM   12  H   UNL     1      -8.453   6.399  67.718  1.00  0.00     0.000 HD 
HETATM   13  O   UNL     1     -11.789   6.744  69.470  1.00  0.00    -0.635 OA 
HETATM   14  H   UNL     1     -12.537   7.210  69.117  1.00  0.00     0.000 HD 
HETATM   15  C   UNL     1     -10.386   8.758  69.054  1.00  0.00    -0.213 C  
BRANCH   6  16
HETATM   16  O   UNL     1     -10.021   6.531  71.853  1.00  0.00    -0.178 OA 
BRANCH  16  17
HETATM   17  C   UNL     1      -9.802   5.324  72.459  1.00  0.00    -0.162 A  
HETATM   18  C   UNL     1      -8.506   5.097  72.931  1.00  0.00    -0.116 A  
HETATM   19  C   UNL     1      -9.140   2.880  73.628  1.00  0.00    -0.081 A  
HETATM   20  C   UNL     1      -8.168   3.868  73.507  1.00  0.00    -0.088 A  
HETATM   21  C   UNL     1     -10.447   3.118  73.220  1.00  0.00    -0.255 A  
HETATM   22  O   UNL     1      -8.855   1.652  74.142  1.00  0.00    -0.057 OA 
HETATM   23  C   UNL     1     -10.781   4.349  72.652  1.00  0.00    -0.204 A  
HETATM   24  H   UNL     1      -9.519   0.977  74.224  1.00  0.00     0.000 HD 
ENDBRANCH  16  17
ENDBRANCH   6  16
ENDBRANCH   2   4
TORSDOF 3
ENDMDL
MODEL      139
REMARK 921   NORMALIZED FREE ENERGY PREDICTED BY IDOCK:   -3.29 KCAL/MOL
REMARK 922        TOTAL FREE ENERGY PREDICTED BY IDOCK:   -4.28 KCAL/MOL
REMARK 923 INTER-LIGAND FREE ENERGY PREDICTED BY IDOCK:   -3.61 KCAL/MOL
REMARK 924 INTRA-LIGAND FREE ENERGY PREDICTED BY IDOCK:   -0.67 KCAL/MOL
REMARK 927      BINDING AFFINITY PREDICTED BY RF-SCORE:    0.00 PKD
ROOT
HETATM    1  O   UNL     1      -6.469   7.943  71.292  1.00  0.00    -0.037 OA 
HETATM    2  C   UNL     1      -7.061   9.135  70.796  1.00  0.00    -0.102 C  
HETATM    3  H   UNL     1      -5.551   7.885  71.052  1.00  0.00     0.000 HD 
ENDROOT
BRANCH   2   4
HETATM    4  C   UNL     1      -8.546   9.230  71.184  1.00  0.00    -0.025 C  
HETATM    5  O   UNL     1      -9.309   9.841  70.132  1.00  0.00    -0.234 OA 
HETATM    6  C   UNL     1      -9.670   8.988  69.034  1.00  0.00    -0.167 C  
HETATM    7  O   UNL     1     -10.301   8.261  72.558  1.00  0.00    -0.303 OA 
HETATM    8  C   UNL     1     -10.442   7.741  69.521  1.00  0.00    -0.225 C  
HETATM    9  O   UNL     1     -11.710   8.121  70.099  1.00  0.00    -0.473 OA 
HETATM   10  C   UNL     1      -9.648   6.974  70.585  1.00  0.00    -0.165 C  
HETATM   11  H   UNL     1     -10.689   7.457  72.884  1.00  0.00     0.000 HD 
HETATM   12  H   UNL     1     -12.184   7.354  70.398  1.00  0.00     0.000 HD 
HETATM   13  O   UNL     1      -8.599   6.214  69.995  1.00  0.00    -0.132 OA 
HETATM   14  H   UNL     1      -8.107   5.739  70.655  1.00  0.00     0.000 HD 
HETATM   15  C   UNL     1      -9.178   7.920  71.713  1.00  0.00    -0.150 C  
BRANCH   6  16
HETATM   16  O   UNL     1      -8.532   8.619  68.246  1.00  0.00    -0.128 OA 
BRANCH  16  17
HETATM   17  C   UNL     1      -8.406   9.248  67.037  1.00  0.00    -0.120 A  
HETATM   18  C   UNL     1      -9.594   9.678  66.439  1.00  0.00    -0.268 A  
HETATM   19  C   UNL     1      -8.357  10.456  64.524  1.00  0.00    -0.146 A  
HETATM   20  C   UNL     1      -9.574  10.274  65.174  1.00  0.00    -0.337 A  
HETATM   21  C   UNL     1      -7.165  10.089  65.137  1.00  0.00    -0.139 A  
HETATM   22  O   UNL     1      -8.284  10.990  63.274  1.00  0.00    -0.373 OA 
HETATM   23  C   UNL     1      -7.189   9.503  66.403  1.00  0.00    -0.089 A  
HETATM   24  H   UNL     1      -7.453  11.114  62.830  1.00  0.00     0.000 HD 
ENDBRANCH  16  17
ENDBRANCH   6  16
ENDBRANCH   2   4
TORSDOF 3
ENDMDL
MODEL      140
REMARK 921   NORMALIZED FREE ENERGY PREDICTED BY IDOCK:   -3.28 KCAL/MOL
REMARK 922        TOTAL FREE ENERGY PREDICTED BY IDOCK:   -4.27 KCAL/MOL
REMARK 923 INTER-LIGAND FREE ENERGY PREDICTED BY IDOCK:   -3.65 KCAL/MOL
REMARK 924 INTRA-LIGAND FREE ENERGY PREDICTED BY IDOCK:   -0.62 KCAL/MOL
REMARK 927      BINDING AFFINITY PREDICTED BY RF-SCORE:    0.00 PKD
ROOT
HETATM    1  O   UNL     1      -6.142   7.870  71.394  1.00  0.00    -0.035 OA 
HETATM    2  C   UNL     1      -7.017   8.915  71.792  1.00  0.00    -0.013 C  
HETATM    3  H   UNL     1      -5.334   8.213  71.029  1.00  0.00     0.000 HD 
ENDROOT
BRANCH   2   4
HETATM    4  C   UNL     1      -8.324   8.360  72.384  1.00  0.00    -0.155 C  
HETATM    5  O   UNL     1      -9.436   9.202  72.040  1.00  0.00    -0.323 OA 
HETATM    6  C   UNL     1      -9.980   9.025  70.722  1.00  0.00    -0.245 C  
HETATM    7  O   UNL     1      -9.453   6.352  73.157  1.00  0.00    -0.138 OA 
HETATM    8  C   UNL     1     -10.398   7.557  70.479  1.00  0.00    -0.215 C  
HETATM    9  O   UNL     1     -11.483   7.185  71.357  1.00  0.00    -0.254 OA 
HETATM   10  C   UNL     1      -9.233   6.594  70.735  1.00  0.00    -0.155 C  
HETATM   11  H   UNL     1      -9.616   5.430  72.992  1.00  0.00     0.000 HD 
HETATM   12  H   UNL     1     -11.740   6.282  71.207  1.00  0.00     0.000 HD 
HETATM   13  O   UNL     1      -8.306   6.612  69.654  1.00  0.00    -0.128 OA 
HETATM   14  H   UNL     1      -7.583   6.015  69.812  1.00  0.00     0.000 HD 
HETATM   15  C   UNL     1      -8.589   6.860  72.115  1.00  0.00    -0.116 C  
BRANCH   6  16
HETATM   16  O   UNL     1      -9.081   9.483  69.706  1.00  0.00    -0.172 OA 
BRANCH  16  17
HETATM   17  C   UNL     1      -9.503  10.553  68.965  1.00  0.00    -0.201 A  
HETATM   18  C   UNL     1     -10.881  10.785  68.946  1.00  0.00    -0.269 A  
HETATM   19  C   UNL     1     -10.559  12.625  67.426  1.00  0.00    -0.224 A  
HETATM   20  C   UNL     1     -11.415  11.816  68.166  1.00  0.00    -0.382 A  
HETATM   21  C   UNL     1      -9.183  12.444  67.488  1.00  0.00    -0.183 A  
HETATM   22  O   UNL     1     -11.028  13.615  66.617  1.00  0.00    -0.289 OA 
HETATM   23  C   UNL     1      -8.654  11.419  68.274  1.00  0.00    -0.156 A  
HETATM   24  H   UNL     1     -10.443  14.168  66.112  1.00  0.00     0.000 HD 
ENDBRANCH  16  17
ENDBRANCH   6  16
ENDBRANCH   2   4
TORSDOF 3
ENDMDL
MODEL      141
REMARK 921   NORMALIZED FREE ENERGY PREDICTED BY IDOCK:   -3.27 KCAL/MOL
REMARK 922        TOTAL FREE ENERGY PREDICTED BY IDOCK:   -4.27 KCAL/MOL
REMARK 923 INTER-LIGAND FREE ENERGY PREDICTED BY IDOCK:   -3.74 KCAL/MOL
REMARK 924 INTRA-LIGAND FREE ENERGY PREDICTED BY IDOCK:   -0.53 KCAL/MOL
REMARK 927      BINDING AFFINITY PREDICTED BY RF-SCORE:    0.00 PKD
ROOT
HETATM    1  O   UNL     1      -8.485   3.060  70.746  1.00  0.00    -0.058 OA 
HETATM    2  C   UNL     1      -9.356   3.000  69.627  1.00  0.00    -0.144 C  
HETATM    3  H   UNL     1      -8.777   2.487  71.446  1.00  0.00     0.000 HD 
ENDROOT
BRANCH   2   4
HETATM    4  C   UNL     1      -8.883   3.927  68.494  1.00  0.00    -0.109 C  
HETATM    5  O   UNL     1      -9.860   4.945  68.229  1.00  0.00    -0.151 OA 
HETATM    6  C   UNL     1      -9.861   6.070  69.124  1.00  0.00    -0.148 C  
HETATM    7  O   UNL     1      -6.935   4.807  67.337  1.00  0.00    -0.058 OA 
HETATM    8  C   UNL     1      -8.472   6.744  69.181  1.00  0.00    -0.128 C  
HETATM    9  O   UNL     1      -8.131   7.318  67.901  1.00  0.00    -0.117 OA 
HETATM   10  C   UNL     1      -7.378   5.737  69.554  1.00  0.00    -0.071 C  
HETATM   11  H   UNL     1      -6.054   5.149  67.433  1.00  0.00     0.000 HD 
HETATM   12  H   UNL     1      -7.276   7.733  67.936  1.00  0.00     0.000 HD 
HETATM   13  O   UNL     1      -7.402   5.444  70.947  1.00  0.00    -0.073 OA 
HETATM   14  H   UNL     1      -6.724   4.820  71.178  1.00  0.00     0.000 HD 
HETATM   15  C   UNL     1      -7.448   4.485  68.650  1.00  0.00    -0.064 C  
BRANCH   6  16
HETATM   16  O   UNL     1     -10.319   5.712  70.433  1.00  0.00    -0.221 OA 
BRANCH  16  17
HETATM   17  C   UNL     1     -11.120   6.626  71.062  1.00  0.00    -0.282 A  
HETATM   18  C   UNL     1     -12.470   6.615  70.701  1.00  0.00    -0.049 A  
HETATM   19  C   UNL     1     -12.884   8.484  72.162  1.00  0.00    -0.369 A  
HETATM   20  C   UNL     1     -13.355   7.553  71.241  1.00  0.00    -0.312 A  
HETATM   21  C   UNL     1     -11.558   8.463  72.576  1.00  0.00    -0.426 A  
HETATM   22  O   UNL     1     -13.692   9.446  72.687  1.00  0.00    -0.697 OA 
HETATM   23  C   UNL     1     -10.680   7.520  72.040  1.00  0.00    -0.264 A  
HETATM   24  H   UNL     1     -13.370  10.082  73.315  1.00  0.00     0.000 HD 
ENDBRANCH  16  17
ENDBRANCH   6  16
ENDBRANCH   2   4
TORSDOF 3
ENDMDL
MODEL      142
REMARK 921   NORMALIZED FREE ENERGY PREDICTED BY IDOCK:   -3.19 KCAL/MOL
REMARK 922        TOTAL FREE ENERGY PREDICTED BY IDOCK:   -4.17 KCAL/MOL
REMARK 923 INTER-LIGAND FREE ENERGY PREDICTED BY IDOCK:   -3.75 KCAL/MOL
REMARK 924 INTRA-LIGAND FREE ENERGY PREDICTED BY IDOCK:   -0.43 KCAL/MOL
REMARK 927      BINDING AFFINITY PREDICTED BY RF-SCORE:    0.00 PKD
ROOT
HETATM    1  O   UNL     1     -10.465   3.983  66.011  1.00  0.00    -0.424 OA 
HETATM    2  C   UNL     1     -10.007   4.875  67.016  1.00  0.00    -0.208 C  
HETATM    3  H   UNL     1     -10.578   3.103  66.353  1.00  0.00     0.000 HD 
ENDROOT
BRANCH   2   4
HETATM    4  C   UNL     1      -9.824   6.299  66.464  1.00  0.00    -0.126 C  
HETATM    5  O   UNL     1     -10.069   7.277  67.486  1.00  0.00    -0.163 OA 
HETATM    6  C   UNL     1      -8.991   7.515  68.406  1.00  0.00    -0.128 C  
HETATM    7  O   UNL     1      -8.717   7.638  64.765  1.00  0.00    -0.374 OA 
HETATM    8  C   UNL     1      -7.697   7.916  67.663  1.00  0.00    -0.117 C  
HETATM    9  O   UNL     1      -7.867   9.182  66.989  1.00  0.00    -0.100 OA 
HETATM   10  C   UNL     1      -7.310   6.870  66.610  1.00  0.00    -0.077 C  
HETATM   11  H   UNL     1      -7.909   7.790  64.288  1.00  0.00     0.000 HD 
HETATM   12  H   UNL     1      -7.071   9.428  66.532  1.00  0.00     0.000 HD 
HETATM   13  O   UNL     1      -6.724   5.723  67.217  1.00  0.00    -0.057 OA 
HETATM   14  H   UNL     1      -6.484   5.075  66.565  1.00  0.00     0.000 HD 
HETATM   15  C   UNL     1      -8.508   6.545  65.688  1.00  0.00    -0.144 C  
BRANCH   6  16
HETATM   16  O   UNL     1      -8.767   6.396  69.271  1.00  0.00    -0.124 OA 
BRANCH  16  17
HETATM   17  C   UNL     1      -9.181   6.543  70.567  1.00  0.00    -0.155 A  
HETATM   18  C   UNL     1     -10.507   6.192  70.834  1.00  0.00    -0.282 A  
HETATM   19  C   UNL     1     -10.235   6.873  73.128  1.00  0.00    -0.238 A  
HETATM   20  C   UNL     1     -11.042   6.367  72.114  1.00  0.00    -0.302 A  
HETATM   21  C   UNL     1      -8.897   7.166  72.889  1.00  0.00    -0.154 A  
HETATM   22  O   UNL     1     -10.716   7.105  74.380  1.00  0.00    -0.463 OA 
HETATM   23  C   UNL     1      -8.366   6.982  71.611  1.00  0.00    -0.108 A  
HETATM   24  H   UNL     1     -10.164   7.451  75.072  1.00  0.00     0.000 HD 
ENDBRANCH  16  17
ENDBRANCH   6  16
ENDBRANCH   2   4
TORSDOF 3
ENDMDL
MODEL      143
REMARK 921   NORMALIZED FREE ENERGY PREDICTED BY IDOCK:   -3.18 KCAL/MOL
REMARK 922        TOTAL FREE ENERGY PREDICTED BY IDOCK:   -4.16 KCAL/MOL
REMARK 923 INTER-LIGAND FREE ENERGY PREDICTED BY IDOCK:   -3.79 KCAL/MOL
REMARK 924 INTRA-LIGAND FREE ENERGY PREDICTED BY IDOCK:   -0.36 KCAL/MOL
REMARK 927      BINDING AFFINITY PREDICTED BY RF-SCORE:    0.00 PKD
ROOT
HETATM    1  O   UNL     1     -12.014   9.053  70.288  1.00  0.00    -0.469 OA 
HETATM    2  C   UNL     1     -11.283   7.891  69.925  1.00  0.00    -0.046 C  
HETATM    3  H   UNL     1     -12.762   8.837  70.833  1.00  0.00     0.000 HD 
ENDROOT
BRANCH   2   4
HETATM    4  C   UNL     1     -10.072   8.240  69.042  1.00  0.00    -0.202 C  
HETATM    5  O   UNL     1      -9.001   7.309  69.259  1.00  0.00    -0.136 OA 
HETATM    6  C   UNL     1      -9.110   6.048  68.578  1.00  0.00    -0.112 C  
HETATM    7  O   UNL     1      -9.366   9.328  66.988  1.00  0.00    -0.137 OA 
HETATM    8  C   UNL     1      -9.272   6.245  67.053  1.00  0.00    -0.124 C  
HETATM    9  O   UNL     1      -8.085   6.844  66.488  1.00  0.00    -0.106 OA 
HETATM   10  C   UNL     1     -10.461   7.157  66.731  1.00  0.00    -0.230 C  
HETATM   11  H   UNL     1      -9.560   9.469  66.068  1.00  0.00     0.000 HD 
HETATM   12  H   UNL     1      -8.185   6.966  65.551  1.00  0.00     0.000 HD 
HETATM   13  O   UNL     1     -11.695   6.462  66.871  1.00  0.00    -0.562 OA 
HETATM   14  H   UNL     1     -12.433   7.027  66.672  1.00  0.00     0.000 HD 
HETATM   15  C   UNL     1     -10.387   8.470  67.545  1.00  0.00    -0.267 C  
BRANCH   6  16
HETATM   16  O   UNL     1     -10.166   5.241  69.111  1.00  0.00    -0.205 OA 
BRANCH  16  17
HETATM   17  C   UNL     1      -9.831   4.424  70.156  1.00  0.00    -0.217 A  
HETATM   18  C   UNL     1     -10.103   4.916  71.436  1.00  0.00    -0.268 A  
HETATM   19  C   UNL     1      -9.122   2.945  72.412  1.00  0.00    -0.094 A  
HETATM   20  C   UNL     1      -9.738   4.182  72.569  1.00  0.00    -0.203 A  
HETATM   21  C   UNL     1      -8.905   2.417  71.145  1.00  0.00    -0.129 A  
HETATM   22  O   UNL     1      -8.707   2.209  73.480  1.00  0.00    -0.065 OA 
HETATM   23  C   UNL     1      -9.278   3.150  70.017  1.00  0.00    -0.221 A  
HETATM   24  H   UNL     1      -8.287   1.363  73.372  1.00  0.00     0.000 HD 
ENDBRANCH  16  17
ENDBRANCH   6  16
ENDBRANCH   2   4
TORSDOF 3
ENDMDL
MODEL      144
REMARK 921   NORMALIZED FREE ENERGY PREDICTED BY IDOCK:   -3.17 KCAL/MOL
REMARK 922        TOTAL FREE ENERGY PREDICTED BY IDOCK:   -4.15 KCAL/MOL
REMARK 923 INTER-LIGAND FREE ENERGY PREDICTED BY IDOCK:   -3.76 KCAL/MOL
REMARK 924 INTRA-LIGAND FREE ENERGY PREDICTED BY IDOCK:   -0.39 KCAL/MOL
REMARK 927      BINDING AFFINITY PREDICTED BY RF-SCORE:    0.00 PKD
ROOT
HETATM    1  O   UNL     1      -7.365   8.862  69.070  1.00  0.00    -0.071 OA 
HETATM    2  C   UNL     1      -7.946   9.374  70.260  1.00  0.00    -0.161 C  
HETATM    3  H   UNL     1      -6.417   8.820  69.136  1.00  0.00     0.000 HD 
ENDROOT
BRANCH   2   4
HETATM    4  C   UNL     1      -9.479   9.441  70.154  1.00  0.00    -0.240 C  
HETATM    5  O   UNL     1      -9.914  10.789  69.919  1.00  0.00     0.012 OA 
HETATM    6  C   UNL     1      -9.819  11.257  68.563  1.00  0.00    -0.197 C  
HETATM    7  O   UNL     1     -11.485   8.180  69.614  1.00  0.00    -0.440 OA 
HETATM    8  C   UNL     1     -10.586  10.331  67.593  1.00  0.00    -0.263 C  
HETATM    9  O   UNL     1     -12.003  10.361  67.874  1.00  0.00    -0.627 OA 
HETATM   10  C   UNL     1     -10.112   8.878  67.716  1.00  0.00    -0.210 C  
HETATM   11  H   UNL     1     -11.880   7.549  69.023  1.00  0.00     0.000 HD 
HETATM   12  H   UNL     1     -12.475   9.791  67.277  1.00  0.00     0.000 HD 
HETATM   13  O   UNL     1      -8.861   8.689  67.062  1.00  0.00    -0.128 OA 
HETATM   14  H   UNL     1      -8.567   7.788  67.138  1.00  0.00     0.000 HD 
HETATM   15  C   UNL     1     -10.122   8.415  69.191  1.00  0.00    -0.203 C  
BRANCH   6  16
HETATM   16  O   UNL     1      -8.458  11.427  68.150  1.00  0.00    -0.137 OA 
BRANCH  16  17
HETATM   17  C   UNL     1      -7.998  12.716  68.106  1.00  0.00    -0.158 A  
HETATM   18  C   UNL     1      -8.665  13.579  67.232  1.00  0.00    -0.228 A  
HETATM   19  C   UNL     1      -7.137  15.350  67.802  1.00  0.00    -0.165 A  
HETATM   20  C   UNL     1      -8.229  14.897  67.068  1.00  0.00    -0.228 A  
HETATM   21  C   UNL     1      -6.506  14.520  68.721  1.00  0.00    -0.089 A  
HETATM   22  O   UNL     1      -6.643  16.610  67.651  1.00  0.00    -0.130 OA 
HETATM   23  C   UNL     1      -6.951  13.207  68.886  1.00  0.00    -0.093 A  
HETATM   24  H   UNL     1      -5.898  16.919  68.153  1.00  0.00     0.000 HD 
ENDBRANCH  16  17
ENDBRANCH   6  16
ENDBRANCH   2   4
TORSDOF 3
ENDMDL
MODEL      145
REMARK 921   NORMALIZED FREE ENERGY PREDICTED BY IDOCK:   -3.15 KCAL/MOL
REMARK 922        TOTAL FREE ENERGY PREDICTED BY IDOCK:   -4.12 KCAL/MOL
REMARK 923 INTER-LIGAND FREE ENERGY PREDICTED BY IDOCK:   -3.51 KCAL/MOL
REMARK 924 INTRA-LIGAND FREE ENERGY PREDICTED BY IDOCK:   -0.62 KCAL/MOL
REMARK 927      BINDING AFFINITY PREDICTED BY RF-SCORE:    0.00 PKD
ROOT
HETATM    1  O   UNL     1      -7.086   4.542  69.277  1.00  0.00    -0.050 OA 
HETATM    2  C   UNL     1      -8.380   5.124  69.239  1.00  0.00    -0.087 C  
HETATM    3  H   UNL     1      -6.471   5.092  69.748  1.00  0.00     0.000 HD 
ENDROOT
BRANCH   2   4
HETATM    4  C   UNL     1      -9.376   4.233  68.477  1.00  0.00    -0.151 C  
HETATM    5  O   UNL     1     -10.338   5.032  67.772  1.00  0.00    -0.136 OA 
HETATM    6  C   UNL     1      -9.904   5.586  66.519  1.00  0.00    -0.172 C  
HETATM    7  O   UNL     1      -9.699   2.058  67.444  1.00  0.00    -0.410 OA 
HETATM    8  C   UNL     1      -9.405   4.483  65.560  1.00  0.00    -0.162 C  
HETATM    9  O   UNL     1     -10.486   3.598  65.194  1.00  0.00    -0.431 OA 
HETATM   10  C   UNL     1      -8.302   3.637  66.207  1.00  0.00    -0.105 C  
HETATM   11  H   UNL     1      -9.309   1.379  66.904  1.00  0.00     0.000 HD 
HETATM   12  H   UNL     1     -10.179   2.919  64.604  1.00  0.00     0.000 HD 
HETATM   13  O   UNL     1      -7.059   4.330  66.213  1.00  0.00    -0.065 OA 
HETATM   14  H   UNL     1      -6.375   3.807  66.614  1.00  0.00     0.000 HD 
HETATM   15  C   UNL     1      -8.741   3.129  67.600  1.00  0.00    -0.119 C  
BRANCH   6  16
HETATM   16  O   UNL     1      -8.913   6.605  66.698  1.00  0.00    -0.132 OA 
BRANCH  16  17
HETATM   17  C   UNL     1      -9.160   7.802  66.083  1.00  0.00    -0.153 A  
HETATM   18  C   UNL     1      -8.630   7.955  64.798  1.00  0.00     0.076 A  
HETATM   19  C   UNL     1      -9.471  10.211  64.712  1.00  0.00    -0.295 A  
HETATM   20  C   UNL     1      -8.774   9.166  64.113  1.00  0.00    -0.170 A  
HETATM   21  C   UNL     1     -10.057  10.047  65.962  1.00  0.00    -0.318 A  
HETATM   22  O   UNL     1      -9.604  11.424  64.109  1.00  0.00    -0.272 OA 
HETATM   23  C   UNL     1      -9.917   8.834  66.638  1.00  0.00    -0.355 A  
HETATM   24  H   UNL     1     -10.080  12.137  64.519  1.00  0.00     0.000 HD 
ENDBRANCH  16  17
ENDBRANCH   6  16
ENDBRANCH   2   4
TORSDOF 3
ENDMDL
MODEL      146
REMARK 921   NORMALIZED FREE ENERGY PREDICTED BY IDOCK:   -3.13 KCAL/MOL
REMARK 922        TOTAL FREE ENERGY PREDICTED BY IDOCK:   -4.10 KCAL/MOL
REMARK 923 INTER-LIGAND FREE ENERGY PREDICTED BY IDOCK:   -5.30 KCAL/MOL
REMARK 924 INTRA-LIGAND FREE ENERGY PREDICTED BY IDOCK:    1.21 KCAL/MOL
REMARK 927      BINDING AFFINITY PREDICTED BY RF-SCORE:    0.00 PKD
ROOT
HETATM    1  O   UNL     1     -11.415  12.178  62.927  1.00  0.00    -0.626 OA 
HETATM    2  C   UNL     1     -12.548  12.345  63.766  1.00  0.00    -0.437 C  
HETATM    3  H   UNL     1     -11.335  11.280  62.624  1.00  0.00     0.000 HD 
ENDROOT
BRANCH   2   4
HETATM    4  C   UNL     1     -12.677  13.797  64.256  1.00  0.00     0.026 C  
HETATM    5  O   UNL     1     -13.147  13.837  65.612  1.00  0.00    -0.591 OA 
HETATM    6  C   UNL     1     -12.161  13.601  66.631  1.00  0.00    -0.389 C  
HETATM    7  O   UNL     1     -11.871  16.069  63.953  1.00  0.00    -1.275 OA 
HETATM    8  C   UNL     1     -10.978  14.586  66.506  1.00  0.00    -0.321 C  
HETATM    9  O   UNL     1     -11.414  15.941  66.751  1.00  0.00     0.046 OA 
HETATM   10  C   UNL     1     -10.355  14.537  65.106  1.00  0.00    -0.411 C  
HETATM   11  H   UNL     1     -11.109  16.619  63.804  1.00  0.00     0.000 HD 
HETATM   12  H   UNL     1     -10.686  16.547  66.674  1.00  0.00     0.000 HD 
HETATM   13  O   UNL     1      -9.538  13.382  64.948  1.00  0.00    -0.523 OA 
HETATM   14  H   UNL     1      -9.151  13.351  64.080  1.00  0.00     0.000 HD 
HETATM   15  C   UNL     1     -11.438  14.691  64.014  1.00  0.00     0.155 C  
BRANCH   6  16
HETATM   16  O   UNL     1     -11.708  12.243  66.633  1.00  0.00    -0.452 OA 
BRANCH  16  17
HETATM   17  C   UNL     1     -10.611  11.974  67.406  1.00  0.00    -0.223 A  
HETATM   18  C   UNL     1     -10.168  13.013  68.229  1.00  0.00    -0.246 A  
HETATM   19  C   UNL     1      -8.329  11.648  68.975  1.00  0.00     0.143 A  
HETATM   20  C   UNL     1      -9.017  12.857  69.008  1.00  0.00     0.505 A  
HETATM   21  C   UNL     1      -8.797  10.587  68.209  1.00  0.00    -0.139 A  
HETATM   22  O   UNL     1      -7.180  11.456  69.680  1.00  0.00    -0.332 OA 
HETATM   23  C   UNL     1      -9.950  10.745  67.439  1.00  0.00    -0.214 A  
HETATM   24  H   UNL     1      -6.710  10.631  69.656  1.00  0.00     0.000 HD 
ENDBRANCH  16  17
ENDBRANCH   6  16
ENDBRANCH   2   4
TORSDOF 3
ENDMDL
MODEL      147
REMARK 921   NORMALIZED FREE ENERGY PREDICTED BY IDOCK:   -3.09 KCAL/MOL
REMARK 922        TOTAL FREE ENERGY PREDICTED BY IDOCK:   -4.05 KCAL/MOL
REMARK 923 INTER-LIGAND FREE ENERGY PREDICTED BY IDOCK:   -3.45 KCAL/MOL
REMARK 924 INTRA-LIGAND FREE ENERGY PREDICTED BY IDOCK:   -0.61 KCAL/MOL
REMARK 927      BINDING AFFINITY PREDICTED BY RF-SCORE:    0.00 PKD
ROOT
HETATM    1  O   UNL     1     -10.618   8.322  68.053  1.00  0.00    -0.348 OA 
HETATM    2  C   UNL     1     -10.780   9.376  67.115  1.00  0.00    -0.163 C  
HETATM    3  H   UNL     1     -11.394   7.776  68.100  1.00  0.00     0.000 HD 
ENDROOT
BRANCH   2   4
HETATM    4  C   UNL     1      -9.524  10.260  67.038  1.00  0.00    -0.163 C  
HETATM    5  O   UNL     1      -8.334   9.457  67.062  1.00  0.00    -0.125 OA 
HETATM    6  C   UNL     1      -7.958   8.846  65.816  1.00  0.00    -0.101 C  
HETATM    7  O   UNL     1      -8.651  12.402  66.292  1.00  0.00    -0.411 OA 
HETATM    8  C   UNL     1      -7.800   9.901  64.698  1.00  0.00    -0.142 C  
HETATM    9  O   UNL     1      -6.705  10.795  64.992  1.00  0.00    -0.352 OA 
HETATM   10  C   UNL     1      -9.071  10.745  64.543  1.00  0.00    -0.198 C  
HETATM   11  H   UNL     1      -8.651  13.050  65.597  1.00  0.00     0.000 HD 
HETATM   12  H   UNL     1      -6.608  11.444  64.305  1.00  0.00     0.000 HD 
HETATM   13  O   UNL     1     -10.086  10.024  63.854  1.00  0.00    -0.470 OA 
HETATM   14  H   UNL     1     -10.874  10.547  63.758  1.00  0.00     0.000 HD 
HETATM   15  C   UNL     1      -9.524  11.316  65.907  1.00  0.00    -0.222 C  
BRANCH   6  16
HETATM   16  O   UNL     1      -8.871   7.813  65.429  1.00  0.00    -0.085 OA 
BRANCH  16  17
HETATM   17  C   UNL     1      -8.486   6.530  65.713  1.00  0.00    -0.148 A  
HETATM   18  C   UNL     1      -7.492   5.989  64.893  1.00  0.00    -0.082 A  
HETATM   19  C   UNL     1      -7.648   3.895  66.073  1.00  0.00    -0.089 A  
HETATM   20  C   UNL     1      -7.078   4.664  65.063  1.00  0.00    -0.063 A  
HETATM   21  C   UNL     1      -8.590   4.443  66.935  1.00  0.00    -0.104 A  
HETATM   22  O   UNL     1      -7.313   2.588  66.256  1.00  0.00    -0.064 OA 
HETATM   23  C   UNL     1      -8.995   5.768  66.766  1.00  0.00    -0.118 A  
HETATM   24  H   UNL     1      -7.702   2.063  66.945  1.00  0.00     0.000 HD 
ENDBRANCH  16  17
ENDBRANCH   6  16
ENDBRANCH   2   4
TORSDOF 3
ENDMDL
MODEL      148
REMARK 921   NORMALIZED FREE ENERGY PREDICTED BY IDOCK:   -3.03 KCAL/MOL
REMARK 922        TOTAL FREE ENERGY PREDICTED BY IDOCK:   -3.98 KCAL/MOL
REMARK 923 INTER-LIGAND FREE ENERGY PREDICTED BY IDOCK:   -3.50 KCAL/MOL
REMARK 924 INTRA-LIGAND FREE ENERGY PREDICTED BY IDOCK:   -0.48 KCAL/MOL
REMARK 927      BINDING AFFINITY PREDICTED BY RF-SCORE:    0.00 PKD
ROOT
HETATM    1  O   UNL     1      -8.992   5.985  66.248  1.00  0.00    -0.142 OA 
HETATM    2  C   UNL     1      -8.255   7.005  66.906  1.00  0.00    -0.117 C  
HETATM    3  H   UNL     1      -8.595   5.131  66.376  1.00  0.00     0.000 HD 
ENDROOT
BRANCH   2   4
HETATM    4  C   UNL     1      -8.898   8.387  66.698  1.00  0.00    -0.142 C  
HETATM    5  O   UNL     1      -9.915   8.628  67.683  1.00  0.00    -0.170 OA 
HETATM    6  C   UNL     1      -9.455   9.056  68.976  1.00  0.00    -0.155 C  
HETATM    7  O   UNL     1      -8.552  10.618  65.799  1.00  0.00    -0.170 OA 
HETATM    8  C   UNL     1      -8.582  10.326  68.870  1.00  0.00    -0.150 C  
HETATM    9  O   UNL     1      -9.364  11.443  68.391  1.00  0.00    -0.183 OA 
HETATM   10  C   UNL     1      -7.411  10.120  67.903  1.00  0.00    -0.087 C  
HETATM   11  H   UNL     1      -7.942  11.341  65.706  1.00  0.00     0.000 HD 
HETATM   12  H   UNL     1      -8.826  12.224  68.325  1.00  0.00     0.000 HD 
HETATM   13  O   UNL     1      -6.380   9.343  68.503  1.00  0.00    -0.051 OA 
HETATM   14  H   UNL     1      -5.654   9.215  67.904  1.00  0.00     0.000 HD 
HETATM   15  C   UNL     1      -7.905   9.564  66.547  1.00  0.00    -0.101 C  
BRANCH   6  16
HETATM   16  O   UNL     1      -8.768   8.011  69.673  1.00  0.00    -0.131 OA 
BRANCH  16  17
HETATM   17  C   UNL     1      -9.537   7.214  70.476  1.00  0.00    -0.169 A  
HETATM   18  C   UNL     1     -10.596   7.843  71.136  1.00  0.00    -0.238 A  
HETATM   19  C   UNL     1     -11.150   5.774  72.237  1.00  0.00    -0.276 A  
HETATM   20  C   UNL     1     -11.400   7.127  72.029  1.00  0.00    -0.293 A  
HETATM   21  C   UNL     1     -10.140   5.124  71.539  1.00  0.00    -0.257 A  
HETATM   22  O   UNL     1     -11.874   5.039  73.127  1.00  0.00    -0.481 OA 
HETATM   23  C   UNL     1      -9.346   5.841  70.643  1.00  0.00    -0.186 A  
HETATM   24  H   UNL     1     -11.703   4.116  73.269  1.00  0.00     0.000 HD 
ENDBRANCH  16  17
ENDBRANCH   6  16
ENDBRANCH   2   4
TORSDOF 3
ENDMDL
MODEL      149
REMARK 921   NORMALIZED FREE ENERGY PREDICTED BY IDOCK:   -3.00 KCAL/MOL
REMARK 922        TOTAL FREE ENERGY PREDICTED BY IDOCK:   -3.94 KCAL/MOL
REMARK 923 INTER-LIGAND FREE ENERGY PREDICTED BY IDOCK:   -3.85 KCAL/MOL
REMARK 924 INTRA-LIGAND FREE ENERGY PREDICTED BY IDOCK:   -0.09 KCAL/MOL
REMARK 927      BINDING AFFINITY PREDICTED BY RF-SCORE:    0.00 PKD
ROOT
HETATM    1  O   UNL     1      -6.612   8.030  68.310  1.00  0.00    -0.053 OA 
HETATM    2  C   UNL     1      -5.977   9.007  69.120  1.00  0.00    -0.042 C  
HETATM    3  H   UNL     1      -5.987   7.576  67.757  1.00  0.00     0.000 HD 
ENDROOT
BRANCH   2   4
HETATM    4  C   UNL     1      -6.989   9.741  70.017  1.00  0.00    -0.106 C  
HETATM    5  O   UNL     1      -7.282  11.045  69.493  1.00  0.00    -0.130 OA 
HETATM    6  C   UNL     1      -8.229  11.095  68.413  1.00  0.00    -0.144 C  
HETATM    7  O   UNL     1      -8.786   9.448  71.627  1.00  0.00    -0.238 OA 
HETATM    8  C   UNL     1      -9.566  10.428  68.807  1.00  0.00    -0.177 C  
HETATM    9  O   UNL     1     -10.209  11.164  69.870  1.00  0.00    -0.372 OA 
HETATM   10  C   UNL     1      -9.350   8.989  69.293  1.00  0.00    -0.150 C  
HETATM   11  H   UNL     1      -9.564   8.951  71.852  1.00  0.00     0.000 HD 
HETATM   12  H   UNL     1     -11.031  10.753  70.113  1.00  0.00     0.000 HD 
HETATM   13  O   UNL     1      -9.119   8.107  68.200  1.00  0.00    -0.135 OA 
HETATM   14  H   UNL     1      -8.986   7.216  68.500  1.00  0.00     0.000 HD 
HETATM   15  C   UNL     1      -8.257   8.932  70.384  1.00  0.00    -0.138 C  
BRANCH   6  16
HETATM   16  O   UNL     1      -7.701  10.527  67.210  1.00  0.00    -0.104 OA 
BRANCH  16  17
HETATM   17  C   UNL     1      -8.493  10.623  66.098  1.00  0.00    -0.159 A  
HETATM   18  C   UNL     1      -8.381   9.585  65.169  1.00  0.00    -0.148 A  
HETATM   19  C   UNL     1      -9.952  10.699  63.723  1.00  0.00    -0.317 A  
HETATM   20  C   UNL     1      -9.102   9.626  63.971  1.00  0.00    -0.246 A  
HETATM   21  C   UNL     1     -10.119  11.705  64.668  1.00  0.00    -0.305 A  
HETATM   22  O   UNL     1     -10.644  10.811  62.555  1.00  0.00    -0.660 OA 
HETATM   23  C   UNL     1      -9.403  11.655  65.865  1.00  0.00    -0.232 A  
HETATM   24  H   UNL     1     -11.224  11.545  62.386  1.00  0.00     0.000 HD 
ENDBRANCH  16  17
ENDBRANCH   6  16
ENDBRANCH   2   4
TORSDOF 3
ENDMDL
MODEL      150
REMARK 921   NORMALIZED FREE ENERGY PREDICTED BY IDOCK:   -2.97 KCAL/MOL
REMARK 922        TOTAL FREE ENERGY PREDICTED BY IDOCK:   -3.91 KCAL/MOL
REMARK 923 INTER-LIGAND FREE ENERGY PREDICTED BY IDOCK:   -3.24 KCAL/MOL
REMARK 924 INTRA-LIGAND FREE ENERGY PREDICTED BY IDOCK:   -0.67 KCAL/MOL
REMARK 927      BINDING AFFINITY PREDICTED BY RF-SCORE:    0.00 PKD
ROOT
HETATM    1  O   UNL     1     -10.261   9.123  69.233  1.00  0.00    -0.197 OA 
HETATM    2  C   UNL     1      -9.428   9.127  70.383  1.00  0.00    -0.227 C  
HETATM    3  H   UNL     1      -9.939   9.722  68.568  1.00  0.00     0.000 HD 
ENDROOT
BRANCH   2   4
HETATM    4  C   UNL     1      -9.949   8.158  71.459  1.00  0.00    -0.182 C  
HETATM    5  O   UNL     1     -10.541   6.998  70.855  1.00  0.00    -0.214 OA 
HETATM    6  C   UNL     1      -9.628   5.982  70.408  1.00  0.00    -0.164 C  
HETATM    7  O   UNL     1      -9.687   7.429  73.762  1.00  0.00    -0.268 OA 
HETATM    8  C   UNL     1      -8.709   5.507  71.556  1.00  0.00    -0.136 C  
HETATM    9  O   UNL     1      -9.480   4.853  72.588  1.00  0.00    -0.135 OA 
HETATM   10  C   UNL     1      -7.963   6.683  72.197  1.00  0.00    -0.097 C  
HETATM   11  H   UNL     1      -9.070   7.218  74.453  1.00  0.00     0.000 HD 
HETATM   12  H   UNL     1      -8.916   4.562  73.294  1.00  0.00     0.000 HD 
HETATM   13  O   UNL     1      -6.881   7.113  71.379  1.00  0.00    -0.058 OA 
HETATM   14  H   UNL     1      -6.419   7.842  71.776  1.00  0.00     0.000 HD 
HETATM   15  C   UNL     1      -8.943   7.814  72.583  1.00  0.00    -0.169 C  
BRANCH   6  16
HETATM   16  O   UNL     1      -8.863   6.409  69.275  1.00  0.00    -0.127 OA 
BRANCH  16  17
HETATM   17  C   UNL     1      -9.047   5.699  68.120  1.00  0.00    -0.110 A  
HETATM   18  C   UNL     1     -10.300   5.825  67.512  1.00  0.00    -0.274 A  
HETATM   19  C   UNL     1      -9.644   4.246  65.816  1.00  0.00    -0.189 A  
HETATM   20  C   UNL     1     -10.607   5.089  66.363  1.00  0.00    -0.317 A  
HETATM   21  C   UNL     1      -8.375   4.163  66.375  1.00  0.00    -0.105 A  
HETATM   22  O   UNL     1      -9.904   3.475  64.724  1.00  0.00    -0.168 OA 
HETATM   23  C   UNL     1      -8.071   4.905  67.517  1.00  0.00    -0.102 A  
HETATM   24  H   UNL     1      -9.246   2.899  64.350  1.00  0.00     0.000 HD 
ENDBRANCH  16  17
ENDBRANCH   6  16
ENDBRANCH   2   4
TORSDOF 3
ENDMDL
MODEL      151
REMARK 921   NORMALIZED FREE ENERGY PREDICTED BY IDOCK:   -2.89 KCAL/MOL
REMARK 922        TOTAL FREE ENERGY PREDICTED BY IDOCK:   -3.81 KCAL/MOL
REMARK 923 INTER-LIGAND FREE ENERGY PREDICTED BY IDOCK:   -3.29 KCAL/MOL
REMARK 924 INTRA-LIGAND FREE ENERGY PREDICTED BY IDOCK:   -0.52 KCAL/MOL
REMARK 927      BINDING AFFINITY PREDICTED BY RF-SCORE:    0.00 PKD
ROOT
HETATM    1  O   UNL     1      -8.247   4.076  69.024  1.00  0.00    -0.069 OA 
HETATM    2  C   UNL     1      -9.502   4.691  68.769  1.00  0.00    -0.151 C  
HETATM    3  H   UNL     1      -7.932   4.279  69.897  1.00  0.00     0.000 HD 
ENDROOT
BRANCH   2   4
HETATM    4  C   UNL     1     -10.013   4.364  67.355  1.00  0.00    -0.094 C  
HETATM    5  O   UNL     1     -10.493   5.548  66.701  1.00  0.00    -0.243 OA 
HETATM    6  C   UNL     1      -9.492   6.401  66.122  1.00  0.00    -0.037 C  
HETATM    7  O   UNL     1      -9.825   2.818  65.490  1.00  0.00    -0.366 OA 
HETATM    8  C   UNL     1      -8.606   5.628  65.119  1.00  0.00    -0.130 C  
HETATM    9  O   UNL     1      -9.385   5.185  63.987  1.00  0.00    -0.352 OA 
HETATM   10  C   UNL     1      -7.975   4.391  65.771  1.00  0.00    -0.095 C  
HETATM   11  H   UNL     1      -9.232   2.306  64.951  1.00  0.00     0.000 HD 
HETATM   12  H   UNL     1      -8.840   4.709  63.371  1.00  0.00     0.000 HD 
HETATM   13  O   UNL     1      -6.882   4.753  66.608  1.00  0.00    -0.056 OA 
HETATM   14  H   UNL     1      -6.491   3.987  67.012  1.00  0.00     0.000 HD 
HETATM   15  C   UNL     1      -9.047   3.531  66.478  1.00  0.00    -0.162 C  
BRANCH   6  16
HETATM   16  O   UNL     1      -8.699   7.052  67.121  1.00  0.00    -0.119 OA 
BRANCH  16  17
HETATM   17  C   UNL     1      -9.099   8.309  67.484  1.00  0.00    -0.137 A  
HETATM   18  C   UNL     1     -10.277   8.775  66.895  1.00  0.00    -0.357 A  
HETATM   19  C   UNL     1     -10.014  10.888  68.022  1.00  0.00    -0.171 A  
HETATM   20  C   UNL     1     -10.733  10.072  67.153  1.00  0.00    -0.279 A  
HETATM   21  C   UNL     1      -8.876  10.412  68.662  1.00  0.00    -0.142 A  
HETATM   22  O   UNL     1     -10.388  12.172  68.275  1.00  0.00    -0.201 OA 
HETATM   23  C   UNL     1      -8.430   9.115  68.407  1.00  0.00    -0.128 A  
HETATM   24  H   UNL     1      -9.897  12.729  68.868  1.00  0.00     0.000 HD 
ENDBRANCH  16  17
ENDBRANCH   6  16
ENDBRANCH   2   4
TORSDOF 3
ENDMDL
MODEL      152
REMARK 921   NORMALIZED FREE ENERGY PREDICTED BY IDOCK:   -2.82 KCAL/MOL
REMARK 922        TOTAL FREE ENERGY PREDICTED BY IDOCK:   -3.74 KCAL/MOL
REMARK 923 INTER-LIGAND FREE ENERGY PREDICTED BY IDOCK:   -3.27 KCAL/MOL
REMARK 924 INTRA-LIGAND FREE ENERGY PREDICTED BY IDOCK:   -0.47 KCAL/MOL
REMARK 927      BINDING AFFINITY PREDICTED BY RF-SCORE:    0.00 PKD
ROOT
HETATM    1  O   UNL     1     -11.928  10.338  70.488  1.00  0.00    -0.280 OA 
HETATM    2  C   UNL     1     -10.620   9.786  70.490  1.00  0.00    -0.312 C  
HETATM    3  H   UNL     1     -12.374  10.178  71.312  1.00  0.00     0.000 HD 
ENDROOT
BRANCH   2   4
HETATM    4  C   UNL     1      -9.897  10.045  69.156  1.00  0.00    -0.205 C  
HETATM    5  O   UNL     1      -8.534   9.598  69.221  1.00  0.00    -0.130 OA 
HETATM    6  C   UNL     1      -8.321   8.189  69.040  1.00  0.00    -0.128 C  
HETATM    7  O   UNL     1     -10.200  10.342  66.764  1.00  0.00    -0.211 OA 
HETATM    8  C   UNL     1      -8.923   7.696  67.705  1.00  0.00    -0.131 C  
HETATM    9  O   UNL     1      -8.239   8.298  66.585  1.00  0.00    -0.103 OA 
HETATM   10  C   UNL     1     -10.410   8.053  67.597  1.00  0.00    -0.246 C  
HETATM   11  H   UNL     1     -10.657  10.039  65.987  1.00  0.00     0.000 HD 
HETATM   12  H   UNL     1      -8.609   7.995  65.764  1.00  0.00     0.000 HD 
HETATM   13  O   UNL     1     -11.207   7.180  68.391  1.00  0.00    -0.464 OA 
HETATM   14  H   UNL     1     -12.129   7.402  68.324  1.00  0.00     0.000 HD 
HETATM   15  C   UNL     1     -10.641   9.553  67.892  1.00  0.00    -0.244 C  
BRANCH   6  16
HETATM   16  O   UNL     1      -8.818   7.426  70.146  1.00  0.00    -0.146 OA 
BRANCH  16  17
HETATM   17  C   UNL     1      -8.420   6.118  70.204  1.00  0.00    -0.133 A  
HETATM   18  C   UNL     1      -7.041   5.894  70.241  1.00  0.00    -0.074 A  
HETATM   19  C   UNL     1      -7.419   3.515  70.217  1.00  0.00    -0.041 A  
HETATM   20  C   UNL     1      -6.535   4.590  70.236  1.00  0.00    -0.034 A  
HETATM   21  C   UNL     1      -8.792   3.726  70.244  1.00  0.00    -0.145 A  
HETATM   22  O   UNL     1      -6.981   2.227  70.168  1.00  0.00    -0.033 OA 
HETATM   23  C   UNL     1      -9.292   5.029  70.257  1.00  0.00    -0.212 A  
HETATM   24  H   UNL     1      -7.584   1.493  70.155  1.00  0.00     0.000 HD 
ENDBRANCH  16  17
ENDBRANCH   6  16
ENDBRANCH   2   4
TORSDOF 3
ENDMDL
MODEL      153
REMARK 921   NORMALIZED FREE ENERGY PREDICTED BY IDOCK:   -2.67 KCAL/MOL
REMARK 922        TOTAL FREE ENERGY PREDICTED BY IDOCK:   -3.55 KCAL/MOL
REMARK 923 INTER-LIGAND FREE ENERGY PREDICTED BY IDOCK:   -2.85 KCAL/MOL
REMARK 924 INTRA-LIGAND FREE ENERGY PREDICTED BY IDOCK:   -0.70 KCAL/MOL
REMARK 927      BINDING AFFINITY PREDICTED BY RF-SCORE:    0.00 PKD
ROOT
HETATM    1  O   UNL     1     -10.305   7.849  69.902  1.00  0.00    -0.213 OA 
HETATM    2  C   UNL     1     -10.324   7.608  71.301  1.00  0.00    -0.198 C  
HETATM    3  H   UNL     1      -9.866   8.667  69.696  1.00  0.00     0.000 HD 
ENDROOT
BRANCH   2   4
HETATM    4  C   UNL     1     -11.032   6.284  71.636  1.00  0.00    -0.261 C  
HETATM    5  O   UNL     1     -10.736   5.285  70.648  1.00  0.00    -0.230 OA 
HETATM    6  C   UNL     1      -9.469   4.620  70.782  1.00  0.00    -0.167 C  
HETATM    7  O   UNL     1     -11.969   4.936  73.427  1.00  0.00    -0.428 OA 
HETATM    8  C   UNL     1      -9.319   3.972  72.176  1.00  0.00    -0.128 C  
HETATM    9  O   UNL     1     -10.288   2.916  72.355  1.00  0.00    -0.155 OA 
HETATM   10  C   UNL     1      -9.529   4.999  73.295  1.00  0.00    -0.133 C  
HETATM   11  H   UNL     1     -11.855   4.627  74.319  1.00  0.00     0.000 HD 
HETATM   12  H   UNL     1     -10.196   2.518  73.213  1.00  0.00     0.000 HD 
HETATM   13  O   UNL     1      -8.384   5.831  73.450  1.00  0.00    -0.116 OA 
HETATM   14  H   UNL     1      -8.514   6.468  74.143  1.00  0.00     0.000 HD 
HETATM   15  C   UNL     1     -10.847   5.781  73.087  1.00  0.00    -0.276 C  
BRANCH   6  16
HETATM   16  O   UNL     1      -8.372   5.494  70.495  1.00  0.00    -0.111 OA 
BRANCH  16  17
HETATM   17  C   UNL     1      -7.814   5.373  69.251  1.00  0.00    -0.089 A  
HETATM   18  C   UNL     1      -7.980   4.139  68.618  1.00  0.00    -0.072 A  
HETATM   19  C   UNL     1      -6.657   4.906  66.757  1.00  0.00    -0.050 A  
HETATM   20  C   UNL     1      -7.391   3.897  67.372  1.00  0.00    -0.068 A  
HETATM   21  C   UNL     1      -6.539   6.158  67.349  1.00  0.00    -0.052 A  
HETATM   22  O   UNL     1      -6.028   4.711  65.566  1.00  0.00    -0.021 OA 
HETATM   23  C   UNL     1      -7.135   6.397  68.588  1.00  0.00    -0.083 A  
HETATM   24  H   UNL     1      -5.526   5.400  65.146  1.00  0.00     0.000 HD 
ENDBRANCH  16  17
ENDBRANCH   6  16
ENDBRANCH   2   4
TORSDOF 3
ENDMDL
MODEL      154
REMARK 921   NORMALIZED FREE ENERGY PREDICTED BY IDOCK:   -2.65 KCAL/MOL
REMARK 922        TOTAL FREE ENERGY PREDICTED BY IDOCK:   -3.53 KCAL/MOL
REMARK 923 INTER-LIGAND FREE ENERGY PREDICTED BY IDOCK:   -2.86 KCAL/MOL
REMARK 924 INTRA-LIGAND FREE ENERGY PREDICTED BY IDOCK:   -0.67 KCAL/MOL
REMARK 927      BINDING AFFINITY PREDICTED BY RF-SCORE:    0.00 PKD
ROOT
HETATM    1  O   UNL     1      -7.133   8.474  68.966  1.00  0.00    -0.063 OA 
HETATM    2  C   UNL     1      -7.819   9.108  67.897  1.00  0.00    -0.100 C  
HETATM    3  H   UNL     1      -6.193   8.592  68.895  1.00  0.00     0.000 HD 
ENDROOT
BRANCH   2   4
HETATM    4  C   UNL     1      -9.341   8.917  68.013  1.00  0.00    -0.142 C  
HETATM    5  O   UNL     1      -9.888   8.430  66.778  1.00  0.00    -0.211 OA 
HETATM    6  C   UNL     1      -9.749   7.020  66.537  1.00  0.00    -0.125 C  
HETATM    7  O   UNL     1     -11.175   8.508  69.554  1.00  0.00    -0.445 OA 
HETATM    8  C   UNL     1     -10.357   6.190  67.690  1.00  0.00    -0.201 C  
HETATM    9  O   UNL     1     -11.785   6.391  67.764  1.00  0.00    -0.510 OA 
HETATM   10  C   UNL     1      -9.753   6.586  69.043  1.00  0.00    -0.135 C  
HETATM   11  H   UNL     1     -11.467   8.016  70.313  1.00  0.00     0.000 HD 
HETATM   12  H   UNL     1     -12.159   5.880  68.474  1.00  0.00     0.000 HD 
HETATM   13  O   UNL     1      -8.449   6.037  69.204  1.00  0.00    -0.113 OA 
HETATM   14  H   UNL     1      -8.075   6.282  70.042  1.00  0.00     0.000 HD 
HETATM   15  C   UNL     1      -9.817   8.117  69.249  1.00  0.00    -0.182 C  
BRANCH   6  16
HETATM   16  O   UNL     1      -8.387   6.650  66.294  1.00  0.00    -0.114 OA 
BRANCH  16  17
HETATM   17  C   UNL     1      -8.192   5.480  65.611  1.00  0.00    -0.127 A  
HETATM   18  C   UNL     1      -8.742   5.416  64.328  1.00  0.00     0.012 A  
HETATM   19  C   UNL     1      -7.988   3.140  64.109  1.00  0.00    -0.082 A  
HETATM   20  C   UNL     1      -8.651   4.240  63.577  1.00  0.00    -0.110 A  
HETATM   21  C   UNL     1      -7.382   3.213  65.358  1.00  0.00    -0.072 A  
HETATM   22  O   UNL     1      -7.907   1.957  63.440  1.00  0.00    -0.058 OA 
HETATM   23  C   UNL     1      -7.469   4.391  66.101  1.00  0.00    -0.085 A  
HETATM   24  H   UNL     1      -7.454   1.205  63.804  1.00  0.00     0.000 HD 
ENDBRANCH  16  17
ENDBRANCH   6  16
ENDBRANCH   2   4
TORSDOF 3
ENDMDL
MODEL      155
REMARK 921   NORMALIZED FREE ENERGY PREDICTED BY IDOCK:   -2.51 KCAL/MOL
REMARK 922        TOTAL FREE ENERGY PREDICTED BY IDOCK:   -3.37 KCAL/MOL
REMARK 923 INTER-LIGAND FREE ENERGY PREDICTED BY IDOCK:   -2.84 KCAL/MOL
REMARK 924 INTRA-LIGAND FREE ENERGY PREDICTED BY IDOCK:   -0.53 KCAL/MOL
REMARK 927      BINDING AFFINITY PREDICTED BY RF-SCORE:    0.00 PKD
ROOT
HETATM    1  O   UNL     1     -10.703   7.610  70.525  1.00  0.00    -0.226 OA 
HETATM    2  C   UNL     1     -10.704   8.949  70.053  1.00  0.00    -0.228 C  
HETATM    3  H   UNL     1     -11.587   7.268  70.602  1.00  0.00     0.000 HD 
ENDROOT
BRANCH   2   4
HETATM    4  C   UNL     1      -9.274   9.502  69.928  1.00  0.00    -0.220 C  
HETATM    5  O   UNL     1      -8.316   8.433  69.890  1.00  0.00    -0.119 OA 
HETATM    6  C   UNL     1      -8.152   7.775  68.622  1.00  0.00    -0.127 C  
HETATM    7  O   UNL     1      -7.937  11.382  69.164  1.00  0.00    -0.324 OA 
HETATM    8  C   UNL     1      -7.788   8.783  67.509  1.00  0.00    -0.102 C  
HETATM    9  O   UNL     1      -6.497   9.378  67.762  1.00  0.00    -0.058 OA 
HETATM   10  C   UNL     1      -8.820   9.914  67.420  1.00  0.00    -0.132 C  
HETATM   11  H   UNL     1      -7.808  12.026  68.476  1.00  0.00     0.000 HD 
HETATM   12  H   UNL     1      -6.273   9.998  67.077  1.00  0.00     0.000 HD 
HETATM   13  O   UNL     1     -10.008   9.475  66.770  1.00  0.00    -0.201 OA 
HETATM   14  H   UNL     1     -10.648  10.176  66.715  1.00  0.00     0.000 HD 
HETATM   15  C   UNL     1      -9.064  10.549  68.808  1.00  0.00    -0.166 C  
BRANCH   6  16
HETATM   16  O   UNL     1      -9.305   7.003  68.267  1.00  0.00    -0.129 OA 
BRANCH  16  17
HETATM   17  C   UNL     1      -9.074   5.700  67.918  1.00  0.00    -0.107 A  
HETATM   18  C   UNL     1      -8.026   5.060  68.585  1.00  0.00    -0.085 A  
HETATM   19  C   UNL     1      -8.386   3.078  67.265  1.00  0.00    -0.086 A  
HETATM   20  C   UNL     1      -7.671   3.748  68.252  1.00  0.00    -0.065 A  
HETATM   21  C   UNL     1      -9.470   3.683  66.640  1.00  0.00    -0.197 A  
HETATM   22  O   UNL     1      -8.056   1.816  66.872  1.00  0.00    -0.069 OA 
HETATM   23  C   UNL     1      -9.825   4.988  66.982  1.00  0.00    -0.205 A  
HETATM   24  H   UNL     1      -8.545   1.359  66.198  1.00  0.00     0.000 HD 
ENDBRANCH  16  17
ENDBRANCH   6  16
ENDBRANCH   2   4
TORSDOF 3
ENDMDL
MODEL      156
REMARK 921   NORMALIZED FREE ENERGY PREDICTED BY IDOCK:   -1.94 KCAL/MOL
REMARK 922        TOTAL FREE ENERGY PREDICTED BY IDOCK:   -2.70 KCAL/MOL
REMARK 923 INTER-LIGAND FREE ENERGY PREDICTED BY IDOCK:   -2.20 KCAL/MOL
REMARK 924 INTRA-LIGAND FREE ENERGY PREDICTED BY IDOCK:   -0.49 KCAL/MOL
REMARK 927      BINDING AFFINITY PREDICTED BY RF-SCORE:    0.00 PKD
ROOT
HETATM    1  O   UNL     1     -13.191  12.624  71.989  1.00  0.00    -0.461 OA 
HETATM    2  C   UNL     1     -12.931  13.209  70.721  1.00  0.00    -0.001 C  
HETATM    3  H   UNL     1     -13.739  11.851  71.909  1.00  0.00     0.000 HD 
ENDROOT
BRANCH   2   4
HETATM    4  C   UNL     1     -12.044  14.460  70.850  1.00  0.00    -0.344 C  
HETATM    5  O   UNL     1     -10.654  14.105  70.800  1.00  0.00     0.912 OA 
HETATM    6  C   UNL     1     -10.106  13.874  69.492  1.00  0.00     0.476 C  
HETATM    7  O   UNL     1     -11.946  16.863  70.504  1.00  0.00     0.242 OA 
HETATM    8  C   UNL     1     -10.320  15.094  68.569  1.00  0.00    -0.230 C  
HETATM    9  O   UNL     1      -9.586  16.238  69.057  1.00  0.00    -0.237 OA 
HETATM   10  C   UNL     1     -11.802  15.482  68.492  1.00  0.00    -0.258 C  
HETATM   11  H   UNL     1     -12.170  17.583  69.924  1.00  0.00     0.000 HD 
HETATM   12  H   UNL     1      -9.718  16.988  68.490  1.00  0.00     0.000 HD 
HETATM   13  O   UNL     1     -12.522  14.593  67.646  1.00  0.00    -0.568 OA 
HETATM   14  H   UNL     1     -13.441  14.833  67.598  1.00  0.00     0.000 HD 
HETATM   15  C   UNL     1     -12.408  15.631  69.906  1.00  0.00    -0.234 C  
BRANCH   6  16
HETATM   16  O   UNL     1     -10.623  12.677  68.899  1.00  0.00    -0.212 OA 
BRANCH  16  17
HETATM   17  C   UNL     1      -9.807  12.050  67.996  1.00  0.00    -0.199 A  
HETATM   18  C   UNL     1     -10.407  11.645  66.801  1.00  0.00    -0.257 A  
HETATM   19  C   UNL     1      -8.329  10.664  66.081  1.00  0.00    -0.158 A  
HETATM   20  C   UNL     1      -9.671  10.939  65.843  1.00  0.00    -0.269 A  
HETATM   21  C   UNL     1      -7.706  11.119  67.237  1.00  0.00    -0.130 A  
HETATM   22  O   UNL     1      -7.577   9.944  65.203  1.00  0.00    -0.120 OA 
HETATM   23  C   UNL     1      -8.442  11.829  68.186  1.00  0.00    -0.158 A  
HETATM   24  H   UNL     1      -6.660   9.757  65.365  1.00  0.00     0.000 HD 
ENDBRANCH  16  17
ENDBRANCH   6  16
ENDBRANCH   2   4
TORSDOF 3
ENDMDL
MODEL      157
REMARK 921   NORMALIZED FREE ENERGY PREDICTED BY IDOCK:   -1.85 KCAL/MOL
REMARK 922        TOTAL FREE ENERGY PREDICTED BY IDOCK:   -2.60 KCAL/MOL
REMARK 923 INTER-LIGAND FREE ENERGY PREDICTED BY IDOCK:   -2.34 KCAL/MOL
REMARK 924 INTRA-LIGAND FREE ENERGY PREDICTED BY IDOCK:   -0.26 KCAL/MOL
REMARK 927      BINDING AFFINITY PREDICTED BY RF-SCORE:    0.00 PKD
ROOT
HETATM    1  O   UNL     1      -6.191   8.240  70.428  1.00  0.00    -0.035 OA 
HETATM    2  C   UNL     1      -6.500   9.624  70.353  1.00  0.00    -0.088 C  
HETATM    3  H   UNL     1      -5.253   8.095  70.483  1.00  0.00     0.000 HD 
ENDROOT
BRANCH   2   4
HETATM    4  C   UNL     1      -8.018   9.858  70.265  1.00  0.00    -0.109 C  
HETATM    5  O   UNL     1      -8.422  10.070  68.903  1.00  0.00    -0.117 OA 
HETATM    6  C   UNL     1      -8.576   8.890  68.098  1.00  0.00    -0.130 C  
HETATM    7  O   UNL     1     -10.153   9.440  71.347  1.00  0.00    -0.301 OA 
HETATM    8  C   UNL     1      -9.568   7.895  68.741  1.00  0.00    -0.152 C  
HETATM    9  O   UNL     1     -10.896   8.461  68.789  1.00  0.00    -0.418 OA 
HETATM   10  C   UNL     1      -9.154   7.541  70.174  1.00  0.00    -0.147 C  
HETATM   11  H   UNL     1     -10.690   8.801  71.802  1.00  0.00     0.000 HD 
HETATM   12  H   UNL     1     -11.507   7.849  69.185  1.00  0.00     0.000 HD 
HETATM   13  O   UNL     1      -8.071   6.617  70.183  1.00  0.00    -0.119 OA 
HETATM   14  H   UNL     1      -7.814   6.398  71.071  1.00  0.00     0.000 HD 
HETATM   15  C   UNL     1      -8.893   8.818  71.005  1.00  0.00    -0.211 C  
BRANCH   6  16
HETATM   16  O   UNL     1      -7.318   8.262  67.821  1.00  0.00    -0.089 OA 
BRANCH  16  17
HETATM   17  C   UNL     1      -7.151   7.779  66.552  1.00  0.00    -0.078 A  
HETATM   18  C   UNL     1      -7.432   6.423  66.366  1.00  0.00    -0.086 A  
HETATM   19  C   UNL     1      -6.769   6.593  64.057  1.00  0.00    -0.044 A  
HETATM   20  C   UNL     1      -7.230   5.822  65.119  1.00  0.00    -0.070 A  
HETATM   21  C   UNL     1      -6.547   7.956  64.214  1.00  0.00    -0.060 A  
HETATM   22  O   UNL     1      -6.514   6.051  62.834  1.00  0.00    -0.025 OA 
HETATM   23  C   UNL     1      -6.758   8.552  65.458  1.00  0.00    -0.059 A  
HETATM   24  H   UNL     1      -6.199   6.579  62.109  1.00  0.00     0.000 HD 
ENDBRANCH  16  17
ENDBRANCH   6  16
ENDBRANCH   2   4
TORSDOF 3
ENDMDL
MODEL      158
REMARK 921   NORMALIZED FREE ENERGY PREDICTED BY IDOCK:   -1.30 KCAL/MOL
REMARK 922        TOTAL FREE ENERGY PREDICTED BY IDOCK:   -1.95 KCAL/MOL
REMARK 923 INTER-LIGAND FREE ENERGY PREDICTED BY IDOCK:   -1.83 KCAL/MOL
REMARK 924 INTRA-LIGAND FREE ENERGY PREDICTED BY IDOCK:   -0.11 KCAL/MOL
REMARK 927      BINDING AFFINITY PREDICTED BY RF-SCORE:    0.00 PKD
ROOT
HETATM    1  O   UNL     1     -13.112  11.274  72.122  1.00  0.00    -0.518 OA 
HETATM    2  C   UNL     1     -12.840  12.530  71.517  1.00  0.00    -0.265 C  
HETATM    3  H   UNL     1     -13.652  10.728  71.562  1.00  0.00     0.000 HD 
ENDROOT
BRANCH   2   4
HETATM    4  C   UNL     1     -11.967  13.414  72.424  1.00  0.00     1.633 C  
HETATM    5  O   UNL     1     -10.969  14.102  71.654  1.00  0.00     1.378 OA 
HETATM    6  C   UNL     1     -11.407  15.281  70.959  1.00  0.00    -0.351 C  
HETATM    7  O   UNL     1     -11.893  14.637  74.522  1.00  0.00    -0.566 OA 
HETATM    8  C   UNL     1     -12.050  16.299  71.928  1.00  0.00    -0.379 C  
HETATM    9  O   UNL     1     -11.072  16.793  72.869  1.00  0.00     1.006 OA 
HETATM   10  C   UNL     1     -13.195  15.664  72.726  1.00  0.00    -0.516 C  
HETATM   11  H   UNL     1     -12.369  15.208  75.115  1.00  0.00     0.000 HD 
HETATM   12  H   UNL     1     -11.467  17.419  73.465  1.00  0.00     0.000 HD 
HETATM   13  O   UNL     1     -14.367  15.536  71.928  1.00  0.00    -0.509 OA 
HETATM   14  H   UNL     1     -15.077  15.142  72.423  1.00  0.00     0.000 HD 
HETATM   15  C   UNL     1     -12.741  14.343  73.388  1.00  0.00    -0.172 C  
BRANCH   6  16
HETATM   16  O   UNL     1     -12.291  14.966  69.876  1.00  0.00    -0.314 OA 
BRANCH  16  17
HETATM   17  C   UNL     1     -11.713  14.403  68.771  1.00  0.00    -0.337 A  
HETATM   18  C   UNL     1     -11.086  15.285  67.886  1.00  0.00    -0.321 A  
HETATM   19  C   UNL     1     -10.573  13.452  66.410  1.00  0.00    -0.285 A  
HETATM   20  C   UNL     1     -10.523  14.813  66.696  1.00  0.00    -0.286 A  
HETATM   21  C   UNL     1     -11.138  12.559  67.313  1.00  0.00    -0.319 A  
HETATM   22  O   UNL     1     -10.079  12.945  65.247  1.00  0.00    -0.332 OA 
HETATM   23  C   UNL     1     -11.691  13.034  68.503  1.00  0.00    -0.377 A  
HETATM   24  H   UNL     1     -10.113  12.015  65.053  1.00  0.00     0.000 HD 
ENDBRANCH  16  17
ENDBRANCH   6  16
ENDBRANCH   2   4
TORSDOF 3
ENDMDL
