MODEL        1
REMARK 921   NORMALIZED FREE ENERGY PREDICTED BY IDOCK:   -6.66 KCAL/MOL
REMARK 922        TOTAL FREE ENERGY PREDICTED BY IDOCK:  -11.44 KCAL/MOL
REMARK 923 INTER-LIGAND FREE ENERGY PREDICTED BY IDOCK:   -9.78 KCAL/MOL
REMARK 924 INTRA-LIGAND FREE ENERGY PREDICTED BY IDOCK:   -1.66 KCAL/MOL
REMARK 927      BINDING AFFINITY PREDICTED BY RF-SCORE:    0.00 PKD
ROOT
HETATM    1  C   UNL     1     -12.570  16.103  73.778  1.00  0.00    -0.588 C  
HETATM    2  O   UNL     1     -12.032  16.431  72.504  1.00  0.00    -0.534 OA 
ENDROOT
BRANCH   2   3
HETATM    3  C   UNL     1     -12.099  15.461  71.542  1.00  0.00    -0.371 A  
HETATM    4  C   UNL     1     -12.537  14.150  71.727  1.00  0.00    -0.400 A  
HETATM    5  C   UNL     1     -12.497  13.237  70.669  1.00  0.00    -0.373 A  
HETATM    6  C   UNL     1     -12.031  13.629  69.406  1.00  0.00    -0.394 A  
HETATM    7  C   UNL     1     -11.665  15.861  70.278  1.00  0.00    -0.352 A  
HETATM    8  C   UNL     1     -11.629  14.955  69.218  1.00  0.00    -0.330 A  
BRANCH   6   9
HETATM    9  C   UNL     1     -11.823  12.621  68.300  1.00  0.00    -0.354 C  
BRANCH   9  10
HETATM   10  C   UNL     1     -10.714  11.566  68.521  1.00  0.00    -0.209 C  
HETATM   11  C   UNL     1     -10.457  10.765  67.238  1.00  0.00    -0.282 C  
BRANCH  10  12
HETATM   12  N   UNL     1      -9.429  12.173  68.920  1.00  0.00    -0.406 NA 
HETATM   13  H   UNL     1      -8.982  11.624  69.655  1.00  0.00     0.000 HD 
BRANCH  12  14
HETATM   14  C   UNL     1      -8.506  12.383  67.792  1.00  0.00    -0.169 C  
BRANCH  14  15
HETATM   15  C   UNL     1      -8.028  13.847  67.642  1.00  0.00    -0.175 C  
HETATM   16  H   UNL     1      -7.538  15.326  68.847  1.00  0.00     0.000 HD 
HETATM   17  O   UNL     1      -7.831  14.426  68.939  1.00  0.00    -0.138 OA 
BRANCH  15  18
HETATM   18  C   UNL     1      -8.919  14.713  66.775  1.00  0.00    -0.283 A  
HETATM   19  C   UNL     1      -9.858  14.100  65.925  1.00  0.00    -0.312 A  
HETATM   20  C   UNL     1     -10.683  14.861  65.089  1.00  0.00    -0.411 A  
HETATM   21  H   UNL     1     -11.227  18.020  64.344  1.00  0.00     0.000 HD 
HETATM   22  C   UNL     1     -10.571  16.257  65.132  1.00  0.00    -0.304 A  
HETATM   23  C   UNL     1      -8.846  16.112  66.809  1.00  0.00    -0.275 A  
HETATM   24  C   UNL     1      -9.669  16.881  65.989  1.00  0.00    -0.260 A  
HETATM   25  O   UNL     1     -11.303  17.073  64.315  1.00  0.00    -1.191 OA 
BRANCH  20  26
HETATM   26  N   UNL     1     -11.627  14.271  64.228  1.00  0.00    -0.609 N  
HETATM   27  H   UNL     1     -12.324  14.895  63.823  1.00  0.00     0.000 HD 
HETATM   28  O   UNL     1     -12.585  12.539  63.123  1.00  0.00    -0.598 OA 
HETATM   29  C   UNL     1     -11.714  12.953  63.874  1.00  0.00    -0.460 C  
ENDBRANCH  20  26
ENDBRANCH  15  18
ENDBRANCH  14  15
ENDBRANCH  12  14
ENDBRANCH  10  12
ENDBRANCH   9  10
ENDBRANCH   6   9
ENDBRANCH   2   3
TORSDOF 8
ENDMDL
MODEL        2
REMARK 921   NORMALIZED FREE ENERGY PREDICTED BY IDOCK:   -6.28 KCAL/MOL
REMARK 922        TOTAL FREE ENERGY PREDICTED BY IDOCK:  -10.88 KCAL/MOL
REMARK 923 INTER-LIGAND FREE ENERGY PREDICTED BY IDOCK:   -9.60 KCAL/MOL
REMARK 924 INTRA-LIGAND FREE ENERGY PREDICTED BY IDOCK:   -1.28 KCAL/MOL
REMARK 927      BINDING AFFINITY PREDICTED BY RF-SCORE:    0.00 PKD
ROOT
HETATM    1  C   UNL     1     -12.857  16.121  73.630  1.00  0.00    -0.558 C  
HETATM    2  O   UNL     1     -13.672  15.627  72.575  1.00  0.00    -0.511 OA 
ENDROOT
BRANCH   2   3
HETATM    3  C   UNL     1     -13.219  14.516  71.920  1.00  0.00    -0.359 A  
HETATM    4  C   UNL     1     -12.503  14.503  70.723  1.00  0.00    -0.420 A  
HETATM    5  C   UNL     1     -12.151  13.289  70.124  1.00  0.00    -0.403 A  
HETATM    6  C   UNL     1     -12.499  12.071  70.724  1.00  0.00    -0.372 A  
HETATM    7  C   UNL     1     -13.537  13.305  72.535  1.00  0.00    -0.637 A  
HETATM    8  C   UNL     1     -13.184  12.092  71.944  1.00  0.00    -0.469 A  
BRANCH   6   9
HETATM    9  C   UNL     1     -12.277  10.756  70.015  1.00  0.00    -0.409 C  
BRANCH   9  10
HETATM   10  C   UNL     1     -10.818  10.253  69.924  1.00  0.00    -0.302 C  
HETATM   11  C   UNL     1     -10.471   9.358  71.121  1.00  0.00    -0.392 C  
BRANCH  10  12
HETATM   12  N   UNL     1     -10.569   9.462  68.702  1.00  0.00    -0.267 NA 
HETATM   13  H   UNL     1     -11.438   9.066  68.345  1.00  0.00     0.000 HD 
BRANCH  12  14
HETATM   14  C   UNL     1      -9.867  10.215  67.649  1.00  0.00    -0.172 C  
BRANCH  14  15
HETATM   15  C   UNL     1     -10.496  10.056  66.245  1.00  0.00    -0.102 C  
HETATM   16  H   UNL     1      -9.952   9.309  64.506  1.00  0.00     0.000 HD 
HETATM   17  O   UNL     1      -9.566   9.407  65.369  1.00  0.00    -0.273 OA 
BRANCH  15  18
HETATM   18  C   UNL     1     -11.023  11.342  65.643  1.00  0.00    -0.254 A  
HETATM   19  C   UNL     1     -11.224  12.459  66.475  1.00  0.00    -0.368 A  
HETATM   20  C   UNL     1     -11.733  13.659  65.964  1.00  0.00    -0.358 A  
HETATM   21  H   UNL     1     -12.761  14.901  63.095  1.00  0.00     0.000 HD 
HETATM   22  C   UNL     1     -12.021  13.734  64.595  1.00  0.00    -0.416 A  
HETATM   23  C   UNL     1     -11.302  11.456  64.275  1.00  0.00    -0.244 A  
HETATM   24  C   UNL     1     -11.800  12.648  63.753  1.00  0.00    -0.574 A  
HETATM   25  O   UNL     1     -12.566  14.850  64.024  1.00  0.00    -0.832 OA 
BRANCH  20  26
HETATM   26  N   UNL     1     -11.945  14.789  66.776  1.00  0.00    -0.295 N  
HETATM   27  H   UNL     1     -12.912  15.092  66.887  1.00  0.00     0.000 HD 
HETATM   28  O   UNL     1     -11.290  16.502  68.109  1.00  0.00    -0.308 OA 
HETATM   29  C   UNL     1     -10.999  15.525  67.433  1.00  0.00    -0.306 C  
ENDBRANCH  20  26
ENDBRANCH  15  18
ENDBRANCH  14  15
ENDBRANCH  12  14
ENDBRANCH  10  12
ENDBRANCH   9  10
ENDBRANCH   6   9
ENDBRANCH   2   3
TORSDOF 8
ENDMDL
MODEL        3
REMARK 921   NORMALIZED FREE ENERGY PREDICTED BY IDOCK:   -6.27 KCAL/MOL
REMARK 922        TOTAL FREE ENERGY PREDICTED BY IDOCK:  -10.86 KCAL/MOL
REMARK 923 INTER-LIGAND FREE ENERGY PREDICTED BY IDOCK:   -9.26 KCAL/MOL
REMARK 924 INTRA-LIGAND FREE ENERGY PREDICTED BY IDOCK:   -1.60 KCAL/MOL
REMARK 927      BINDING AFFINITY PREDICTED BY RF-SCORE:    0.00 PKD
ROOT
HETATM    1  C   UNL     1     -12.074  16.337  72.140  1.00  0.00    -0.454 C  
HETATM    2  O   UNL     1     -13.083  15.598  71.464  1.00  0.00    -0.467 OA 
ENDROOT
BRANCH   2   3
HETATM    3  C   UNL     1     -12.877  14.252  71.340  1.00  0.00    -0.344 A  
HETATM    4  C   UNL     1     -12.063  13.631  70.394  1.00  0.00    -0.421 A  
HETATM    5  C   UNL     1     -11.987  12.235  70.336  1.00  0.00    -0.349 A  
HETATM    6  C   UNL     1     -12.716  11.444  71.234  1.00  0.00    -0.498 A  
HETATM    7  C   UNL     1     -13.578  13.467  72.255  1.00  0.00    -0.690 A  
HETATM    8  C   UNL     1     -13.501  12.075  72.204  1.00  0.00    -0.338 A  
BRANCH   6   9
HETATM    9  C   UNL     1     -12.780   9.942  71.082  1.00  0.00    -0.462 C  
BRANCH   9  10
HETATM   10  C   UNL     1     -11.429   9.198  70.968  1.00  0.00    -0.306 C  
HETATM   11  C   UNL     1     -11.218   8.259  72.163  1.00  0.00    -0.413 C  
BRANCH  10  12
HETATM   12  N   UNL     1     -11.342   8.373  69.746  1.00  0.00    -0.445 NA 
HETATM   13  H   UNL     1     -12.223   8.393  69.233  1.00  0.00     0.000 HD 
BRANCH  12  14
HETATM   14  C   UNL     1     -10.218   8.743  68.869  1.00  0.00    -0.207 C  
BRANCH  14  15
HETATM   15  C   UNL     1     -10.655   9.427  67.552  1.00  0.00    -0.267 C  
HETATM   16  H   UNL     1     -10.395   9.124  65.624  1.00  0.00     0.000 HD 
HETATM   17  O   UNL     1     -10.127   8.704  66.433  1.00  0.00    -0.284 OA 
BRANCH  15  18
HETATM   18  C   UNL     1     -10.320  10.902  67.471  1.00  0.00    -0.237 A  
HETATM   19  C   UNL     1     -11.147  11.756  66.717  1.00  0.00    -0.360 A  
HETATM   20  C   UNL     1     -10.860  13.120  66.595  1.00  0.00    -0.280 A  
HETATM   21  H   UNL     1      -8.595  15.282  67.607  1.00  0.00     0.000 HD 
HETATM   22  C   UNL     1      -9.737  13.628  67.260  1.00  0.00    -0.243 A  
HETATM   23  C   UNL     1      -9.216  11.446  68.141  1.00  0.00    -0.178 A  
HETATM   24  C   UNL     1      -8.925  12.804  68.035  1.00  0.00    -0.196 A  
HETATM   25  O   UNL     1      -9.356  14.937  67.155  1.00  0.00    -0.204 OA 
BRANCH  20  26
HETATM   26  N   UNL     1     -11.670  13.992  65.844  1.00  0.00    -0.352 N  
HETATM   27  H   UNL     1     -12.179  14.703  66.369  1.00  0.00     0.000 HD 
HETATM   28  O   UNL     1     -12.591  14.792  63.933  1.00  0.00    -0.834 OA 
HETATM   29  C   UNL     1     -11.851  13.993  64.489  1.00  0.00    -0.434 C  
ENDBRANCH  20  26
ENDBRANCH  15  18
ENDBRANCH  14  15
ENDBRANCH  12  14
ENDBRANCH  10  12
ENDBRANCH   9  10
ENDBRANCH   6   9
ENDBRANCH   2   3
TORSDOF 8
ENDMDL
MODEL        4
REMARK 921   NORMALIZED FREE ENERGY PREDICTED BY IDOCK:   -6.24 KCAL/MOL
REMARK 922        TOTAL FREE ENERGY PREDICTED BY IDOCK:  -10.82 KCAL/MOL
REMARK 923 INTER-LIGAND FREE ENERGY PREDICTED BY IDOCK:   -9.37 KCAL/MOL
REMARK 924 INTRA-LIGAND FREE ENERGY PREDICTED BY IDOCK:   -1.45 KCAL/MOL
REMARK 927      BINDING AFFINITY PREDICTED BY RF-SCORE:    0.00 PKD
ROOT
HETATM    1  C   UNL     1     -14.368  14.706  72.124  1.00  0.00    -0.503 C  
HETATM    2  O   UNL     1     -13.494  13.729  72.673  1.00  0.00    -0.541 OA 
ENDROOT
BRANCH   2   3
HETATM    3  C   UNL     1     -13.064  12.745  71.826  1.00  0.00    -0.356 A  
HETATM    4  C   UNL     1     -13.274  11.376  71.984  1.00  0.00    -0.432 A  
HETATM    5  C   UNL     1     -12.726  10.468  71.072  1.00  0.00    -0.504 A  
HETATM    6  C   UNL     1     -11.971  10.921  69.981  1.00  0.00    -0.429 A  
HETATM    7  C   UNL     1     -12.341  13.200  70.723  1.00  0.00    -0.404 A  
HETATM    8  C   UNL     1     -11.797  12.298  69.808  1.00  0.00    -0.388 A  
BRANCH   6   9
HETATM    9  C   UNL     1     -11.233   9.956  69.083  1.00  0.00    -0.151 C  
BRANCH   9  10
HETATM   10  C   UNL     1      -9.711  10.178  68.928  1.00  0.00    -0.187 C  
HETATM   11  C   UNL     1      -8.954   9.661  70.158  1.00  0.00    -0.273 C  
BRANCH  10  12
HETATM   12  N   UNL     1      -9.156   9.479  67.751  1.00  0.00    -0.125 NA 
HETATM   13  H   UNL     1      -9.746   8.690  67.489  1.00  0.00     0.000 HD 
BRANCH  12  14
HETATM   14  C   UNL     1      -8.928  10.366  66.598  1.00  0.00    -0.141 C  
BRANCH  14  15
HETATM   15  C   UNL     1      -9.963  10.188  65.461  1.00  0.00    -0.293 C  
HETATM   16  H   UNL     1      -9.963   9.498  63.617  1.00  0.00     0.000 HD 
HETATM   17  O   UNL     1      -9.328   9.607  64.316  1.00  0.00    -0.244 OA 
BRANCH  15  18
HETATM   18  C   UNL     1     -10.721  11.449  65.099  1.00  0.00    -0.332 A  
HETATM   19  C   UNL     1     -11.093  12.345  66.117  1.00  0.00    -0.340 A  
HETATM   20  C   UNL     1     -11.815  13.509  65.829  1.00  0.00    -0.372 A  
HETATM   21  H   UNL     1     -13.111  15.047  63.224  1.00  0.00     0.000 HD 
HETATM   22  C   UNL     1     -12.144  13.778  64.494  1.00  0.00    -0.428 A  
HETATM   23  C   UNL     1     -11.047  11.756  63.771  1.00  0.00    -0.513 A  
HETATM   24  C   UNL     1     -11.757  12.917  63.470  1.00  0.00    -0.576 A  
HETATM   25  O   UNL     1     -12.888  14.865  64.130  1.00  0.00    -0.668 OA 
BRANCH  20  26
HETATM   26  N   UNL     1     -12.201  14.419  66.831  1.00  0.00    -0.545 N  
HETATM   27  H   UNL     1     -13.201  14.495  67.013  1.00  0.00     0.000 HD 
HETATM   28  O   UNL     1     -11.825  15.983  68.429  1.00  0.00    -0.304 OA 
HETATM   29  C   UNL     1     -11.385  15.213  67.587  1.00  0.00    -0.321 C  
ENDBRANCH  20  26
ENDBRANCH  15  18
ENDBRANCH  14  15
ENDBRANCH  12  14
ENDBRANCH  10  12
ENDBRANCH   9  10
ENDBRANCH   6   9
ENDBRANCH   2   3
TORSDOF 8
ENDMDL
MODEL        5
REMARK 921   NORMALIZED FREE ENERGY PREDICTED BY IDOCK:   -6.23 KCAL/MOL
REMARK 922        TOTAL FREE ENERGY PREDICTED BY IDOCK:  -10.81 KCAL/MOL
REMARK 923 INTER-LIGAND FREE ENERGY PREDICTED BY IDOCK:   -9.77 KCAL/MOL
REMARK 924 INTRA-LIGAND FREE ENERGY PREDICTED BY IDOCK:   -1.04 KCAL/MOL
REMARK 927      BINDING AFFINITY PREDICTED BY RF-SCORE:    0.00 PKD
ROOT
HETATM    1  C   UNL     1     -12.066  16.320  72.660  1.00  0.00    -0.534 C  
HETATM    2  O   UNL     1     -13.093  15.744  71.865  1.00  0.00    -0.449 OA 
ENDROOT
BRANCH   2   3
HETATM    3  C   UNL     1     -12.974  14.412  71.581  1.00  0.00    -0.341 A  
HETATM    4  C   UNL     1     -13.475  13.361  72.348  1.00  0.00    -0.685 A  
HETATM    5  C   UNL     1     -13.230  12.036  71.975  1.00  0.00    -0.481 A  
HETATM    6  C   UNL     1     -12.491  11.745  70.820  1.00  0.00    -0.405 A  
HETATM    7  C   UNL     1     -12.267  14.125  70.413  1.00  0.00    -0.427 A  
HETATM    8  C   UNL     1     -12.025  12.804  70.034  1.00  0.00    -0.371 A  
BRANCH   6   9
HETATM    9  C   UNL     1     -12.074  10.331  70.491  1.00  0.00    -0.401 C  
BRANCH   9  10
HETATM   10  C   UNL     1     -10.554  10.062  70.387  1.00  0.00    -0.280 C  
HETATM   11  C   UNL     1     -10.111   9.019  71.422  1.00  0.00    -0.399 C  
BRANCH  10  12
HETATM   12  N   UNL     1     -10.161   9.550  69.059  1.00  0.00    -0.192 NA 
HETATM   13  H   UNL     1     -10.329   8.547  68.995  1.00  0.00     0.000 HD 
BRANCH  12  14
HETATM   14  C   UNL     1     -10.810  10.260  67.943  1.00  0.00    -0.284 C  
BRANCH  14  15
HETATM   15  C   UNL     1      -9.923  11.354  67.302  1.00  0.00    -0.194 C  
HETATM   16  H   UNL     1      -8.631  12.702  67.927  1.00  0.00     0.000 HD 
HETATM   17  O   UNL     1      -9.176  12.030  68.321  1.00  0.00    -0.189 OA 
BRANCH  15  18
HETATM   18  C   UNL     1     -10.672  12.331  66.419  1.00  0.00    -0.284 A  
HETATM   19  C   UNL     1     -10.145  13.620  66.217  1.00  0.00    -0.301 A  
HETATM   20  C   UNL     1     -10.817  14.561  65.429  1.00  0.00    -0.354 A  
HETATM   21  H   UNL     1     -13.587  14.803  63.668  1.00  0.00     0.000 HD 
HETATM   22  C   UNL     1     -12.024  14.186  64.823  1.00  0.00    -0.431 A  
HETATM   23  C   UNL     1     -11.871  11.980  65.783  1.00  0.00    -0.236 A  
HETATM   24  C   UNL     1     -12.544  12.905  64.988  1.00  0.00    -0.538 A  
HETATM   25  O   UNL     1     -12.769  15.057  64.079  1.00  0.00    -0.772 OA 
BRANCH  20  26
HETATM   26  N   UNL     1     -10.312  15.857  65.215  1.00  0.00    -0.367 N  
HETATM   27  H   UNL     1     -10.137  16.120  64.245  1.00  0.00     0.000 HD 
HETATM   28  O   UNL     1      -9.579  17.901  65.868  1.00  0.00    -0.525 OA 
HETATM   29  C   UNL     1     -10.029  16.802  66.161  1.00  0.00    -0.327 C  
ENDBRANCH  20  26
ENDBRANCH  15  18
ENDBRANCH  14  15
ENDBRANCH  12  14
ENDBRANCH  10  12
ENDBRANCH   9  10
ENDBRANCH   6   9
ENDBRANCH   2   3
TORSDOF 8
ENDMDL
MODEL        6
REMARK 921   NORMALIZED FREE ENERGY PREDICTED BY IDOCK:   -6.19 KCAL/MOL
REMARK 922        TOTAL FREE ENERGY PREDICTED BY IDOCK:  -10.74 KCAL/MOL
REMARK 923 INTER-LIGAND FREE ENERGY PREDICTED BY IDOCK:   -9.70 KCAL/MOL
REMARK 924 INTRA-LIGAND FREE ENERGY PREDICTED BY IDOCK:   -1.04 KCAL/MOL
REMARK 927      BINDING AFFINITY PREDICTED BY RF-SCORE:    0.00 PKD
ROOT
HETATM    1  C   UNL     1      -6.568  20.839  67.585  1.00  0.00    -0.339 C  
HETATM    2  O   UNL     1      -7.908  20.708  67.129  1.00  0.00    -0.326 OA 
ENDROOT
BRANCH   2   3
HETATM    3  C   UNL     1      -8.600  19.614  67.569  1.00  0.00    -0.311 A  
HETATM    4  C   UNL     1      -8.099  18.598  68.382  1.00  0.00    -0.360 A  
HETATM    5  C   UNL     1      -8.898  17.498  68.711  1.00  0.00    -0.215 A  
HETATM    6  C   UNL     1     -10.216  17.408  68.241  1.00  0.00    -0.362 A  
HETATM    7  C   UNL     1      -9.921  19.542  67.127  1.00  0.00    -0.487 A  
HETATM    8  C   UNL     1     -10.724  18.450  67.457  1.00  0.00    -0.399 A  
BRANCH   6   9
HETATM    9  C   UNL     1     -11.037  16.157  68.443  1.00  0.00    -0.359 C  
BRANCH   9  10
HETATM   10  C   UNL     1     -10.972  15.502  69.843  1.00  0.00    -0.307 C  
HETATM   11  C   UNL     1     -12.278  15.729  70.615  1.00  0.00    -0.422 C  
BRANCH  10  12
HETATM   12  N   UNL     1     -10.756  14.043  69.773  1.00  0.00    -0.440 NA 
HETATM   13  H   UNL     1     -10.390  13.690  70.657  1.00  0.00     0.000 HD 
BRANCH  12  14
HETATM   14  C   UNL     1     -11.957  13.292  69.368  1.00  0.00    -0.301 C  
BRANCH  14  15
HETATM   15  C   UNL     1     -11.644  11.933  68.698  1.00  0.00    -0.310 C  
HETATM   16  H   UNL     1     -10.426  10.421  69.023  1.00  0.00     0.000 HD 
HETATM   17  O   UNL     1     -10.618  11.256  69.434  1.00  0.00    -0.195 OA 
BRANCH  15  18
HETATM   18  C   UNL     1     -11.306  12.023  67.224  1.00  0.00    -0.394 A  
HETATM   19  C   UNL     1     -11.610  13.202  66.519  1.00  0.00    -0.402 A  
HETATM   20  C   UNL     1     -11.337  13.318  65.151  1.00  0.00    -0.297 A  
HETATM   21  H   UNL     1     -10.063  11.514  62.711  1.00  0.00     0.000 HD 
HETATM   22  C   UNL     1     -10.731  12.237  64.497  1.00  0.00    -0.319 A  
HETATM   23  C   UNL     1     -10.682  10.968  66.546  1.00  0.00    -0.298 A  
HETATM   24  C   UNL     1     -10.396  11.075  65.186  1.00  0.00    -0.346 A  
HETATM   25  O   UNL     1     -10.475  12.247  63.154  1.00  0.00    -0.359 OA 
BRANCH  20  26
HETATM   26  N   UNL     1     -11.635  14.485  64.423  1.00  0.00    -0.600 N  
HETATM   27  H   UNL     1     -12.337  14.395  63.689  1.00  0.00     0.000 HD 
HETATM   28  O   UNL     1     -11.411  16.678  63.894  1.00  0.00    -1.186 OA 
HETATM   29  C   UNL     1     -11.089  15.727  64.591  1.00  0.00    -0.361 C  
ENDBRANCH  20  26
ENDBRANCH  15  18
ENDBRANCH  14  15
ENDBRANCH  12  14
ENDBRANCH  10  12
ENDBRANCH   9  10
ENDBRANCH   6   9
ENDBRANCH   2   3
TORSDOF 8
ENDMDL
MODEL        7
REMARK 921   NORMALIZED FREE ENERGY PREDICTED BY IDOCK:   -6.18 KCAL/MOL
REMARK 922        TOTAL FREE ENERGY PREDICTED BY IDOCK:  -10.73 KCAL/MOL
REMARK 923 INTER-LIGAND FREE ENERGY PREDICTED BY IDOCK:   -9.46 KCAL/MOL
REMARK 924 INTRA-LIGAND FREE ENERGY PREDICTED BY IDOCK:   -1.26 KCAL/MOL
REMARK 927      BINDING AFFINITY PREDICTED BY RF-SCORE:    0.00 PKD
ROOT
HETATM    1  C   UNL     1     -11.001   8.796  71.946  1.00  0.00    -0.365 C  
HETATM    2  O   UNL     1     -12.066   9.237  71.114  1.00  0.00    -0.297 OA 
ENDROOT
BRANCH   2   3
HETATM    3  C   UNL     1     -12.285  10.586  71.063  1.00  0.00    -0.400 A  
HETATM    4  C   UNL     1     -13.086  11.321  71.935  1.00  0.00    -0.510 A  
HETATM    5  C   UNL     1     -13.276  12.692  71.734  1.00  0.00    -0.457 A  
HETATM    6  C   UNL     1     -12.653  13.348  70.663  1.00  0.00    -0.325 A  
HETATM    7  C   UNL     1     -11.638  11.243  70.016  1.00  0.00    -0.404 A  
HETATM    8  C   UNL     1     -11.820  12.612  69.814  1.00  0.00    -0.379 A  
BRANCH   6   9
HETATM    9  C   UNL     1     -12.975  14.786  70.330  1.00  0.00    -0.269 C  
BRANCH   9  10
HETATM   10  C   UNL     1     -11.991  15.857  70.855  1.00  0.00    -0.394 C  
HETATM   11  C   UNL     1     -11.625  15.594  72.321  1.00  0.00    -0.534 C  
BRANCH  10  12
HETATM   12  N   UNL     1     -10.728  15.886  70.090  1.00  0.00    -0.330 NA 
HETATM   13  H   UNL     1     -10.196  15.029  70.238  1.00  0.00     0.000 HD 
BRANCH  12  14
HETATM   14  C   UNL     1     -10.920  16.140  68.652  1.00  0.00    -0.336 C  
BRANCH  14  15
HETATM   15  C   UNL     1     -10.039  15.254  67.740  1.00  0.00    -0.230 C  
HETATM   16  H   UNL     1      -8.430  15.493  66.630  1.00  0.00     0.000 HD 
HETATM   17  O   UNL     1      -8.972  16.037  67.190  1.00  0.00    -0.191 OA 
BRANCH  15  18
HETATM   18  C   UNL     1     -10.799  14.512  66.661  1.00  0.00    -0.311 A  
HETATM   19  C   UNL     1     -10.085  13.846  65.648  1.00  0.00    -0.332 A  
HETATM   20  C   UNL     1     -10.749  13.170  64.618  1.00  0.00    -0.380 A  
HETATM   21  H   UNL     1     -13.827  12.541  63.640  1.00  0.00     0.000 HD 
HETATM   22  C   UNL     1     -12.149  13.150  64.626  1.00  0.00    -0.408 A  
HETATM   23  C   UNL     1     -12.200  14.456  66.652  1.00  0.00    -0.340 A  
HETATM   24  C   UNL     1     -12.872  13.777  65.637  1.00  0.00    -0.456 A  
HETATM   25  O   UNL     1     -12.877  12.555  63.634  1.00  0.00    -0.731 OA 
BRANCH  20  26
HETATM   26  N   UNL     1     -10.055  12.499  63.593  1.00  0.00    -0.513 N  
HETATM   27  H   UNL     1      -9.798  13.058  62.780  1.00  0.00     0.000 HD 
HETATM   28  O   UNL     1      -9.095  10.693  62.616  1.00  0.00    -0.234 OA 
HETATM   29  C   UNL     1      -9.689  11.183  63.566  1.00  0.00    -0.334 C  
ENDBRANCH  20  26
ENDBRANCH  15  18
ENDBRANCH  14  15
ENDBRANCH  12  14
ENDBRANCH  10  12
ENDBRANCH   9  10
ENDBRANCH   6   9
ENDBRANCH   2   3
TORSDOF 8
ENDMDL
MODEL        8
REMARK 921   NORMALIZED FREE ENERGY PREDICTED BY IDOCK:   -6.08 KCAL/MOL
REMARK 922        TOTAL FREE ENERGY PREDICTED BY IDOCK:  -10.59 KCAL/MOL
REMARK 923 INTER-LIGAND FREE ENERGY PREDICTED BY IDOCK:   -8.46 KCAL/MOL
REMARK 924 INTRA-LIGAND FREE ENERGY PREDICTED BY IDOCK:   -2.13 KCAL/MOL
REMARK 927      BINDING AFFINITY PREDICTED BY RF-SCORE:    0.00 PKD
ROOT
HETATM    1  C   UNL     1     -11.435  10.180  70.534  1.00  0.00    -0.337 C  
HETATM    2  O   UNL     1     -10.593  11.145  69.918  1.00  0.00    -0.048 OA 
ENDROOT
BRANCH   2   3
HETATM    3  C   UNL     1     -10.106  10.832  68.679  1.00  0.00    -0.183 A  
HETATM    4  C   UNL     1      -8.963  11.369  68.086  1.00  0.00    -0.169 A  
HETATM    5  C   UNL     1      -8.608  11.006  66.783  1.00  0.00    -0.152 A  
HETATM    6  C   UNL     1      -9.384  10.089  66.061  1.00  0.00    -0.224 A  
HETATM    7  C   UNL     1     -10.861   9.894  67.975  1.00  0.00    -0.294 A  
HETATM    8  C   UNL     1     -10.507   9.526  66.676  1.00  0.00    -0.241 A  
BRANCH   6   9
HETATM    9  C   UNL     1      -9.115   9.812  64.601  1.00  0.00    -0.294 C  
BRANCH   9  10
HETATM   10  C   UNL     1      -9.308  10.994  63.623  1.00  0.00    -0.238 C  
HETATM   11  C   UNL     1      -8.442  10.813  62.369  1.00  0.00    -0.308 C  
BRANCH  10  12
HETATM   12  N   UNL     1     -10.706  11.129  63.170  1.00  0.00    -0.804 NA 
HETATM   13  H   UNL     1     -11.278  10.366  63.530  1.00  0.00     0.000 HD 
BRANCH  12  14
HETATM   14  C   UNL     1     -11.306  12.433  63.503  1.00  0.00    -0.476 C  
BRANCH  14  15
HETATM   15  C   UNL     1     -11.962  12.477  64.903  1.00  0.00    -0.412 C  
HETATM   16  H   UNL     1     -13.785  12.646  65.628  1.00  0.00     0.000 HD 
HETATM   17  O   UNL     1     -13.382  12.618  64.768  1.00  0.00    -0.787 OA 
BRANCH  15  18
HETATM   18  C   UNL     1     -11.384  13.524  65.834  1.00  0.00    -0.321 A  
HETATM   19  C   UNL     1     -12.045  13.812  67.042  1.00  0.00    -0.436 A  
HETATM   20  C   UNL     1     -11.559  14.789  67.918  1.00  0.00    -0.351 A  
HETATM   21  H   UNL     1      -9.063  16.925  68.120  1.00  0.00     0.000 HD 
HETATM   22  C   UNL     1     -10.380  15.465  67.577  1.00  0.00    -0.264 A  
HETATM   23  C   UNL     1     -10.196  14.203  65.531  1.00  0.00    -0.371 A  
HETATM   24  C   UNL     1      -9.696  15.171  66.400  1.00  0.00    -0.300 A  
HETATM   25  O   UNL     1      -9.863  16.466  68.351  1.00  0.00    -0.221 OA 
BRANCH  20  26
HETATM   26  N   UNL     1     -12.204  15.096  69.130  1.00  0.00    -0.574 N  
HETATM   27  H   UNL     1     -12.593  16.036  69.211  1.00  0.00     0.000 HD 
HETATM   28  O   UNL     1     -12.940  14.648  71.227  1.00  0.00    -0.305 OA 
HETATM   29  C   UNL     1     -12.369  14.277  70.211  1.00  0.00    -0.354 C  
ENDBRANCH  20  26
ENDBRANCH  15  18
ENDBRANCH  14  15
ENDBRANCH  12  14
ENDBRANCH  10  12
ENDBRANCH   9  10
ENDBRANCH   6   9
ENDBRANCH   2   3
TORSDOF 8
ENDMDL
MODEL        9
REMARK 921   NORMALIZED FREE ENERGY PREDICTED BY IDOCK:   -6.07 KCAL/MOL
REMARK 922        TOTAL FREE ENERGY PREDICTED BY IDOCK:  -10.57 KCAL/MOL
REMARK 923 INTER-LIGAND FREE ENERGY PREDICTED BY IDOCK:   -9.45 KCAL/MOL
REMARK 924 INTRA-LIGAND FREE ENERGY PREDICTED BY IDOCK:   -1.12 KCAL/MOL
REMARK 927      BINDING AFFINITY PREDICTED BY RF-SCORE:    0.00 PKD
ROOT
HETATM    1  C   UNL     1     -13.993  15.520  72.542  1.00  0.00    -0.555 C  
HETATM    2  O   UNL     1     -13.987  14.108  72.702  1.00  0.00    -0.616 OA 
ENDROOT
BRANCH   2   3
HETATM    3  C   UNL     1     -13.301  13.388  71.763  1.00  0.00    -0.394 A  
HETATM    4  C   UNL     1     -12.624  13.910  70.662  1.00  0.00    -0.405 A  
HETATM    5  C   UNL     1     -12.011  13.055  69.740  1.00  0.00    -0.377 A  
HETATM    6  C   UNL     1     -12.056  11.666  69.916  1.00  0.00    -0.373 A  
HETATM    7  C   UNL     1     -13.319  12.007  71.958  1.00  0.00    -0.447 A  
HETATM    8  C   UNL     1     -12.704  11.151  71.044  1.00  0.00    -0.476 A  
BRANCH   6   9
HETATM    9  C   UNL     1     -11.549  10.723  68.851  1.00  0.00    -0.361 C  
BRANCH   9  10
HETATM   10  C   UNL     1     -10.114  10.177  69.033  1.00  0.00    -0.205 C  
HETATM   11  C   UNL     1      -9.797   9.108  67.979  1.00  0.00    -0.197 C  
BRANCH  10  12
HETATM   12  N   UNL     1      -9.088  11.231  68.905  1.00  0.00    -0.361 NA 
HETATM   13  H   UNL     1      -8.172  10.881  69.183  1.00  0.00     0.000 HD 
BRANCH  12  14
HETATM   14  C   UNL     1      -9.031  11.831  67.561  1.00  0.00    -0.168 C  
BRANCH  14  15
HETATM   15  C   UNL     1      -8.637  13.328  67.563  1.00  0.00    -0.200 C  
HETATM   16  H   UNL     1      -8.439  14.756  68.904  1.00  0.00     0.000 HD 
HETATM   17  O   UNL     1      -8.681  13.837  68.902  1.00  0.00    -0.021 OA 
BRANCH  15  18
HETATM   18  C   UNL     1      -9.440  14.190  66.612  1.00  0.00    -0.303 A  
HETATM   19  C   UNL     1      -9.358  15.590  66.715  1.00  0.00    -0.267 A  
HETATM   20  C   UNL     1     -10.103  16.423  65.872  1.00  0.00    -0.347 A  
HETATM   21  H   UNL     1     -12.275  16.167  63.413  1.00  0.00     0.000 HD 
HETATM   22  C   UNL     1     -10.922  15.832  64.902  1.00  0.00    -0.427 A  
HETATM   23  C   UNL     1     -10.254  13.629  65.617  1.00  0.00    -0.316 A  
HETATM   24  C   UNL     1     -10.992  14.448  64.766  1.00  0.00    -0.409 A  
HETATM   25  O   UNL     1     -11.719  16.569  64.071  1.00  0.00    -1.111 OA 
BRANCH  20  26
HETATM   26  N   UNL     1     -10.040  17.826  65.959  1.00  0.00    -0.288 N  
HETATM   27  H   UNL     1      -9.571  18.307  65.192  1.00  0.00     0.000 HD 
HETATM   28  O   UNL     1     -10.419  19.835  66.941  1.00  0.00    -0.430 OA 
HETATM   29  C   UNL     1     -10.538  18.617  66.956  1.00  0.00    -0.397 C  
ENDBRANCH  20  26
ENDBRANCH  15  18
ENDBRANCH  14  15
ENDBRANCH  12  14
ENDBRANCH  10  12
ENDBRANCH   9  10
ENDBRANCH   6   9
ENDBRANCH   2   3
TORSDOF 8
ENDMDL
MODEL       10
REMARK 921   NORMALIZED FREE ENERGY PREDICTED BY IDOCK:   -5.97 KCAL/MOL
REMARK 922        TOTAL FREE ENERGY PREDICTED BY IDOCK:  -10.43 KCAL/MOL
REMARK 923 INTER-LIGAND FREE ENERGY PREDICTED BY IDOCK:   -8.94 KCAL/MOL
REMARK 924 INTRA-LIGAND FREE ENERGY PREDICTED BY IDOCK:   -1.49 KCAL/MOL
REMARK 927      BINDING AFFINITY PREDICTED BY RF-SCORE:    0.00 PKD
ROOT
HETATM    1  C   UNL     1     -10.801   8.975  71.077  1.00  0.00    -0.276 C  
HETATM    2  O   UNL     1     -12.136   9.383  70.808  1.00  0.00    -0.276 OA 
ENDROOT
BRANCH   2   3
HETATM    3  C   UNL     1     -12.426  10.703  71.012  1.00  0.00    -0.413 A  
HETATM    4  C   UNL     1     -13.259  11.217  72.005  1.00  0.00    -0.437 A  
HETATM    5  C   UNL     1     -13.521  12.590  72.066  1.00  0.00    -0.486 A  
HETATM    6  C   UNL     1     -12.941  13.468  71.141  1.00  0.00    -0.338 A  
HETATM    7  C   UNL     1     -11.821  11.580  70.111  1.00  0.00    -0.440 A  
HETATM    8  C   UNL     1     -12.076  12.950  70.171  1.00  0.00    -0.373 A  
BRANCH   6   9
HETATM    9  C   UNL     1     -13.340  14.924  71.085  1.00  0.00    -0.480 C  
BRANCH   9  10
HETATM   10  C   UNL     1     -12.291  15.951  71.570  1.00  0.00    -0.448 C  
HETATM   11  C   UNL     1     -11.766  15.581  72.964  1.00  0.00    -0.495 C  
BRANCH  10  12
HETATM   12  N   UNL     1     -11.121  16.030  70.673  1.00  0.00    -0.351 NA 
HETATM   13  H   UNL     1     -10.616  15.144  70.658  1.00  0.00     0.000 HD 
BRANCH  12  14
HETATM   14  C   UNL     1     -11.461  16.460  69.305  1.00  0.00    -0.165 C  
BRANCH  14  15
HETATM   15  C   UNL     1     -10.327  16.225  68.279  1.00  0.00    -0.272 C  
HETATM   16  H   UNL     1      -9.718  17.055  66.600  1.00  0.00     0.000 HD 
HETATM   17  O   UNL     1     -10.414  17.199  67.231  1.00  0.00    -0.327 OA 
BRANCH  15  18
HETATM   18  C   UNL     1     -10.263  14.816  67.726  1.00  0.00    -0.232 A  
HETATM   19  C   UNL     1     -11.280  14.368  66.863  1.00  0.00    -0.340 A  
HETATM   20  C   UNL     1     -11.272  13.066  66.350  1.00  0.00    -0.300 A  
HETATM   21  H   UNL     1      -9.434  10.341  66.518  1.00  0.00     0.000 HD 
HETATM   22  C   UNL     1     -10.212  12.217  66.698  1.00  0.00    -0.216 A  
HETATM   23  C   UNL     1      -9.207  13.949  68.039  1.00  0.00    -0.193 A  
HETATM   24  C   UNL     1      -9.183  12.654  67.527  1.00  0.00    -0.190 A  
HETATM   25  O   UNL     1     -10.152  10.917  66.282  1.00  0.00    -0.218 OA 
BRANCH  20  26
HETATM   26  N   UNL     1     -12.278  12.594  65.488  1.00  0.00    -0.460 N  
HETATM   27  H   UNL     1     -13.114  12.214  65.932  1.00  0.00     0.000 HD 
HETATM   28  O   UNL     1     -13.190  12.142  63.462  1.00  0.00    -0.744 OA 
HETATM   29  C   UNL     1     -12.262  12.589  64.121  1.00  0.00    -0.467 C  
ENDBRANCH  20  26
ENDBRANCH  15  18
ENDBRANCH  14  15
ENDBRANCH  12  14
ENDBRANCH  10  12
ENDBRANCH   9  10
ENDBRANCH   6   9
ENDBRANCH   2   3
TORSDOF 8
ENDMDL
MODEL       11
REMARK 921   NORMALIZED FREE ENERGY PREDICTED BY IDOCK:   -5.96 KCAL/MOL
REMARK 922        TOTAL FREE ENERGY PREDICTED BY IDOCK:  -10.40 KCAL/MOL
REMARK 923 INTER-LIGAND FREE ENERGY PREDICTED BY IDOCK:   -9.06 KCAL/MOL
REMARK 924 INTRA-LIGAND FREE ENERGY PREDICTED BY IDOCK:   -1.34 KCAL/MOL
REMARK 927      BINDING AFFINITY PREDICTED BY RF-SCORE:    0.00 PKD
ROOT
HETATM    1  C   UNL     1     -13.456   9.544  71.962  1.00  0.00    -0.443 C  
HETATM    2  O   UNL     1     -12.110   9.969  71.792  1.00  0.00    -0.373 OA 
ENDROOT
BRANCH   2   3
HETATM    3  C   UNL     1     -11.611   9.931  70.520  1.00  0.00    -0.309 A  
HETATM    4  C   UNL     1     -11.829  10.883  69.525  1.00  0.00    -0.404 A  
HETATM    5  C   UNL     1     -11.308  10.693  68.240  1.00  0.00    -0.357 A  
HETATM    6  C   UNL     1     -10.550   9.553  67.940  1.00  0.00    -0.299 A  
HETATM    7  C   UNL     1     -10.829   8.812  70.232  1.00  0.00    -0.252 A  
HETATM    8  C   UNL     1     -10.304   8.621  68.953  1.00  0.00    -0.228 A  
BRANCH   6   9
HETATM    9  C   UNL     1     -10.122   9.247  66.524  1.00  0.00    -0.343 C  
BRANCH   9  10
HETATM   10  C   UNL     1      -9.713  10.453  65.646  1.00  0.00    -0.236 C  
HETATM   11  C   UNL     1      -8.231  10.371  65.259  1.00  0.00    -0.162 C  
BRANCH  10  12
HETATM   12  N   UNL     1     -10.487  10.524  64.390  1.00  0.00    -0.323 NA 
HETATM   13  H   UNL     1     -11.227   9.823  64.382  1.00  0.00     0.000 HD 
BRANCH  12  14
HETATM   14  C   UNL     1     -11.034  11.864  64.115  1.00  0.00    -0.369 C  
BRANCH  14  15
HETATM   15  C   UNL     1     -11.894  12.435  65.267  1.00  0.00    -0.399 C  
HETATM   16  H   UNL     1     -13.747  13.059  65.500  1.00  0.00     0.000 HD 
HETATM   17  O   UNL     1     -13.218  12.708  64.792  1.00  0.00    -0.846 OA 
BRANCH  15  18
HETATM   18  C   UNL     1     -11.292  13.638  65.963  1.00  0.00    -0.322 A  
HETATM   19  C   UNL     1     -11.914  14.149  67.117  1.00  0.00    -0.460 A  
HETATM   20  C   UNL     1     -11.405  15.274  67.776  1.00  0.00    -0.326 A  
HETATM   21  H   UNL     1      -8.918  17.409  67.486  1.00  0.00     0.000 HD 
HETATM   22  C   UNL     1     -10.243  15.873  67.274  1.00  0.00    -0.278 A  
HETATM   23  C   UNL     1     -10.119  14.248  65.497  1.00  0.00    -0.370 A  
HETATM   24  C   UNL     1      -9.597  15.363  66.151  1.00  0.00    -0.362 A  
HETATM   25  O   UNL     1      -9.707  17.003  67.826  1.00  0.00    -0.249 OA 
BRANCH  20  26
HETATM   26  N   UNL     1     -12.012  15.805  68.929  1.00  0.00    -0.548 N  
HETATM   27  H   UNL     1     -12.474  16.707  68.824  1.00  0.00     0.000 HD 
HETATM   28  O   UNL     1     -12.598  15.798  71.119  1.00  0.00    -0.443 OA 
HETATM   29  C   UNL     1     -12.051  15.245  70.176  1.00  0.00    -0.358 C  
ENDBRANCH  20  26
ENDBRANCH  15  18
ENDBRANCH  14  15
ENDBRANCH  12  14
ENDBRANCH  10  12
ENDBRANCH   9  10
ENDBRANCH   6   9
ENDBRANCH   2   3
TORSDOF 8
ENDMDL
MODEL       12
REMARK 921   NORMALIZED FREE ENERGY PREDICTED BY IDOCK:   -5.94 KCAL/MOL
REMARK 922        TOTAL FREE ENERGY PREDICTED BY IDOCK:  -10.38 KCAL/MOL
REMARK 923 INTER-LIGAND FREE ENERGY PREDICTED BY IDOCK:   -9.32 KCAL/MOL
REMARK 924 INTRA-LIGAND FREE ENERGY PREDICTED BY IDOCK:   -1.06 KCAL/MOL
REMARK 927      BINDING AFFINITY PREDICTED BY RF-SCORE:    0.00 PKD
ROOT
HETATM    1  C   UNL     1     -14.018   7.079  71.760  1.00  0.00    -0.211 C  
HETATM    2  O   UNL     1     -12.686   7.571  71.823  1.00  0.00    -0.322 OA 
ENDROOT
BRANCH   2   3
HETATM    3  C   UNL     1     -12.484   8.849  71.381  1.00  0.00    -0.304 A  
HETATM    4  C   UNL     1     -11.581   9.243  70.394  1.00  0.00    -0.215 A  
HETATM    5  C   UNL     1     -11.429  10.597  70.077  1.00  0.00    -0.404 A  
HETATM    6  C   UNL     1     -12.189  11.574  70.735  1.00  0.00    -0.463 A  
HETATM    7  C   UNL     1     -13.265   9.817  72.014  1.00  0.00    -0.557 A  
HETATM    8  C   UNL     1     -13.119  11.167  71.698  1.00  0.00    -0.529 A  
BRANCH   6   9
HETATM    9  C   UNL     1     -11.922  13.046  70.529  1.00  0.00    -0.294 C  
BRANCH   9  10
HETATM   10  C   UNL     1     -11.326  13.459  69.164  1.00  0.00    -0.280 C  
HETATM   11  C   UNL     1     -12.151  14.583  68.523  1.00  0.00    -0.257 C  
BRANCH  10  12
HETATM   12  N   UNL     1      -9.938  13.951  69.280  1.00  0.00    -0.409 NA 
HETATM   13  H   UNL     1      -9.649  13.990  70.257  1.00  0.00     0.000 HD 
BRANCH  12  14
HETATM   14  C   UNL     1      -8.974  13.175  68.481  1.00  0.00    -0.048 C  
BRANCH  14  15
HETATM   15  C   UNL     1      -8.332  13.980  67.326  1.00  0.00    -0.194 C  
HETATM   16  H   UNL     1      -6.971  15.392  67.146  1.00  0.00     0.000 HD 
HETATM   17  O   UNL     1      -7.366  14.898  67.855  1.00  0.00    -0.118 OA 
BRANCH  15  18
HETATM   18  C   UNL     1      -9.324  14.677  66.419  1.00  0.00    -0.313 A  
HETATM   19  C   UNL     1     -10.136  13.907  65.566  1.00  0.00    -0.319 A  
HETATM   20  C   UNL     1     -11.048  14.512  64.694  1.00  0.00    -0.346 A  
HETATM   21  H   UNL     1     -12.056  17.531  63.856  1.00  0.00     0.000 HD 
HETATM   22  C   UNL     1     -11.155  15.909  64.702  1.00  0.00    -0.354 A  
HETATM   23  C   UNL     1      -9.469  16.071  66.418  1.00  0.00    -0.322 A  
HETATM   24  C   UNL     1     -10.381  16.684  65.562  1.00  0.00    -0.268 A  
HETATM   25  O   UNL     1     -11.984  16.583  63.850  1.00  0.00    -0.979 OA 
BRANCH  20  26
HETATM   26  N   UNL     1     -11.868  13.764  63.829  1.00  0.00    -0.685 N  
HETATM   27  H   UNL     1     -12.227  14.252  63.009  1.00  0.00     0.000 HD 
HETATM   28  O   UNL     1     -12.968  11.898  63.159  1.00  0.00    -0.640 OA 
HETATM   29  C   UNL     1     -12.238  12.455  63.966  1.00  0.00    -0.490 C  
ENDBRANCH  20  26
ENDBRANCH  15  18
ENDBRANCH  14  15
ENDBRANCH  12  14
ENDBRANCH  10  12
ENDBRANCH   9  10
ENDBRANCH   6   9
ENDBRANCH   2   3
TORSDOF 8
ENDMDL
MODEL       13
REMARK 921   NORMALIZED FREE ENERGY PREDICTED BY IDOCK:   -5.94 KCAL/MOL
REMARK 922        TOTAL FREE ENERGY PREDICTED BY IDOCK:  -10.38 KCAL/MOL
REMARK 923 INTER-LIGAND FREE ENERGY PREDICTED BY IDOCK:   -8.99 KCAL/MOL
REMARK 924 INTRA-LIGAND FREE ENERGY PREDICTED BY IDOCK:   -1.38 KCAL/MOL
REMARK 927      BINDING AFFINITY PREDICTED BY RF-SCORE:    0.00 PKD
ROOT
HETATM    1  C   UNL     1      -9.926  19.629  66.162  1.00  0.00    -0.463 C  
HETATM    2  O   UNL     1      -8.833  18.725  66.060  1.00  0.00    -0.479 OA 
ENDROOT
BRANCH   2   3
HETATM    3  C   UNL     1      -9.128  17.394  66.166  1.00  0.00    -0.145 A  
HETATM    4  C   UNL     1      -8.317  16.417  66.743  1.00  0.00    -0.285 A  
HETATM    5  C   UNL     1      -8.712  15.076  66.732  1.00  0.00    -0.293 A  
HETATM    6  C   UNL     1      -9.932  14.696  66.155  1.00  0.00    -0.323 A  
HETATM    7  C   UNL     1     -10.357  17.023  65.620  1.00  0.00    -0.226 A  
HETATM    8  C   UNL     1     -10.757  15.686  65.612  1.00  0.00    -0.376 A  
BRANCH   6   9
HETATM    9  C   UNL     1     -10.299  13.241  65.983  1.00  0.00    -0.290 C  
BRANCH   9  10
HETATM   10  C   UNL     1     -11.799  12.885  66.100  1.00  0.00    -0.429 C  
HETATM   11  C   UNL     1     -12.330  12.307  64.782  1.00  0.00    -0.416 C  
BRANCH  10  12
HETATM   12  N   UNL     1     -12.060  11.880  67.151  1.00  0.00    -0.522 NA 
HETATM   13  H   UNL     1     -12.116  10.944  66.750  1.00  0.00     0.000 HD 
BRANCH  12  14
HETATM   14  C   UNL     1     -11.084  11.919  68.253  1.00  0.00    -0.239 C  
BRANCH  14  15
HETATM   15  C   UNL     1     -11.687  11.562  69.632  1.00  0.00    -0.351 C  
HETATM   16  H   UNL     1     -13.114  10.388  70.312  1.00  0.00     0.000 HD 
HETATM   17  O   UNL     1     -12.743  10.607  69.465  1.00  0.00    -0.229 OA 
BRANCH  15  18
HETATM   18  C   UNL     1     -12.139  12.756  70.447  1.00  0.00    -0.382 A  
HETATM   19  C   UNL     1     -11.670  14.039  70.109  1.00  0.00    -0.331 A  
HETATM   20  C   UNL     1     -12.042  15.165  70.851  1.00  0.00    -0.334 A  
HETATM   21  H   UNL     1     -13.884  15.914  73.473  1.00  0.00     0.000 HD 
HETATM   22  C   UNL     1     -12.916  14.993  71.933  1.00  0.00    -0.345 A  
HETATM   23  C   UNL     1     -13.027  12.621  71.523  1.00  0.00    -0.380 A  
HETATM   24  C   UNL     1     -13.414  13.736  72.263  1.00  0.00    -0.638 A  
HETATM   25  O   UNL     1     -13.292  16.031  72.739  1.00  0.00    -0.486 OA 
BRANCH  20  26
HETATM   26  N   UNL     1     -11.584  16.457  70.533  1.00  0.00    -0.492 N  
HETATM   27  H   UNL     1     -11.921  17.216  71.125  1.00  0.00     0.000 HD 
HETATM   28  O   UNL     1     -10.407  17.970  69.322  1.00  0.00    -0.265 OA 
HETATM   29  C   UNL     1     -10.736  16.809  69.520  1.00  0.00    -0.273 C  
ENDBRANCH  20  26
ENDBRANCH  15  18
ENDBRANCH  14  15
ENDBRANCH  12  14
ENDBRANCH  10  12
ENDBRANCH   9  10
ENDBRANCH   6   9
ENDBRANCH   2   3
TORSDOF 8
ENDMDL
MODEL       14
REMARK 921   NORMALIZED FREE ENERGY PREDICTED BY IDOCK:   -5.92 KCAL/MOL
REMARK 922        TOTAL FREE ENERGY PREDICTED BY IDOCK:  -10.35 KCAL/MOL
REMARK 923 INTER-LIGAND FREE ENERGY PREDICTED BY IDOCK:   -8.64 KCAL/MOL
REMARK 924 INTRA-LIGAND FREE ENERGY PREDICTED BY IDOCK:   -1.71 KCAL/MOL
REMARK 927      BINDING AFFINITY PREDICTED BY RF-SCORE:    0.00 PKD
ROOT
HETATM    1  C   UNL     1     -13.166  15.608  73.200  1.00  0.00    -0.569 C  
HETATM    2  O   UNL     1     -13.683  14.318  72.900  1.00  0.00    -0.629 OA 
ENDROOT
BRANCH   2   3
HETATM    3  C   UNL     1     -13.082  13.640  71.876  1.00  0.00    -0.387 A  
HETATM    4  C   UNL     1     -12.449  14.212  70.773  1.00  0.00    -0.436 A  
HETATM    5  C   UNL     1     -11.925  13.401  69.761  1.00  0.00    -0.396 A  
HETATM    6  C   UNL     1     -12.016  12.005  69.847  1.00  0.00    -0.391 A  
HETATM    7  C   UNL     1     -13.144  12.251  71.979  1.00  0.00    -0.461 A  
HETATM    8  C   UNL     1     -12.618  11.438  70.975  1.00  0.00    -0.487 A  
BRANCH   6   9
HETATM    9  C   UNL     1     -11.609  11.120  68.693  1.00  0.00    -0.383 C  
BRANCH   9  10
HETATM   10  C   UNL     1     -10.397  10.188  68.925  1.00  0.00    -0.206 C  
HETATM   11  C   UNL     1     -10.205   9.234  67.740  1.00  0.00    -0.271 C  
BRANCH  10  12
HETATM   12  N   UNL     1      -9.135  10.936  69.091  1.00  0.00    -0.360 NA 
HETATM   13  H   UNL     1      -8.453  10.384  69.611  1.00  0.00     0.000 HD 
BRANCH  12  14
HETATM   14  C   UNL     1      -8.562  11.407  67.818  1.00  0.00    -0.129 C  
BRANCH  14  15
HETATM   15  C   UNL     1      -7.755  12.720  67.946  1.00  0.00    -0.143 C  
HETATM   16  H   UNL     1      -6.398  13.455  69.169  1.00  0.00     0.000 HD 
HETATM   17  O   UNL     1      -6.894  12.649  69.090  1.00  0.00    -0.102 OA 
BRANCH  15  18
HETATM   18  C   UNL     1      -8.600  13.977  67.963  1.00  0.00    -0.179 A  
HETATM   19  C   UNL     1      -9.543  14.186  66.940  1.00  0.00    -0.275 A  
HETATM   20  C   UNL     1     -10.327  15.345  66.904  1.00  0.00    -0.277 A  
HETATM   21  H   UNL     1     -10.748  18.114  68.632  1.00  0.00     0.000 HD 
HETATM   22  C   UNL     1     -10.167  16.292  67.924  1.00  0.00    -0.261 A  
HETATM   23  C   UNL     1      -8.478  14.934  68.980  1.00  0.00    -0.178 A  
HETATM   24  C   UNL     1      -9.260  16.087  68.960  1.00  0.00    -0.244 A  
HETATM   25  O   UNL     1     -10.856  17.472  67.939  1.00  0.00    -0.374 OA 
BRANCH  20  26
HETATM   26  N   UNL     1     -11.275  15.577  65.890  1.00  0.00    -0.195 N  
HETATM   27  H   UNL     1     -12.241  15.339  66.111  1.00  0.00     0.000 HD 
HETATM   28  O   UNL     1     -11.943  16.239  63.827  1.00  0.00    -0.973 OA 
HETATM   29  C   UNL     1     -11.045  16.086  64.642  1.00  0.00    -0.332 C  
ENDBRANCH  20  26
ENDBRANCH  15  18
ENDBRANCH  14  15
ENDBRANCH  12  14
ENDBRANCH  10  12
ENDBRANCH   9  10
ENDBRANCH   6   9
ENDBRANCH   2   3
TORSDOF 8
ENDMDL
MODEL       15
REMARK 921   NORMALIZED FREE ENERGY PREDICTED BY IDOCK:   -5.89 KCAL/MOL
REMARK 922        TOTAL FREE ENERGY PREDICTED BY IDOCK:  -10.30 KCAL/MOL
REMARK 923 INTER-LIGAND FREE ENERGY PREDICTED BY IDOCK:   -8.99 KCAL/MOL
REMARK 924 INTRA-LIGAND FREE ENERGY PREDICTED BY IDOCK:   -1.31 KCAL/MOL
REMARK 927      BINDING AFFINITY PREDICTED BY RF-SCORE:    0.00 PKD
ROOT
HETATM    1  C   UNL     1     -12.499  15.356  64.171  1.00  0.00     0.131 C  
HETATM    2  O   UNL     1     -12.595  14.001  63.752  1.00  0.00    -0.772 OA 
ENDROOT
BRANCH   2   3
HETATM    3  C   UNL     1     -11.790  13.103  64.396  1.00  0.00    -0.388 A  
HETATM    4  C   UNL     1     -11.242  11.947  63.841  1.00  0.00    -0.497 A  
HETATM    5  C   UNL     1     -10.483  11.077  64.631  1.00  0.00    -0.398 A  
HETATM    6  C   UNL     1     -10.250  11.361  65.983  1.00  0.00    -0.289 A  
HETATM    7  C   UNL     1     -11.532  13.404  65.733  1.00  0.00    -0.341 A  
HETATM    8  C   UNL     1     -10.771  12.542  66.523  1.00  0.00    -0.266 A  
BRANCH   6   9
HETATM    9  C   UNL     1      -9.578  10.358  66.891  1.00  0.00    -0.207 C  
BRANCH   9  10
HETATM   10  C   UNL     1     -10.456   9.198  67.415  1.00  0.00    -0.271 C  
HETATM   11  C   UNL     1      -9.590   8.092  68.033  1.00  0.00    -0.174 C  
BRANCH  10  12
HETATM   12  N   UNL     1     -11.407   9.637  68.456  1.00  0.00    -0.491 NA 
HETATM   13  H   UNL     1     -11.985   8.857  68.769  1.00  0.00     0.000 HD 
BRANCH  12  14
HETATM   14  C   UNL     1     -10.759  10.300  69.600  1.00  0.00    -0.264 C  
BRANCH  14  15
HETATM   15  C   UNL     1     -11.700  10.514  70.810  1.00  0.00    -0.356 C  
HETATM   16  H   UNL     1     -13.300   9.642  71.554  1.00  0.00     0.000 HD 
HETATM   17  O   UNL     1     -12.722   9.510  70.811  1.00  0.00    -0.203 OA 
BRANCH  15  18
HETATM   18  C   UNL     1     -12.286  11.907  70.910  1.00  0.00    -0.400 A  
HETATM   19  C   UNL     1     -11.976  12.858  69.920  1.00  0.00    -0.377 A  
HETATM   20  C   UNL     1     -12.477  14.163  69.987  1.00  0.00    -0.296 A  
HETATM   21  H   UNL     1     -14.378  15.996  71.951  1.00  0.00     0.000 HD 
HETATM   22  C   UNL     1     -13.316  14.502  71.057  1.00  0.00    -0.327 A  
HETATM   23  C   UNL     1     -13.145  12.272  71.956  1.00  0.00    -0.461 A  
HETATM   24  C   UNL     1     -13.657  13.565  72.029  1.00  0.00    -0.589 A  
HETATM   25  O   UNL     1     -13.809  15.766  71.226  1.00  0.00    -0.547 OA 
BRANCH  20  26
HETATM   26  N   UNL     1     -12.179  15.131  69.011  1.00  0.00    -0.585 N  
HETATM   27  H   UNL     1     -12.973  15.528  68.509  1.00  0.00     0.000 HD 
HETATM   28  O   UNL     1     -10.792  16.441  67.785  1.00  0.00    -0.332 OA 
HETATM   29  C   UNL     1     -10.944  15.600  68.660  1.00  0.00    -0.294 C  
ENDBRANCH  20  26
ENDBRANCH  15  18
ENDBRANCH  14  15
ENDBRANCH  12  14
ENDBRANCH  10  12
ENDBRANCH   9  10
ENDBRANCH   6   9
ENDBRANCH   2   3
TORSDOF 8
ENDMDL
MODEL       16
REMARK 921   NORMALIZED FREE ENERGY PREDICTED BY IDOCK:   -5.88 KCAL/MOL
REMARK 922        TOTAL FREE ENERGY PREDICTED BY IDOCK:  -10.29 KCAL/MOL
REMARK 923 INTER-LIGAND FREE ENERGY PREDICTED BY IDOCK:   -9.18 KCAL/MOL
REMARK 924 INTRA-LIGAND FREE ENERGY PREDICTED BY IDOCK:   -1.12 KCAL/MOL
REMARK 927      BINDING AFFINITY PREDICTED BY RF-SCORE:    0.00 PKD
ROOT
HETATM    1  C   UNL     1     -12.739  11.892  63.360  1.00  0.00    -0.366 C  
HETATM    2  O   UNL     1     -13.112  12.468  64.605  1.00  0.00    -0.845 OA 
ENDROOT
BRANCH   2   3
HETATM    3  C   UNL     1     -12.140  13.156  65.278  1.00  0.00    -0.429 A  
HETATM    4  C   UNL     1     -11.323  12.646  66.287  1.00  0.00    -0.376 A  
HETATM    5  C   UNL     1     -10.406  13.477  66.938  1.00  0.00    -0.265 A  
HETATM    6  C   UNL     1     -10.284  14.826  66.579  1.00  0.00    -0.281 A  
HETATM    7  C   UNL     1     -11.997  14.490  64.896  1.00  0.00    -0.425 A  
HETATM    8  C   UNL     1     -11.080  15.320  65.540  1.00  0.00    -0.330 A  
BRANCH   6   9
HETATM    9  C   UNL     1      -9.424  15.776  67.378  1.00  0.00    -0.213 C  
BRANCH   9  10
HETATM   10  C   UNL     1     -10.154  16.692  68.387  1.00  0.00    -0.268 C  
HETATM   11  C   UNL     1     -10.502  18.043  67.748  1.00  0.00    -0.421 C  
BRANCH  10  12
HETATM   12  N   UNL     1     -11.418  16.103  68.872  1.00  0.00    -0.352 NA 
HETATM   13  H   UNL     1     -11.670  15.283  68.319  1.00  0.00     0.000 HD 
BRANCH  12  14
HETATM   14  C   UNL     1     -11.400  15.778  70.308  1.00  0.00    -0.361 C  
BRANCH  14  15
HETATM   15  C   UNL     1     -12.724  15.167  70.826  1.00  0.00    -0.405 C  
HETATM   16  H   UNL     1     -13.917  15.430  72.370  1.00  0.00     0.000 HD 
HETATM   17  O   UNL     1     -13.104  15.805  72.052  1.00  0.00    -0.445 OA 
BRANCH  15  18
HETATM   18  C   UNL     1     -12.707  13.659  70.964  1.00  0.00    -0.408 A  
HETATM   19  C   UNL     1     -11.982  12.890  70.035  1.00  0.00    -0.380 A  
HETATM   20  C   UNL     1     -11.961  11.493  70.112  1.00  0.00    -0.369 A  
HETATM   21  H   UNL     1     -13.212   9.088  71.978  1.00  0.00     0.000 HD 
HETATM   22  C   UNL     1     -12.663  10.870  71.152  1.00  0.00    -0.429 A  
HETATM   23  C   UNL     1     -13.383  13.007  72.004  1.00  0.00    -0.588 A  
HETATM   24  C   UNL     1     -13.361  11.617  72.097  1.00  0.00    -0.310 A  
HETATM   25  O   UNL     1     -12.735   9.511  71.272  1.00  0.00    -0.318 OA 
BRANCH  20  26
HETATM   26  N   UNL     1     -11.245  10.703  69.193  1.00  0.00    -0.246 N  
HETATM   27  H   UNL     1     -11.796  10.229  68.477  1.00  0.00     0.000 HD 
HETATM   28  O   UNL     1      -9.370   9.781  68.313  1.00  0.00    -0.129 OA 
HETATM   29  C   UNL     1      -9.894  10.500  69.152  1.00  0.00    -0.218 C  
ENDBRANCH  20  26
ENDBRANCH  15  18
ENDBRANCH  14  15
ENDBRANCH  12  14
ENDBRANCH  10  12
ENDBRANCH   9  10
ENDBRANCH   6   9
ENDBRANCH   2   3
TORSDOF 8
ENDMDL
MODEL       17
REMARK 921   NORMALIZED FREE ENERGY PREDICTED BY IDOCK:   -5.88 KCAL/MOL
REMARK 922        TOTAL FREE ENERGY PREDICTED BY IDOCK:  -10.29 KCAL/MOL
REMARK 923 INTER-LIGAND FREE ENERGY PREDICTED BY IDOCK:   -9.15 KCAL/MOL
REMARK 924 INTRA-LIGAND FREE ENERGY PREDICTED BY IDOCK:   -1.14 KCAL/MOL
REMARK 927      BINDING AFFINITY PREDICTED BY RF-SCORE:    0.00 PKD
ROOT
HETATM    1  C   UNL     1      -9.712  11.465  63.238  1.00  0.00    -0.394 C  
HETATM    2  O   UNL     1      -9.706  10.240  63.958  1.00  0.00    -0.306 OA 
ENDROOT
BRANCH   2   3
HETATM    3  C   UNL     1     -10.130  10.290  65.257  1.00  0.00    -0.289 A  
HETATM    4  C   UNL     1     -10.839  11.335  65.849  1.00  0.00    -0.264 A  
HETATM    5  C   UNL     1     -11.160  11.287  67.210  1.00  0.00    -0.367 A  
HETATM    6  C   UNL     1     -10.787  10.186  67.992  1.00  0.00    -0.320 A  
HETATM    7  C   UNL     1      -9.787   9.178  66.027  1.00  0.00    -0.342 A  
HETATM    8  C   UNL     1     -10.110   9.125  67.383  1.00  0.00    -0.289 A  
BRANCH   6   9
HETATM    9  C   UNL     1     -10.975  10.190  69.491  1.00  0.00    -0.295 C  
BRANCH   9  10
HETATM   10  C   UNL     1     -12.150  11.031  70.042  1.00  0.00    -0.364 C  
HETATM   11  C   UNL     1     -12.827  10.321  71.221  1.00  0.00    -0.522 C  
BRANCH  10  12
HETATM   12  N   UNL     1     -11.716  12.358  70.524  1.00  0.00    -0.487 NA 
HETATM   13  H   UNL     1     -10.727  12.508  70.327  1.00  0.00     0.000 HD 
BRANCH  12  14
HETATM   14  C   UNL     1     -12.528  13.467  69.996  1.00  0.00    -0.167 C  
BRANCH  14  15
HETATM   15  C   UNL     1     -11.855  14.853  70.136  1.00  0.00    -0.308 C  
HETATM   16  H   UNL     1     -12.316  16.598  70.923  1.00  0.00     0.000 HD 
HETATM   17  O   UNL     1     -12.729  15.747  70.838  1.00  0.00    -0.460 OA 
BRANCH  15  18
HETATM   18  C   UNL     1     -11.377  15.453  68.829  1.00  0.00    -0.328 A  
HETATM   19  C   UNL     1     -11.554  14.731  67.635  1.00  0.00    -0.374 A  
HETATM   20  C   UNL     1     -11.105  15.238  66.410  1.00  0.00    -0.273 A  
HETATM   21  H   UNL     1      -9.562  17.898  65.237  1.00  0.00     0.000 HD 
HETATM   22  C   UNL     1     -10.490  16.497  66.392  1.00  0.00    -0.274 A  
HETATM   23  C   UNL     1     -10.777  16.718  68.775  1.00  0.00    -0.341 A  
HETATM   24  C   UNL     1     -10.335  17.238  67.560  1.00  0.00    -0.346 A  
HETATM   25  O   UNL     1      -9.979  17.044  65.249  1.00  0.00    -0.472 OA 
BRANCH  20  26
HETATM   26  N   UNL     1     -11.267  14.533  65.202  1.00  0.00    -0.348 N  
HETATM   27  H   UNL     1     -10.449  14.032  64.857  1.00  0.00     0.000 HD 
HETATM   28  O   UNL     1     -12.432  13.812  63.396  1.00  0.00    -0.817 OA 
HETATM   29  C   UNL     1     -12.399  14.445  64.441  1.00  0.00    -0.403 C  
ENDBRANCH  20  26
ENDBRANCH  15  18
ENDBRANCH  14  15
ENDBRANCH  12  14
ENDBRANCH  10  12
ENDBRANCH   9  10
ENDBRANCH   6   9
ENDBRANCH   2   3
TORSDOF 8
ENDMDL
MODEL       18
REMARK 921   NORMALIZED FREE ENERGY PREDICTED BY IDOCK:   -5.88 KCAL/MOL
REMARK 922        TOTAL FREE ENERGY PREDICTED BY IDOCK:  -10.29 KCAL/MOL
REMARK 923 INTER-LIGAND FREE ENERGY PREDICTED BY IDOCK:   -9.00 KCAL/MOL
REMARK 924 INTRA-LIGAND FREE ENERGY PREDICTED BY IDOCK:   -1.29 KCAL/MOL
REMARK 927      BINDING AFFINITY PREDICTED BY RF-SCORE:    0.00 PKD
ROOT
HETATM    1  C   UNL     1     -12.118   8.636  71.517  1.00  0.00    -0.316 C  
HETATM    2  O   UNL     1     -11.685   9.990  71.546  1.00  0.00    -0.365 OA 
ENDROOT
BRANCH   2   3
HETATM    3  C   UNL     1     -11.627  10.639  70.344  1.00  0.00    -0.351 A  
HETATM    4  C   UNL     1     -12.043  11.947  70.096  1.00  0.00    -0.382 A  
HETATM    5  C   UNL     1     -11.985  12.473  68.802  1.00  0.00    -0.283 A  
HETATM    6  C   UNL     1     -11.495  11.701  67.740  1.00  0.00    -0.373 A  
HETATM    7  C   UNL     1     -11.108   9.881  69.294  1.00  0.00    -0.220 A  
HETATM    8  C   UNL     1     -11.043  10.403  68.002  1.00  0.00    -0.359 A  
BRANCH   6   9
HETATM    9  C   UNL     1     -11.579  12.187  66.312  1.00  0.00    -0.424 C  
BRANCH   9  10
HETATM   10  C   UNL     1     -10.247  12.285  65.532  1.00  0.00    -0.269 C  
HETATM   11  C   UNL     1     -10.064  11.076  64.607  1.00  0.00    -0.370 C  
BRANCH  10  12
HETATM   12  N   UNL     1     -10.176  13.494  64.687  1.00  0.00    -0.592 NA 
HETATM   13  H   UNL     1      -9.817  13.266  63.760  1.00  0.00     0.000 HD 
BRANCH  12  14
HETATM   14  C   UNL     1     -11.456  14.216  64.589  1.00  0.00    -0.387 C  
BRANCH  14  15
HETATM   15  C   UNL     1     -11.408  15.650  65.167  1.00  0.00    -0.198 C  
HETATM   16  H   UNL     1     -11.224  17.477  64.456  1.00  0.00     0.000 HD 
HETATM   17  O   UNL     1     -11.254  16.596  64.101  1.00  0.00    -1.103 OA 
BRANCH  15  18
HETATM   18  C   UNL     1     -10.368  15.856  66.250  1.00  0.00    -0.324 A  
HETATM   19  C   UNL     1     -10.668  15.482  67.572  1.00  0.00    -0.300 A  
HETATM   20  C   UNL     1      -9.745  15.678  68.607  1.00  0.00    -0.204 A  
HETATM   21  H   UNL     1      -6.716  16.889  69.037  1.00  0.00     0.000 HD 
HETATM   22  C   UNL     1      -8.500  16.238  68.294  1.00  0.00    -0.187 A  
HETATM   23  C   UNL     1      -9.106  16.396  65.966  1.00  0.00    -0.317 A  
HETATM   24  C   UNL     1      -8.176  16.587  66.986  1.00  0.00    -0.227 A  
HETATM   25  O   UNL     1      -7.561  16.509  69.249  1.00  0.00    -0.233 OA 
BRANCH  20  26
HETATM   26  N   UNL     1     -10.023  15.314  69.937  1.00  0.00    -0.452 N  
HETATM   27  H   UNL     1      -9.302  14.779  70.421  1.00  0.00     0.000 HD 
HETATM   28  O   UNL     1     -11.300  15.223  71.809  1.00  0.00    -0.408 OA 
HETATM   29  C   UNL     1     -11.152  15.598  70.654  1.00  0.00    -0.359 C  
ENDBRANCH  20  26
ENDBRANCH  15  18
ENDBRANCH  14  15
ENDBRANCH  12  14
ENDBRANCH  10  12
ENDBRANCH   9  10
ENDBRANCH   6   9
ENDBRANCH   2   3
TORSDOF 8
ENDMDL
MODEL       19
REMARK 921   NORMALIZED FREE ENERGY PREDICTED BY IDOCK:   -5.88 KCAL/MOL
REMARK 922        TOTAL FREE ENERGY PREDICTED BY IDOCK:  -10.29 KCAL/MOL
REMARK 923 INTER-LIGAND FREE ENERGY PREDICTED BY IDOCK:   -9.04 KCAL/MOL
REMARK 924 INTRA-LIGAND FREE ENERGY PREDICTED BY IDOCK:   -1.25 KCAL/MOL
REMARK 927      BINDING AFFINITY PREDICTED BY RF-SCORE:    0.00 PKD
ROOT
HETATM    1  C   UNL     1      -8.823   9.924  63.388  1.00  0.00    -0.238 C  
HETATM    2  O   UNL     1     -10.034  10.518  62.938  1.00  0.00    -0.272 OA 
ENDROOT
BRANCH   2   3
HETATM    3  C   UNL     1     -10.629  11.413  63.783  1.00  0.00    -0.403 A  
HETATM    4  C   UNL     1     -11.557  12.389  63.424  1.00  0.00    -0.541 A  
HETATM    5  C   UNL     1     -12.044  13.285  64.382  1.00  0.00    -0.471 A  
HETATM    6  C   UNL     1     -11.619  13.205  65.715  1.00  0.00    -0.383 A  
HETATM    7  C   UNL     1     -10.229  11.311  65.116  1.00  0.00    -0.344 A  
HETATM    8  C   UNL     1     -10.717  12.199  66.075  1.00  0.00    -0.308 A  
BRANCH   6   9
HETATM    9  C   UNL     1     -12.002  14.261  66.725  1.00  0.00    -0.462 C  
BRANCH   9  10
HETATM   10  C   UNL     1     -10.878  15.213  67.195  1.00  0.00    -0.320 C  
HETATM   11  C   UNL     1     -10.449  16.156  66.063  1.00  0.00    -0.349 C  
BRANCH  10  12
HETATM   12  N   UNL     1     -11.294  16.059  68.331  1.00  0.00    -0.365 NA 
HETATM   13  H   UNL     1     -12.286  16.285  68.270  1.00  0.00     0.000 HD 
BRANCH  12  14
HETATM   14  C   UNL     1     -10.972  15.475  69.645  1.00  0.00    -0.286 C  
BRANCH  14  15
HETATM   15  C   UNL     1     -12.207  15.266  70.552  1.00  0.00    -0.371 C  
HETATM   16  H   UNL     1     -12.863  15.976  72.267  1.00  0.00     0.000 HD 
HETATM   17  O   UNL     1     -12.104  16.105  71.710  1.00  0.00    -0.472 OA 
BRANCH  15  18
HETATM   18  C   UNL     1     -12.469  13.823  70.932  1.00  0.00    -0.451 A  
HETATM   19  C   UNL     1     -11.843  12.794  70.204  1.00  0.00    -0.326 A  
HETATM   20  C   UNL     1     -12.077  11.448  70.505  1.00  0.00    -0.394 A  
HETATM   21  H   UNL     1     -13.841   9.646  72.620  1.00  0.00     0.000 HD 
HETATM   22  C   UNL     1     -12.936  11.141  71.568  1.00  0.00    -0.437 A  
HETATM   23  C   UNL     1     -13.308  13.483  72.002  1.00  0.00    -0.563 A  
HETATM   24  C   UNL     1     -13.540  12.146  72.319  1.00  0.00    -0.226 A  
HETATM   25  O   UNL     1     -13.258   9.854  71.899  1.00  0.00    -0.408 OA 
BRANCH  20  26
HETATM   26  N   UNL     1     -11.465  10.402  69.790  1.00  0.00    -0.267 N  
HETATM   27  H   UNL     1     -12.043   9.584  69.599  1.00  0.00     0.000 HD 
HETATM   28  O   UNL     1      -9.742   9.393  68.716  1.00  0.00    -0.152 OA 
HETATM   29  C   UNL     1     -10.182  10.361  69.321  1.00  0.00    -0.230 C  
ENDBRANCH  20  26
ENDBRANCH  15  18
ENDBRANCH  14  15
ENDBRANCH  12  14
ENDBRANCH  10  12
ENDBRANCH   9  10
ENDBRANCH   6   9
ENDBRANCH   2   3
TORSDOF 8
ENDMDL
MODEL       20
REMARK 921   NORMALIZED FREE ENERGY PREDICTED BY IDOCK:   -5.88 KCAL/MOL
REMARK 922        TOTAL FREE ENERGY PREDICTED BY IDOCK:  -10.29 KCAL/MOL
REMARK 923 INTER-LIGAND FREE ENERGY PREDICTED BY IDOCK:   -9.32 KCAL/MOL
REMARK 924 INTRA-LIGAND FREE ENERGY PREDICTED BY IDOCK:   -0.97 KCAL/MOL
REMARK 927      BINDING AFFINITY PREDICTED BY RF-SCORE:    0.00 PKD
ROOT
HETATM    1  C   UNL     1      -9.700  20.695  67.298  1.00  0.00    -0.422 C  
HETATM    2  O   UNL     1     -10.251  19.663  68.105  1.00  0.00    -0.420 OA 
ENDROOT
BRANCH   2   3
HETATM    3  C   UNL     1     -10.329  18.419  67.541  1.00  0.00    -0.393 A  
HETATM    4  C   UNL     1     -10.181  17.204  68.208  1.00  0.00    -0.334 A  
HETATM    5  C   UNL     1     -10.223  16.000  67.498  1.00  0.00    -0.275 A  
HETATM    6  C   UNL     1     -10.429  15.996  66.112  1.00  0.00    -0.334 A  
HETATM    7  C   UNL     1     -10.567  18.416  66.166  1.00  0.00    -0.346 A  
HETATM    8  C   UNL     1     -10.616  17.217  65.455  1.00  0.00    -0.160 A  
BRANCH   6   9
HETATM    9  C   UNL     1     -10.312  14.724  65.306  1.00  0.00    -0.425 C  
BRANCH   9  10
HETATM   10  C   UNL     1     -11.617  13.927  65.073  1.00  0.00    -0.345 C  
HETATM   11  C   UNL     1     -11.359  12.701  64.187  1.00  0.00    -0.439 C  
BRANCH  10  12
HETATM   12  N   UNL     1     -12.211  13.436  66.332  1.00  0.00    -0.399 NA 
HETATM   13  H   UNL     1     -13.206  13.250  66.214  1.00  0.00     0.000 HD 
BRANCH  12  14
HETATM   14  C   UNL     1     -11.521  12.257  66.884  1.00  0.00    -0.356 C  
BRANCH  14  15
HETATM   15  C   UNL     1     -10.723  12.551  68.177  1.00  0.00    -0.227 C  
HETATM   16  H   UNL     1      -9.281  11.684  69.199  1.00  0.00     0.000 HD 
HETATM   17  O   UNL     1      -9.771  11.504  68.405  1.00  0.00    -0.191 OA 
BRANCH  15  18
HETATM   18  C   UNL     1     -11.580  12.801  69.400  1.00  0.00    -0.361 A  
HETATM   19  C   UNL     1     -11.975  11.712  70.199  1.00  0.00    -0.441 A  
HETATM   20  C   UNL     1     -12.787  11.897  71.324  1.00  0.00    -0.290 A  
HETATM   21  H   UNL     1     -14.287  14.346  72.931  1.00  0.00     0.000 HD 
HETATM   22  C   UNL     1     -13.185  13.199  71.654  1.00  0.00    -0.346 A  
HETATM   23  C   UNL     1     -11.979  14.093  69.769  1.00  0.00    -0.396 A  
HETATM   24  C   UNL     1     -12.779  14.291  70.893  1.00  0.00    -0.427 A  
HETATM   25  O   UNL     1     -14.017  13.463  72.706  1.00  0.00    -0.724 OA 
BRANCH  20  26
HETATM   26  N   UNL     1     -13.197  10.823  72.136  1.00  0.00    -0.591 N  
HETATM   27  H   UNL     1     -12.953  10.884  73.124  1.00  0.00     0.000 HD 
HETATM   28  O   UNL     1     -14.186   8.822  72.537  1.00  0.00    -0.492 OA 
HETATM   29  C   UNL     1     -13.886   9.708  71.749  1.00  0.00    -0.186 C  
ENDBRANCH  20  26
ENDBRANCH  15  18
ENDBRANCH  14  15
ENDBRANCH  12  14
ENDBRANCH  10  12
ENDBRANCH   9  10
ENDBRANCH   6   9
ENDBRANCH   2   3
TORSDOF 8
ENDMDL
MODEL       21
REMARK 921   NORMALIZED FREE ENERGY PREDICTED BY IDOCK:   -5.88 KCAL/MOL
REMARK 922        TOTAL FREE ENERGY PREDICTED BY IDOCK:  -10.28 KCAL/MOL
REMARK 923 INTER-LIGAND FREE ENERGY PREDICTED BY IDOCK:   -8.99 KCAL/MOL
REMARK 924 INTRA-LIGAND FREE ENERGY PREDICTED BY IDOCK:   -1.29 KCAL/MOL
REMARK 927      BINDING AFFINITY PREDICTED BY RF-SCORE:    0.00 PKD
ROOT
HETATM    1  C   UNL     1     -14.326   8.646  71.833  1.00  0.00    -0.405 C  
HETATM    2  O   UNL     1     -13.520   9.692  72.359  1.00  0.00    -0.432 OA 
ENDROOT
BRANCH   2   3
HETATM    3  C   UNL     1     -12.955  10.546  71.452  1.00  0.00    -0.440 A  
HETATM    4  C   UNL     1     -12.236  10.177  70.316  1.00  0.00    -0.248 A  
HETATM    5  C   UNL     1     -11.656  11.155  69.500  1.00  0.00    -0.392 A  
HETATM    6  C   UNL     1     -11.802  12.515  69.804  1.00  0.00    -0.380 A  
HETATM    7  C   UNL     1     -13.129  11.900  71.738  1.00  0.00    -0.465 A  
HETATM    8  C   UNL     1     -12.557  12.878  70.924  1.00  0.00    -0.355 A  
BRANCH   6   9
HETATM    9  C   UNL     1     -11.048  13.575  69.036  1.00  0.00    -0.293 C  
BRANCH   9  10
HETATM   10  C   UNL     1     -11.872  14.781  68.526  1.00  0.00    -0.306 C  
HETATM   11  C   UNL     1     -11.018  16.055  68.497  1.00  0.00    -0.326 C  
BRANCH  10  12
HETATM   12  N   UNL     1     -12.388  14.573  67.158  1.00  0.00    -0.545 NA 
HETATM   13  H   UNL     1     -13.056  15.302  66.910  1.00  0.00     0.000 HD 
BRANCH  12  14
HETATM   14  C   UNL     1     -11.328  14.468  66.142  1.00  0.00    -0.348 C  
BRANCH  14  15
HETATM   15  C   UNL     1     -11.728  13.623  64.909  1.00  0.00    -0.360 C  
HETATM   16  H   UNL     1     -13.385  12.853  64.175  1.00  0.00     0.000 HD 
HETATM   17  O   UNL     1     -13.139  13.373  64.932  1.00  0.00    -0.723 OA 
BRANCH  15  18
HETATM   18  C   UNL     1     -10.938  12.341  64.743  1.00  0.00    -0.346 A  
HETATM   19  C   UNL     1     -10.745  11.502  65.856  1.00  0.00    -0.325 A  
HETATM   20  C   UNL     1     -10.000  10.322  65.752  1.00  0.00    -0.271 A  
HETATM   21  H   UNL     1      -8.320   8.636  63.478  1.00  0.00     0.000 HD 
HETATM   22  C   UNL     1      -9.464   9.978  64.504  1.00  0.00    -0.296 A  
HETATM   23  C   UNL     1     -10.405  11.959  63.504  1.00  0.00    -0.495 A  
HETATM   24  C   UNL     1      -9.671  10.781  63.386  1.00  0.00    -0.394 A  
HETATM   25  O   UNL     1      -8.684   8.870  64.325  1.00  0.00    -0.165 OA 
BRANCH  20  26
HETATM   26  N   UNL     1      -9.791   9.468  66.851  1.00  0.00    -0.190 N  
HETATM   27  H   UNL     1      -9.008   9.699  67.462  1.00  0.00     0.000 HD 
HETATM   28  O   UNL     1     -10.247   7.680  68.168  1.00  0.00    -0.183 OA 
HETATM   29  C   UNL     1     -10.521   8.364  67.192  1.00  0.00    -0.310 C  
ENDBRANCH  20  26
ENDBRANCH  15  18
ENDBRANCH  14  15
ENDBRANCH  12  14
ENDBRANCH  10  12
ENDBRANCH   9  10
ENDBRANCH   6   9
ENDBRANCH   2   3
TORSDOF 8
ENDMDL
MODEL       22
REMARK 921   NORMALIZED FREE ENERGY PREDICTED BY IDOCK:   -5.86 KCAL/MOL
REMARK 922        TOTAL FREE ENERGY PREDICTED BY IDOCK:  -10.26 KCAL/MOL
REMARK 923 INTER-LIGAND FREE ENERGY PREDICTED BY IDOCK:   -9.07 KCAL/MOL
REMARK 924 INTRA-LIGAND FREE ENERGY PREDICTED BY IDOCK:   -1.19 KCAL/MOL
REMARK 927      BINDING AFFINITY PREDICTED BY RF-SCORE:    0.00 PKD
ROOT
HETATM    1  C   UNL     1     -13.879  13.563  72.201  1.00  0.00    -0.533 C  
HETATM    2  O   UNL     1     -12.683  14.314  72.366  1.00  0.00    -0.329 OA 
ENDROOT
BRANCH   2   3
HETATM    3  C   UNL     1     -12.088  14.776  71.224  1.00  0.00    -0.341 A  
HETATM    4  C   UNL     1     -11.333  15.943  71.107  1.00  0.00    -0.435 A  
HETATM    5  C   UNL     1     -10.829  16.334  69.862  1.00  0.00    -0.352 A  
HETATM    6  C   UNL     1     -11.062  15.554  68.721  1.00  0.00    -0.291 A  
HETATM    7  C   UNL     1     -12.292  13.981  70.096  1.00  0.00    -0.409 A  
HETATM    8  C   UNL     1     -11.787  14.365  68.854  1.00  0.00    -0.355 A  
BRANCH   6   9
HETATM    9  C   UNL     1     -10.671  16.041  67.346  1.00  0.00    -0.306 C  
BRANCH   9  10
HETATM   10  C   UNL     1      -9.371  15.457  66.745  1.00  0.00    -0.246 C  
HETATM   11  C   UNL     1      -8.525  14.777  67.829  1.00  0.00    -0.169 C  
BRANCH  10  12
HETATM   12  N   UNL     1      -9.636  14.446  65.702  1.00  0.00    -0.537 NA 
HETATM   13  H   UNL     1      -9.688  13.513  66.109  1.00  0.00     0.000 HD 
BRANCH  12  14
HETATM   14  C   UNL     1     -10.837  14.733  64.900  1.00  0.00    -0.416 C  
BRANCH  14  15
HETATM   15  C   UNL     1     -11.807  13.534  64.779  1.00  0.00    -0.381 C  
HETATM   16  H   UNL     1     -13.667  13.137  65.287  1.00  0.00     0.000 HD 
HETATM   17  O   UNL     1     -13.072  13.874  65.362  1.00  0.00    -0.752 OA 
BRANCH  15  18
HETATM   18  C   UNL     1     -11.268  12.233  65.336  1.00  0.00    -0.372 A  
HETATM   19  C   UNL     1     -11.600  11.856  66.650  1.00  0.00    -0.337 A  
HETATM   20  C   UNL     1     -11.104  10.674  67.212  1.00  0.00    -0.243 A  
HETATM   21  H   UNL     1      -9.155   8.156  66.382  1.00  0.00     0.000 HD 
HETATM   22  C   UNL     1     -10.280   9.856  66.428  1.00  0.00    -0.222 A  
HETATM   23  C   UNL     1     -10.458  11.382  64.571  1.00  0.00    -0.381 A  
HETATM   24  C   UNL     1      -9.966  10.198  65.116  1.00  0.00    -0.379 A  
HETATM   25  O   UNL     1      -9.713   8.711  66.914  1.00  0.00    -0.176 OA 
BRANCH  20  26
HETATM   26  N   UNL     1     -11.420  10.278  68.525  1.00  0.00    -0.509 N  
HETATM   27  H   UNL     1     -12.175   9.600  68.625  1.00  0.00     0.000 HD 
HETATM   28  O   UNL     1     -11.188  10.301  70.780  1.00  0.00    -0.329 OA 
HETATM   29  C   UNL     1     -10.828  10.701  69.682  1.00  0.00    -0.268 C  
ENDBRANCH  20  26
ENDBRANCH  15  18
ENDBRANCH  14  15
ENDBRANCH  12  14
ENDBRANCH  10  12
ENDBRANCH   9  10
ENDBRANCH   6   9
ENDBRANCH   2   3
TORSDOF 8
ENDMDL
MODEL       23
REMARK 921   NORMALIZED FREE ENERGY PREDICTED BY IDOCK:   -5.77 KCAL/MOL
REMARK 922        TOTAL FREE ENERGY PREDICTED BY IDOCK:  -10.12 KCAL/MOL
REMARK 923 INTER-LIGAND FREE ENERGY PREDICTED BY IDOCK:   -9.28 KCAL/MOL
REMARK 924 INTRA-LIGAND FREE ENERGY PREDICTED BY IDOCK:   -0.84 KCAL/MOL
REMARK 927      BINDING AFFINITY PREDICTED BY RF-SCORE:    0.00 PKD
ROOT
HETATM    1  C   UNL     1      -6.274  20.952  67.830  1.00  0.00    -0.343 C  
HETATM    2  O   UNL     1      -7.642  20.970  67.444  1.00  0.00    -0.334 OA 
ENDROOT
BRANCH   2   3
HETATM    3  C   UNL     1      -8.398  19.893  67.816  1.00  0.00    -0.303 A  
HETATM    4  C   UNL     1      -7.917  18.694  68.340  1.00  0.00    -0.351 A  
HETATM    5  C   UNL     1      -8.796  17.644  68.622  1.00  0.00    -0.259 A  
HETATM    6  C   UNL     1     -10.172  17.787  68.398  1.00  0.00    -0.384 A  
HETATM    7  C   UNL     1      -9.771  20.049  67.623  1.00  0.00    -0.535 A  
HETATM    8  C   UNL     1     -10.652  19.006  67.909  1.00  0.00    -0.441 A  
BRANCH   6   9
HETATM    9  C   UNL     1     -11.115  16.615  68.538  1.00  0.00    -0.301 C  
BRANCH   9  10
HETATM   10  C   UNL     1     -10.819  15.617  69.682  1.00  0.00    -0.287 C  
HETATM   11  C   UNL     1     -12.034  15.467  70.606  1.00  0.00    -0.396 C  
BRANCH  10  12
HETATM   12  N   UNL     1     -10.483  14.269  69.182  1.00  0.00    -0.371 NA 
HETATM   13  H   UNL     1      -9.611  13.938  69.593  1.00  0.00     0.000 HD 
BRANCH  12  14
HETATM   14  C   UNL     1     -11.561  13.285  69.382  1.00  0.00    -0.305 C  
BRANCH  14  15
HETATM   15  C   UNL     1     -11.514  12.099  68.390  1.00  0.00    -0.304 C  
HETATM   16  H   UNL     1     -10.251  10.658  67.938  1.00  0.00     0.000 HD 
HETATM   17  O   UNL     1     -10.280  11.386  68.548  1.00  0.00    -0.195 OA 
BRANCH  15  18
HETATM   18  C   UNL     1     -11.756  12.480  66.944  1.00  0.00    -0.447 A  
HETATM   19  C   UNL     1     -11.235  11.667  65.921  1.00  0.00    -0.296 A  
HETATM   20  C   UNL     1     -11.415  11.996  64.572  1.00  0.00    -0.319 A  
HETATM   21  H   UNL     1     -12.827  14.350  62.757  1.00  0.00     0.000 HD 
HETATM   22  C   UNL     1     -12.148  13.148  64.258  1.00  0.00    -0.414 A  
HETATM   23  C   UNL     1     -12.502  13.615  66.596  1.00  0.00    -0.291 A  
HETATM   24  C   UNL     1     -12.696  13.947  65.257  1.00  0.00    -0.485 A  
HETATM   25  O   UNL     1     -12.329  13.569  62.970  1.00  0.00    -0.661 OA 
BRANCH  20  26
HETATM   26  N   UNL     1     -10.901  11.200  63.532  1.00  0.00    -0.640 N  
HETATM   27  H   UNL     1     -11.543  10.981  62.770  1.00  0.00     0.000 HD 
HETATM   28  O   UNL     1      -9.294   9.995  62.482  1.00  0.00    -0.290 OA 
HETATM   29  C   UNL     1      -9.638  10.688  63.428  1.00  0.00    -0.332 C  
ENDBRANCH  20  26
ENDBRANCH  15  18
ENDBRANCH  14  15
ENDBRANCH  12  14
ENDBRANCH  10  12
ENDBRANCH   9  10
ENDBRANCH   6   9
ENDBRANCH   2   3
TORSDOF 8
ENDMDL
MODEL       24
REMARK 921   NORMALIZED FREE ENERGY PREDICTED BY IDOCK:   -5.76 KCAL/MOL
REMARK 922        TOTAL FREE ENERGY PREDICTED BY IDOCK:  -10.12 KCAL/MOL
REMARK 923 INTER-LIGAND FREE ENERGY PREDICTED BY IDOCK:   -9.81 KCAL/MOL
REMARK 924 INTRA-LIGAND FREE ENERGY PREDICTED BY IDOCK:   -0.31 KCAL/MOL
REMARK 927      BINDING AFFINITY PREDICTED BY RF-SCORE:    0.00 PKD
ROOT
HETATM    1  C   UNL     1      -9.479   8.172  69.365  1.00  0.00    -0.162 C  
HETATM    2  O   UNL     1     -10.900   8.194  69.402  1.00  0.00    -0.193 OA 
ENDROOT
BRANCH   2   3
HETATM    3  C   UNL     1     -11.479   9.184  70.147  1.00  0.00    -0.087 A  
HETATM    4  C   UNL     1     -12.167   9.011  71.348  1.00  0.00    -0.387 A  
HETATM    5  C   UNL     1     -12.766  10.105  71.981  1.00  0.00    -0.421 A  
HETATM    6  C   UNL     1     -12.672  11.389  71.427  1.00  0.00    -0.489 A  
HETATM    7  C   UNL     1     -11.355  10.466  69.612  1.00  0.00    -0.333 A  
HETATM    8  C   UNL     1     -11.947  11.561  70.243  1.00  0.00    -0.455 A  
BRANCH   6   9
HETATM    9  C   UNL     1     -13.448  12.550  72.002  1.00  0.00    -0.486 C  
BRANCH   9  10
HETATM   10  C   UNL     1     -13.265  13.920  71.308  1.00  0.00    -0.282 C  
HETATM   11  C   UNL     1     -13.915  15.041  72.129  1.00  0.00    -0.610 C  
BRANCH  10  12
HETATM   12  N   UNL     1     -11.843  14.278  71.133  1.00  0.00    -0.482 NA 
HETATM   13  H   UNL     1     -11.283  13.448  70.939  1.00  0.00     0.000 HD 
BRANCH  12  14
HETATM   14  C   UNL     1     -11.621  15.309  70.105  1.00  0.00    -0.299 C  
BRANCH  14  15
HETATM   15  C   UNL     1     -10.476  14.972  69.122  1.00  0.00    -0.247 C  
HETATM   16  H   UNL     1      -8.543  15.328  68.995  1.00  0.00     0.000 HD 
HETATM   17  O   UNL     1      -9.247  15.534  69.600  1.00  0.00    -0.275 OA 
BRANCH  15  18
HETATM   18  C   UNL     1     -10.747  15.365  67.684  1.00  0.00    -0.292 A  
HETATM   19  C   UNL     1     -11.528  14.520  66.875  1.00  0.00    -0.375 A  
HETATM   20  C   UNL     1     -11.781  14.833  65.534  1.00  0.00    -0.274 A  
HETATM   21  H   UNL     1     -11.060  17.191  63.354  1.00  0.00     0.000 HD 
HETATM   22  C   UNL     1     -11.257  16.024  65.016  1.00  0.00    -0.261 A  
HETATM   23  C   UNL     1     -10.254  16.559  67.141  1.00  0.00    -0.284 A  
HETATM   24  C   UNL     1     -10.508  16.887  65.811  1.00  0.00    -0.279 A  
HETATM   25  O   UNL     1     -11.415  16.382  63.706  1.00  0.00    -1.002 OA 
BRANCH  20  26
HETATM   26  N   UNL     1     -12.557  14.002  64.704  1.00  0.00    -0.659 N  
HETATM   27  H   UNL     1     -13.425  14.400  64.349  1.00  0.00     0.000 HD 
HETATM   28  O   UNL     1     -13.026  12.077  63.602  1.00  0.00    -0.747 OA 
HETATM   29  C   UNL     1     -12.275  12.720  64.322  1.00  0.00    -0.425 C  
ENDBRANCH  20  26
ENDBRANCH  15  18
ENDBRANCH  14  15
ENDBRANCH  12  14
ENDBRANCH  10  12
ENDBRANCH   9  10
ENDBRANCH   6   9
ENDBRANCH   2   3
TORSDOF 8
ENDMDL
MODEL       25
REMARK 921   NORMALIZED FREE ENERGY PREDICTED BY IDOCK:   -5.71 KCAL/MOL
REMARK 922        TOTAL FREE ENERGY PREDICTED BY IDOCK:  -10.04 KCAL/MOL
REMARK 923 INTER-LIGAND FREE ENERGY PREDICTED BY IDOCK:   -9.06 KCAL/MOL
REMARK 924 INTRA-LIGAND FREE ENERGY PREDICTED BY IDOCK:   -0.98 KCAL/MOL
REMARK 927      BINDING AFFINITY PREDICTED BY RF-SCORE:    0.00 PKD
ROOT
HETATM    1  C   UNL     1     -13.940  15.343  72.526  1.00  0.00    -0.543 C  
HETATM    2  O   UNL     1     -13.988  13.935  72.721  1.00  0.00    -0.697 OA 
ENDROOT
BRANCH   2   3
HETATM    3  C   UNL     1     -13.229  13.173  71.877  1.00  0.00    -0.431 A  
HETATM    4  C   UNL     1     -12.459  13.645  70.814  1.00  0.00    -0.432 A  
HETATM    5  C   UNL     1     -11.774  12.749  69.987  1.00  0.00    -0.282 A  
HETATM    6  C   UNL     1     -11.840  11.369  70.222  1.00  0.00    -0.438 A  
HETATM    7  C   UNL     1     -13.269  11.803  72.133  1.00  0.00    -0.342 A  
HETATM    8  C   UNL     1     -12.583  10.906  71.313  1.00  0.00    -0.526 A  
BRANCH   6   9
HETATM    9  C   UNL     1     -11.249  10.378  69.247  1.00  0.00    -0.304 C  
BRANCH   9  10
HETATM   10  C   UNL     1     -10.841  10.928  67.860  1.00  0.00    -0.247 C  
HETATM   11  C   UNL     1     -10.117   9.854  67.037  1.00  0.00    -0.275 C  
BRANCH  10  12
HETATM   12  N   UNL     1     -12.003  11.374  67.066  1.00  0.00    -0.318 NA 
HETATM   13  H   UNL     1     -12.704  11.810  67.666  1.00  0.00     0.000 HD 
BRANCH  12  14
HETATM   14  C   UNL     1     -11.643  12.266  65.951  1.00  0.00    -0.393 C  
BRANCH  14  15
HETATM   15  C   UNL     1     -11.933  13.760  66.229  1.00  0.00    -0.429 C  
HETATM   16  H   UNL     1     -12.880  15.229  65.322  1.00  0.00     0.000 HD 
HETATM   17  O   UNL     1     -12.701  14.311  65.152  1.00  0.00    -0.596 OA 
BRANCH  15  18
HETATM   18  C   UNL     1     -10.704  14.595  66.522  1.00  0.00    -0.312 A  
HETATM   19  C   UNL     1     -10.780  15.995  66.412  1.00  0.00    -0.232 A  
HETATM   20  C   UNL     1      -9.661  16.802  66.650  1.00  0.00    -0.269 A  
HETATM   21  H   UNL     1      -6.493  16.475  67.478  1.00  0.00     0.000 HD 
HETATM   22  C   UNL     1      -8.460  16.185  67.022  1.00  0.00    -0.208 A  
HETATM   23  C   UNL     1      -9.493  14.010  66.916  1.00  0.00    -0.271 A  
HETATM   24  C   UNL     1      -8.375  14.803  67.165  1.00  0.00    -0.240 A  
HETATM   25  O   UNL     1      -7.308  16.893  67.225  1.00  0.00    -0.149 OA 
BRANCH  20  26
HETATM   26  N   UNL     1      -9.713  18.204  66.543  1.00  0.00    -0.331 N  
HETATM   27  H   UNL     1      -9.390  18.604  65.662  1.00  0.00     0.000 HD 
HETATM   28  O   UNL     1     -10.140  20.299  67.299  1.00  0.00    -0.419 OA 
HETATM   29  C   UNL     1     -10.147  19.091  67.489  1.00  0.00    -0.373 C  
ENDBRANCH  20  26
ENDBRANCH  15  18
ENDBRANCH  14  15
ENDBRANCH  12  14
ENDBRANCH  10  12
ENDBRANCH   9  10
ENDBRANCH   6   9
ENDBRANCH   2   3
TORSDOF 8
ENDMDL
MODEL       26
REMARK 921   NORMALIZED FREE ENERGY PREDICTED BY IDOCK:   -5.71 KCAL/MOL
REMARK 922        TOTAL FREE ENERGY PREDICTED BY IDOCK:  -10.03 KCAL/MOL
REMARK 923 INTER-LIGAND FREE ENERGY PREDICTED BY IDOCK:   -9.19 KCAL/MOL
REMARK 924 INTRA-LIGAND FREE ENERGY PREDICTED BY IDOCK:   -0.84 KCAL/MOL
REMARK 927      BINDING AFFINITY PREDICTED BY RF-SCORE:    0.00 PKD
ROOT
HETATM    1  C   UNL     1      -9.836  19.981  66.607  1.00  0.00    -0.450 C  
HETATM    2  O   UNL     1     -10.353  19.117  67.610  1.00  0.00    -0.377 OA 
ENDROOT
BRANCH   2   3
HETATM    3  C   UNL     1     -10.549  17.811  67.252  1.00  0.00    -0.316 A  
HETATM    4  C   UNL     1     -10.831  16.756  68.119  1.00  0.00    -0.353 A  
HETATM    5  C   UNL     1     -10.948  15.452  67.627  1.00  0.00    -0.315 A  
HETATM    6  C   UNL     1     -10.798  15.189  66.259  1.00  0.00    -0.333 A  
HETATM    7  C   UNL     1     -10.432  17.557  65.886  1.00  0.00    -0.251 A  
HETATM    8  C   UNL     1     -10.553  16.258  65.391  1.00  0.00    -0.371 A  
BRANCH   6   9
HETATM    9  C   UNL     1     -10.754  13.774  65.732  1.00  0.00    -0.281 C  
BRANCH   9  10
HETATM   10  C   UNL     1     -12.055  12.946  65.855  1.00  0.00    -0.444 C  
HETATM   11  C   UNL     1     -12.456  12.353  64.499  1.00  0.00    -0.519 C  
BRANCH  10  12
HETATM   12  N   UNL     1     -11.919  11.820  66.800  1.00  0.00    -0.529 NA 
HETATM   13  H   UNL     1     -12.541  11.054  66.541  1.00  0.00     0.000 HD 
BRANCH  12  14
HETATM   14  C   UNL     1     -10.533  11.341  66.944  1.00  0.00    -0.245 C  
BRANCH  14  15
HETATM   15  C   UNL     1      -9.970  11.486  68.378  1.00  0.00    -0.206 C  
HETATM   16  H   UNL     1      -8.257  11.145  69.287  1.00  0.00     0.000 HD 
HETATM   17  O   UNL     1      -8.603  11.056  68.406  1.00  0.00    -0.135 OA 
BRANCH  15  18
HETATM   18  C   UNL     1     -10.793  10.798  69.448  1.00  0.00    -0.289 A  
HETATM   19  C   UNL     1     -11.676  11.560  70.234  1.00  0.00    -0.379 A  
HETATM   20  C   UNL     1     -12.436  10.968  71.250  1.00  0.00    -0.370 A  
HETATM   21  H   UNL     1     -12.901   8.001  72.596  1.00  0.00     0.000 HD 
HETATM   22  C   UNL     1     -12.315   9.587  71.456  1.00  0.00    -0.380 A  
HETATM   23  C   UNL     1     -10.710   9.415  69.666  1.00  0.00    -0.251 A  
HETATM   24  C   UNL     1     -11.469   8.813  70.667  1.00  0.00    -0.263 A  
HETATM   25  O   UNL     1     -12.983   8.938  72.456  1.00  0.00    -0.418 OA 
BRANCH  20  26
HETATM   26  N   UNL     1     -13.324  11.710  72.051  1.00  0.00    -0.500 N  
HETATM   27  H   UNL     1     -13.936  11.173  72.664  1.00  0.00     0.000 HD 
HETATM   28  O   UNL     1     -14.272  13.618  72.826  1.00  0.00    -0.676 OA 
HETATM   29  C   UNL     1     -13.456  13.069  72.098  1.00  0.00    -0.542 C  
ENDBRANCH  20  26
ENDBRANCH  15  18
ENDBRANCH  14  15
ENDBRANCH  12  14
ENDBRANCH  10  12
ENDBRANCH   9  10
ENDBRANCH   6   9
ENDBRANCH   2   3
TORSDOF 8
ENDMDL
MODEL       27
REMARK 921   NORMALIZED FREE ENERGY PREDICTED BY IDOCK:   -5.69 KCAL/MOL
REMARK 922        TOTAL FREE ENERGY PREDICTED BY IDOCK:  -10.01 KCAL/MOL
REMARK 923 INTER-LIGAND FREE ENERGY PREDICTED BY IDOCK:   -9.38 KCAL/MOL
REMARK 924 INTRA-LIGAND FREE ENERGY PREDICTED BY IDOCK:   -0.63 KCAL/MOL
REMARK 927      BINDING AFFINITY PREDICTED BY RF-SCORE:    0.00 PKD
ROOT
HETATM    1  C   UNL     1     -11.836   6.097  71.898  1.00  0.00    -0.257 C  
HETATM    2  O   UNL     1     -12.581   7.185  72.429  1.00  0.00    -0.071 OA 
ENDROOT
BRANCH   2   3
HETATM    3  C   UNL     1     -12.405   8.401  71.827  1.00  0.00    -0.331 A  
HETATM    4  C   UNL     1     -11.419   8.719  70.894  1.00  0.00    -0.330 A  
HETATM    5  C   UNL     1     -11.311  10.023  70.399  1.00  0.00    -0.392 A  
HETATM    6  C   UNL     1     -12.199  11.022  70.822  1.00  0.00    -0.480 A  
HETATM    7  C   UNL     1     -13.310   9.385  72.224  1.00  0.00    -0.539 A  
HETATM    8  C   UNL     1     -13.209  10.686  71.729  1.00  0.00    -0.526 A  
BRANCH   6   9
HETATM    9  C   UNL     1     -11.997  12.467  70.430  1.00  0.00    -0.342 C  
BRANCH   9  10
HETATM   10  C   UNL     1     -11.409  12.730  69.024  1.00  0.00    -0.294 C  
HETATM   11  C   UNL     1     -11.919  14.061  68.458  1.00  0.00    -0.383 C  
BRANCH  10  12
HETATM   12  N   UNL     1      -9.934  12.797  69.033  1.00  0.00    -0.405 NA 
HETATM   13  H   UNL     1      -9.580  12.826  69.989  1.00  0.00     0.000 HD 
BRANCH  12  14
HETATM   14  C   UNL     1      -9.294  11.712  68.271  1.00  0.00    -0.191 C  
BRANCH  14  15
HETATM   15  C   UNL     1      -8.696  12.169  66.919  1.00  0.00    -0.194 C  
HETATM   16  H   UNL     1      -7.368  13.490  66.312  1.00  0.00     0.000 HD 
HETATM   17  O   UNL     1      -7.735  13.209  67.142  1.00  0.00    -0.127 OA 
BRANCH  15  18
HETATM   18  C   UNL     1      -9.725  12.573  65.883  1.00  0.00    -0.226 A  
HETATM   19  C   UNL     1      -9.985  13.939  65.667  1.00  0.00    -0.298 A  
HETATM   20  C   UNL     1     -10.945  14.354  64.737  1.00  0.00    -0.397 A  
HETATM   21  H   UNL     1     -13.085  13.031  62.616  1.00  0.00     0.000 HD 
HETATM   22  C   UNL     1     -11.632  13.378  64.005  1.00  0.00    -0.385 A  
HETATM   23  C   UNL     1     -10.416  11.621  65.120  1.00  0.00    -0.329 A  
HETATM   24  C   UNL     1     -11.366  12.023  64.184  1.00  0.00    -0.455 A  
HETATM   25  O   UNL     1     -12.619  13.694  63.113  1.00  0.00    -0.792 OA 
BRANCH  20  26
HETATM   26  N   UNL     1     -11.224  15.714  64.505  1.00  0.00    -0.714 N  
HETATM   27  H   UNL     1     -11.806  15.925  63.695  1.00  0.00     0.000 HD 
HETATM   28  O   UNL     1     -11.093  17.934  64.949  1.00  0.00    -0.782 OA 
HETATM   29  C   UNL     1     -10.802  16.783  65.245  1.00  0.00    -0.138 C  
ENDBRANCH  20  26
ENDBRANCH  15  18
ENDBRANCH  14  15
ENDBRANCH  12  14
ENDBRANCH  10  12
ENDBRANCH   9  10
ENDBRANCH   6   9
ENDBRANCH   2   3
TORSDOF 8
ENDMDL
MODEL       28
REMARK 921   NORMALIZED FREE ENERGY PREDICTED BY IDOCK:   -5.68 KCAL/MOL
REMARK 922        TOTAL FREE ENERGY PREDICTED BY IDOCK:  -10.00 KCAL/MOL
REMARK 923 INTER-LIGAND FREE ENERGY PREDICTED BY IDOCK:   -8.94 KCAL/MOL
REMARK 924 INTRA-LIGAND FREE ENERGY PREDICTED BY IDOCK:   -1.06 KCAL/MOL
REMARK 927      BINDING AFFINITY PREDICTED BY RF-SCORE:    0.00 PKD
ROOT
HETATM    1  C   UNL     1      -9.880  20.589  67.426  1.00  0.00    -0.434 C  
HETATM    2  O   UNL     1      -9.976  19.408  68.211  1.00  0.00    -0.369 OA 
ENDROOT
BRANCH   2   3
HETATM    3  C   UNL     1     -10.194  18.239  67.535  1.00  0.00    -0.369 A  
HETATM    4  C   UNL     1     -10.076  16.953  68.061  1.00  0.00    -0.293 A  
HETATM    5  C   UNL     1     -10.269  15.836  67.242  1.00  0.00    -0.268 A  
HETATM    6  C   UNL     1     -10.597  15.992  65.888  1.00  0.00    -0.338 A  
HETATM    7  C   UNL     1     -10.554  18.397  66.197  1.00  0.00    -0.346 A  
HETATM    8  C   UNL     1     -10.752  17.285  65.378  1.00  0.00    -0.074 A  
BRANCH   6   9
HETATM    9  C   UNL     1     -10.645  14.809  64.951  1.00  0.00    -0.431 C  
BRANCH   9  10
HETATM   10  C   UNL     1     -12.000  14.074  64.829  1.00  0.00    -0.417 C  
HETATM   11  C   UNL     1     -11.971  13.057  63.681  1.00  0.00    -0.608 C  
BRANCH  10  12
HETATM   12  N   UNL     1     -12.352  13.332  66.057  1.00  0.00    -0.411 NA 
HETATM   13  H   UNL     1     -13.345  13.100  66.067  1.00  0.00     0.000 HD 
BRANCH  12  14
HETATM   14  C   UNL     1     -11.533  12.127  66.268  1.00  0.00    -0.374 C  
BRANCH  14  15
HETATM   15  C   UNL     1     -10.672  12.175  67.552  1.00  0.00    -0.232 C  
HETATM   16  H   UNL     1      -9.237  11.095  68.358  1.00  0.00     0.000 HD 
HETATM   17  O   UNL     1      -9.765  11.066  67.569  1.00  0.00    -0.170 OA 
BRANCH  15  18
HETATM   18  C   UNL     1     -11.468  12.264  68.838  1.00  0.00    -0.355 A  
HETATM   19  C   UNL     1     -11.683  13.523  69.429  1.00  0.00    -0.381 A  
HETATM   20  C   UNL     1     -12.392  13.647  70.630  1.00  0.00    -0.368 A  
HETATM   21  H   UNL     1     -13.915  11.725  72.826  1.00  0.00     0.000 HD 
HETATM   22  C   UNL     1     -12.905  12.487  71.226  1.00  0.00    -0.241 A  
HETATM   23  C   UNL     1     -12.012  11.125  69.448  1.00  0.00    -0.420 A  
HETATM   24  C   UNL     1     -12.728  11.237  70.638  1.00  0.00    -0.314 A  
HETATM   25  O   UNL     1     -13.566  12.512  72.422  1.00  0.00    -0.521 OA 
BRANCH  20  26
HETATM   26  N   UNL     1     -12.617  14.894  71.242  1.00  0.00    -0.306 N  
HETATM   27  H   UNL     1     -13.455  15.397  70.950  1.00  0.00     0.000 HD 
HETATM   28  O   UNL     1     -12.121  16.603  72.646  1.00  0.00    -0.435 OA 
HETATM   29  C   UNL     1     -11.839  15.506  72.184  1.00  0.00    -0.462 C  
ENDBRANCH  20  26
ENDBRANCH  15  18
ENDBRANCH  14  15
ENDBRANCH  12  14
ENDBRANCH  10  12
ENDBRANCH   9  10
ENDBRANCH   6   9
ENDBRANCH   2   3
TORSDOF 8
ENDMDL
MODEL       29
REMARK 921   NORMALIZED FREE ENERGY PREDICTED BY IDOCK:   -5.67 KCAL/MOL
REMARK 922        TOTAL FREE ENERGY PREDICTED BY IDOCK:   -9.98 KCAL/MOL
REMARK 923 INTER-LIGAND FREE ENERGY PREDICTED BY IDOCK:   -9.25 KCAL/MOL
REMARK 924 INTRA-LIGAND FREE ENERGY PREDICTED BY IDOCK:   -0.73 KCAL/MOL
REMARK 927      BINDING AFFINITY PREDICTED BY RF-SCORE:    0.00 PKD
ROOT
HETATM    1  C   UNL     1      -9.453   5.673  73.758  1.00  0.00    -0.139 C  
HETATM    2  O   UNL     1     -10.360   6.722  74.069  1.00  0.00    -0.352 OA 
ENDROOT
BRANCH   2   3
HETATM    3  C   UNL     1     -10.599   7.638  73.082  1.00  0.00    -0.379 A  
HETATM    4  C   UNL     1     -11.852   8.059  72.639  1.00  0.00    -0.380 A  
HETATM    5  C   UNL     1     -11.957   8.960  71.574  1.00  0.00    -0.401 A  
HETATM    6  C   UNL     1     -10.808   9.462  70.948  1.00  0.00    -0.392 A  
HETATM    7  C   UNL     1      -9.453   8.161  72.482  1.00  0.00    -0.339 A  
HETATM    8  C   UNL     1      -9.554   9.065  71.423  1.00  0.00    -0.356 A  
BRANCH   6   9
HETATM    9  C   UNL     1     -10.900  10.302  69.696  1.00  0.00    -0.311 C  
BRANCH   9  10
HETATM   10  C   UNL     1      -9.564  10.747  69.058  1.00  0.00    -0.180 C  
HETATM   11  C   UNL     1      -9.393  10.136  67.661  1.00  0.00    -0.162 C  
BRANCH  10  12
HETATM   12  N   UNL     1      -9.472  12.213  68.906  1.00  0.00    -0.406 NA 
HETATM   13  H   UNL     1      -9.264  12.657  69.800  1.00  0.00     0.000 HD 
BRANCH  12  14
HETATM   14  C   UNL     1      -8.508  12.635  67.875  1.00  0.00    -0.173 C  
BRANCH  14  15
HETATM   15  C   UNL     1      -8.344  14.170  67.768  1.00  0.00    -0.174 C  
HETATM   16  H   UNL     1      -8.371  15.705  69.001  1.00  0.00     0.000 HD 
HETATM   17  O   UNL     1      -8.472  14.762  69.067  1.00  0.00    -0.173 OA 
BRANCH  15  18
HETATM   18  C   UNL     1      -9.264  14.831  66.762  1.00  0.00    -0.282 A  
HETATM   19  C   UNL     1      -9.954  14.032  65.831  1.00  0.00    -0.325 A  
HETATM   20  C   UNL     1     -10.794  14.604  64.869  1.00  0.00    -0.419 A  
HETATM   21  H   UNL     1     -11.823  17.584  63.925  1.00  0.00     0.000 HD 
HETATM   22  C   UNL     1     -10.953  15.996  64.863  1.00  0.00    -0.384 A  
HETATM   23  C   UNL     1      -9.460  16.218  66.742  1.00  0.00    -0.253 A  
HETATM   24  C   UNL     1     -10.301  16.799  65.796  1.00  0.00    -0.322 A  
HETATM   25  O   UNL     1     -11.715  16.640  63.929  1.00  0.00    -1.153 OA 
BRANCH  20  26
HETATM   26  N   UNL     1     -11.492  13.826  63.927  1.00  0.00    -0.613 N  
HETATM   27  H   UNL     1     -11.436  14.133  62.956  1.00  0.00     0.000 HD 
HETATM   28  O   UNL     1     -12.817  12.107  63.273  1.00  0.00    -0.735 OA 
HETATM   29  C   UNL     1     -12.238  12.706  64.167  1.00  0.00    -0.450 C  
ENDBRANCH  20  26
ENDBRANCH  15  18
ENDBRANCH  14  15
ENDBRANCH  12  14
ENDBRANCH  10  12
ENDBRANCH   9  10
ENDBRANCH   6   9
ENDBRANCH   2   3
TORSDOF 8
ENDMDL
MODEL       30
REMARK 921   NORMALIZED FREE ENERGY PREDICTED BY IDOCK:   -5.67 KCAL/MOL
REMARK 922        TOTAL FREE ENERGY PREDICTED BY IDOCK:   -9.98 KCAL/MOL
REMARK 923 INTER-LIGAND FREE ENERGY PREDICTED BY IDOCK:   -9.31 KCAL/MOL
REMARK 924 INTRA-LIGAND FREE ENERGY PREDICTED BY IDOCK:   -0.67 KCAL/MOL
REMARK 927      BINDING AFFINITY PREDICTED BY RF-SCORE:    0.00 PKD
ROOT
HETATM    1  C   UNL     1     -13.274  16.087  73.122  1.00  0.00    -0.537 C  
HETATM    2  O   UNL     1     -13.605  15.602  71.827  1.00  0.00    -0.481 OA 
ENDROOT
BRANCH   2   3
HETATM    3  C   UNL     1     -13.151  14.353  71.507  1.00  0.00    -0.340 A  
HETATM    4  C   UNL     1     -12.369  14.022  70.400  1.00  0.00    -0.429 A  
HETATM    5  C   UNL     1     -12.022  12.690  70.154  1.00  0.00    -0.375 A  
HETATM    6  C   UNL     1     -12.442  11.672  71.021  1.00  0.00    -0.436 A  
HETATM    7  C   UNL     1     -13.542  13.345  72.389  1.00  0.00    -0.708 A  
HETATM    8  C   UNL     1     -13.194  12.015  72.150  1.00  0.00    -0.400 A  
BRANCH   6   9
HETATM    9  C   UNL     1     -12.222  10.216  70.686  1.00  0.00    -0.394 C  
BRANCH   9  10
HETATM   10  C   UNL     1     -11.253   9.431  71.601  1.00  0.00    -0.361 C  
HETATM   11  C   UNL     1     -11.779   8.015  71.869  1.00  0.00    -0.351 C  
BRANCH  10  12
HETATM   12  N   UNL     1      -9.908   9.289  71.008  1.00  0.00    -0.290 NA 
HETATM   13  H   UNL     1      -9.656   8.306  70.916  1.00  0.00     0.000 HD 
BRANCH  12  14
HETATM   14  C   UNL     1      -9.758   9.990  69.721  1.00  0.00    -0.226 C  
BRANCH  14  15
HETATM   15  C   UNL     1     -10.057   9.102  68.490  1.00  0.00    -0.191 C  
HETATM   16  H   UNL     1      -9.291   7.485  67.668  1.00  0.00     0.000 HD 
HETATM   17  O   UNL     1      -9.107   8.031  68.425  1.00  0.00    -0.137 OA 
BRANCH  15  18
HETATM   18  C   UNL     1     -10.140   9.855  67.179  1.00  0.00    -0.270 A  
HETATM   19  C   UNL     1     -10.794  11.100  67.139  1.00  0.00    -0.326 A  
HETATM   20  C   UNL     1     -10.915  11.817  65.943  1.00  0.00    -0.304 A  
HETATM   21  H   UNL     1     -10.078  11.521  62.774  1.00  0.00     0.000 HD 
HETATM   22  C   UNL     1     -10.348  11.277  64.781  1.00  0.00    -0.307 A  
HETATM   23  C   UNL     1      -9.567   9.352  66.003  1.00  0.00    -0.328 A  
HETATM   24  C   UNL     1      -9.671  10.061  64.808  1.00  0.00    -0.363 A  
HETATM   25  O   UNL     1     -10.462  11.887  63.563  1.00  0.00    -0.385 OA 
BRANCH  20  26
HETATM   26  N   UNL     1     -11.567  13.062  65.878  1.00  0.00    -0.345 N  
HETATM   27  H   UNL     1     -11.089  13.847  66.320  1.00  0.00     0.000 HD 
HETATM   28  O   UNL     1     -13.257  14.459  65.299  1.00  0.00    -0.619 OA 
HETATM   29  C   UNL     1     -12.770  13.337  65.290  1.00  0.00    -0.412 C  
ENDBRANCH  20  26
ENDBRANCH  15  18
ENDBRANCH  14  15
ENDBRANCH  12  14
ENDBRANCH  10  12
ENDBRANCH   9  10
ENDBRANCH   6   9
ENDBRANCH   2   3
TORSDOF 8
ENDMDL
MODEL       31
REMARK 921   NORMALIZED FREE ENERGY PREDICTED BY IDOCK:   -5.64 KCAL/MOL
REMARK 922        TOTAL FREE ENERGY PREDICTED BY IDOCK:   -9.94 KCAL/MOL
REMARK 923 INTER-LIGAND FREE ENERGY PREDICTED BY IDOCK:   -9.31 KCAL/MOL
REMARK 924 INTRA-LIGAND FREE ENERGY PREDICTED BY IDOCK:   -0.63 KCAL/MOL
REMARK 927      BINDING AFFINITY PREDICTED BY RF-SCORE:    0.00 PKD
ROOT
HETATM    1  C   UNL     1      -6.244  20.899  67.555  1.00  0.00    -0.307 C  
HETATM    2  O   UNL     1      -7.621  21.154  67.311  1.00  0.00    -0.383 OA 
ENDROOT
BRANCH   2   3
HETATM    3  C   UNL     1      -8.478  20.103  67.480  1.00  0.00    -0.335 A  
HETATM    4  C   UNL     1      -9.817  20.064  67.091  1.00  0.00    -0.563 A  
HETATM    5  C   UNL     1     -10.603  18.944  67.380  1.00  0.00    -0.534 A  
HETATM    6  C   UNL     1     -10.056  17.842  68.050  1.00  0.00    -0.355 A  
HETATM    7  C   UNL     1      -7.923  18.993  68.118  1.00  0.00    -0.334 A  
HETATM    8  C   UNL     1      -8.703  17.872  68.403  1.00  0.00    -0.296 A  
BRANCH   6   9
HETATM    9  C   UNL     1     -10.924  16.698  68.517  1.00  0.00    -0.339 C  
BRANCH   9  10
HETATM   10  C   UNL     1     -10.381  15.847  69.689  1.00  0.00    -0.299 C  
HETATM   11  C   UNL     1     -11.321  15.917  70.899  1.00  0.00    -0.428 C  
BRANCH  10  12
HETATM   12  N   UNL     1     -10.238  14.421  69.332  1.00  0.00    -0.424 NA 
HETATM   13  H   UNL     1      -9.682  13.928  70.030  1.00  0.00     0.000 HD 
BRANCH  12  14
HETATM   14  C   UNL     1     -11.526  13.741  69.114  1.00  0.00    -0.298 C  
BRANCH  14  15
HETATM   15  C   UNL     1     -11.383  12.273  68.647  1.00  0.00    -0.291 C  
HETATM   16  H   UNL     1     -12.056  11.169  67.162  1.00  0.00     0.000 HD 
HETATM   17  O   UNL     1     -12.143  12.070  67.448  1.00  0.00    -0.566 OA 
BRANCH  15  18
HETATM   18  C   UNL     1     -11.724  11.242  69.704  1.00  0.00    -0.420 A  
HETATM   19  C   UNL     1     -11.120   9.973  69.648  1.00  0.00    -0.300 A  
HETATM   20  C   UNL     1     -11.426   8.984  70.590  1.00  0.00    -0.248 A  
HETATM   21  H   UNL     1     -13.345   8.578  73.232  1.00  0.00     0.000 HD 
HETATM   22  C   UNL     1     -12.336   9.291  71.609  1.00  0.00    -0.372 A  
HETATM   23  C   UNL     1     -12.616  11.524  70.748  1.00  0.00    -0.390 A  
HETATM   24  C   UNL     1     -12.920  10.551  71.697  1.00  0.00    -0.581 A  
HETATM   25  O   UNL     1     -12.728   8.369  72.540  1.00  0.00    -0.327 OA 
BRANCH  20  26
HETATM   26  N   UNL     1     -10.836   7.706  70.553  1.00  0.00    -0.237 N  
HETATM   27  H   UNL     1      -9.962   7.596  71.067  1.00  0.00     0.000 HD 
HETATM   28  O   UNL     1     -10.706   5.531  69.928  1.00  0.00    -0.319 OA 
HETATM   29  C   UNL     1     -11.304   6.597  69.906  1.00  0.00    -0.364 C  
ENDBRANCH  20  26
ENDBRANCH  15  18
ENDBRANCH  14  15
ENDBRANCH  12  14
ENDBRANCH  10  12
ENDBRANCH   9  10
ENDBRANCH   6   9
ENDBRANCH   2   3
TORSDOF 8
ENDMDL
MODEL       32
REMARK 921   NORMALIZED FREE ENERGY PREDICTED BY IDOCK:   -5.62 KCAL/MOL
REMARK 922        TOTAL FREE ENERGY PREDICTED BY IDOCK:   -9.91 KCAL/MOL
REMARK 923 INTER-LIGAND FREE ENERGY PREDICTED BY IDOCK:   -8.11 KCAL/MOL
REMARK 924 INTRA-LIGAND FREE ENERGY PREDICTED BY IDOCK:   -1.80 KCAL/MOL
REMARK 927      BINDING AFFINITY PREDICTED BY RF-SCORE:    0.00 PKD
ROOT
HETATM    1  C   UNL     1     -12.451  15.948  74.247  1.00  0.00    -0.633 C  
HETATM    2  O   UNL     1     -12.210  16.454  72.940  1.00  0.00    -0.505 OA 
ENDROOT
BRANCH   2   3
HETATM    3  C   UNL     1     -12.227  15.545  71.919  1.00  0.00    -0.401 A  
HETATM    4  C   UNL     1     -12.761  14.258  71.973  1.00  0.00    -0.404 A  
HETATM    5  C   UNL     1     -12.658  13.404  70.871  1.00  0.00    -0.406 A  
HETATM    6  C   UNL     1     -12.031  13.833  69.693  1.00  0.00    -0.399 A  
HETATM    7  C   UNL     1     -11.632  15.985  70.736  1.00  0.00    -0.431 A  
HETATM    8  C   UNL     1     -11.532  15.138  69.632  1.00  0.00    -0.314 A  
BRANCH   6   9
HETATM    9  C   UNL     1     -11.761  12.877  68.555  1.00  0.00    -0.374 C  
BRANCH   9  10
HETATM   10  C   UNL     1     -10.924  11.620  68.888  1.00  0.00    -0.233 C  
HETATM   11  C   UNL     1     -11.075  10.556  67.793  1.00  0.00    -0.382 C  
BRANCH  10  12
HETATM   12  N   UNL     1      -9.483  11.918  69.008  1.00  0.00    -0.397 NA 
HETATM   13  H   UNL     1      -9.028  11.257  69.638  1.00  0.00     0.000 HD 
BRANCH  12  14
HETATM   14  C   UNL     1      -8.785  11.967  67.712  1.00  0.00    -0.161 C  
BRANCH  14  15
HETATM   15  C   UNL     1      -7.856  13.194  67.551  1.00  0.00    -0.172 C  
HETATM   16  H   UNL     1      -6.420  14.051  68.589  1.00  0.00     0.000 HD 
HETATM   17  O   UNL     1      -6.990  13.298  68.688  1.00  0.00    -0.091 OA 
BRANCH  15  18
HETATM   18  C   UNL     1      -8.580  14.498  67.281  1.00  0.00    -0.231 A  
HETATM   19  C   UNL     1      -8.197  15.656  67.983  1.00  0.00    -0.146 A  
HETATM   20  C   UNL     1      -8.856  16.874  67.782  1.00  0.00    -0.217 A  
HETATM   21  H   UNL     1     -11.331  18.095  65.990  1.00  0.00     0.000 HD 
HETATM   22  C   UNL     1      -9.897  16.925  66.846  1.00  0.00    -0.276 A  
HETATM   23  C   UNL     1      -9.613  14.586  66.338  1.00  0.00    -0.324 A  
HETATM   24  C   UNL     1     -10.269  15.796  66.122  1.00  0.00    -0.332 A  
HETATM   25  O   UNL     1     -10.625  18.060  66.624  1.00  0.00    -0.337 OA 
BRANCH  20  26
HETATM   26  N   UNL     1      -8.492  18.045  68.473  1.00  0.00    -0.310 N  
HETATM   27  H   UNL     1      -9.258  18.635  68.798  1.00  0.00     0.000 HD 
HETATM   28  O   UNL     1      -7.020  19.523  69.360  1.00  0.00    -0.340 OA 
HETATM   29  C   UNL     1      -7.228  18.479  68.760  1.00  0.00    -0.296 C  
ENDBRANCH  20  26
ENDBRANCH  15  18
ENDBRANCH  14  15
ENDBRANCH  12  14
ENDBRANCH  10  12
ENDBRANCH   9  10
ENDBRANCH   6   9
ENDBRANCH   2   3
TORSDOF 8
ENDMDL
MODEL       33
REMARK 921   NORMALIZED FREE ENERGY PREDICTED BY IDOCK:   -5.61 KCAL/MOL
REMARK 922        TOTAL FREE ENERGY PREDICTED BY IDOCK:   -9.90 KCAL/MOL
REMARK 923 INTER-LIGAND FREE ENERGY PREDICTED BY IDOCK:   -8.26 KCAL/MOL
REMARK 924 INTRA-LIGAND FREE ENERGY PREDICTED BY IDOCK:   -1.64 KCAL/MOL
REMARK 927      BINDING AFFINITY PREDICTED BY RF-SCORE:    0.00 PKD
ROOT
HETATM    1  C   UNL     1     -11.805  16.260  71.185  1.00  0.00    -0.253 C  
HETATM    2  O   UNL     1     -13.024  15.583  71.463  1.00  0.00    -0.413 OA 
ENDROOT
BRANCH   2   3
HETATM    3  C   UNL     1     -12.989  14.217  71.419  1.00  0.00    -0.351 A  
HETATM    4  C   UNL     1     -13.599  13.351  72.326  1.00  0.00    -0.703 A  
HETATM    5  C   UNL     1     -13.434  11.967  72.201  1.00  0.00    -0.338 A  
HETATM    6  C   UNL     1     -12.668  11.432  71.156  1.00  0.00    -0.479 A  
HETATM    7  C   UNL     1     -12.254  13.685  70.360  1.00  0.00    -0.434 A  
HETATM    8  C   UNL     1     -12.091  12.306  70.228  1.00  0.00    -0.376 A  
BRANCH   6   9
HETATM    9  C   UNL     1     -12.340   9.959  71.099  1.00  0.00    -0.466 C  
BRANCH   9  10
HETATM   10  C   UNL     1     -10.934   9.580  70.579  1.00  0.00    -0.288 C  
HETATM   11  C   UNL     1     -10.307   8.481  71.447  1.00  0.00    -0.307 C  
BRANCH  10  12
HETATM   12  N   UNL     1     -10.963   9.074  69.192  1.00  0.00    -0.426 NA 
HETATM   13  H   UNL     1     -11.904   9.134  68.806  1.00  0.00     0.000 HD 
BRANCH  12  14
HETATM   14  C   UNL     1      -9.992   9.739  68.306  1.00  0.00    -0.153 C  
BRANCH  14  15
HETATM   15  C   UNL     1     -10.613  10.281  66.997  1.00  0.00    -0.239 C  
HETATM   16  H   UNL     1     -10.272  10.099  65.066  1.00  0.00     0.000 HD 
HETATM   17  O   UNL     1      -9.891   9.767  65.870  1.00  0.00    -0.248 OA 
BRANCH  15  18
HETATM   18  C   UNL     1     -10.737  11.789  66.938  1.00  0.00    -0.288 A  
HETATM   19  C   UNL     1      -9.670  12.586  67.392  1.00  0.00    -0.194 A  
HETATM   20  C   UNL     1      -9.753  13.983  67.378  1.00  0.00    -0.233 A  
HETATM   21  H   UNL     1     -11.895  16.336  66.537  1.00  0.00     0.000 HD 
HETATM   22  C   UNL     1     -10.919  14.578  66.880  1.00  0.00    -0.316 A  
HETATM   23  C   UNL     1     -11.882  12.415  66.427  1.00  0.00    -0.421 A  
HETATM   24  C   UNL     1     -11.972  13.805  66.398  1.00  0.00    -0.473 A  
HETATM   25  O   UNL     1     -11.103  15.933  66.875  1.00  0.00    -0.228 OA 
BRANCH  20  26
HETATM   26  N   UNL     1      -8.701  14.801  67.829  1.00  0.00    -0.166 N  
HETATM   27  H   UNL     1      -7.994  15.052  67.139  1.00  0.00     0.000 HD 
HETATM   28  O   UNL     1      -7.558  15.993  69.383  1.00  0.00    -0.232 OA 
HETATM   29  C   UNL     1      -8.520  15.296  69.090  1.00  0.00    -0.234 C  
ENDBRANCH  20  26
ENDBRANCH  15  18
ENDBRANCH  14  15
ENDBRANCH  12  14
ENDBRANCH  10  12
ENDBRANCH   9  10
ENDBRANCH   6   9
ENDBRANCH   2   3
TORSDOF 8
ENDMDL
MODEL       34
REMARK 921   NORMALIZED FREE ENERGY PREDICTED BY IDOCK:   -5.61 KCAL/MOL
REMARK 922        TOTAL FREE ENERGY PREDICTED BY IDOCK:   -9.90 KCAL/MOL
REMARK 923 INTER-LIGAND FREE ENERGY PREDICTED BY IDOCK:   -8.37 KCAL/MOL
REMARK 924 INTRA-LIGAND FREE ENERGY PREDICTED BY IDOCK:   -1.52 KCAL/MOL
REMARK 927      BINDING AFFINITY PREDICTED BY RF-SCORE:    0.00 PKD
ROOT
HETATM    1  C   UNL     1     -14.388  15.402  72.264  1.00  0.00    -0.483 C  
HETATM    2  O   UNL     1     -14.086  14.092  72.726  1.00  0.00    -0.636 OA 
ENDROOT
BRANCH   2   3
HETATM    3  C   UNL     1     -13.341  13.305  71.893  1.00  0.00    -0.451 A  
HETATM    4  C   UNL     1     -12.470  13.754  70.901  1.00  0.00    -0.451 A  
HETATM    5  C   UNL     1     -11.811  12.839  70.073  1.00  0.00    -0.352 A  
HETATM    6  C   UNL     1     -12.005  11.461  70.238  1.00  0.00    -0.460 A  
HETATM    7  C   UNL     1     -13.510  11.933  72.079  1.00  0.00    -0.336 A  
HETATM    8  C   UNL     1     -12.851  11.017  71.259  1.00  0.00    -0.528 A  
BRANCH   6   9
HETATM    9  C   UNL     1     -11.437  10.466  69.253  1.00  0.00    -0.281 C  
BRANCH   9  10
HETATM   10  C   UNL     1     -10.695  11.049  68.027  1.00  0.00    -0.217 C  
HETATM   11  C   UNL     1      -9.499  10.168  67.643  1.00  0.00    -0.166 C  
BRANCH  10  12
HETATM   12  N   UNL     1     -11.563  11.147  66.837  1.00  0.00    -0.382 NA 
HETATM   13  H   UNL     1     -12.546  11.101  67.102  1.00  0.00     0.000 HD 
BRANCH  12  14
HETATM   14  C   UNL     1     -11.298  12.343  66.017  1.00  0.00    -0.353 C  
BRANCH  14  15
HETATM   15  C   UNL     1     -12.043  13.608  66.504  1.00  0.00    -0.423 C  
HETATM   16  H   UNL     1     -13.307  14.911  65.740  1.00  0.00     0.000 HD 
HETATM   17  O   UNL     1     -12.849  14.133  65.442  1.00  0.00    -0.637 OA 
BRANCH  15  18
HETATM   18  C   UNL     1     -11.147  14.673  67.102  1.00  0.00    -0.328 A  
HETATM   19  C   UNL     1      -9.750  14.514  67.036  1.00  0.00    -0.247 A  
HETATM   20  C   UNL     1      -8.887  15.462  67.597  1.00  0.00    -0.174 A  
HETATM   21  H   UNL     1      -9.052  18.306  69.245  1.00  0.00     0.000 HD 
HETATM   22  C   UNL     1      -9.443  16.591  68.212  1.00  0.00    -0.220 A  
HETATM   23  C   UNL     1     -11.671  15.824  67.707  1.00  0.00     0.015 A  
HETATM   24  C   UNL     1     -10.821  16.779  68.260  1.00  0.00    -0.366 A  
HETATM   25  O   UNL     1      -8.675  17.540  68.828  1.00  0.00    -0.278 OA 
BRANCH  20  26
HETATM   26  N   UNL     1      -7.487  15.324  67.546  1.00  0.00    -0.173 N  
HETATM   27  H   UNL     1      -6.948  16.188  67.505  1.00  0.00     0.000 HD 
HETATM   28  O   UNL     1      -5.549  14.149  67.486  1.00  0.00    -0.343 OA 
HETATM   29  C   UNL     1      -6.770  14.160  67.545  1.00  0.00    -0.105 C  
ENDBRANCH  20  26
ENDBRANCH  15  18
ENDBRANCH  14  15
ENDBRANCH  12  14
ENDBRANCH  10  12
ENDBRANCH   9  10
ENDBRANCH   6   9
ENDBRANCH   2   3
TORSDOF 8
ENDMDL
MODEL       35
REMARK 921   NORMALIZED FREE ENERGY PREDICTED BY IDOCK:   -5.61 KCAL/MOL
REMARK 922        TOTAL FREE ENERGY PREDICTED BY IDOCK:   -9.89 KCAL/MOL
REMARK 923 INTER-LIGAND FREE ENERGY PREDICTED BY IDOCK:   -8.39 KCAL/MOL
REMARK 924 INTRA-LIGAND FREE ENERGY PREDICTED BY IDOCK:   -1.50 KCAL/MOL
REMARK 927      BINDING AFFINITY PREDICTED BY RF-SCORE:    0.00 PKD
ROOT
HETATM    1  C   UNL     1     -12.478   9.218  71.876  1.00  0.00    -0.382 C  
HETATM    2  O   UNL     1     -11.737  10.319  71.366  1.00  0.00    -0.341 OA 
ENDROOT
BRANCH   2   3
HETATM    3  C   UNL     1     -11.323  10.230  70.066  1.00  0.00    -0.301 A  
HETATM    4  C   UNL     1     -11.659  11.107  69.035  1.00  0.00    -0.392 A  
HETATM    5  C   UNL     1     -11.215  10.866  67.731  1.00  0.00    -0.384 A  
HETATM    6  C   UNL     1     -10.416   9.750  67.444  1.00  0.00    -0.319 A  
HETATM    7  C   UNL     1     -10.501   9.137  69.789  1.00  0.00    -0.234 A  
HETATM    8  C   UNL     1     -10.051   8.896  68.490  1.00  0.00    -0.209 A  
BRANCH   6   9
HETATM    9  C   UNL     1     -10.066   9.381  66.022  1.00  0.00    -0.302 C  
BRANCH   9  10
HETATM   10  C   UNL     1      -9.743  10.548  65.061  1.00  0.00    -0.292 C  
HETATM   11  C   UNL     1      -8.441  10.282  64.295  1.00  0.00    -0.181 C  
BRANCH  10  12
HETATM   12  N   UNL     1     -10.803  10.761  64.055  1.00  0.00    -0.358 NA 
HETATM   13  H   UNL     1     -11.704  10.439  64.407  1.00  0.00     0.000 HD 
BRANCH  12  14
HETATM   14  C   UNL     1     -10.893  12.153  63.585  1.00  0.00    -0.464 C  
BRANCH  14  15
HETATM   15  C   UNL     1     -11.963  12.992  64.324  1.00  0.00    -0.402 C  
HETATM   16  H   UNL     1     -13.257  14.400  63.854  1.00  0.00     0.000 HD 
HETATM   17  O   UNL     1     -12.601  13.884  63.400  1.00  0.00    -0.853 OA 
BRANCH  15  18
HETATM   18  C   UNL     1     -11.450  13.728  65.545  1.00  0.00    -0.319 A  
HETATM   19  C   UNL     1     -10.102  14.126  65.593  1.00  0.00    -0.350 A  
HETATM   20  C   UNL     1      -9.581  14.786  66.712  1.00  0.00    -0.254 A  
HETATM   21  H   UNL     1     -10.587  15.846  69.661  1.00  0.00     0.000 HD 
HETATM   22  C   UNL     1     -10.441  15.062  67.784  1.00  0.00    -0.249 A  
HETATM   23  C   UNL     1     -12.288  14.037  66.625  1.00  0.00    -0.408 A  
HETATM   24  C   UNL     1     -11.785  14.702  67.740  1.00  0.00    -0.386 A  
HETATM   25  O   UNL     1     -10.004  15.658  68.934  1.00  0.00    -0.196 OA 
BRANCH  20  26
HETATM   26  N   UNL     1      -8.236  15.192  66.785  1.00  0.00    -0.338 N  
HETATM   27  H   UNL     1      -8.015  16.101  66.379  1.00  0.00     0.000 HD 
HETATM   28  O   UNL     1      -6.052  14.944  67.339  1.00  0.00    -0.339 OA 
HETATM   29  C   UNL     1      -7.193  14.504  67.338  1.00  0.00    -0.137 C  
ENDBRANCH  20  26
ENDBRANCH  15  18
ENDBRANCH  14  15
ENDBRANCH  12  14
ENDBRANCH  10  12
ENDBRANCH   9  10
ENDBRANCH   6   9
ENDBRANCH   2   3
TORSDOF 8
ENDMDL
MODEL       36
REMARK 921   NORMALIZED FREE ENERGY PREDICTED BY IDOCK:   -5.60 KCAL/MOL
REMARK 922        TOTAL FREE ENERGY PREDICTED BY IDOCK:   -9.87 KCAL/MOL
REMARK 923 INTER-LIGAND FREE ENERGY PREDICTED BY IDOCK:   -9.05 KCAL/MOL
REMARK 924 INTRA-LIGAND FREE ENERGY PREDICTED BY IDOCK:   -0.82 KCAL/MOL
REMARK 927      BINDING AFFINITY PREDICTED BY RF-SCORE:    0.00 PKD
ROOT
HETATM    1  C   UNL     1      -6.136  21.203  67.840  1.00  0.00    -0.342 C  
HETATM    2  O   UNL     1      -7.438  21.217  67.268  1.00  0.00    -0.449 OA 
ENDROOT
BRANCH   2   3
HETATM    3  C   UNL     1      -8.047  20.004  67.102  1.00  0.00    -0.320 A  
HETATM    4  C   UNL     1      -7.443  18.756  67.243  1.00  0.00    -0.230 A  
HETATM    5  C   UNL     1      -8.168  17.588  66.984  1.00  0.00    -0.240 A  
HETATM    6  C   UNL     1      -9.512  17.655  66.594  1.00  0.00    -0.288 A  
HETATM    7  C   UNL     1      -9.394  20.072  66.746  1.00  0.00    -0.510 A  
HETATM    8  C   UNL     1     -10.123  18.909  66.492  1.00  0.00    -0.447 A  
BRANCH   6   9
HETATM    9  C   UNL     1     -10.262  16.421  66.149  1.00  0.00    -0.363 C  
BRANCH   9  10
HETATM   10  C   UNL     1     -10.848  15.524  67.265  1.00  0.00    -0.313 C  
HETATM   11  C   UNL     1      -9.821  14.480  67.723  1.00  0.00    -0.220 C  
BRANCH  10  12
HETATM   12  N   UNL     1     -11.244  16.297  68.459  1.00  0.00    -0.365 NA 
HETATM   13  H   UNL     1     -12.218  16.593  68.391  1.00  0.00     0.000 HD 
BRANCH  12  14
HETATM   14  C   UNL     1     -11.004  15.583  69.725  1.00  0.00    -0.294 C  
BRANCH  14  15
HETATM   15  C   UNL     1     -12.285  15.343  70.558  1.00  0.00    -0.394 C  
HETATM   16  H   UNL     1     -13.049  16.021  72.241  1.00  0.00     0.000 HD 
HETATM   17  O   UNL     1     -12.262  16.168  71.730  1.00  0.00    -0.469 OA 
BRANCH  15  18
HETATM   18  C   UNL     1     -12.547  13.891  70.904  1.00  0.00    -0.431 A  
HETATM   19  C   UNL     1     -12.020  12.881  70.078  1.00  0.00    -0.380 A  
HETATM   20  C   UNL     1     -12.258  11.529  70.348  1.00  0.00    -0.355 A  
HETATM   21  H   UNL     1     -13.856   9.679  72.552  1.00  0.00     0.000 HD 
HETATM   22  C   UNL     1     -13.019  11.196  71.477  1.00  0.00    -0.437 A  
HETATM   23  C   UNL     1     -13.287  13.526  72.037  1.00  0.00    -0.563 A  
HETATM   24  C   UNL     1     -13.522  12.182  72.321  1.00  0.00    -0.298 A  
HETATM   25  O   UNL     1     -13.340   9.904  71.786  1.00  0.00    -0.392 OA 
BRANCH  20  26
HETATM   26  N   UNL     1     -11.745  10.501  69.535  1.00  0.00    -0.394 N  
HETATM   27  H   UNL     1     -11.649   9.584  69.971  1.00  0.00     0.000 HD 
HETATM   28  O   UNL     1     -10.914   9.637  67.611  1.00  0.00    -0.268 OA 
HETATM   29  C   UNL     1     -11.360  10.594  68.227  1.00  0.00    -0.289 C  
ENDBRANCH  20  26
ENDBRANCH  15  18
ENDBRANCH  14  15
ENDBRANCH  12  14
ENDBRANCH  10  12
ENDBRANCH   9  10
ENDBRANCH   6   9
ENDBRANCH   2   3
TORSDOF 8
ENDMDL
MODEL       37
REMARK 921   NORMALIZED FREE ENERGY PREDICTED BY IDOCK:   -5.57 KCAL/MOL
REMARK 922        TOTAL FREE ENERGY PREDICTED BY IDOCK:   -9.84 KCAL/MOL
REMARK 923 INTER-LIGAND FREE ENERGY PREDICTED BY IDOCK:   -9.15 KCAL/MOL
REMARK 924 INTRA-LIGAND FREE ENERGY PREDICTED BY IDOCK:   -0.68 KCAL/MOL
REMARK 927      BINDING AFFINITY PREDICTED BY RF-SCORE:    0.00 PKD
ROOT
HETATM    1  C   UNL     1     -10.929   8.211  70.197  1.00  0.00    -0.223 C  
HETATM    2  O   UNL     1     -10.234   9.451  70.182  1.00  0.00    -0.199 OA 
ENDROOT
BRANCH   2   3
HETATM    3  C   UNL     1     -10.648  10.373  69.261  1.00  0.00    -0.232 A  
HETATM    4  C   UNL     1     -11.432  11.497  69.519  1.00  0.00    -0.378 A  
HETATM    5  C   UNL     1     -11.837  12.331  68.472  1.00  0.00    -0.359 A  
HETATM    6  C   UNL     1     -11.451  12.058  67.153  1.00  0.00    -0.401 A  
HETATM    7  C   UNL     1     -10.235  10.118  67.953  1.00  0.00    -0.217 A  
HETATM    8  C   UNL     1     -10.633  10.950  66.906  1.00  0.00    -0.312 A  
BRANCH   6   9
HETATM    9  C   UNL     1     -12.012  12.845  65.992  1.00  0.00    -0.505 C  
BRANCH   9  10
HETATM   10  C   UNL     1     -11.322  12.650  64.622  1.00  0.00    -0.318 C  
HETATM   11  C   UNL     1     -12.313  12.117  63.580  1.00  0.00    -0.682 C  
BRANCH  10  12
HETATM   12  N   UNL     1     -10.764  13.908  64.088  1.00  0.00    -0.532 NA 
HETATM   13  H   UNL     1     -11.466  14.415  63.549  1.00  0.00     0.000 HD 
BRANCH  12  14
HETATM   14  C   UNL     1     -10.176  14.775  65.124  1.00  0.00    -0.377 C  
BRANCH  14  15
HETATM   15  C   UNL     1     -11.002  16.051  65.411  1.00  0.00    -0.253 C  
HETATM   16  H   UNL     1     -11.811  17.503  64.356  1.00  0.00     0.000 HD 
HETATM   17  O   UNL     1     -11.304  16.719  64.180  1.00  0.00    -1.194 OA 
BRANCH  15  18
HETATM   18  C   UNL     1     -10.373  16.993  66.417  1.00  0.00    -0.304 A  
HETATM   19  C   UNL     1      -9.585  18.064  65.957  1.00  0.00    -0.085 A  
HETATM   20  C   UNL     1      -8.965  18.943  66.853  1.00  0.00    -0.298 A  
HETATM   21  H   UNL     1      -8.690  19.395  70.101  1.00  0.00     0.000 HD 
HETATM   22  C   UNL     1      -9.163  18.747  68.226  1.00  0.00    -0.331 A  
HETATM   23  C   UNL     1     -10.567  16.836  67.796  1.00  0.00    -0.341 A  
HETATM   24  C   UNL     1      -9.964  17.711  68.697  1.00  0.00    -0.367 A  
HETATM   25  O   UNL     1      -8.556  19.528  69.169  1.00  0.00    -0.293 OA 
BRANCH  20  26
HETATM   26  N   UNL     1      -8.171  20.020  66.417  1.00  0.00    -0.418 N  
HETATM   27  H   UNL     1      -8.570  20.951  66.527  1.00  0.00     0.000 HD 
HETATM   28  O   UNL     1      -6.318  20.958  65.506  1.00  0.00    -0.245 OA 
HETATM   29  C   UNL     1      -6.922  19.957  65.864  1.00  0.00    -0.288 C  
ENDBRANCH  20  26
ENDBRANCH  15  18
ENDBRANCH  14  15
ENDBRANCH  12  14
ENDBRANCH  10  12
ENDBRANCH   9  10
ENDBRANCH   6   9
ENDBRANCH   2   3
TORSDOF 8
ENDMDL
MODEL       38
REMARK 921   NORMALIZED FREE ENERGY PREDICTED BY IDOCK:   -5.57 KCAL/MOL
REMARK 922        TOTAL FREE ENERGY PREDICTED BY IDOCK:   -9.84 KCAL/MOL
REMARK 923 INTER-LIGAND FREE ENERGY PREDICTED BY IDOCK:   -8.60 KCAL/MOL
REMARK 924 INTRA-LIGAND FREE ENERGY PREDICTED BY IDOCK:   -1.23 KCAL/MOL
REMARK 927      BINDING AFFINITY PREDICTED BY RF-SCORE:    0.00 PKD
ROOT
HETATM    1  C   UNL     1     -10.846   6.869  73.028  1.00  0.00    -0.296 C  
HETATM    2  O   UNL     1     -11.503   8.068  72.639  1.00  0.00    -0.381 OA 
ENDROOT
BRANCH   2   3
HETATM    3  C   UNL     1     -11.204   8.555  71.397  1.00  0.00    -0.266 A  
HETATM    4  C   UNL     1     -11.392   9.867  70.963  1.00  0.00    -0.460 A  
HETATM    5  C   UNL     1     -11.100  10.221  69.642  1.00  0.00    -0.323 A  
HETATM    6  C   UNL     1     -10.603   9.269  68.741  1.00  0.00    -0.220 A  
HETATM    7  C   UNL     1     -10.679   7.614  70.512  1.00  0.00    -0.241 A  
HETATM    8  C   UNL     1     -10.382   7.964  69.194  1.00  0.00    -0.225 A  
BRANCH   6   9
HETATM    9  C   UNL     1     -10.440   9.587  67.274  1.00  0.00    -0.328 C  
BRANCH   9  10
HETATM   10  C   UNL     1     -10.052  11.041  66.917  1.00  0.00    -0.210 C  
HETATM   11  C   UNL     1      -8.532  11.237  66.997  1.00  0.00    -0.150 C  
BRANCH  10  12
HETATM   12  N   UNL     1     -10.467  11.418  65.551  1.00  0.00    -0.261 NA 
HETATM   13  H   UNL     1     -11.270  10.864  65.253  1.00  0.00     0.000 HD 
BRANCH  12  14
HETATM   14  C   UNL     1     -10.739  12.857  65.397  1.00  0.00    -0.285 C  
BRANCH  14  15
HETATM   15  C   UNL     1     -12.034  13.325  66.102  1.00  0.00    -0.418 C  
HETATM   16  H   UNL     1     -13.671  14.295  65.595  1.00  0.00     0.000 HD 
HETATM   17  O   UNL     1     -12.876  14.007  65.162  1.00  0.00    -0.696 OA 
BRANCH  15  18
HETATM   18  C   UNL     1     -11.806  14.154  67.349  1.00  0.00    -0.447 A  
HETATM   19  C   UNL     1     -12.137  13.613  68.605  1.00  0.00    -0.325 A  
HETATM   20  C   UNL     1     -11.966  14.354  69.780  1.00  0.00    -0.332 A  
HETATM   21  H   UNL     1     -10.918  17.332  70.708  1.00  0.00     0.000 HD 
HETATM   22  C   UNL     1     -11.434  15.646  69.683  1.00  0.00    -0.340 A  
HETATM   23  C   UNL     1     -11.257  15.442  67.288  1.00  0.00    -0.270 A  
HETATM   24  C   UNL     1     -11.072  16.185  68.452  1.00  0.00    -0.359 A  
HETATM   25  O   UNL     1     -11.279  16.456  70.774  1.00  0.00    -0.350 OA 
BRANCH  20  26
HETATM   26  N   UNL     1     -12.293  13.836  71.047  1.00  0.00    -0.370 N  
HETATM   27  H   UNL     1     -11.543  13.360  71.549  1.00  0.00     0.000 HD 
HETATM   28  O   UNL     1     -13.685  13.403  72.783  1.00  0.00    -0.697 OA 
HETATM   29  C   UNL     1     -13.502  13.899  71.680  1.00  0.00    -0.352 C  
ENDBRANCH  20  26
ENDBRANCH  15  18
ENDBRANCH  14  15
ENDBRANCH  12  14
ENDBRANCH  10  12
ENDBRANCH   9  10
ENDBRANCH   6   9
ENDBRANCH   2   3
TORSDOF 8
ENDMDL
MODEL       39
REMARK 921   NORMALIZED FREE ENERGY PREDICTED BY IDOCK:   -5.56 KCAL/MOL
REMARK 922        TOTAL FREE ENERGY PREDICTED BY IDOCK:   -9.81 KCAL/MOL
REMARK 923 INTER-LIGAND FREE ENERGY PREDICTED BY IDOCK:   -8.03 KCAL/MOL
REMARK 924 INTRA-LIGAND FREE ENERGY PREDICTED BY IDOCK:   -1.78 KCAL/MOL
REMARK 927      BINDING AFFINITY PREDICTED BY RF-SCORE:    0.00 PKD
ROOT
HETATM    1  C   UNL     1      -9.515   8.869  70.590  1.00  0.00    -0.214 C  
HETATM    2  O   UNL     1      -8.985  10.050  70.001  1.00  0.00    -0.195 OA 
ENDROOT
BRANCH   2   3
HETATM    3  C   UNL     1      -9.216  10.224  68.665  1.00  0.00    -0.159 A  
HETATM    4  C   UNL     1      -8.909  11.363  67.921  1.00  0.00    -0.149 A  
HETATM    5  C   UNL     1      -9.255  11.436  66.567  1.00  0.00    -0.200 A  
HETATM    6  C   UNL     1      -9.901  10.363  65.938  1.00  0.00    -0.294 A  
HETATM    7  C   UNL     1      -9.828   9.142  68.032  1.00  0.00    -0.197 A  
HETATM    8  C   UNL     1     -10.171   9.209  66.681  1.00  0.00    -0.328 A  
BRANCH   6   9
HETATM    9  C   UNL     1     -10.431  10.484  64.529  1.00  0.00    -0.151 C  
BRANCH   9  10
HETATM   10  C   UNL     1      -9.921  11.683  63.696  1.00  0.00    -0.379 C  
HETATM   11  C   UNL     1      -9.126  11.203  62.474  1.00  0.00    -0.347 C  
BRANCH  10  12
HETATM   12  N   UNL     1     -11.022  12.529  63.193  1.00  0.00    -0.682 NA 
HETATM   13  H   UNL     1     -11.270  12.270  62.239  1.00  0.00     0.000 HD 
BRANCH  12  14
HETATM   14  C   UNL     1     -12.210  12.521  64.062  1.00  0.00    -0.480 C  
BRANCH  14  15
HETATM   15  C   UNL     1     -12.519  13.892  64.709  1.00  0.00    -0.354 C  
HETATM   16  H   UNL     1     -12.626  15.766  64.115  1.00  0.00     0.000 HD 
HETATM   17  O   UNL     1     -12.437  14.924  63.718  1.00  0.00    -0.768 OA 
BRANCH  15  18
HETATM   18  C   UNL     1     -11.674  14.217  65.924  1.00  0.00    -0.375 A  
HETATM   19  C   UNL     1     -11.976  13.610  67.156  1.00  0.00    -0.434 A  
HETATM   20  C   UNL     1     -11.237  13.901  68.308  1.00  0.00    -0.272 A  
HETATM   21  H   UNL     1      -8.698  15.788  69.219  1.00  0.00     0.000 HD 
HETATM   22  C   UNL     1     -10.167  14.801  68.205  1.00  0.00    -0.227 A  
HETATM   23  C   UNL     1     -10.585  15.097  65.850  1.00  0.00    -0.347 A  
HETATM   24  C   UNL     1      -9.835  15.387  66.987  1.00  0.00    -0.236 A  
HETATM   25  O   UNL     1      -9.424  15.178  69.288  1.00  0.00    -0.220 OA 
BRANCH  20  26
HETATM   26  N   UNL     1     -11.522  13.309  69.552  1.00  0.00    -0.401 N  
HETATM   27  H   UNL     1     -10.922  12.534  69.833  1.00  0.00     0.000 HD 
HETATM   28  O   UNL     1     -12.685  13.065  71.483  1.00  0.00    -0.330 OA 
HETATM   29  C   UNL     1     -12.514  13.655  70.426  1.00  0.00    -0.294 C  
ENDBRANCH  20  26
ENDBRANCH  15  18
ENDBRANCH  14  15
ENDBRANCH  12  14
ENDBRANCH  10  12
ENDBRANCH   9  10
ENDBRANCH   6   9
ENDBRANCH   2   3
TORSDOF 8
ENDMDL
MODEL       40
REMARK 921   NORMALIZED FREE ENERGY PREDICTED BY IDOCK:   -5.55 KCAL/MOL
REMARK 922        TOTAL FREE ENERGY PREDICTED BY IDOCK:   -9.81 KCAL/MOL
REMARK 923 INTER-LIGAND FREE ENERGY PREDICTED BY IDOCK:   -9.17 KCAL/MOL
REMARK 924 INTRA-LIGAND FREE ENERGY PREDICTED BY IDOCK:   -0.64 KCAL/MOL
REMARK 927      BINDING AFFINITY PREDICTED BY RF-SCORE:    0.00 PKD
ROOT
HETATM    1  C   UNL     1     -10.494   3.417  72.883  1.00  0.00    -0.153 C  
HETATM    2  O   UNL     1     -11.224   4.560  73.307  1.00  0.00    -0.281 OA 
ENDROOT
BRANCH   2   3
HETATM    3  C   UNL     1     -11.029   5.711  72.595  1.00  0.00    -0.270 A  
HETATM    4  C   UNL     1     -11.125   5.845  71.210  1.00  0.00    -0.307 A  
HETATM    5  C   UNL     1     -10.840   7.070  70.599  1.00  0.00    -0.274 A  
HETATM    6  C   UNL     1     -10.468   8.182  71.368  1.00  0.00    -0.261 A  
HETATM    7  C   UNL     1     -10.692   6.824  73.364  1.00  0.00    -0.332 A  
HETATM    8  C   UNL     1     -10.411   8.050  72.759  1.00  0.00    -0.415 A  
BRANCH   6   9
HETATM    9  C   UNL     1      -9.996   9.462  70.719  1.00  0.00    -0.358 C  
BRANCH   9  10
HETATM   10  C   UNL     1     -11.067  10.308  69.991  1.00  0.00    -0.311 C  
HETATM   11  C   UNL     1     -12.226  10.653  70.935  1.00  0.00    -0.497 C  
BRANCH  10  12
HETATM   12  N   UNL     1     -10.527  11.584  69.482  1.00  0.00    -0.439 NA 
HETATM   13  H   UNL     1      -9.891  11.421  68.701  1.00  0.00     0.000 HD 
BRANCH  12  14
HETATM   14  C   UNL     1     -11.571  12.555  69.111  1.00  0.00    -0.320 C  
BRANCH  14  15
HETATM   15  C   UNL     1     -11.062  14.013  69.025  1.00  0.00    -0.264 C  
HETATM   16  H   UNL     1     -11.398  15.707  69.972  1.00  0.00     0.000 HD 
HETATM   17  O   UNL     1     -11.710  14.811  70.025  1.00  0.00    -0.263 OA 
BRANCH  15  18
HETATM   18  C   UNL     1     -11.178  14.639  67.651  1.00  0.00    -0.332 A  
HETATM   19  C   UNL     1     -11.824  13.928  66.623  1.00  0.00    -0.447 A  
HETATM   20  C   UNL     1     -11.931  14.459  65.332  1.00  0.00    -0.369 A  
HETATM   21  H   UNL     1     -11.055  17.167  63.680  1.00  0.00     0.000 HD 
HETATM   22  C   UNL     1     -11.398  15.732  65.087  1.00  0.00    -0.154 A  
HETATM   23  C   UNL     1     -10.674  15.918  67.379  1.00  0.00    -0.313 A  
HETATM   24  C   UNL     1     -10.784  16.462  66.100  1.00  0.00    -0.174 A  
HETATM   25  O   UNL     1     -11.417  16.304  63.846  1.00  0.00    -0.940 OA 
BRANCH  20  26
HETATM   26  N   UNL     1     -12.569  13.766  64.287  1.00  0.00    -0.677 N  
HETATM   27  H   UNL     1     -13.112  14.330  63.634  1.00  0.00     0.000 HD 
HETATM   28  O   UNL     1     -13.145  11.914  63.114  1.00  0.00    -0.605 OA 
HETATM   29  C   UNL     1     -12.543  12.420  64.050  1.00  0.00    -0.412 C  
ENDBRANCH  20  26
ENDBRANCH  15  18
ENDBRANCH  14  15
ENDBRANCH  12  14
ENDBRANCH  10  12
ENDBRANCH   9  10
ENDBRANCH   6   9
ENDBRANCH   2   3
TORSDOF 8
ENDMDL
MODEL       41
REMARK 921   NORMALIZED FREE ENERGY PREDICTED BY IDOCK:   -5.52 KCAL/MOL
REMARK 922        TOTAL FREE ENERGY PREDICTED BY IDOCK:   -9.76 KCAL/MOL
REMARK 923 INTER-LIGAND FREE ENERGY PREDICTED BY IDOCK:   -8.66 KCAL/MOL
REMARK 924 INTRA-LIGAND FREE ENERGY PREDICTED BY IDOCK:   -1.10 KCAL/MOL
REMARK 927      BINDING AFFINITY PREDICTED BY RF-SCORE:    0.00 PKD
ROOT
HETATM    1  C   UNL     1      -7.074  13.382  67.380  1.00  0.00    -0.094 C  
HETATM    2  O   UNL     1      -6.023  14.338  67.424  1.00  0.00    -0.346 OA 
ENDROOT
BRANCH   2   3
HETATM    3  C   UNL     1      -6.363  15.604  67.815  1.00  0.00    -0.157 A  
HETATM    4  C   UNL     1      -6.615  16.020  69.122  1.00  0.00    -0.164 A  
HETATM    5  C   UNL     1      -7.015  17.335  69.379  1.00  0.00    -0.123 A  
HETATM    6  C   UNL     1      -7.153  18.256  68.332  1.00  0.00    -0.264 A  
HETATM    7  C   UNL     1      -6.468  16.528  66.775  1.00  0.00    -0.123 A  
HETATM    8  C   UNL     1      -6.862  17.842  67.028  1.00  0.00    -0.204 A  
BRANCH   6   9
HETATM    9  C   UNL     1      -7.742  19.627  68.566  1.00  0.00    -0.369 C  
BRANCH   9  10
HETATM   10  C   UNL     1      -9.283  19.714  68.664  1.00  0.00    -0.302 C  
HETATM   11  C   UNL     1      -9.876  20.360  67.405  1.00  0.00    -0.587 C  
BRANCH  10  12
HETATM   12  N   UNL     1      -9.915  18.387  68.810  1.00  0.00    -0.381 NA 
HETATM   13  H   UNL     1     -10.441  18.331  69.681  1.00  0.00     0.000 HD 
BRANCH  12  14
HETATM   14  C   UNL     1     -10.761  18.012  67.664  1.00  0.00    -0.344 C  
BRANCH  14  15
HETATM   15  C   UNL     1     -10.120  16.952  66.737  1.00  0.00    -0.294 C  
HETATM   16  H   UNL     1      -9.861  16.709  64.800  1.00  0.00     0.000 HD 
HETATM   17  O   UNL     1     -10.255  17.361  65.369  1.00  0.00    -0.603 OA 
BRANCH  15  18
HETATM   18  C   UNL     1     -10.630  15.542  66.950  1.00  0.00    -0.307 A  
HETATM   19  C   UNL     1     -11.399  14.928  65.944  1.00  0.00    -0.306 A  
HETATM   20  C   UNL     1     -11.910  13.636  66.111  1.00  0.00    -0.392 A  
HETATM   21  H   UNL     1     -11.926  11.242  68.370  1.00  0.00     0.000 HD 
HETATM   22  C   UNL     1     -11.622  12.951  67.299  1.00  0.00    -0.360 A  
HETATM   23  C   UNL     1     -10.343  14.823  68.118  1.00  0.00    -0.239 A  
HETATM   24  C   UNL     1     -10.837  13.532  68.291  1.00  0.00    -0.277 A  
HETATM   25  O   UNL     1     -12.121  11.707  67.564  1.00  0.00    -0.611 OA 
BRANCH  20  26
HETATM   26  N   UNL     1     -12.684  13.003  65.120  1.00  0.00    -0.651 N  
HETATM   27  H   UNL     1     -13.671  12.866  65.336  1.00  0.00     0.000 HD 
HETATM   28  O   UNL     1     -13.016  12.001  63.114  1.00  0.00    -0.662 OA 
HETATM   29  C   UNL     1     -12.260  12.551  63.902  1.00  0.00    -0.503 C  
ENDBRANCH  20  26
ENDBRANCH  15  18
ENDBRANCH  14  15
ENDBRANCH  12  14
ENDBRANCH  10  12
ENDBRANCH   9  10
ENDBRANCH   6   9
ENDBRANCH   2   3
TORSDOF 8
ENDMDL
MODEL       42
REMARK 921   NORMALIZED FREE ENERGY PREDICTED BY IDOCK:   -5.50 KCAL/MOL
REMARK 922        TOTAL FREE ENERGY PREDICTED BY IDOCK:   -9.74 KCAL/MOL
REMARK 923 INTER-LIGAND FREE ENERGY PREDICTED BY IDOCK:   -8.72 KCAL/MOL
REMARK 924 INTRA-LIGAND FREE ENERGY PREDICTED BY IDOCK:   -1.01 KCAL/MOL
REMARK 927      BINDING AFFINITY PREDICTED BY RF-SCORE:    0.00 PKD
ROOT
HETATM    1  C   UNL     1      -9.559  11.031  63.063  1.00  0.00    -0.364 C  
HETATM    2  O   UNL     1      -9.319   9.944  63.946  1.00  0.00    -0.267 OA 
ENDROOT
BRANCH   2   3
HETATM    3  C   UNL     1      -9.856  10.043  65.200  1.00  0.00    -0.318 A  
HETATM    4  C   UNL     1     -10.509  11.156  65.727  1.00  0.00    -0.305 A  
HETATM    5  C   UNL     1     -10.960  11.148  67.051  1.00  0.00    -0.348 A  
HETATM    6  C   UNL     1     -10.776  10.018  67.860  1.00  0.00    -0.322 A  
HETATM    7  C   UNL     1      -9.702   8.906  65.993  1.00  0.00    -0.308 A  
HETATM    8  C   UNL     1     -10.155   8.891  67.312  1.00  0.00    -0.303 A  
BRANCH   6   9
HETATM    9  C   UNL     1     -11.103  10.048  69.334  1.00  0.00    -0.265 C  
BRANCH   9  10
HETATM   10  C   UNL     1     -12.151  11.089  69.792  1.00  0.00    -0.353 C  
HETATM   11  C   UNL     1     -13.025  10.527  70.922  1.00  0.00    -0.455 C  
BRANCH  10  12
HETATM   12  N   UNL     1     -11.530  12.329  70.300  1.00  0.00    -0.485 NA 
HETATM   13  H   UNL     1     -10.530  12.341  70.098  1.00  0.00     0.000 HD 
BRANCH  12  14
HETATM   14  C   UNL     1     -12.177  13.555  69.801  1.00  0.00    -0.269 C  
BRANCH  14  15
HETATM   15  C   UNL     1     -11.189  14.714  69.530  1.00  0.00    -0.269 C  
HETATM   16  H   UNL     1     -10.827  16.496  70.286  1.00  0.00     0.000 HD 
HETATM   17  O   UNL     1     -11.434  15.783  70.452  1.00  0.00    -0.304 OA 
BRANCH  15  18
HETATM   18  C   UNL     1     -11.177  15.206  68.097  1.00  0.00    -0.326 A  
HETATM   19  C   UNL     1     -10.593  16.452  67.801  1.00  0.00    -0.321 A  
HETATM   20  C   UNL     1     -10.583  16.954  66.495  1.00  0.00    -0.185 A  
HETATM   21  H   UNL     1     -11.612  16.088  63.491  1.00  0.00     0.000 HD 
HETATM   22  C   UNL     1     -11.151  16.178  65.476  1.00  0.00    -0.069 A  
HETATM   23  C   UNL     1     -11.719  14.445  67.052  1.00  0.00    -0.420 A  
HETATM   24  C   UNL     1     -11.706  14.931  65.746  1.00  0.00    -0.179 A  
HETATM   25  O   UNL     1     -11.227  16.615  64.183  1.00  0.00    -1.103 OA 
BRANCH  20  26
HETATM   26  N   UNL     1     -10.007  18.198  66.176  1.00  0.00    -0.330 N  
HETATM   27  H   UNL     1      -9.110  18.171  65.691  1.00  0.00     0.000 HD 
HETATM   28  O   UNL     1      -9.927  20.463  66.129  1.00  0.00    -0.370 OA 
HETATM   29  C   UNL     1     -10.516  19.438  66.441  1.00  0.00    -0.488 C  
ENDBRANCH  20  26
ENDBRANCH  15  18
ENDBRANCH  14  15
ENDBRANCH  12  14
ENDBRANCH  10  12
ENDBRANCH   9  10
ENDBRANCH   6   9
ENDBRANCH   2   3
TORSDOF 8
ENDMDL
MODEL       43
REMARK 921   NORMALIZED FREE ENERGY PREDICTED BY IDOCK:   -5.50 KCAL/MOL
REMARK 922        TOTAL FREE ENERGY PREDICTED BY IDOCK:   -9.74 KCAL/MOL
REMARK 923 INTER-LIGAND FREE ENERGY PREDICTED BY IDOCK:   -7.86 KCAL/MOL
REMARK 924 INTRA-LIGAND FREE ENERGY PREDICTED BY IDOCK:   -1.87 KCAL/MOL
REMARK 927      BINDING AFFINITY PREDICTED BY RF-SCORE:    0.00 PKD
ROOT
HETATM    1  C   UNL     1      -9.855   8.753  70.658  1.00  0.00    -0.194 C  
HETATM    2  O   UNL     1      -9.226   9.896  70.093  1.00  0.00    -0.228 OA 
ENDROOT
BRANCH   2   3
HETATM    3  C   UNL     1      -9.289  10.020  68.733  1.00  0.00    -0.162 A  
HETATM    4  C   UNL     1      -8.508  10.869  67.949  1.00  0.00    -0.129 A  
HETATM    5  C   UNL     1      -8.717  10.944  66.568  1.00  0.00    -0.165 A  
HETATM    6  C   UNL     1      -9.702  10.161  65.952  1.00  0.00    -0.292 A  
HETATM    7  C   UNL     1     -10.248   9.215  68.117  1.00  0.00    -0.249 A  
HETATM    8  C   UNL     1     -10.456   9.284  66.739  1.00  0.00    -0.263 A  
BRANCH   6   9
HETATM    9  C   UNL     1     -10.056  10.348  64.496  1.00  0.00    -0.365 C  
BRANCH   9  10
HETATM   10  C   UNL     1      -9.302  11.464  63.736  1.00  0.00    -0.101 C  
HETATM   11  C   UNL     1      -8.824  10.967  62.365  1.00  0.00    -0.358 C  
BRANCH  10  12
HETATM   12  N   UNL     1     -10.144  12.653  63.497  1.00  0.00    -0.663 NA 
HETATM   13  H   UNL     1      -9.896  13.100  62.615  1.00  0.00     0.000 HD 
BRANCH  12  14
HETATM   14  C   UNL     1     -11.588  12.368  63.550  1.00  0.00    -0.497 C  
BRANCH  14  15
HETATM   15  C   UNL     1     -12.405  13.431  64.321  1.00  0.00    -0.335 C  
HETATM   16  H   UNL     1     -13.090  15.244  63.973  1.00  0.00     0.000 HD 
HETATM   17  O   UNL     1     -12.588  14.591  63.499  1.00  0.00    -0.746 OA 
BRANCH  15  18
HETATM   18  C   UNL     1     -11.840  13.794  65.679  1.00  0.00    -0.383 A  
HETATM   19  C   UNL     1     -11.293  15.075  65.877  1.00  0.00    -0.273 A  
HETATM   20  C   UNL     1     -10.738  15.442  67.108  1.00  0.00    -0.314 A  
HETATM   21  H   UNL     1     -10.204  14.137  70.082  1.00  0.00     0.000 HD 
HETATM   22  C   UNL     1     -10.755  14.510  68.154  1.00  0.00    -0.239 A  
HETATM   23  C   UNL     1     -11.860  12.891  66.751  1.00  0.00    -0.452 A  
HETATM   24  C   UNL     1     -11.320  13.249  67.984  1.00  0.00    -0.325 A  
HETATM   25  O   UNL     1     -10.192  14.769  69.372  1.00  0.00    -0.203 OA 
BRANCH  20  26
HETATM   26  N   UNL     1     -10.183  16.717  67.329  1.00  0.00    -0.284 N  
HETATM   27  H   UNL     1      -9.854  16.910  68.275  1.00  0.00     0.000 HD 
HETATM   28  O   UNL     1      -9.548  18.805  66.718  1.00  0.00    -0.297 OA 
HETATM   29  C   UNL     1     -10.035  17.725  66.418  1.00  0.00    -0.344 C  
ENDBRANCH  20  26
ENDBRANCH  15  18
ENDBRANCH  14  15
ENDBRANCH  12  14
ENDBRANCH  10  12
ENDBRANCH   9  10
ENDBRANCH   6   9
ENDBRANCH   2   3
TORSDOF 8
ENDMDL
MODEL       44
REMARK 921   NORMALIZED FREE ENERGY PREDICTED BY IDOCK:   -5.50 KCAL/MOL
REMARK 922        TOTAL FREE ENERGY PREDICTED BY IDOCK:   -9.73 KCAL/MOL
REMARK 923 INTER-LIGAND FREE ENERGY PREDICTED BY IDOCK:   -8.71 KCAL/MOL
REMARK 924 INTRA-LIGAND FREE ENERGY PREDICTED BY IDOCK:   -1.02 KCAL/MOL
REMARK 927      BINDING AFFINITY PREDICTED BY RF-SCORE:    0.00 PKD
ROOT
HETATM    1  C   UNL     1     -12.713   8.773  72.119  1.00  0.00    -0.400 C  
HETATM    2  O   UNL     1     -11.901   9.888  71.774  1.00  0.00    -0.362 OA 
ENDROOT
BRANCH   2   3
HETATM    3  C   UNL     1     -11.519   9.985  70.464  1.00  0.00    -0.330 A  
HETATM    4  C   UNL     1     -11.945  10.951  69.554  1.00  0.00    -0.401 A  
HETATM    5  C   UNL     1     -11.522  10.901  68.222  1.00  0.00    -0.376 A  
HETATM    6  C   UNL     1     -10.655   9.889  67.787  1.00  0.00    -0.313 A  
HETATM    7  C   UNL     1     -10.630   8.997  70.041  1.00  0.00    -0.246 A  
HETATM    8  C   UNL     1     -10.202   8.946  68.714  1.00  0.00    -0.224 A  
BRANCH   6   9
HETATM    9  C   UNL     1     -10.321   9.719  66.324  1.00  0.00    -0.235 C  
BRANCH   9  10
HETATM   10  C   UNL     1      -9.730  10.950  65.598  1.00  0.00    -0.232 C  
HETATM   11  C   UNL     1      -8.271  10.699  65.194  1.00  0.00    -0.092 C  
BRANCH  10  12
HETATM   12  N   UNL     1     -10.470  11.288  64.366  1.00  0.00    -0.323 NA 
HETATM   13  H   UNL     1     -11.399  10.867  64.375  1.00  0.00     0.000 HD 
BRANCH  12  14
HETATM   14  C   UNL     1     -10.555  12.736  64.112  1.00  0.00    -0.415 C  
BRANCH  14  15
HETATM   15  C   UNL     1     -11.826  13.397  64.696  1.00  0.00    -0.391 C  
HETATM   16  H   UNL     1     -13.300  14.514  64.020  1.00  0.00     0.000 HD 
HETATM   17  O   UNL     1     -12.519  14.108  63.662  1.00  0.00    -0.819 OA 
BRANCH  15  18
HETATM   18  C   UNL     1     -11.579  14.273  65.906  1.00  0.00    -0.358 A  
HETATM   19  C   UNL     1     -10.895  15.492  65.745  1.00  0.00    -0.337 A  
HETATM   20  C   UNL     1     -10.624  16.320  66.841  1.00  0.00    -0.270 A  
HETATM   21  H   UNL     1     -11.108  16.371  70.096  1.00  0.00     0.000 HD 
HETATM   22  C   UNL     1     -11.070  15.919  68.107  1.00  0.00    -0.338 A  
HETATM   23  C   UNL     1     -12.029  13.910  67.183  1.00  0.00    -0.455 A  
HETATM   24  C   UNL     1     -11.775  14.731  68.280  1.00  0.00    -0.340 A  
HETATM   25  O   UNL     1     -10.806  16.643  69.237  1.00  0.00    -0.324 OA 
BRANCH  20  26
HETATM   26  N   UNL     1      -9.939  17.542  66.706  1.00  0.00    -0.300 N  
HETATM   27  H   UNL     1      -8.985  17.568  67.064  1.00  0.00     0.000 HD 
HETATM   28  O   UNL     1      -9.733  19.714  66.089  1.00  0.00    -0.391 OA 
HETATM   29  C   UNL     1     -10.410  18.697  66.148  1.00  0.00    -0.443 C  
ENDBRANCH  20  26
ENDBRANCH  15  18
ENDBRANCH  14  15
ENDBRANCH  12  14
ENDBRANCH  10  12
ENDBRANCH   9  10
ENDBRANCH   6   9
ENDBRANCH   2   3
TORSDOF 8
ENDMDL
MODEL       45
REMARK 921   NORMALIZED FREE ENERGY PREDICTED BY IDOCK:   -5.47 KCAL/MOL
REMARK 922        TOTAL FREE ENERGY PREDICTED BY IDOCK:   -9.70 KCAL/MOL
REMARK 923 INTER-LIGAND FREE ENERGY PREDICTED BY IDOCK:   -8.43 KCAL/MOL
REMARK 924 INTRA-LIGAND FREE ENERGY PREDICTED BY IDOCK:   -1.27 KCAL/MOL
REMARK 927      BINDING AFFINITY PREDICTED BY RF-SCORE:    0.00 PKD
ROOT
HETATM    1  C   UNL     1     -10.632  19.640  66.226  1.00  0.00    -0.482 C  
HETATM    2  O   UNL     1     -10.371  18.739  67.294  1.00  0.00    -0.369 OA 
ENDROOT
BRANCH   2   3
HETATM    3  C   UNL     1     -10.404  17.406  66.992  1.00  0.00    -0.318 A  
HETATM    4  C   UNL     1     -10.339  16.851  65.714  1.00  0.00    -0.298 A  
HETATM    5  C   UNL     1     -10.445  15.468  65.540  1.00  0.00    -0.407 A  
HETATM    6  C   UNL     1     -10.603  14.619  66.644  1.00  0.00    -0.289 A  
HETATM    7  C   UNL     1     -10.528  16.561  68.095  1.00  0.00    -0.313 A  
HETATM    8  C   UNL     1     -10.629  15.180  67.926  1.00  0.00    -0.257 A  
BRANCH   6   9
HETATM    9  C   UNL     1     -10.887  13.146  66.467  1.00  0.00    -0.291 C  
BRANCH   9  10
HETATM   10  C   UNL     1      -9.661  12.220  66.285  1.00  0.00    -0.244 C  
HETATM   11  C   UNL     1      -8.471  12.717  67.117  1.00  0.00    -0.181 C  
BRANCH  10  12
HETATM   12  N   UNL     1      -9.936  10.832  66.706  1.00  0.00    -0.199 NA 
HETATM   13  H   UNL     1      -9.118  10.422  67.156  1.00  0.00     0.000 HD 
BRANCH  12  14
HETATM   14  C   UNL     1     -11.123  10.706  67.569  1.00  0.00    -0.300 C  
BRANCH  14  15
HETATM   15  C   UNL     1     -10.788  10.427  69.053  1.00  0.00    -0.234 C  
HETATM   16  H   UNL     1     -10.564   8.841  70.198  1.00  0.00     0.000 HD 
HETATM   17  O   UNL     1     -10.770   9.012  69.287  1.00  0.00    -0.227 OA 
BRANCH  15  18
HETATM   18  C   UNL     1     -11.681  11.144  70.044  1.00  0.00    -0.438 A  
HETATM   19  C   UNL     1     -11.700  12.551  70.061  1.00  0.00    -0.297 A  
HETATM   20  C   UNL     1     -12.492  13.253  70.977  1.00  0.00    -0.336 A  
HETATM   21  H   UNL     1     -14.594  12.632  73.432  1.00  0.00     0.000 HD 
HETATM   22  C   UNL     1     -13.288  12.523  71.869  1.00  0.00    -0.368 A  
HETATM   23  C   UNL     1     -12.505  10.443  70.936  1.00  0.00    -0.478 A  
HETATM   24  C   UNL     1     -13.305  11.131  71.845  1.00  0.00    -0.409 A  
HETATM   25  O   UNL     1     -14.053  13.127  72.827  1.00  0.00    -0.641 OA 
BRANCH  20  26
HETATM   26  N   UNL     1     -12.525  14.659  71.015  1.00  0.00    -0.305 N  
HETATM   27  H   UNL     1     -13.163  15.115  70.363  1.00  0.00     0.000 HD 
HETATM   28  O   UNL     1     -11.894  16.700  71.774  1.00  0.00    -0.319 OA 
HETATM   29  C   UNL     1     -11.798  15.482  71.829  1.00  0.00    -0.428 C  
ENDBRANCH  20  26
ENDBRANCH  15  18
ENDBRANCH  14  15
ENDBRANCH  12  14
ENDBRANCH  10  12
ENDBRANCH   9  10
ENDBRANCH   6   9
ENDBRANCH   2   3
TORSDOF 8
ENDMDL
MODEL       46
REMARK 921   NORMALIZED FREE ENERGY PREDICTED BY IDOCK:   -5.43 KCAL/MOL
REMARK 922        TOTAL FREE ENERGY PREDICTED BY IDOCK:   -9.63 KCAL/MOL
REMARK 923 INTER-LIGAND FREE ENERGY PREDICTED BY IDOCK:   -8.61 KCAL/MOL
REMARK 924 INTRA-LIGAND FREE ENERGY PREDICTED BY IDOCK:   -1.02 KCAL/MOL
REMARK 927      BINDING AFFINITY PREDICTED BY RF-SCORE:    0.00 PKD
ROOT
HETATM    1  C   UNL     1     -12.273  14.710  64.292  1.00  0.00    -0.408 C  
HETATM    2  O   UNL     1     -12.464  13.348  63.934  1.00  0.00    -0.658 OA 
ENDROOT
BRANCH   2   3
HETATM    3  C   UNL     1     -11.714  12.426  64.610  1.00  0.00    -0.365 A  
HETATM    4  C   UNL     1     -11.621  12.300  65.996  1.00  0.00    -0.451 A  
HETATM    5  C   UNL     1     -10.766  11.349  66.562  1.00  0.00    -0.325 A  
HETATM    6  C   UNL     1     -10.004  10.501  65.748  1.00  0.00    -0.318 A  
HETATM    7  C   UNL     1     -10.981  11.560  63.798  1.00  0.00    -0.485 A  
HETATM    8  C   UNL     1     -10.131  10.606  64.359  1.00  0.00    -0.418 A  
BRANCH   6   9
HETATM    9  C   UNL     1      -8.955   9.585  66.334  1.00  0.00    -0.182 C  
BRANCH   9  10
HETATM   10  C   UNL     1      -9.406   8.149  66.687  1.00  0.00    -0.197 C  
HETATM   11  C   UNL     1      -8.477   7.110  66.044  1.00  0.00    -0.148 C  
BRANCH  10  12
HETATM   12  N   UNL     1      -9.399   7.897  68.142  1.00  0.00    -0.142 NA 
HETATM   13  H   UNL     1      -8.979   8.680  68.642  1.00  0.00     0.000 HD 
BRANCH  12  14
HETATM   14  C   UNL     1     -10.730   7.581  68.688  1.00  0.00    -0.077 C  
BRANCH  14  15
HETATM   15  C   UNL     1     -10.820   7.716  70.226  1.00  0.00    -0.246 C  
HETATM   16  H   UNL     1     -11.435   6.604  71.730  1.00  0.00     0.000 HD 
HETATM   17  O   UNL     1     -11.380   6.521  70.785  1.00  0.00    -0.299 OA 
BRANCH  15  18
HETATM   18  C   UNL     1     -11.552   8.952  70.706  1.00  0.00    -0.301 A  
HETATM   19  C   UNL     1     -11.161  10.215  70.225  1.00  0.00    -0.387 A  
HETATM   20  C   UNL     1     -11.795  11.384  70.661  1.00  0.00    -0.226 A  
HETATM   21  H   UNL     1     -14.206  12.286  72.713  1.00  0.00     0.000 HD 
HETATM   22  C   UNL     1     -12.849  11.270  71.577  1.00  0.00    -0.414 A  
HETATM   23  C   UNL     1     -12.624   8.871  71.607  1.00  0.00    -0.403 A  
HETATM   24  C   UNL     1     -13.269  10.027  72.040  1.00  0.00    -0.545 A  
HETATM   25  O   UNL     1     -13.490  12.363  72.092  1.00  0.00    -0.525 OA 
BRANCH  20  26
HETATM   26  N   UNL     1     -11.420  12.658  70.197  1.00  0.00    -0.526 N  
HETATM   27  H   UNL     1     -10.508  13.001  70.500  1.00  0.00     0.000 HD 
HETATM   28  O   UNL     1     -11.725  14.588  69.046  1.00  0.00    -0.278 OA 
HETATM   29  C   UNL     1     -12.140  13.489  69.385  1.00  0.00    -0.289 C  
ENDBRANCH  20  26
ENDBRANCH  15  18
ENDBRANCH  14  15
ENDBRANCH  12  14
ENDBRANCH  10  12
ENDBRANCH   9  10
ENDBRANCH   6   9
ENDBRANCH   2   3
TORSDOF 8
ENDMDL
MODEL       47
REMARK 921   NORMALIZED FREE ENERGY PREDICTED BY IDOCK:   -5.40 KCAL/MOL
REMARK 922        TOTAL FREE ENERGY PREDICTED BY IDOCK:   -9.58 KCAL/MOL
REMARK 923 INTER-LIGAND FREE ENERGY PREDICTED BY IDOCK:   -8.15 KCAL/MOL
REMARK 924 INTRA-LIGAND FREE ENERGY PREDICTED BY IDOCK:   -1.43 KCAL/MOL
REMARK 927      BINDING AFFINITY PREDICTED BY RF-SCORE:    0.00 PKD
ROOT
HETATM    1  C   UNL     1     -14.296   8.401  71.996  1.00  0.00    -0.464 C  
HETATM    2  O   UNL     1     -13.339   9.390  72.352  1.00  0.00    -0.452 OA 
ENDROOT
BRANCH   2   3
HETATM    3  C   UNL     1     -12.431   9.739  71.391  1.00  0.00    -0.387 A  
HETATM    4  C   UNL     1     -12.682  10.542  70.279  1.00  0.00    -0.255 A  
HETATM    5  C   UNL     1     -11.676  10.773  69.334  1.00  0.00    -0.378 A  
HETATM    6  C   UNL     1     -10.402  10.214  69.498  1.00  0.00    -0.263 A  
HETATM    7  C   UNL     1     -11.154   9.208  71.573  1.00  0.00    -0.436 A  
HETATM    8  C   UNL     1     -10.147   9.440  70.636  1.00  0.00    -0.356 A  
BRANCH   6   9
HETATM    9  C   UNL     1      -9.357  10.312  68.412  1.00  0.00    -0.143 C  
BRANCH   9  10
HETATM   10  C   UNL     1      -8.000  10.940  68.808  1.00  0.00    -0.139 C  
HETATM   11  C   UNL     1      -6.941  10.680  67.729  1.00  0.00    -0.078 C  
BRANCH  10  12
HETATM   12  N   UNL     1      -8.088  12.403  68.988  1.00  0.00    -0.331 NA 
HETATM   13  H   UNL     1      -7.481  12.710  69.747  1.00  0.00     0.000 HD 
BRANCH  12  14
HETATM   14  C   UNL     1      -7.809  13.162  67.757  1.00  0.00    -0.152 C  
BRANCH  14  15
HETATM   15  C   UNL     1      -8.889  14.217  67.417  1.00  0.00    -0.206 C  
HETATM   16  H   UNL     1      -9.969  15.533  68.407  1.00  0.00     0.000 HD 
HETATM   17  O   UNL     1      -9.305  14.885  68.615  1.00  0.00    -0.183 OA 
BRANCH  15  18
HETATM   18  C   UNL     1     -10.072  13.676  66.641  1.00  0.00    -0.277 A  
HETATM   19  C   UNL     1      -9.872  12.629  65.722  1.00  0.00    -0.236 A  
HETATM   20  C   UNL     1     -10.933  12.118  64.966  1.00  0.00    -0.309 A  
HETATM   21  H   UNL     1     -14.161  12.616  64.558  1.00  0.00     0.000 HD 
HETATM   22  C   UNL     1     -12.212  12.657  65.158  1.00  0.00    -0.481 A  
HETATM   23  C   UNL     1     -11.366  14.181  66.824  1.00  0.00    -0.353 A  
HETATM   24  C   UNL     1     -12.432  13.672  66.085  1.00  0.00    -0.449 A  
HETATM   25  O   UNL     1     -13.293  12.250  64.428  1.00  0.00    -0.786 OA 
BRANCH  20  26
HETATM   26  N   UNL     1     -10.758  11.073  64.039  1.00  0.00    -0.479 N  
HETATM   27  H   UNL     1     -11.437  10.314  64.078  1.00  0.00     0.000 HD 
HETATM   28  O   UNL     1      -9.708  10.002  62.339  1.00  0.00    -0.197 OA 
HETATM   29  C   UNL     1      -9.778  10.962  63.093  1.00  0.00    -0.363 C  
ENDBRANCH  20  26
ENDBRANCH  15  18
ENDBRANCH  14  15
ENDBRANCH  12  14
ENDBRANCH  10  12
ENDBRANCH   9  10
ENDBRANCH   6   9
ENDBRANCH   2   3
TORSDOF 8
ENDMDL
MODEL       48
REMARK 921   NORMALIZED FREE ENERGY PREDICTED BY IDOCK:   -5.39 KCAL/MOL
REMARK 922        TOTAL FREE ENERGY PREDICTED BY IDOCK:   -9.57 KCAL/MOL
REMARK 923 INTER-LIGAND FREE ENERGY PREDICTED BY IDOCK:   -8.83 KCAL/MOL
REMARK 924 INTRA-LIGAND FREE ENERGY PREDICTED BY IDOCK:   -0.75 KCAL/MOL
REMARK 927      BINDING AFFINITY PREDICTED BY RF-SCORE:    0.00 PKD
ROOT
HETATM    1  C   UNL     1     -11.086   8.101  70.482  1.00  0.00    -0.253 C  
HETATM    2  O   UNL     1     -10.245   9.183  70.104  1.00  0.00    -0.184 OA 
ENDROOT
BRANCH   2   3
HETATM    3  C   UNL     1     -10.673   9.957  69.061  1.00  0.00    -0.222 A  
HETATM    4  C   UNL     1     -10.449   9.707  67.708  1.00  0.00    -0.309 A  
HETATM    5  C   UNL     1     -10.892  10.615  66.740  1.00  0.00    -0.233 A  
HETATM    6  C   UNL     1     -11.577  11.779  67.114  1.00  0.00    -0.342 A  
HETATM    7  C   UNL     1     -11.384  11.098  69.434  1.00  0.00    -0.352 A  
HETATM    8  C   UNL     1     -11.832  12.004  68.471  1.00  0.00    -0.369 A  
BRANCH   6   9
HETATM    9  C   UNL     1     -11.915  12.850  66.104  1.00  0.00    -0.491 C  
BRANCH   9  10
HETATM   10  C   UNL     1     -11.385  12.639  64.666  1.00  0.00    -0.318 C  
HETATM   11  C   UNL     1     -12.482  12.071  63.756  1.00  0.00    -0.594 C  
BRANCH  10  12
HETATM   12  N   UNL     1     -10.916  13.896  64.049  1.00  0.00    -0.521 NA 
HETATM   13  H   UNL     1     -11.671  14.350  63.535  1.00  0.00     0.000 HD 
BRANCH  12  14
HETATM   14  C   UNL     1     -10.304  14.828  65.011  1.00  0.00    -0.389 C  
BRANCH  14  15
HETATM   15  C   UNL     1     -11.074  16.162  65.161  1.00  0.00    -0.249 C  
HETATM   16  H   UNL     1     -12.038  17.402  63.975  1.00  0.00     0.000 HD 
HETATM   17  O   UNL     1     -11.565  16.583  63.882  1.00  0.00    -1.175 OA 
BRANCH  15  18
HETATM   18  C   UNL     1     -10.294  17.263  65.849  1.00  0.00    -0.287 A  
HETATM   19  C   UNL     1      -9.169  16.928  66.626  1.00  0.00    -0.278 A  
HETATM   20  C   UNL     1      -8.435  17.912  67.298  1.00  0.00    -0.236 A  
HETATM   21  H   UNL     1      -8.470  21.174  67.735  1.00  0.00     0.000 HD 
HETATM   22  C   UNL     1      -8.831  19.249  67.165  1.00  0.00    -0.294 A  
HETATM   23  C   UNL     1     -10.653  18.612  65.720  1.00  0.00    -0.290 A  
HETATM   24  C   UNL     1      -9.923  19.601  66.376  1.00  0.00    -0.556 A  
HETATM   25  O   UNL     1      -8.201  20.267  67.825  1.00  0.00    -0.297 OA 
BRANCH  20  26
HETATM   26  N   UNL     1      -7.309  17.602  68.082  1.00  0.00    -0.220 N  
HETATM   27  H   UNL     1      -6.409  17.929  67.733  1.00  0.00     0.000 HD 
HETATM   28  O   UNL     1      -6.245  16.683  69.862  1.00  0.00    -0.218 OA 
HETATM   29  C   UNL     1      -7.286  16.910  69.261  1.00  0.00    -0.150 C  
ENDBRANCH  20  26
ENDBRANCH  15  18
ENDBRANCH  14  15
ENDBRANCH  12  14
ENDBRANCH  10  12
ENDBRANCH   9  10
ENDBRANCH   6   9
ENDBRANCH   2   3
TORSDOF 8
ENDMDL
MODEL       49
REMARK 921   NORMALIZED FREE ENERGY PREDICTED BY IDOCK:   -5.37 KCAL/MOL
REMARK 922        TOTAL FREE ENERGY PREDICTED BY IDOCK:   -9.54 KCAL/MOL
REMARK 923 INTER-LIGAND FREE ENERGY PREDICTED BY IDOCK:   -7.62 KCAL/MOL
REMARK 924 INTRA-LIGAND FREE ENERGY PREDICTED BY IDOCK:   -1.92 KCAL/MOL
REMARK 927      BINDING AFFINITY PREDICTED BY RF-SCORE:    0.00 PKD
ROOT
HETATM    1  C   UNL     1      -8.041  11.934  67.428  1.00  0.00    -0.165 C  
HETATM    2  O   UNL     1      -8.139  12.778  68.567  1.00  0.00    -0.142 OA 
ENDROOT
BRANCH   2   3
HETATM    3  C   UNL     1      -8.018  14.122  68.346  1.00  0.00    -0.142 A  
HETATM    4  C   UNL     1      -7.709  15.087  69.304  1.00  0.00    -0.194 A  
HETATM    5  C   UNL     1      -7.675  16.442  68.955  1.00  0.00    -0.235 A  
HETATM    6  C   UNL     1      -7.936  16.846  67.639  1.00  0.00    -0.186 A  
HETATM    7  C   UNL     1      -8.245  14.520  67.028  1.00  0.00    -0.164 A  
HETATM    8  C   UNL     1      -8.207  15.869  66.675  1.00  0.00    -0.317 A  
BRANCH   6   9
HETATM    9  C   UNL     1      -8.069  18.307  67.279  1.00  0.00    -0.233 C  
BRANCH   9  10
HETATM   10  C   UNL     1      -9.472  18.938  67.443  1.00  0.00    -0.297 C  
HETATM   11  C   UNL     1     -10.294  18.786  66.157  1.00  0.00    -0.494 C  
BRANCH  10  12
HETATM   12  N   UNL     1     -10.248  18.311  68.532  1.00  0.00    -0.391 NA 
HETATM   13  H   UNL     1     -10.714  19.020  69.097  1.00  0.00     0.000 HD 
BRANCH  12  14
HETATM   14  C   UNL     1     -11.213  17.304  68.058  1.00  0.00     0.094 C  
BRANCH  14  15
HETATM   15  C   UNL     1     -11.652  16.300  69.150  1.00  0.00    -0.213 C  
HETATM   16  H   UNL     1     -11.114  15.858  70.991  1.00  0.00     0.000 HD 
HETATM   17  O   UNL     1     -10.844  16.475  70.320  1.00  0.00    -0.294 OA 
BRANCH  15  18
HETATM   18  C   UNL     1     -11.675  14.854  68.699  1.00  0.00    -0.358 A  
HETATM   19  C   UNL     1     -11.804  14.561  67.329  1.00  0.00    -0.419 A  
HETATM   20  C   UNL     1     -11.854  13.239  66.873  1.00  0.00    -0.392 A  
HETATM   21  H   UNL     1     -11.772  10.184  68.096  1.00  0.00     0.000 HD 
HETATM   22  C   UNL     1     -11.752  12.204  67.812  1.00  0.00    -0.320 A  
HETATM   23  C   UNL     1     -11.556  13.796  69.611  1.00  0.00    -0.343 A  
HETATM   24  C   UNL     1     -11.595  12.476  69.169  1.00  0.00    -0.375 A  
HETATM   25  O   UNL     1     -11.841  10.886  67.459  1.00  0.00    -0.524 OA 
BRANCH  20  26
HETATM   26  N   UNL     1     -11.985  12.921  65.509  1.00  0.00    -0.410 N  
HETATM   27  H   UNL     1     -11.773  11.959  65.245  1.00  0.00     0.000 HD 
HETATM   28  O   UNL     1     -12.436  13.383  63.335  1.00  0.00    -0.753 OA 
HETATM   29  C   UNL     1     -12.365  13.758  64.497  1.00  0.00    -0.358 C  
ENDBRANCH  20  26
ENDBRANCH  15  18
ENDBRANCH  14  15
ENDBRANCH  12  14
ENDBRANCH  10  12
ENDBRANCH   9  10
ENDBRANCH   6   9
ENDBRANCH   2   3
TORSDOF 8
ENDMDL
MODEL       50
REMARK 921   NORMALIZED FREE ENERGY PREDICTED BY IDOCK:   -5.36 KCAL/MOL
REMARK 922        TOTAL FREE ENERGY PREDICTED BY IDOCK:   -9.53 KCAL/MOL
REMARK 923 INTER-LIGAND FREE ENERGY PREDICTED BY IDOCK:   -8.22 KCAL/MOL
REMARK 924 INTRA-LIGAND FREE ENERGY PREDICTED BY IDOCK:   -1.31 KCAL/MOL
REMARK 927      BINDING AFFINITY PREDICTED BY RF-SCORE:    0.00 PKD
ROOT
HETATM    1  C   UNL     1      -8.820   8.124  70.706  1.00  0.00    -0.141 C  
HETATM    2  O   UNL     1      -8.503   9.487  70.456  1.00  0.00    -0.195 OA 
ENDROOT
BRANCH   2   3
HETATM    3  C   UNL     1      -9.111  10.070  69.379  1.00  0.00    -0.215 A  
HETATM    4  C   UNL     1      -8.538  11.009  68.522  1.00  0.00    -0.158 A  
HETATM    5  C   UNL     1      -9.293  11.575  67.489  1.00  0.00    -0.166 A  
HETATM    6  C   UNL     1     -10.628  11.196  67.292  1.00  0.00    -0.279 A  
HETATM    7  C   UNL     1     -10.429   9.668  69.163  1.00  0.00    -0.230 A  
HETATM    8  C   UNL     1     -11.184  10.225  68.131  1.00  0.00    -0.294 A  
BRANCH   6   9
HETATM    9  C   UNL     1     -11.507  11.913  66.294  1.00  0.00    -0.367 C  
BRANCH   9  10
HETATM   10  C   UNL     1     -10.838  13.024  65.451  1.00  0.00    -0.284 C  
HETATM   11  C   UNL     1     -11.289  12.947  63.987  1.00  0.00    -0.466 C  
BRANCH  10  12
HETATM   12  N   UNL     1     -11.170  14.378  65.937  1.00  0.00    -0.318 NA 
HETATM   13  H   UNL     1     -11.745  14.875  65.257  1.00  0.00     0.000 HD 
BRANCH  12  14
HETATM   14  C   UNL     1     -11.810  14.383  67.264  1.00  0.00    -0.405 C  
BRANCH  14  15
HETATM   15  C   UNL     1     -11.053  15.226  68.317  1.00  0.00    -0.300 C  
HETATM   16  H   UNL     1      -9.184  15.462  68.890  1.00  0.00     0.000 HD 
HETATM   17  O   UNL     1      -9.649  14.944  68.244  1.00  0.00    -0.203 OA 
BRANCH  15  18
HETATM   18  C   UNL     1     -11.576  15.082  69.731  1.00  0.00    -0.336 A  
HETATM   19  C   UNL     1     -12.164  13.866  70.128  1.00  0.00    -0.425 A  
HETATM   20  C   UNL     1     -12.683  13.699  71.417  1.00  0.00    -0.352 A  
HETATM   21  H   UNL     1     -13.044  15.430  74.192  1.00  0.00     0.000 HD 
HETATM   22  C   UNL     1     -12.586  14.767  72.319  1.00  0.00    -0.335 A  
HETATM   23  C   UNL     1     -11.477  16.123  70.664  1.00  0.00    -0.386 A  
HETATM   24  C   UNL     1     -11.981  15.966  71.953  1.00  0.00    -0.588 A  
HETATM   25  O   UNL     1     -13.110  14.706  73.580  1.00  0.00    -0.519 OA 
BRANCH  20  26
HETATM   26  N   UNL     1     -13.277  12.494  71.835  1.00  0.00    -0.450 N  
HETATM   27  H   UNL     1     -14.119  12.578  72.405  1.00  0.00     0.000 HD 
HETATM   28  O   UNL     1     -13.440  10.238  71.986  1.00  0.00    -0.393 OA 
HETATM   29  C   UNL     1     -12.853  11.224  71.563  1.00  0.00    -0.414 C  
ENDBRANCH  20  26
ENDBRANCH  15  18
ENDBRANCH  14  15
ENDBRANCH  12  14
ENDBRANCH  10  12
ENDBRANCH   9  10
ENDBRANCH   6   9
ENDBRANCH   2   3
TORSDOF 8
ENDMDL
MODEL       51
REMARK 921   NORMALIZED FREE ENERGY PREDICTED BY IDOCK:   -5.36 KCAL/MOL
REMARK 922        TOTAL FREE ENERGY PREDICTED BY IDOCK:   -9.52 KCAL/MOL
REMARK 923 INTER-LIGAND FREE ENERGY PREDICTED BY IDOCK:   -8.90 KCAL/MOL
REMARK 924 INTRA-LIGAND FREE ENERGY PREDICTED BY IDOCK:   -0.62 KCAL/MOL
REMARK 927      BINDING AFFINITY PREDICTED BY RF-SCORE:    0.00 PKD
ROOT
HETATM    1  C   UNL     1     -10.444   2.340  72.817  1.00  0.00    -0.151 C  
HETATM    2  O   UNL     1     -11.111   3.316  73.607  1.00  0.00    -0.219 OA 
ENDROOT
BRANCH   2   3
HETATM    3  C   UNL     1     -10.799   4.624  73.356  1.00  0.00    -0.276 A  
HETATM    4  C   UNL     1     -10.453   5.582  74.308  1.00  0.00    -0.275 A  
HETATM    5  C   UNL     1     -10.216   6.906  73.922  1.00  0.00    -0.401 A  
HETATM    6  C   UNL     1     -10.309   7.284  72.576  1.00  0.00    -0.254 A  
HETATM    7  C   UNL     1     -10.860   4.991  72.012  1.00  0.00    -0.150 A  
HETATM    8  C   UNL     1     -10.619   6.309  71.622  1.00  0.00    -0.271 A  
BRANCH   6   9
HETATM    9  C   UNL     1     -10.222   8.734  72.161  1.00  0.00    -0.371 C  
BRANCH   9  10
HETATM   10  C   UNL     1     -11.240   9.215  71.100  1.00  0.00    -0.325 C  
HETATM   11  C   UNL     1     -12.612   9.474  71.736  1.00  0.00    -0.490 C  
BRANCH  10  12
HETATM   12  N   UNL     1     -10.820  10.469  70.444  1.00  0.00    -0.447 NA 
HETATM   13  H   UNL     1     -10.005  10.312  69.852  1.00  0.00     0.000 HD 
BRANCH  12  14
HETATM   14  C   UNL     1     -11.900  11.121  69.684  1.00  0.00    -0.348 C  
BRANCH  14  15
HETATM   15  C   UNL     1     -11.462  12.423  68.971  1.00  0.00    -0.300 C  
HETATM   16  H   UNL     1     -12.093  14.285  68.871  1.00  0.00     0.000 HD 
HETATM   17  O   UNL     1     -12.362  13.485  69.309  1.00  0.00    -0.260 OA 
BRANCH  15  18
HETATM   18  C   UNL     1     -11.292  12.291  67.472  1.00  0.00    -0.388 A  
HETATM   19  C   UNL     1     -11.584  13.392  66.646  1.00  0.00    -0.399 A  
HETATM   20  C   UNL     1     -11.464  13.305  65.254  1.00  0.00    -0.295 A  
HETATM   21  H   UNL     1     -10.627  11.092  62.966  1.00  0.00     0.000 HD 
HETATM   22  C   UNL     1     -11.024  12.098  64.696  1.00  0.00    -0.312 A  
HETATM   23  C   UNL     1     -10.834  11.104  66.884  1.00  0.00    -0.333 A  
HETATM   24  C   UNL     1     -10.701  11.008  65.500  1.00  0.00    -0.218 A  
HETATM   25  O   UNL     1     -10.926  11.911  63.345  1.00  0.00    -0.403 OA 
BRANCH  20  26
HETATM   26  N   UNL     1     -11.753  14.391  64.408  1.00  0.00    -0.580 N  
HETATM   27  H   UNL     1     -12.277  14.178  63.560  1.00  0.00     0.000 HD 
HETATM   28  O   UNL     1     -11.703  16.572  63.789  1.00  0.00    -1.086 OA 
HETATM   29  C   UNL     1     -11.411  15.701  64.596  1.00  0.00    -0.349 C  
ENDBRANCH  20  26
ENDBRANCH  15  18
ENDBRANCH  14  15
ENDBRANCH  12  14
ENDBRANCH  10  12
ENDBRANCH   9  10
ENDBRANCH   6   9
ENDBRANCH   2   3
TORSDOF 8
ENDMDL
MODEL       52
REMARK 921   NORMALIZED FREE ENERGY PREDICTED BY IDOCK:   -5.35 KCAL/MOL
REMARK 922        TOTAL FREE ENERGY PREDICTED BY IDOCK:   -9.52 KCAL/MOL
REMARK 923 INTER-LIGAND FREE ENERGY PREDICTED BY IDOCK:   -8.66 KCAL/MOL
REMARK 924 INTRA-LIGAND FREE ENERGY PREDICTED BY IDOCK:   -0.86 KCAL/MOL
REMARK 927      BINDING AFFINITY PREDICTED BY RF-SCORE:    0.00 PKD
ROOT
HETATM    1  C   UNL     1      -7.678   8.026  62.419  1.00  0.00    -0.121 C  
HETATM    2  O   UNL     1      -7.890   8.377  63.780  1.00  0.00    -0.136 OA 
ENDROOT
BRANCH   2   3
HETATM    3  C   UNL     1      -8.815   9.355  64.023  1.00  0.00    -0.177 A  
HETATM    4  C   UNL     1      -9.334  10.246  63.084  1.00  0.00    -0.343 A  
HETATM    5  C   UNL     1     -10.233  11.242  63.478  1.00  0.00    -0.456 A  
HETATM    6  C   UNL     1     -10.636  11.350  64.816  1.00  0.00    -0.377 A  
HETATM    7  C   UNL     1      -9.241   9.440  65.348  1.00  0.00    -0.305 A  
HETATM    8  C   UNL     1     -10.141  10.429  65.745  1.00  0.00    -0.329 A  
BRANCH   6   9
HETATM    9  C   UNL     1     -11.471  12.516  65.291  1.00  0.00    -0.374 C  
BRANCH   9  10
HETATM   10  C   UNL     1     -11.066  13.916  64.776  1.00  0.00    -0.383 C  
HETATM   11  C   UNL     1     -12.306  14.756  64.442  1.00  0.00    -0.389 C  
BRANCH  10  12
HETATM   12  N   UNL     1     -10.280  14.677  65.768  1.00  0.00    -0.320 NA 
HETATM   13  H   UNL     1      -9.851  15.496  65.338  1.00  0.00     0.000 HD 
BRANCH  12  14
HETATM   14  C   UNL     1     -11.055  15.059  66.961  1.00  0.00    -0.334 C  
BRANCH  14  15
HETATM   15  C   UNL     1     -10.332  14.759  68.295  1.00  0.00    -0.238 C  
HETATM   16  H   UNL     1      -8.791  13.682  68.880  1.00  0.00     0.000 HD 
HETATM   17  O   UNL     1      -9.235  13.867  68.061  1.00  0.00    -0.180 OA 
BRANCH  15  18
HETATM   18  C   UNL     1     -11.237  14.251  69.399  1.00  0.00    -0.313 A  
HETATM   19  C   UNL     1     -11.669  15.141  70.399  1.00  0.00    -0.333 A  
HETATM   20  C   UNL     1     -12.485  14.708  71.450  1.00  0.00    -0.344 A  
HETATM   21  H   UNL     1     -13.912  11.938  72.508  1.00  0.00     0.000 HD 
HETATM   22  C   UNL     1     -12.885  13.366  71.476  1.00  0.00    -0.337 A  
HETATM   23  C   UNL     1     -11.671  12.919  69.442  1.00  0.00    -0.382 A  
HETATM   24  C   UNL     1     -12.492  12.479  70.478  1.00  0.00    -0.266 A  
HETATM   25  O   UNL     1     -13.641  12.848  72.491  1.00  0.00    -0.556 OA 
BRANCH  20  26
HETATM   26  N   UNL     1     -12.928  15.579  72.463  1.00  0.00    -0.390 N  
HETATM   27  H   UNL     1     -13.807  16.066  72.291  1.00  0.00     0.000 HD 
HETATM   28  O   UNL     1     -12.776  16.632  74.466  1.00  0.00    -0.704 OA 
HETATM   29  C   UNL     1     -12.310  15.845  73.654  1.00  0.00    -0.572 C  
ENDBRANCH  20  26
ENDBRANCH  15  18
ENDBRANCH  14  15
ENDBRANCH  12  14
ENDBRANCH  10  12
ENDBRANCH   9  10
ENDBRANCH   6   9
ENDBRANCH   2   3
TORSDOF 8
ENDMDL
MODEL       53
REMARK 921   NORMALIZED FREE ENERGY PREDICTED BY IDOCK:   -5.35 KCAL/MOL
REMARK 922        TOTAL FREE ENERGY PREDICTED BY IDOCK:   -9.51 KCAL/MOL
REMARK 923 INTER-LIGAND FREE ENERGY PREDICTED BY IDOCK:   -8.86 KCAL/MOL
REMARK 924 INTRA-LIGAND FREE ENERGY PREDICTED BY IDOCK:   -0.65 KCAL/MOL
REMARK 927      BINDING AFFINITY PREDICTED BY RF-SCORE:    0.00 PKD
ROOT
HETATM    1  C   UNL     1      -6.410  21.056  66.942  1.00  0.00    -0.306 C  
HETATM    2  O   UNL     1      -7.618  21.145  67.686  1.00  0.00    -0.273 OA 
ENDROOT
BRANCH   2   3
HETATM    3  C   UNL     1      -8.462  20.071  67.615  1.00  0.00    -0.326 A  
HETATM    4  C   UNL     1      -9.790  20.098  67.192  1.00  0.00    -0.586 A  
HETATM    5  C   UNL     1     -10.565  18.933  67.226  1.00  0.00    -0.529 A  
HETATM    6  C   UNL     1     -10.015  17.723  67.670  1.00  0.00    -0.322 A  
HETATM    7  C   UNL     1      -7.903  18.861  68.026  1.00  0.00    -0.305 A  
HETATM    8  C   UNL     1      -8.670  17.696  68.056  1.00  0.00    -0.253 A  
BRANCH   6   9
HETATM    9  C   UNL     1     -10.874  16.498  67.872  1.00  0.00    -0.326 C  
BRANCH   9  10
HETATM   10  C   UNL     1     -11.013  15.540  66.665  1.00  0.00    -0.248 C  
HETATM   11  C   UNL     1     -10.528  16.212  65.374  1.00  0.00    -0.396 C  
BRANCH  10  12
HETATM   12  N   UNL     1     -10.224  14.303  66.834  1.00  0.00    -0.263 NA 
HETATM   13  H   UNL     1      -9.484  14.438  67.522  1.00  0.00     0.000 HD 
BRANCH  12  14
HETATM   14  C   UNL     1     -11.045  13.128  67.173  1.00  0.00    -0.279 C  
BRANCH  14  15
HETATM   15  C   UNL     1     -10.614  12.424  68.482  1.00  0.00    -0.231 C  
HETATM   16  H   UNL     1     -10.126  10.598  69.034  1.00  0.00     0.000 HD 
HETATM   17  O   UNL     1     -10.390  11.030  68.230  1.00  0.00    -0.166 OA 
BRANCH  15  18
HETATM   18  C   UNL     1     -11.556  12.636  69.649  1.00  0.00    -0.321 A  
HETATM   19  C   UNL     1     -12.012  11.521  70.377  1.00  0.00    -0.459 A  
HETATM   20  C   UNL     1     -12.903  11.671  71.446  1.00  0.00    -0.356 A  
HETATM   21  H   UNL     1     -14.506  14.070  73.027  1.00  0.00     0.000 HD 
HETATM   22  C   UNL     1     -13.319  12.962  71.793  1.00  0.00    -0.359 A  
HETATM   23  C   UNL     1     -11.976  13.916  70.034  1.00  0.00    -0.404 A  
HETATM   24  C   UNL     1     -12.854  14.078  71.103  1.00  0.00    -0.427 A  
HETATM   25  O   UNL     1     -14.224  13.194  72.791  1.00  0.00    -0.608 OA 
BRANCH  20  26
HETATM   26  N   UNL     1     -13.375  10.571  72.187  1.00  0.00    -0.569 N  
HETATM   27  H   UNL     1     -14.112  10.764  72.865  1.00  0.00     0.000 HD 
HETATM   28  O   UNL     1     -13.426   8.390  72.802  1.00  0.00    -0.120 OA 
HETATM   29  C   UNL     1     -12.955   9.273  72.100  1.00  0.00    -0.424 C  
ENDBRANCH  20  26
ENDBRANCH  15  18
ENDBRANCH  14  15
ENDBRANCH  12  14
ENDBRANCH  10  12
ENDBRANCH   9  10
ENDBRANCH   6   9
ENDBRANCH   2   3
TORSDOF 8
ENDMDL
MODEL       54
REMARK 921   NORMALIZED FREE ENERGY PREDICTED BY IDOCK:   -5.35 KCAL/MOL
REMARK 922        TOTAL FREE ENERGY PREDICTED BY IDOCK:   -9.51 KCAL/MOL
REMARK 923 INTER-LIGAND FREE ENERGY PREDICTED BY IDOCK:   -8.82 KCAL/MOL
REMARK 924 INTRA-LIGAND FREE ENERGY PREDICTED BY IDOCK:   -0.69 KCAL/MOL
REMARK 927      BINDING AFFINITY PREDICTED BY RF-SCORE:    0.00 PKD
ROOT
HETATM    1  C   UNL     1      -6.048  21.226  65.817  1.00  0.00    -0.144 C  
HETATM    2  O   UNL     1      -6.683  21.342  67.084  1.00  0.00    -0.537 OA 
ENDROOT
BRANCH   2   3
HETATM    3  C   UNL     1      -7.608  20.385  67.395  1.00  0.00    -0.326 A  
HETATM    4  C   UNL     1      -8.972  20.438  67.107  1.00  0.00    -0.453 A  
HETATM    5  C   UNL     1      -9.824  19.415  67.538  1.00  0.00    -0.448 A  
HETATM    6  C   UNL     1      -9.318  18.318  68.249  1.00  0.00    -0.320 A  
HETATM    7  C   UNL     1      -7.099  19.279  68.075  1.00  0.00    -0.287 A  
HETATM    8  C   UNL     1      -7.944  18.254  68.501  1.00  0.00    -0.324 A  
BRANCH   6   9
HETATM    9  C   UNL     1     -10.240  17.292  68.865  1.00  0.00    -0.349 C  
BRANCH   9  10
HETATM   10  C   UNL     1     -11.071  16.430  67.888  1.00  0.00    -0.249 C  
HETATM   11  C   UNL     1     -10.158  15.620  66.958  1.00  0.00    -0.253 C  
BRANCH  10  12
HETATM   12  N   UNL     1     -11.943  15.465  68.588  1.00  0.00    -0.553 NA 
HETATM   13  H   UNL     1     -12.117  14.646  68.005  1.00  0.00     0.000 HD 
BRANCH  12  14
HETATM   14  C   UNL     1     -11.431  15.066  69.910  1.00  0.00    -0.289 C  
BRANCH  14  15
HETATM   15  C   UNL     1     -12.517  14.494  70.851  1.00  0.00    -0.345 C  
HETATM   16  H   UNL     1     -13.069  14.747  72.724  1.00  0.00     0.000 HD 
HETATM   17  O   UNL     1     -12.403  15.099  72.146  1.00  0.00    -0.319 OA 
BRANCH  15  18
HETATM   18  C   UNL     1     -12.536  12.982  70.942  1.00  0.00    -0.396 A  
HETATM   19  C   UNL     1     -11.858  12.225  69.969  1.00  0.00    -0.372 A  
HETATM   20  C   UNL     1     -11.871  10.826  70.002  1.00  0.00    -0.344 A  
HETATM   21  H   UNL     1     -13.130   8.395  71.830  1.00  0.00     0.000 HD 
HETATM   22  C   UNL     1     -12.559  10.188  71.043  1.00  0.00    -0.381 A  
HETATM   23  C   UNL     1     -13.198  12.314  71.982  1.00  0.00    -0.508 A  
HETATM   24  C   UNL     1     -13.209  10.922  72.031  1.00  0.00    -0.456 A  
HETATM   25  O   UNL     1     -12.663   8.828  71.123  1.00  0.00    -0.255 OA 
BRANCH  20  26
HETATM   26  N   UNL     1     -11.203  10.047  69.039  1.00  0.00    -0.402 N  
HETATM   27  H   UNL     1     -10.778   9.182  69.370  1.00  0.00     0.000 HD 
HETATM   28  O   UNL     1     -10.447   9.580  66.953  1.00  0.00    -0.240 OA 
HETATM   29  C   UNL     1     -11.060  10.322  67.707  1.00  0.00    -0.269 C  
ENDBRANCH  20  26
ENDBRANCH  15  18
ENDBRANCH  14  15
ENDBRANCH  12  14
ENDBRANCH  10  12
ENDBRANCH   9  10
ENDBRANCH   6   9
ENDBRANCH   2   3
TORSDOF 8
ENDMDL
MODEL       55
REMARK 921   NORMALIZED FREE ENERGY PREDICTED BY IDOCK:   -5.34 KCAL/MOL
REMARK 922        TOTAL FREE ENERGY PREDICTED BY IDOCK:   -9.49 KCAL/MOL
REMARK 923 INTER-LIGAND FREE ENERGY PREDICTED BY IDOCK:   -7.86 KCAL/MOL
REMARK 924 INTRA-LIGAND FREE ENERGY PREDICTED BY IDOCK:   -1.64 KCAL/MOL
REMARK 927      BINDING AFFINITY PREDICTED BY RF-SCORE:    0.00 PKD
ROOT
HETATM    1  C   UNL     1     -11.104   4.793  73.348  1.00  0.00    -0.344 C  
HETATM    2  O   UNL     1     -10.908   6.190  73.526  1.00  0.00    -0.258 OA 
ENDROOT
BRANCH   2   3
HETATM    3  C   UNL     1     -10.643   6.920  72.401  1.00  0.00    -0.211 A  
HETATM    4  C   UNL     1      -9.951   8.129  72.350  1.00  0.00    -0.345 A  
HETATM    5  C   UNL     1      -9.802   8.806  71.136  1.00  0.00    -0.313 A  
HETATM    6  C   UNL     1     -10.331   8.274  69.952  1.00  0.00    -0.218 A  
HETATM    7  C   UNL     1     -11.143   6.372  71.219  1.00  0.00    -0.334 A  
HETATM    8  C   UNL     1     -10.991   7.042  70.004  1.00  0.00    -0.303 A  
BRANCH   6   9
HETATM    9  C   UNL     1     -10.328   9.065  68.666  1.00  0.00    -0.233 C  
BRANCH   9  10
HETATM   10  C   UNL     1      -9.085   9.946  68.396  1.00  0.00    -0.123 C  
HETATM   11  C   UNL     1      -7.964   9.128  67.743  1.00  0.00    -0.101 C  
BRANCH  10  12
HETATM   12  N   UNL     1      -9.381  11.076  67.493  1.00  0.00    -0.158 NA 
HETATM   13  H   UNL     1      -9.079  10.867  66.542  1.00  0.00     0.000 HD 
BRANCH  12  14
HETATM   14  C   UNL     1     -10.795  11.488  67.513  1.00  0.00    -0.237 C  
BRANCH  14  15
HETATM   15  C   UNL     1     -11.011  12.952  67.963  1.00  0.00    -0.247 C  
HETATM   16  H   UNL     1      -9.885  14.536  68.278  1.00  0.00     0.000 HD 
HETATM   17  O   UNL     1      -9.752  13.637  68.001  1.00  0.00    -0.212 OA 
BRANCH  15  18
HETATM   18  C   UNL     1     -11.768  13.104  69.266  1.00  0.00    -0.376 A  
HETATM   19  C   UNL     1     -12.055  11.960  70.033  1.00  0.00    -0.366 A  
HETATM   20  C   UNL     1     -12.773  12.052  71.230  1.00  0.00    -0.279 A  
HETATM   21  H   UNL     1     -14.215  14.352  73.091  1.00  0.00     0.000 HD 
HETATM   22  C   UNL     1     -13.187  13.318  71.665  1.00  0.00    -0.359 A  
HETATM   23  C   UNL     1     -12.179  14.358  69.738  1.00  0.00    -0.370 A  
HETATM   24  C   UNL     1     -12.886  14.464  70.934  1.00  0.00    -0.419 A  
HETATM   25  O   UNL     1     -13.935  13.494  72.796  1.00  0.00    -0.733 OA 
BRANCH  20  26
HETATM   26  N   UNL     1     -13.074  10.922  72.013  1.00  0.00    -0.520 N  
HETATM   27  H   UNL     1     -13.053  11.053  73.024  1.00  0.00     0.000 HD 
HETATM   28  O   UNL     1     -13.625   8.747  72.339  1.00  0.00    -0.409 OA 
HETATM   29  C   UNL     1     -13.390   9.669  71.570  1.00  0.00    -0.388 C  
ENDBRANCH  20  26
ENDBRANCH  15  18
ENDBRANCH  14  15
ENDBRANCH  12  14
ENDBRANCH  10  12
ENDBRANCH   9  10
ENDBRANCH   6   9
ENDBRANCH   2   3
TORSDOF 8
ENDMDL
MODEL       56
REMARK 921   NORMALIZED FREE ENERGY PREDICTED BY IDOCK:   -5.34 KCAL/MOL
REMARK 922        TOTAL FREE ENERGY PREDICTED BY IDOCK:   -9.49 KCAL/MOL
REMARK 923 INTER-LIGAND FREE ENERGY PREDICTED BY IDOCK:   -8.70 KCAL/MOL
REMARK 924 INTRA-LIGAND FREE ENERGY PREDICTED BY IDOCK:   -0.79 KCAL/MOL
REMARK 927      BINDING AFFINITY PREDICTED BY RF-SCORE:    0.00 PKD
ROOT
HETATM    1  C   UNL     1      -9.918  20.153  66.726  1.00  0.00    -0.469 C  
HETATM    2  O   UNL     1     -10.403  19.283  67.739  1.00  0.00    -0.381 OA 
ENDROOT
BRANCH   2   3
HETATM    3  C   UNL     1     -10.588  17.974  67.386  1.00  0.00    -0.365 A  
HETATM    4  C   UNL     1     -10.891  16.925  68.254  1.00  0.00    -0.357 A  
HETATM    5  C   UNL     1     -10.994  15.617  67.770  1.00  0.00    -0.316 A  
HETATM    6  C   UNL     1     -10.811  15.344  66.407  1.00  0.00    -0.303 A  
HETATM    7  C   UNL     1     -10.438  17.710  66.025  1.00  0.00    -0.278 A  
HETATM    8  C   UNL     1     -10.546  16.407  65.537  1.00  0.00    -0.346 A  
BRANCH   6   9
HETATM    9  C   UNL     1     -10.753  13.926  65.893  1.00  0.00    -0.286 C  
BRANCH   9  10
HETATM   10  C   UNL     1     -12.064  13.108  65.960  1.00  0.00    -0.436 C  
HETATM   11  C   UNL     1     -12.518  12.685  64.557  1.00  0.00    -0.525 C  
BRANCH  10  12
HETATM   12  N   UNL     1     -11.919  11.875  66.760  1.00  0.00    -0.583 NA 
HETATM   13  H   UNL     1     -12.390  11.093  66.306  1.00  0.00     0.000 HD 
BRANCH  12  14
HETATM   14  C   UNL     1     -10.519  11.536  67.066  1.00  0.00    -0.228 C  
BRANCH  14  15
HETATM   15  C   UNL     1     -10.102  11.859  68.520  1.00  0.00    -0.206 C  
HETATM   16  H   UNL     1      -8.469  11.713  69.610  1.00  0.00     0.000 HD 
HETATM   17  O   UNL     1      -8.725  11.515  68.717  1.00  0.00    -0.137 OA 
BRANCH  15  18
HETATM   18  C   UNL     1     -10.989  11.237  69.579  1.00  0.00    -0.249 A  
HETATM   19  C   UNL     1     -10.843   9.872  69.885  1.00  0.00    -0.316 A  
HETATM   20  C   UNL     1     -11.658   9.252  70.839  1.00  0.00    -0.301 A  
HETATM   21  H   UNL     1     -14.135  10.020  72.865  1.00  0.00     0.000 HD 
HETATM   22  C   UNL     1     -12.616  10.028  71.504  1.00  0.00    -0.425 A  
HETATM   23  C   UNL     1     -11.944  11.990  70.277  1.00  0.00    -0.398 A  
HETATM   24  C   UNL     1     -12.754  11.387  71.236  1.00  0.00    -0.498 A  
HETATM   25  O   UNL     1     -13.485   9.493  72.414  1.00  0.00    -0.453 OA 
BRANCH  20  26
HETATM   26  N   UNL     1     -11.532   7.888  71.160  1.00  0.00    -0.270 N  
HETATM   27  H   UNL     1     -11.825   7.614  72.097  1.00  0.00     0.000 HD 
HETATM   28  O   UNL     1     -10.982   5.729  70.737  1.00  0.00    -0.283 OA 
HETATM   29  C   UNL     1     -11.061   6.888  70.355  1.00  0.00    -0.296 C  
ENDBRANCH  20  26
ENDBRANCH  15  18
ENDBRANCH  14  15
ENDBRANCH  12  14
ENDBRANCH  10  12
ENDBRANCH   9  10
ENDBRANCH   6   9
ENDBRANCH   2   3
TORSDOF 8
ENDMDL
MODEL       57
REMARK 921   NORMALIZED FREE ENERGY PREDICTED BY IDOCK:   -5.33 KCAL/MOL
REMARK 922        TOTAL FREE ENERGY PREDICTED BY IDOCK:   -9.49 KCAL/MOL
REMARK 923 INTER-LIGAND FREE ENERGY PREDICTED BY IDOCK:   -8.36 KCAL/MOL
REMARK 924 INTRA-LIGAND FREE ENERGY PREDICTED BY IDOCK:   -1.12 KCAL/MOL
REMARK 927      BINDING AFFINITY PREDICTED BY RF-SCORE:    0.00 PKD
ROOT
HETATM    1  C   UNL     1     -12.821   7.067  71.801  1.00  0.00    -0.324 C  
HETATM    2  O   UNL     1     -12.181   8.252  72.255  1.00  0.00    -0.344 OA 
ENDROOT
BRANCH   2   3
HETATM    3  C   UNL     1     -11.917   9.205  71.310  1.00  0.00    -0.325 A  
HETATM    4  C   UNL     1     -11.021   9.083  70.248  1.00  0.00    -0.274 A  
HETATM    5  C   UNL     1     -10.798  10.161  69.386  1.00  0.00    -0.274 A  
HETATM    6  C   UNL     1     -11.480  11.372  69.566  1.00  0.00    -0.381 A  
HETATM    7  C   UNL     1     -12.621  10.399  71.471  1.00  0.00    -0.544 A  
HETATM    8  C   UNL     1     -12.406  11.474  70.610  1.00  0.00    -0.457 A  
BRANCH   6   9
HETATM    9  C   UNL     1     -11.133  12.596  68.752  1.00  0.00    -0.307 C  
BRANCH   9  10
HETATM   10  C   UNL     1     -12.061  13.823  68.913  1.00  0.00    -0.313 C  
HETATM   11  C   UNL     1     -11.404  14.895  69.791  1.00  0.00    -0.314 C  
BRANCH  10  12
HETATM   12  N   UNL     1     -12.384  14.458  67.620  1.00  0.00    -0.601 NA 
HETATM   13  H   UNL     1     -12.073  15.429  67.607  1.00  0.00     0.000 HD 
BRANCH  12  14
HETATM   14  C   UNL     1     -11.854  13.725  66.458  1.00  0.00    -0.407 C  
BRANCH  14  15
HETATM   15  C   UNL     1     -10.995  14.596  65.511  1.00  0.00    -0.340 C  
HETATM   16  H   UNL     1      -9.961  14.324  63.857  1.00  0.00     0.000 HD 
HETATM   17  O   UNL     1     -10.489  13.790  64.439  1.00  0.00    -0.422 OA 
BRANCH  15  18
HETATM   18  C   UNL     1      -9.887  15.366  66.199  1.00  0.00    -0.337 A  
HETATM   19  C   UNL     1     -10.090  16.718  66.529  1.00  0.00    -0.322 A  
HETATM   20  C   UNL     1      -9.084  17.473  67.143  1.00  0.00    -0.243 A  
HETATM   21  H   UNL     1      -5.991  17.095  68.203  1.00  0.00     0.000 HD 
HETATM   22  C   UNL     1      -7.868  16.846  67.445  1.00  0.00    -0.170 A  
HETATM   23  C   UNL     1      -8.666  14.762  66.532  1.00  0.00    -0.160 A  
HETATM   24  C   UNL     1      -7.661  15.500  67.153  1.00  0.00    -0.253 A  
HETATM   25  O   UNL     1      -6.816  17.520  67.999  1.00  0.00    -0.181 OA 
BRANCH  20  26
HETATM   26  N   UNL     1      -9.263  18.827  67.480  1.00  0.00    -0.282 N  
HETATM   27  H   UNL     1      -8.851  19.133  68.361  1.00  0.00     0.000 HD 
HETATM   28  O   UNL     1     -10.036  20.933  67.148  1.00  0.00    -0.361 OA 
HETATM   29  C   UNL     1      -9.928  19.779  66.758  1.00  0.00    -0.427 C  
ENDBRANCH  20  26
ENDBRANCH  15  18
ENDBRANCH  14  15
ENDBRANCH  12  14
ENDBRANCH  10  12
ENDBRANCH   9  10
ENDBRANCH   6   9
ENDBRANCH   2   3
TORSDOF 8
ENDMDL
MODEL       58
REMARK 921   NORMALIZED FREE ENERGY PREDICTED BY IDOCK:   -5.32 KCAL/MOL
REMARK 922        TOTAL FREE ENERGY PREDICTED BY IDOCK:   -9.47 KCAL/MOL
REMARK 923 INTER-LIGAND FREE ENERGY PREDICTED BY IDOCK:   -8.51 KCAL/MOL
REMARK 924 INTRA-LIGAND FREE ENERGY PREDICTED BY IDOCK:   -0.95 KCAL/MOL
REMARK 927      BINDING AFFINITY PREDICTED BY RF-SCORE:    0.00 PKD
ROOT
HETATM    1  C   UNL     1      -6.811  19.127  65.680  1.00  0.00    -0.274 C  
HETATM    2  O   UNL     1      -8.222  19.194  65.838  1.00  0.00    -0.455 OA 
ENDROOT
BRANCH   2   3
HETATM    3  C   UNL     1      -8.781  18.313  66.722  1.00  0.00    -0.272 A  
HETATM    4  C   UNL     1      -9.552  18.646  67.836  1.00  0.00    -0.340 A  
HETATM    5  C   UNL     1     -10.015  17.646  68.697  1.00  0.00    -0.367 A  
HETATM    6  C   UNL     1      -9.725  16.298  68.446  1.00  0.00    -0.222 A  
HETATM    7  C   UNL     1      -8.519  16.970  66.453  1.00  0.00    -0.318 A  
HETATM    8  C   UNL     1      -8.984  15.969  67.307  1.00  0.00    -0.211 A  
BRANCH   6   9
HETATM    9  C   UNL     1     -10.071  15.222  69.449  1.00  0.00    -0.266 C  
BRANCH   9  10
HETATM   10  C   UNL     1     -11.560  14.814  69.543  1.00  0.00    -0.304 C  
HETATM   11  C   UNL     1     -12.310  15.706  70.541  1.00  0.00    -0.443 C  
BRANCH  10  12
HETATM   12  N   UNL     1     -12.259  14.928  68.248  1.00  0.00    -0.576 NA 
HETATM   13  H   UNL     1     -11.884  15.703  67.702  1.00  0.00     0.000 HD 
BRANCH  12  14
HETATM   14  C   UNL     1     -12.245  13.682  67.463  1.00  0.00    -0.222 C  
BRANCH  14  15
HETATM   15  C   UNL     1     -11.964  13.897  65.957  1.00  0.00    -0.412 C  
HETATM   16  H   UNL     1     -13.016  14.331  64.350  1.00  0.00     0.000 HD 
HETATM   17  O   UNL     1     -13.188  14.199  65.275  1.00  0.00    -0.760 OA 
BRANCH  15  18
HETATM   18  C   UNL     1     -11.219  12.760  65.288  1.00  0.00    -0.328 A  
HETATM   19  C   UNL     1     -10.911  11.607  66.033  1.00  0.00    -0.339 A  
HETATM   20  C   UNL     1     -10.202  10.544  65.461  1.00  0.00    -0.256 A  
HETATM   21  H   UNL     1      -8.828   9.739  62.581  1.00  0.00     0.000 HD 
HETATM   22  C   UNL     1      -9.822  10.642  64.116  1.00  0.00    -0.335 A  
HETATM   23  C   UNL     1     -10.842  12.819  63.940  1.00  0.00    -0.447 A  
HETATM   24  C   UNL     1     -10.145  11.762  63.356  1.00  0.00    -0.470 A  
HETATM   25  O   UNL     1      -9.086   9.672  63.493  1.00  0.00    -0.244 OA 
BRANCH  20  26
HETATM   26  N   UNL     1      -9.880   9.382  66.186  1.00  0.00    -0.271 N  
HETATM   27  H   UNL     1      -9.474   8.613  65.653  1.00  0.00     0.000 HD 
HETATM   28  O   UNL     1      -9.745   8.111  68.059  1.00  0.00    -0.153 OA 
HETATM   29  C   UNL     1     -10.049   9.168  67.525  1.00  0.00    -0.228 C  
ENDBRANCH  20  26
ENDBRANCH  15  18
ENDBRANCH  14  15
ENDBRANCH  12  14
ENDBRANCH  10  12
ENDBRANCH   9  10
ENDBRANCH   6   9
ENDBRANCH   2   3
TORSDOF 8
ENDMDL
MODEL       59
REMARK 921   NORMALIZED FREE ENERGY PREDICTED BY IDOCK:   -5.32 KCAL/MOL
REMARK 922        TOTAL FREE ENERGY PREDICTED BY IDOCK:   -9.46 KCAL/MOL
REMARK 923 INTER-LIGAND FREE ENERGY PREDICTED BY IDOCK:   -8.23 KCAL/MOL
REMARK 924 INTRA-LIGAND FREE ENERGY PREDICTED BY IDOCK:   -1.24 KCAL/MOL
REMARK 927      BINDING AFFINITY PREDICTED BY RF-SCORE:    0.00 PKD
ROOT
HETATM    1  C   UNL     1      -8.334   9.743  64.989  1.00  0.00    -0.145 C  
HETATM    2  O   UNL     1      -9.594   9.233  65.404  1.00  0.00    -0.259 OA 
ENDROOT
BRANCH   2   3
HETATM    3  C   UNL     1      -9.967   9.496  66.693  1.00  0.00    -0.247 A  
HETATM    4  C   UNL     1     -10.084  10.759  67.273  1.00  0.00    -0.233 A  
HETATM    5  C   UNL     1     -10.416  10.886  68.625  1.00  0.00    -0.216 A  
HETATM    6  C   UNL     1     -10.649   9.750  69.413  1.00  0.00    -0.248 A  
HETATM    7  C   UNL     1     -10.231   8.365  67.467  1.00  0.00    -0.308 A  
HETATM    8  C   UNL     1     -10.567   8.488  68.815  1.00  0.00    -0.162 A  
BRANCH   6   9
HETATM    9  C   UNL     1     -10.843   9.858  70.907  1.00  0.00    -0.357 C  
BRANCH   9  10
HETATM   10  C   UNL     1     -12.190   9.348  71.471  1.00  0.00    -0.369 C  
HETATM   11  C   UNL     1     -11.964   8.255  72.523  1.00  0.00    -0.420 C  
BRANCH  10  12
HETATM   12  N   UNL     1     -12.972  10.419  72.118  1.00  0.00    -0.464 NA 
HETATM   13  H   UNL     1     -12.558  10.680  73.012  1.00  0.00     0.000 HD 
BRANCH  12  14
HETATM   14  C   UNL     1     -13.159  11.605  71.264  1.00  0.00    -0.157 C  
BRANCH  14  15
HETATM   15  C   UNL     1     -12.916  12.945  71.998  1.00  0.00    -0.280 C  
HETATM   16  H   UNL     1     -13.985  14.213  73.059  1.00  0.00     0.000 HD 
HETATM   17  O   UNL     1     -14.134  13.390  72.609  1.00  0.00    -0.767 OA 
BRANCH  15  18
HETATM   18  C   UNL     1     -12.296  14.028  71.138  1.00  0.00    -0.443 A  
HETATM   19  C   UNL     1     -12.035  13.764  69.781  1.00  0.00    -0.406 A  
HETATM   20  C   UNL     1     -11.441  14.728  68.958  1.00  0.00    -0.293 A  
HETATM   21  H   UNL     1     -10.290  17.805  69.166  1.00  0.00     0.000 HD 
HETATM   22  C   UNL     1     -11.128  15.977  69.510  1.00  0.00    -0.333 A  
HETATM   23  C   UNL     1     -11.990  15.294  71.655  1.00  0.00    -0.437 A  
HETATM   24  C   UNL     1     -11.407  16.265  70.843  1.00  0.00    -0.319 A  
HETATM   25  O   UNL     1     -10.502  16.957  68.792  1.00  0.00    -0.300 OA 
BRANCH  20  26
HETATM   26  N   UNL     1     -11.167  14.487  67.599  1.00  0.00    -0.308 N  
HETATM   27  H   UNL     1     -10.271  14.826  67.250  1.00  0.00     0.000 HD 
HETATM   28  O   UNL     1     -11.639  13.700  65.526  1.00  0.00    -0.313 OA 
HETATM   29  C   UNL     1     -11.968  13.849  66.694  1.00  0.00    -0.442 C  
ENDBRANCH  20  26
ENDBRANCH  15  18
ENDBRANCH  14  15
ENDBRANCH  12  14
ENDBRANCH  10  12
ENDBRANCH   9  10
ENDBRANCH   6   9
ENDBRANCH   2   3
TORSDOF 8
ENDMDL
MODEL       60
REMARK 921   NORMALIZED FREE ENERGY PREDICTED BY IDOCK:   -5.32 KCAL/MOL
REMARK 922        TOTAL FREE ENERGY PREDICTED BY IDOCK:   -9.46 KCAL/MOL
REMARK 923 INTER-LIGAND FREE ENERGY PREDICTED BY IDOCK:   -8.21 KCAL/MOL
REMARK 924 INTRA-LIGAND FREE ENERGY PREDICTED BY IDOCK:   -1.25 KCAL/MOL
REMARK 927      BINDING AFFINITY PREDICTED BY RF-SCORE:    0.00 PKD
ROOT
HETATM    1  C   UNL     1     -12.695  15.748  71.675  1.00  0.00    -0.453 C  
HETATM    2  O   UNL     1     -11.511  16.213  71.040  1.00  0.00    -0.405 OA 
ENDROOT
BRANCH   2   3
HETATM    3  C   UNL     1     -11.117  15.545  69.913  1.00  0.00    -0.310 A  
HETATM    4  C   UNL     1      -9.851  15.595  69.330  1.00  0.00    -0.284 A  
HETATM    5  C   UNL     1      -9.596  14.909  68.139  1.00  0.00    -0.210 A  
HETATM    6  C   UNL     1     -10.601  14.150  67.523  1.00  0.00    -0.257 A  
HETATM    7  C   UNL     1     -12.109  14.764  69.320  1.00  0.00    -0.296 A  
HETATM    8  C   UNL     1     -11.857  14.073  68.135  1.00  0.00    -0.402 A  
BRANCH   6   9
HETATM    9  C   UNL     1     -10.397  13.540  66.157  1.00  0.00    -0.296 C  
BRANCH   9  10
HETATM   10  C   UNL     1     -11.004  12.136  65.925  1.00  0.00    -0.292 C  
HETATM   11  C   UNL     1     -11.235  11.879  64.430  1.00  0.00    -0.401 C  
BRANCH  10  12
HETATM   12  N   UNL     1     -10.130  11.055  66.422  1.00  0.00    -0.221 NA 
HETATM   13  H   UNL     1      -9.222  11.425  66.702  1.00  0.00     0.000 HD 
BRANCH  12  14
HETATM   14  C   UNL     1     -10.732  10.269  67.512  1.00  0.00    -0.294 C  
BRANCH  14  15
HETATM   15  C   UNL     1     -10.229  10.669  68.920  1.00  0.00    -0.201 C  
HETATM   16  H   UNL     1      -8.618  10.360  70.008  1.00  0.00     0.000 HD 
HETATM   17  O   UNL     1      -8.926  10.114  69.143  1.00  0.00    -0.154 OA 
BRANCH  15  18
HETATM   18  C   UNL     1     -11.181  10.326  70.047  1.00  0.00    -0.376 A  
HETATM   19  C   UNL     1     -11.021   9.112  70.739  1.00  0.00    -0.332 A  
HETATM   20  C   UNL     1     -11.893   8.746  71.771  1.00  0.00    -0.344 A  
HETATM   21  H   UNL     1     -14.550   9.926  73.313  1.00  0.00     0.000 HD 
HETATM   22  C   UNL     1     -12.925   9.628  72.117  1.00  0.00    -0.406 A  
HETATM   23  C   UNL     1     -12.212  11.196  70.431  1.00  0.00    -0.457 A  
HETATM   24  C   UNL     1     -13.080  10.847  71.463  1.00  0.00    -0.503 A  
HETATM   25  O   UNL     1     -13.850   9.328  73.078  1.00  0.00    -0.270 OA 
BRANCH  20  26
HETATM   26  N   UNL     1     -11.754   7.536  72.476  1.00  0.00    -0.467 N  
HETATM   27  H   UNL     1     -11.834   7.591  73.491  1.00  0.00     0.000 HD 
HETATM   28  O   UNL     1     -11.408   5.303  72.658  1.00  0.00    -0.267 OA 
HETATM   29  C   UNL     1     -11.524   6.295  71.952  1.00  0.00    -0.309 C  
ENDBRANCH  20  26
ENDBRANCH  15  18
ENDBRANCH  14  15
ENDBRANCH  12  14
ENDBRANCH  10  12
ENDBRANCH   9  10
ENDBRANCH   6   9
ENDBRANCH   2   3
TORSDOF 8
ENDMDL
MODEL       61
REMARK 921   NORMALIZED FREE ENERGY PREDICTED BY IDOCK:   -5.31 KCAL/MOL
REMARK 922        TOTAL FREE ENERGY PREDICTED BY IDOCK:   -9.46 KCAL/MOL
REMARK 923 INTER-LIGAND FREE ENERGY PREDICTED BY IDOCK:   -8.77 KCAL/MOL
REMARK 924 INTRA-LIGAND FREE ENERGY PREDICTED BY IDOCK:   -0.69 KCAL/MOL
REMARK 927      BINDING AFFINITY PREDICTED BY RF-SCORE:    0.00 PKD
ROOT
HETATM    1  C   UNL     1      -8.604   4.601  67.661  1.00  0.00    -0.103 C  
HETATM    2  O   UNL     1      -9.968   4.779  68.020  1.00  0.00    -0.146 OA 
ENDROOT
BRANCH   2   3
HETATM    3  C   UNL     1     -10.292   5.962  68.625  1.00  0.00    -0.215 A  
HETATM    4  C   UNL     1     -10.204   7.229  68.051  1.00  0.00    -0.225 A  
HETATM    5  C   UNL     1     -10.511   8.368  68.804  1.00  0.00    -0.202 A  
HETATM    6  C   UNL     1     -10.924   8.250  70.138  1.00  0.00    -0.222 A  
HETATM    7  C   UNL     1     -10.735   5.841  69.943  1.00  0.00    -0.412 A  
HETATM    8  C   UNL     1     -11.047   6.974  70.695  1.00  0.00    -0.307 A  
BRANCH   6   9
HETATM    9  C   UNL     1     -11.097   9.468  71.015  1.00  0.00    -0.433 C  
BRANCH   9  10
HETATM   10  C   UNL     1     -12.466  10.186  70.944  1.00  0.00    -0.360 C  
HETATM   11  C   UNL     1     -13.345   9.807  72.143  1.00  0.00    -0.527 C  
BRANCH  10  12
HETATM   12  N   UNL     1     -12.332  11.656  70.950  1.00  0.00    -0.371 NA 
HETATM   13  H   UNL     1     -11.651  11.954  71.647  1.00  0.00     0.000 HD 
BRANCH  12  14
HETATM   14  C   UNL     1     -12.007  12.220  69.629  1.00  0.00    -0.279 C  
BRANCH  14  15
HETATM   15  C   UNL     1     -11.757  13.747  69.647  1.00  0.00    -0.318 C  
HETATM   16  H   UNL     1     -12.656  15.337  70.381  1.00  0.00     0.000 HD 
HETATM   17  O   UNL     1     -12.809  14.400  70.370  1.00  0.00    -0.350 OA 
BRANCH  15  18
HETATM   18  C   UNL     1     -11.552  14.366  68.280  1.00  0.00    -0.359 A  
HETATM   19  C   UNL     1     -12.127  13.751  67.152  1.00  0.00    -0.416 A  
HETATM   20  C   UNL     1     -11.942  14.276  65.868  1.00  0.00    -0.391 A  
HETATM   21  H   UNL     1     -10.401  16.793  64.412  1.00  0.00     0.000 HD 
HETATM   22  C   UNL     1     -11.185  15.447  65.728  1.00  0.00    -0.196 A  
HETATM   23  C   UNL     1     -10.817  15.547  68.108  1.00  0.00    -0.296 A  
HETATM   24  C   UNL     1     -10.635  16.085  66.836  1.00  0.00    -0.300 A  
HETATM   25  O   UNL     1     -10.914  15.999  64.508  1.00  0.00    -0.592 OA 
BRANCH  20  26
HETATM   26  N   UNL     1     -12.504  13.678  64.726  1.00  0.00    -0.587 N  
HETATM   27  H   UNL     1     -13.032  14.291  64.106  1.00  0.00     0.000 HD 
HETATM   28  O   UNL     1     -12.960  11.942  63.340  1.00  0.00    -0.730 OA 
HETATM   29  C   UNL     1     -12.422  12.365  64.353  1.00  0.00    -0.433 C  
ENDBRANCH  20  26
ENDBRANCH  15  18
ENDBRANCH  14  15
ENDBRANCH  12  14
ENDBRANCH  10  12
ENDBRANCH   9  10
ENDBRANCH   6   9
ENDBRANCH   2   3
TORSDOF 8
ENDMDL
MODEL       62
REMARK 921   NORMALIZED FREE ENERGY PREDICTED BY IDOCK:   -5.29 KCAL/MOL
REMARK 922        TOTAL FREE ENERGY PREDICTED BY IDOCK:   -9.42 KCAL/MOL
REMARK 923 INTER-LIGAND FREE ENERGY PREDICTED BY IDOCK:   -8.55 KCAL/MOL
REMARK 924 INTRA-LIGAND FREE ENERGY PREDICTED BY IDOCK:   -0.87 KCAL/MOL
REMARK 927      BINDING AFFINITY PREDICTED BY RF-SCORE:    0.00 PKD
ROOT
HETATM    1  C   UNL     1      -8.500   5.036  68.178  1.00  0.00    -0.099 C  
HETATM    2  O   UNL     1      -9.803   4.939  68.737  1.00  0.00    -0.159 OA 
ENDROOT
BRANCH   2   3
HETATM    3  C   UNL     1     -10.237   6.009  69.470  1.00  0.00    -0.208 A  
HETATM    4  C   UNL     1     -11.444   6.094  70.163  1.00  0.00    -0.365 A  
HETATM    5  C   UNL     1     -11.795   7.275  70.825  1.00  0.00    -0.324 A  
HETATM    6  C   UNL     1     -10.935   8.382  70.813  1.00  0.00    -0.276 A  
HETATM    7  C   UNL     1      -9.365   7.098  69.485  1.00  0.00    -0.148 A  
HETATM    8  C   UNL     1      -9.710   8.276  70.148  1.00  0.00    -0.176 A  
BRANCH   6   9
HETATM    9  C   UNL     1     -11.366   9.716  71.377  1.00  0.00    -0.444 C  
BRANCH   9  10
HETATM   10  C   UNL     1     -12.746  10.248  70.924  1.00  0.00    -0.370 C  
HETATM   11  C   UNL     1     -13.125  11.516  71.699  1.00  0.00    -0.478 C  
BRANCH  10  12
HETATM   12  N   UNL     1     -12.774  10.591  69.488  1.00  0.00    -0.640 NA 
HETATM   13  H   UNL     1     -13.686  10.962  69.223  1.00  0.00     0.000 HD 
BRANCH  12  14
HETATM   14  C   UNL     1     -11.699  11.512  69.085  1.00  0.00    -0.329 C  
BRANCH  14  15
HETATM   15  C   UNL     1     -12.128  12.540  68.011  1.00  0.00    -0.063 C  
HETATM   16  H   UNL     1     -12.009  12.700  66.052  1.00  0.00     0.000 HD 
HETATM   17  O   UNL     1     -11.745  12.070  66.712  1.00  0.00    -0.523 OA 
BRANCH  15  18
HETATM   18  C   UNL     1     -11.637  13.951  68.260  1.00  0.00    -0.372 A  
HETATM   19  C   UNL     1     -11.782  14.514  69.541  1.00  0.00    -0.361 A  
HETATM   20  C   UNL     1     -11.365  15.823  69.807  1.00  0.00    -0.339 A  
HETATM   21  H   UNL     1      -9.986  18.361  68.229  1.00  0.00     0.000 HD 
HETATM   22  C   UNL     1     -10.776  16.561  68.772  1.00  0.00    -0.339 A  
HETATM   23  C   UNL     1     -11.026  14.708  67.250  1.00  0.00    -0.317 A  
HETATM   24  C   UNL     1     -10.598  16.008  67.506  1.00  0.00    -0.313 A  
HETATM   25  O   UNL     1     -10.386  17.861  68.932  1.00  0.00    -0.367 OA 
BRANCH  20  26
HETATM   26  N   UNL     1     -11.502  16.409  71.079  1.00  0.00    -0.556 N  
HETATM   27  H   UNL     1     -11.298  17.406  71.143  1.00  0.00     0.000 HD 
HETATM   28  O   UNL     1     -11.956  16.393  73.301  1.00  0.00    -0.485 OA 
HETATM   29  C   UNL     1     -11.878  15.791  72.239  1.00  0.00    -0.498 C  
ENDBRANCH  20  26
ENDBRANCH  15  18
ENDBRANCH  14  15
ENDBRANCH  12  14
ENDBRANCH  10  12
ENDBRANCH   9  10
ENDBRANCH   6   9
ENDBRANCH   2   3
TORSDOF 8
ENDMDL
MODEL       63
REMARK 921   NORMALIZED FREE ENERGY PREDICTED BY IDOCK:   -5.29 KCAL/MOL
REMARK 922        TOTAL FREE ENERGY PREDICTED BY IDOCK:   -9.42 KCAL/MOL
REMARK 923 INTER-LIGAND FREE ENERGY PREDICTED BY IDOCK:   -7.48 KCAL/MOL
REMARK 924 INTRA-LIGAND FREE ENERGY PREDICTED BY IDOCK:   -1.94 KCAL/MOL
REMARK 927      BINDING AFFINITY PREDICTED BY RF-SCORE:    0.00 PKD
ROOT
HETATM    1  C   UNL     1     -11.735  16.146  64.224  1.00  0.00     0.003 C  
HETATM    2  O   UNL     1     -12.478  14.940  64.103  1.00  0.00    -0.763 OA 
ENDROOT
BRANCH   2   3
HETATM    3  C   UNL     1     -12.107  13.908  64.921  1.00  0.00    -0.414 A  
HETATM    4  C   UNL     1     -12.328  13.829  66.295  1.00  0.00    -0.479 A  
HETATM    5  C   UNL     1     -11.840  12.741  67.027  1.00  0.00    -0.428 A  
HETATM    6  C   UNL     1     -11.138  11.710  66.389  1.00  0.00    -0.347 A  
HETATM    7  C   UNL     1     -11.436  12.867  64.279  1.00  0.00    -0.427 A  
HETATM    8  C   UNL     1     -10.953  11.777  65.004  1.00  0.00    -0.357 A  
BRANCH   6   9
HETATM    9  C   UNL     1     -10.461  10.615  67.180  1.00  0.00    -0.295 C  
BRANCH   9  10
HETATM   10  C   UNL     1     -10.010  10.973  68.615  1.00  0.00    -0.199 C  
HETATM   11  C   UNL     1     -10.542   9.951  69.628  1.00  0.00    -0.273 C  
BRANCH  10  12
HETATM   12  N   UNL     1      -8.540  10.998  68.754  1.00  0.00    -0.192 NA 
HETATM   13  H   UNL     1      -8.096  10.505  67.980  1.00  0.00     0.000 HD 
BRANCH  12  14
HETATM   14  C   UNL     1      -7.988  12.356  68.895  1.00  0.00     0.150 C  
BRANCH  14  15
HETATM   15  C   UNL     1      -7.944  13.151  67.569  1.00  0.00    -0.179 C  
HETATM   16  H   UNL     1      -6.558  13.785  66.322  1.00  0.00     0.000 HD 
HETATM   17  O   UNL     1      -6.585  13.297  67.137  1.00  0.00    -0.194 OA 
BRANCH  15  18
HETATM   18  C   UNL     1      -8.661  14.485  67.612  1.00  0.00    -0.184 A  
HETATM   19  C   UNL     1      -9.515  14.772  68.692  1.00  0.00    -0.213 A  
HETATM   20  C   UNL     1     -10.216  15.982  68.759  1.00  0.00    -0.225 A  
HETATM   21  H   UNL     1     -10.589  18.737  66.998  1.00  0.00     0.000 HD 
HETATM   22  C   UNL     1     -10.032  16.918  67.732  1.00  0.00    -0.278 A  
HETATM   23  C   UNL     1      -8.483  15.450  66.611  1.00  0.00    -0.296 A  
HETATM   24  C   UNL     1      -9.167  16.662  66.672  1.00  0.00    -0.277 A  
HETATM   25  O   UNL     1     -10.714  18.102  67.694  1.00  0.00    -0.416 OA 
BRANCH  20  26
HETATM   26  N   UNL     1     -11.078  16.291  69.827  1.00  0.00    -0.341 N  
HETATM   27  H   UNL     1     -10.894  17.164  70.320  1.00  0.00     0.000 HD 
HETATM   28  O   UNL     1     -12.819  15.906  71.228  1.00  0.00    -0.471 OA 
HETATM   29  C   UNL     1     -12.135  15.551  70.278  1.00  0.00    -0.386 C  
ENDBRANCH  20  26
ENDBRANCH  15  18
ENDBRANCH  14  15
ENDBRANCH  12  14
ENDBRANCH  10  12
ENDBRANCH   9  10
ENDBRANCH   6   9
ENDBRANCH   2   3
TORSDOF 8
ENDMDL
MODEL       64
REMARK 921   NORMALIZED FREE ENERGY PREDICTED BY IDOCK:   -5.29 KCAL/MOL
REMARK 922        TOTAL FREE ENERGY PREDICTED BY IDOCK:   -9.42 KCAL/MOL
REMARK 923 INTER-LIGAND FREE ENERGY PREDICTED BY IDOCK:   -8.29 KCAL/MOL
REMARK 924 INTRA-LIGAND FREE ENERGY PREDICTED BY IDOCK:   -1.13 KCAL/MOL
REMARK 927      BINDING AFFINITY PREDICTED BY RF-SCORE:    0.00 PKD
ROOT
HETATM    1  C   UNL     1      -7.252  16.811  69.196  1.00  0.00    -0.214 C  
HETATM    2  O   UNL     1      -8.122  17.824  68.709  1.00  0.00    -0.282 OA 
ENDROOT
BRANCH   2   3
HETATM    3  C   UNL     1      -8.908  17.494  67.639  1.00  0.00    -0.228 A  
HETATM    4  C   UNL     1      -9.855  18.317  67.032  1.00  0.00    -0.331 A  
HETATM    5  C   UNL     1     -10.639  17.833  65.979  1.00  0.00    -0.229 A  
HETATM    6  C   UNL     1     -10.473  16.523  65.510  1.00  0.00    -0.320 A  
HETATM    7  C   UNL     1      -8.718  16.200  67.153  1.00  0.00    -0.216 A  
HETATM    8  C   UNL     1      -9.494  15.716  66.099  1.00  0.00    -0.376 A  
BRANCH   6   9
HETATM    9  C   UNL     1     -11.417  15.928  64.492  1.00  0.00    -0.287 C  
BRANCH   9  10
HETATM   10  C   UNL     1     -11.803  14.444  64.687  1.00  0.00    -0.451 C  
HETATM   11  C   UNL     1     -13.023  14.311  65.608  1.00  0.00    -0.210 C  
BRANCH  10  12
HETATM   12  N   UNL     1     -12.146  13.779  63.413  1.00  0.00    -0.983 NA 
HETATM   13  H   UNL     1     -11.764  14.295  62.622  1.00  0.00     0.000 HD 
BRANCH  12  14
HETATM   14  C   UNL     1     -11.735  12.365  63.362  1.00  0.00    -0.472 C  
BRANCH  14  15
HETATM   15  C   UNL     1     -10.302  12.114  63.887  1.00  0.00    -0.415 C  
HETATM   16  H   UNL     1      -8.547  11.675  63.110  1.00  0.00     0.000 HD 
HETATM   17  O   UNL     1      -9.427  11.829  62.788  1.00  0.00    -0.347 OA 
BRANCH  15  18
HETATM   18  C   UNL     1     -10.206  11.053  64.965  1.00  0.00    -0.360 A  
HETATM   19  C   UNL     1     -10.975  11.189  66.135  1.00  0.00    -0.203 A  
HETATM   20  C   UNL     1     -10.897  10.245  67.165  1.00  0.00    -0.212 A  
HETATM   21  H   UNL     1      -9.299   7.454  67.863  1.00  0.00     0.000 HD 
HETATM   22  C   UNL     1     -10.048   9.143  67.000  1.00  0.00    -0.249 A  
HETATM   23  C   UNL     1      -9.380   9.929  64.821  1.00  0.00    -0.339 A  
HETATM   24  C   UNL     1      -9.302   8.978  65.836  1.00  0.00    -0.306 A  
HETATM   25  O   UNL     1      -9.875   8.202  67.975  1.00  0.00    -0.157 OA 
BRANCH  20  26
HETATM   26  N   UNL     1     -11.655  10.360  68.346  1.00  0.00    -0.513 N  
HETATM   27  H   UNL     1     -12.621  10.039  68.297  1.00  0.00     0.000 HD 
HETATM   28  O   UNL     1     -11.986  10.922  70.517  1.00  0.00    -0.313 OA 
HETATM   29  C   UNL     1     -11.240  10.855  69.550  1.00  0.00    -0.277 C  
ENDBRANCH  20  26
ENDBRANCH  15  18
ENDBRANCH  14  15
ENDBRANCH  12  14
ENDBRANCH  10  12
ENDBRANCH   9  10
ENDBRANCH   6   9
ENDBRANCH   2   3
TORSDOF 8
ENDMDL
MODEL       65
REMARK 921   NORMALIZED FREE ENERGY PREDICTED BY IDOCK:   -5.27 KCAL/MOL
REMARK 922        TOTAL FREE ENERGY PREDICTED BY IDOCK:   -9.40 KCAL/MOL
REMARK 923 INTER-LIGAND FREE ENERGY PREDICTED BY IDOCK:   -7.95 KCAL/MOL
REMARK 924 INTRA-LIGAND FREE ENERGY PREDICTED BY IDOCK:   -1.45 KCAL/MOL
REMARK 927      BINDING AFFINITY PREDICTED BY RF-SCORE:    0.00 PKD
ROOT
HETATM    1  C   UNL     1      -9.886   7.171  69.401  1.00  0.00    -0.161 C  
HETATM    2  O   UNL     1     -10.487   8.302  68.782  1.00  0.00    -0.214 OA 
ENDROOT
BRANCH   2   3
HETATM    3  C   UNL     1     -11.079   9.212  69.613  1.00  0.00    -0.087 A  
HETATM    4  C   UNL     1     -11.520   8.971  70.914  1.00  0.00    -0.347 A  
HETATM    5  C   UNL     1     -12.168   9.978  71.637  1.00  0.00    -0.456 A  
HETATM    6  C   UNL     1     -12.368  11.245  71.073  1.00  0.00    -0.472 A  
HETATM    7  C   UNL     1     -11.248  10.482  69.062  1.00  0.00    -0.316 A  
HETATM    8  C   UNL     1     -11.889  11.491  69.782  1.00  0.00    -0.429 A  
BRANCH   6   9
HETATM    9  C   UNL     1     -13.209  12.289  71.769  1.00  0.00    -0.428 C  
BRANCH   9  10
HETATM   10  C   UNL     1     -13.206  13.707  71.152  1.00  0.00    -0.184 C  
HETATM   11  C   UNL     1     -14.270  14.594  71.812  1.00  0.00    -0.616 C  
BRANCH  10  12
HETATM   12  N   UNL     1     -11.908  14.391  71.315  1.00  0.00    -0.469 NA 
HETATM   13  H   UNL     1     -11.145  13.805  70.976  1.00  0.00     0.000 HD 
BRANCH  12  14
HETATM   14  C   UNL     1     -11.863  15.721  70.683  1.00  0.00    -0.385 C  
BRANCH  14  15
HETATM   15  C   UNL     1     -10.672  15.910  69.714  1.00  0.00    -0.324 C  
HETATM   16  H   UNL     1      -9.897  17.387  68.667  1.00  0.00     0.000 HD 
HETATM   17  O   UNL     1     -10.628  17.270  69.262  1.00  0.00    -0.319 OA 
BRANCH  15  18
HETATM   18  C   UNL     1     -10.646  14.937  68.554  1.00  0.00    -0.245 A  
HETATM   19  C   UNL     1      -9.435  14.307  68.211  1.00  0.00    -0.209 A  
HETATM   20  C   UNL     1      -9.362  13.419  67.131  1.00  0.00    -0.240 A  
HETATM   21  H   UNL     1     -11.329  12.155  64.816  1.00  0.00     0.000 HD 
HETATM   22  C   UNL     1     -10.530  13.152  66.406  1.00  0.00    -0.282 A  
HETATM   23  C   UNL     1     -11.801  14.632  67.821  1.00  0.00    -0.359 A  
HETATM   24  C   UNL     1     -11.742  13.743  66.750  1.00  0.00    -0.420 A  
HETATM   25  O   UNL     1     -10.537  12.337  65.308  1.00  0.00    -0.270 OA 
BRANCH  20  26
HETATM   26  N   UNL     1      -8.162  12.780  66.767  1.00  0.00    -0.406 N  
HETATM   27  H   UNL     1      -8.227  12.083  66.026  1.00  0.00     0.000 HD 
HETATM   28  O   UNL     1      -5.937  12.368  66.914  1.00  0.00    -0.273 OA 
HETATM   29  C   UNL     1      -6.919  12.989  67.296  1.00  0.00    -0.035 C  
ENDBRANCH  20  26
ENDBRANCH  15  18
ENDBRANCH  14  15
ENDBRANCH  12  14
ENDBRANCH  10  12
ENDBRANCH   9  10
ENDBRANCH   6   9
ENDBRANCH   2   3
TORSDOF 8
ENDMDL
MODEL       66
REMARK 921   NORMALIZED FREE ENERGY PREDICTED BY IDOCK:   -5.27 KCAL/MOL
REMARK 922        TOTAL FREE ENERGY PREDICTED BY IDOCK:   -9.40 KCAL/MOL
REMARK 923 INTER-LIGAND FREE ENERGY PREDICTED BY IDOCK:   -8.00 KCAL/MOL
REMARK 924 INTRA-LIGAND FREE ENERGY PREDICTED BY IDOCK:   -1.39 KCAL/MOL
REMARK 927      BINDING AFFINITY PREDICTED BY RF-SCORE:    0.00 PKD
ROOT
HETATM    1  C   UNL     1     -12.678  14.843  72.853  1.00  0.00    -0.435 C  
HETATM    2  O   UNL     1     -11.505  15.360  72.240  1.00  0.00    -0.446 OA 
ENDROOT
BRANCH   2   3
HETATM    3  C   UNL     1     -11.429  15.258  70.879  1.00  0.00    -0.339 A  
HETATM    4  C   UNL     1     -10.863  16.196  70.016  1.00  0.00    -0.349 A  
HETATM    5  C   UNL     1     -10.906  15.998  68.632  1.00  0.00    -0.301 A  
HETATM    6  C   UNL     1     -11.504  14.849  68.094  1.00  0.00    -0.348 A  
HETATM    7  C   UNL     1     -11.995  14.099  70.347  1.00  0.00    -0.400 A  
HETATM    8  C   UNL     1     -12.035  13.895  68.968  1.00  0.00    -0.402 A  
BRANCH   6   9
HETATM    9  C   UNL     1     -11.709  14.696  66.606  1.00  0.00    -0.345 C  
BRANCH   9  10
HETATM   10  C   UNL     1     -11.488  13.283  66.016  1.00  0.00    -0.330 C  
HETATM   11  C   UNL     1     -12.402  13.045  64.807  1.00  0.00    -0.490 C  
BRANCH  10  12
HETATM   12  N   UNL     1     -10.100  13.074  65.559  1.00  0.00    -0.349 NA 
HETATM   13  H   UNL     1      -9.668  13.959  65.296  1.00  0.00     0.000 HD 
BRANCH  12  14
HETATM   14  C   UNL     1      -9.263  12.357  66.537  1.00  0.00    -0.215 C  
BRANCH  14  15
HETATM   15  C   UNL     1      -9.192  10.830  66.296  1.00  0.00    -0.173 C  
HETATM   16  H   UNL     1      -9.792   9.569  64.908  1.00  0.00     0.000 HD 
HETATM   17  O   UNL     1      -9.836  10.507  65.056  1.00  0.00    -0.258 OA 
BRANCH  15  18
HETATM   18  C   UNL     1      -9.726   9.989  67.437  1.00  0.00    -0.196 A  
HETATM   19  C   UNL     1     -10.314  10.625  68.545  1.00  0.00    -0.202 A  
HETATM   20  C   UNL     1     -10.797   9.886  69.632  1.00  0.00    -0.253 A  
HETATM   21  H   UNL     1     -11.038   6.747  70.591  1.00  0.00     0.000 HD 
HETATM   22  C   UNL     1     -10.701   8.489  69.585  1.00  0.00    -0.197 A  
HETATM   23  C   UNL     1      -9.663   8.589  67.412  1.00  0.00    -0.222 A  
HETATM   24  C   UNL     1     -10.149   7.842  68.483  1.00  0.00    -0.216 A  
HETATM   25  O   UNL     1     -11.102   7.695  70.622  1.00  0.00    -0.250 OA 
BRANCH  20  26
HETATM   26  N   UNL     1     -11.387  10.500  70.752  1.00  0.00    -0.382 N  
HETATM   27  H   UNL     1     -10.747  10.893  71.442  1.00  0.00     0.000 HD 
HETATM   28  O   UNL     1     -13.132  11.173  72.034  1.00  0.00    -0.492 OA 
HETATM   29  C   UNL     1     -12.721  10.628  71.019  1.00  0.00    -0.415 C  
ENDBRANCH  20  26
ENDBRANCH  15  18
ENDBRANCH  14  15
ENDBRANCH  12  14
ENDBRANCH  10  12
ENDBRANCH   9  10
ENDBRANCH   6   9
ENDBRANCH   2   3
TORSDOF 8
ENDMDL
MODEL       67
REMARK 921   NORMALIZED FREE ENERGY PREDICTED BY IDOCK:   -5.27 KCAL/MOL
REMARK 922        TOTAL FREE ENERGY PREDICTED BY IDOCK:   -9.39 KCAL/MOL
REMARK 923 INTER-LIGAND FREE ENERGY PREDICTED BY IDOCK:   -7.91 KCAL/MOL
REMARK 924 INTRA-LIGAND FREE ENERGY PREDICTED BY IDOCK:   -1.48 KCAL/MOL
REMARK 927      BINDING AFFINITY PREDICTED BY RF-SCORE:    0.00 PKD
ROOT
HETATM    1  C   UNL     1      -8.817  19.733  66.718  1.00  0.00    -0.347 C  
HETATM    2  O   UNL     1      -9.091  18.640  65.852  1.00  0.00    -0.467 OA 
ENDROOT
BRANCH   2   3
HETATM    3  C   UNL     1      -8.667  17.408  66.268  1.00  0.00    -0.207 A  
HETATM    4  C   UNL     1      -9.258  16.186  65.949  1.00  0.00    -0.296 A  
HETATM    5  C   UNL     1      -8.759  14.998  66.493  1.00  0.00    -0.244 A  
HETATM    6  C   UNL     1      -7.651  15.017  67.351  1.00  0.00    -0.233 A  
HETATM    7  C   UNL     1      -7.545  17.426  67.096  1.00  0.00    -0.226 A  
HETATM    8  C   UNL     1      -7.040  16.242  67.636  1.00  0.00    -0.164 A  
BRANCH   6   9
HETATM    9  C   UNL     1      -7.201  13.771  68.078  1.00  0.00    -0.137 C  
BRANCH   9  10
HETATM   10  C   UNL     1      -7.924  12.454  67.713  1.00  0.00    -0.156 C  
HETATM   11  C   UNL     1      -6.983  11.503  66.962  1.00  0.00    -0.145 C  
BRANCH  10  12
HETATM   12  N   UNL     1      -8.415  11.731  68.903  1.00  0.00    -0.368 NA 
HETATM   13  H   UNL     1      -8.483  12.358  69.704  1.00  0.00     0.000 HD 
BRANCH  12  14
HETATM   14  C   UNL     1      -9.691  11.031  68.678  1.00  0.00    -0.195 C  
BRANCH  14  15
HETATM   15  C   UNL     1     -10.919  11.972  68.640  1.00  0.00    -0.240 C  
HETATM   16  H   UNL     1     -12.759  11.957  69.341  1.00  0.00     0.000 HD 
HETATM   17  O   UNL     1     -12.005  11.379  69.365  1.00  0.00    -0.315 OA 
BRANCH  15  18
HETATM   18  C   UNL     1     -11.343  12.394  67.248  1.00  0.00    -0.384 A  
HETATM   19  C   UNL     1     -10.903  11.650  66.138  1.00  0.00    -0.343 A  
HETATM   20  C   UNL     1     -11.251  12.020  64.834  1.00  0.00    -0.320 A  
HETATM   21  H   UNL     1     -12.973  14.363  63.293  1.00  0.00     0.000 HD 
HETATM   22  C   UNL     1     -12.070  13.142  64.654  1.00  0.00    -0.408 A  
HETATM   23  C   UNL     1     -12.178  13.500  67.036  1.00  0.00    -0.351 A  
HETATM   24  C   UNL     1     -12.539  13.872  65.743  1.00  0.00    -0.533 A  
HETATM   25  O   UNL     1     -12.417  13.601  63.415  1.00  0.00    -0.784 OA 
BRANCH  20  26
HETATM   26  N   UNL     1     -10.820  11.293  63.709  1.00  0.00    -0.496 N  
HETATM   27  H   UNL     1     -11.380  11.394  62.863  1.00  0.00     0.000 HD 
HETATM   28  O   UNL     1      -9.454   9.868  62.594  1.00  0.00    -0.275 OA 
HETATM   29  C   UNL     1      -9.736  10.466  63.623  1.00  0.00    -0.277 C  
ENDBRANCH  20  26
ENDBRANCH  15  18
ENDBRANCH  14  15
ENDBRANCH  12  14
ENDBRANCH  10  12
ENDBRANCH   9  10
ENDBRANCH   6   9
ENDBRANCH   2   3
TORSDOF 8
ENDMDL
MODEL       68
REMARK 921   NORMALIZED FREE ENERGY PREDICTED BY IDOCK:   -5.26 KCAL/MOL
REMARK 922        TOTAL FREE ENERGY PREDICTED BY IDOCK:   -9.38 KCAL/MOL
REMARK 923 INTER-LIGAND FREE ENERGY PREDICTED BY IDOCK:   -7.69 KCAL/MOL
REMARK 924 INTRA-LIGAND FREE ENERGY PREDICTED BY IDOCK:   -1.69 KCAL/MOL
REMARK 927      BINDING AFFINITY PREDICTED BY RF-SCORE:    0.00 PKD
ROOT
HETATM    1  C   UNL     1     -11.572  15.786  69.963  1.00  0.00    -0.357 C  
HETATM    2  O   UNL     1     -12.600  15.155  70.714  1.00  0.00    -0.337 OA 
ENDROOT
BRANCH   2   3
HETATM    3  C   UNL     1     -12.548  13.791  70.798  1.00  0.00    -0.340 A  
HETATM    4  C   UNL     1     -11.849  12.942  69.941  1.00  0.00    -0.373 A  
HETATM    5  C   UNL     1     -11.929  11.555  70.102  1.00  0.00    -0.452 A  
HETATM    6  C   UNL     1     -12.700  11.000  71.133  1.00  0.00    -0.521 A  
HETATM    7  C   UNL     1     -13.290  13.241  71.844  1.00  0.00    -0.540 A  
HETATM    8  C   UNL     1     -13.368  11.858  72.012  1.00  0.00    -0.425 A  
BRANCH   6   9
HETATM    9  C   UNL     1     -12.934   9.510  71.222  1.00  0.00    -0.407 C  
BRANCH   9  10
HETATM   10  C   UNL     1     -11.677   8.610  71.245  1.00  0.00    -0.289 C  
HETATM   11  C   UNL     1     -11.417   8.069  72.657  1.00  0.00    -0.465 C  
BRANCH  10  12
HETATM   12  N   UNL     1     -11.802   7.443  70.349  1.00  0.00    -0.510 NA 
HETATM   13  H   UNL     1     -12.620   7.536  69.747  1.00  0.00     0.000 HD 
BRANCH  12  14
HETATM   14  C   UNL     1     -10.592   7.186  69.550  1.00  0.00    -0.234 C  
BRANCH  14  15
HETATM   15  C   UNL     1     -10.695   7.679  68.087  1.00  0.00    -0.066 C  
HETATM   16  H   UNL     1     -10.138   7.032  66.313  1.00  0.00     0.000 HD 
HETATM   17  O   UNL     1     -10.075   6.729  67.212  1.00  0.00    -0.151 OA 
BRANCH  15  18
HETATM   18  C   UNL     1     -10.163   9.079  67.858  1.00  0.00    -0.272 A  
HETATM   19  C   UNL     1      -9.153   9.578  68.701  1.00  0.00    -0.132 A  
HETATM   20  C   UNL     1      -8.651  10.874  68.539  1.00  0.00    -0.152 A  
HETATM   21  H   UNL     1      -9.110  13.493  66.599  1.00  0.00     0.000 HD 
HETATM   22  C   UNL     1      -9.162  11.664  67.501  1.00  0.00    -0.172 A  
HETATM   23  C   UNL     1     -10.640   9.887  66.817  1.00  0.00    -0.214 A  
HETATM   24  C   UNL     1     -10.140  11.176  66.640  1.00  0.00    -0.256 A  
HETATM   25  O   UNL     1      -8.764  12.957  67.303  1.00  0.00    -0.188 OA 
BRANCH  20  26
HETATM   26  N   UNL     1      -7.643  11.396  69.371  1.00  0.00    -0.348 N  
HETATM   27  H   UNL     1      -7.542  12.411  69.379  1.00  0.00     0.000 HD 
HETATM   28  O   UNL     1      -5.930  11.248  70.849  1.00  0.00    -0.348 OA 
HETATM   29  C   UNL     1      -6.783  10.695  70.169  1.00  0.00    -0.140 C  
ENDBRANCH  20  26
ENDBRANCH  15  18
ENDBRANCH  14  15
ENDBRANCH  12  14
ENDBRANCH  10  12
ENDBRANCH   9  10
ENDBRANCH   6   9
ENDBRANCH   2   3
TORSDOF 8
ENDMDL
MODEL       69
REMARK 921   NORMALIZED FREE ENERGY PREDICTED BY IDOCK:   -5.25 KCAL/MOL
REMARK 922        TOTAL FREE ENERGY PREDICTED BY IDOCK:   -9.37 KCAL/MOL
REMARK 923 INTER-LIGAND FREE ENERGY PREDICTED BY IDOCK:   -8.13 KCAL/MOL
REMARK 924 INTRA-LIGAND FREE ENERGY PREDICTED BY IDOCK:   -1.23 KCAL/MOL
REMARK 927      BINDING AFFINITY PREDICTED BY RF-SCORE:    0.00 PKD
ROOT
HETATM    1  C   UNL     1     -11.022  15.652  70.360  1.00  0.00    -0.348 C  
HETATM    2  O   UNL     1     -12.342  15.146  70.219  1.00  0.00    -0.321 OA 
ENDROOT
BRANCH   2   3
HETATM    3  C   UNL     1     -12.541  13.842  70.581  1.00  0.00    -0.335 A  
HETATM    4  C   UNL     1     -13.255  13.399  71.694  1.00  0.00    -0.449 A  
HETATM    5  C   UNL     1     -13.331  12.033  71.985  1.00  0.00    -0.447 A  
HETATM    6  C   UNL     1     -12.703  11.091  71.158  1.00  0.00    -0.521 A  
HETATM    7  C   UNL     1     -11.943  12.905  69.739  1.00  0.00    -0.365 A  
HETATM    8  C   UNL     1     -12.021  11.541  70.023  1.00  0.00    -0.435 A  
BRANCH   6   9
HETATM    9  C   UNL     1     -12.631   9.633  71.544  1.00  0.00    -0.483 C  
BRANCH   9  10
HETATM   10  C   UNL     1     -11.373   8.856  71.090  1.00  0.00    -0.291 C  
HETATM   11  C   UNL     1     -10.467   8.536  72.285  1.00  0.00    -0.402 C  
BRANCH  10  12
HETATM   12  N   UNL     1     -11.707   7.572  70.442  1.00  0.00    -0.478 NA 
HETATM   13  H   UNL     1     -12.500   7.681  69.810  1.00  0.00     0.000 HD 
BRANCH  12  14
HETATM   14  C   UNL     1     -10.566   6.954  69.745  1.00  0.00    -0.233 C  
BRANCH  14  15
HETATM   15  C   UNL     1     -10.818   6.703  68.239  1.00  0.00    -0.254 C  
HETATM   16  H   UNL     1     -10.540   5.228  66.965  1.00  0.00     0.000 HD 
HETATM   17  O   UNL     1     -10.385   5.382  67.890  1.00  0.00    -0.188 OA 
BRANCH  15  18
HETATM   18  C   UNL     1     -10.218   7.748  67.320  1.00  0.00    -0.343 A  
HETATM   19  C   UNL     1     -10.627   9.088  67.442  1.00  0.00    -0.309 A  
HETATM   20  C   UNL     1     -10.116  10.080  66.597  1.00  0.00    -0.227 A  
HETATM   21  H   UNL     1      -8.011  10.360  64.082  1.00  0.00     0.000 HD 
HETATM   22  C   UNL     1      -9.167   9.714  65.633  1.00  0.00    -0.215 A  
HETATM   23  C   UNL     1      -9.253   7.417  66.359  1.00  0.00    -0.203 A  
HETATM   24  C   UNL     1      -8.730   8.397  65.519  1.00  0.00    -0.196 A  
HETATM   25  O   UNL     1      -8.655  10.608  64.736  1.00  0.00    -0.177 OA 
BRANCH  20  26
HETATM   26  N   UNL     1     -10.511  11.427  66.698  1.00  0.00    -0.234 N  
HETATM   27  H   UNL     1      -9.998  12.001  67.367  1.00  0.00     0.000 HD 
HETATM   28  O   UNL     1     -11.778  13.232  66.171  1.00  0.00    -0.340 OA 
HETATM   29  C   UNL     1     -11.505  12.053  65.999  1.00  0.00    -0.338 C  
ENDBRANCH  20  26
ENDBRANCH  15  18
ENDBRANCH  14  15
ENDBRANCH  12  14
ENDBRANCH  10  12
ENDBRANCH   9  10
ENDBRANCH   6   9
ENDBRANCH   2   3
TORSDOF 8
ENDMDL
MODEL       70
REMARK 921   NORMALIZED FREE ENERGY PREDICTED BY IDOCK:   -5.25 KCAL/MOL
REMARK 922        TOTAL FREE ENERGY PREDICTED BY IDOCK:   -9.37 KCAL/MOL
REMARK 923 INTER-LIGAND FREE ENERGY PREDICTED BY IDOCK:   -7.08 KCAL/MOL
REMARK 924 INTRA-LIGAND FREE ENERGY PREDICTED BY IDOCK:   -2.29 KCAL/MOL
REMARK 927      BINDING AFFINITY PREDICTED BY RF-SCORE:    0.00 PKD
ROOT
HETATM    1  C   UNL     1      -8.289  19.039  68.021  1.00  0.00    -0.301 C  
HETATM    2  O   UNL     1      -9.385  19.082  67.117  1.00  0.00    -0.297 OA 
ENDROOT
BRANCH   2   3
HETATM    3  C   UNL     1      -9.686  17.919  66.463  1.00  0.00    -0.329 A  
HETATM    4  C   UNL     1     -10.862  17.652  65.762  1.00  0.00     0.026 A  
HETATM    5  C   UNL     1     -11.070  16.393  65.188  1.00  0.00    -0.176 A  
HETATM    6  C   UNL     1     -10.098  15.390  65.296  1.00  0.00    -0.354 A  
HETATM    7  C   UNL     1      -8.703  16.932  66.544  1.00  0.00    -0.304 A  
HETATM    8  C   UNL     1      -8.905  15.678  65.968  1.00  0.00    -0.209 A  
BRANCH   6   9
HETATM    9  C   UNL     1     -10.372  13.979  64.831  1.00  0.00    -0.434 C  
BRANCH   9  10
HETATM   10  C   UNL     1     -11.855  13.587  64.640  1.00  0.00    -0.394 C  
HETATM   11  C   UNL     1     -12.080  12.952  63.262  1.00  0.00    -0.520 C  
BRANCH  10  12
HETATM   12  N   UNL     1     -12.314  12.611  65.649  1.00  0.00    -0.630 NA 
HETATM   13  H   UNL     1     -12.997  11.969  65.246  1.00  0.00     0.000 HD 
BRANCH  12  14
HETATM   14  C   UNL     1     -11.215  11.868  66.288  1.00  0.00    -0.337 C  
BRANCH  14  15
HETATM   15  C   UNL     1     -11.222  11.953  67.833  1.00  0.00    -0.263 C  
HETATM   16  H   UNL     1     -12.413  11.386  69.294  1.00  0.00     0.000 HD 
HETATM   17  O   UNL     1     -12.408  11.334  68.346  1.00  0.00    -0.545 OA 
BRANCH  15  18
HETATM   18  C   UNL     1     -11.040  13.351  68.386  1.00  0.00    -0.301 A  
HETATM   19  C   UNL     1      -9.768  13.755  68.832  1.00  0.00     0.025 A  
HETATM   20  C   UNL     1      -9.562  15.030  69.372  1.00  0.00    -0.139 A  
HETATM   21  H   UNL     1     -11.285  17.752  70.045  1.00  0.00     0.000 HD 
HETATM   22  C   UNL     1     -10.649  15.910  69.441  1.00  0.00    -0.263 A  
HETATM   23  C   UNL     1     -12.103  14.263  68.450  1.00  0.00    -0.297 A  
HETATM   24  C   UNL     1     -11.907  15.538  68.976  1.00  0.00    -0.373 A  
HETATM   25  O   UNL     1     -10.547  17.154  69.999  1.00  0.00    -0.057 OA 
BRANCH  20  26
HETATM   26  N   UNL     1      -8.300  15.455  69.828  1.00  0.00    -0.293 N  
HETATM   27  H   UNL     1      -8.298  16.109  70.610  1.00  0.00     0.000 HD 
HETATM   28  O   UNL     1      -6.034  15.528  69.803  1.00  0.00    -0.129 OA 
HETATM   29  C   UNL     1      -7.077  15.088  69.340  1.00  0.00    -0.186 C  
ENDBRANCH  20  26
ENDBRANCH  15  18
ENDBRANCH  14  15
ENDBRANCH  12  14
ENDBRANCH  10  12
ENDBRANCH   9  10
ENDBRANCH   6   9
ENDBRANCH   2   3
TORSDOF 8
ENDMDL
MODEL       71
REMARK 921   NORMALIZED FREE ENERGY PREDICTED BY IDOCK:   -5.24 KCAL/MOL
REMARK 922        TOTAL FREE ENERGY PREDICTED BY IDOCK:   -9.36 KCAL/MOL
REMARK 923 INTER-LIGAND FREE ENERGY PREDICTED BY IDOCK:   -8.42 KCAL/MOL
REMARK 924 INTRA-LIGAND FREE ENERGY PREDICTED BY IDOCK:   -0.94 KCAL/MOL
REMARK 927      BINDING AFFINITY PREDICTED BY RF-SCORE:    0.00 PKD
ROOT
HETATM    1  C   UNL     1     -10.474  18.543  67.438  1.00  0.00    -0.419 C  
HETATM    2  O   UNL     1      -9.838  17.293  67.668  1.00  0.00    -0.266 OA 
ENDROOT
BRANCH   2   3
HETATM    3  C   UNL     1     -10.463  16.186  67.166  1.00  0.00    -0.305 A  
HETATM    4  C   UNL     1     -11.135  15.215  67.908  1.00  0.00    -0.322 A  
HETATM    5  C   UNL     1     -11.681  14.095  67.273  1.00  0.00    -0.421 A  
HETATM    6  C   UNL     1     -11.574  13.939  65.884  1.00  0.00    -0.348 A  
HETATM    7  C   UNL     1     -10.384  16.049  65.780  1.00  0.00    -0.398 A  
HETATM    8  C   UNL     1     -10.931  14.935  65.142  1.00  0.00    -0.410 A  
BRANCH   6   9
HETATM    9  C   UNL     1     -12.007  12.662  65.203  1.00  0.00    -0.474 C  
BRANCH   9  10
HETATM   10  C   UNL     1     -10.908  11.605  64.945  1.00  0.00    -0.301 C  
HETATM   11  C   UNL     1     -10.169  11.893  63.632  1.00  0.00    -0.466 C  
BRANCH  10  12
HETATM   12  N   UNL     1      -9.892  11.574  66.017  1.00  0.00    -0.217 NA 
HETATM   13  H   UNL     1      -9.746  12.507  66.403  1.00  0.00     0.000 HD 
BRANCH  12  14
HETATM   14  C   UNL     1     -10.199  10.609  67.086  1.00  0.00    -0.216 C  
BRANCH  14  15
HETATM   15  C   UNL     1      -9.821  11.106  68.501  1.00  0.00    -0.198 C  
HETATM   16  H   UNL     1      -8.253  10.998  69.687  1.00  0.00     0.000 HD 
HETATM   17  O   UNL     1      -8.485  10.693  68.818  1.00  0.00    -0.133 OA 
BRANCH  15  18
HETATM   18  C   UNL     1     -10.799  10.709  69.588  1.00  0.00    -0.318 A  
HETATM   19  C   UNL     1     -10.564   9.539  70.332  1.00  0.00    -0.333 A  
HETATM   20  C   UNL     1     -11.455   9.123  71.328  1.00  0.00    -0.335 A  
HETATM   21  H   UNL     1     -14.295  10.091  72.682  1.00  0.00     0.000 HD 
HETATM   22  C   UNL     1     -12.584   9.913  71.586  1.00  0.00    -0.424 A  
HETATM   23  C   UNL     1     -11.926  11.487  69.884  1.00  0.00    -0.426 A  
HETATM   24  C   UNL     1     -12.816  11.090  70.880  1.00  0.00    -0.393 A  
HETATM   25  O   UNL     1     -13.529   9.555  72.506  1.00  0.00    -0.426 OA 
BRANCH  20  26
HETATM   26  N   UNL     1     -11.243   7.955  72.084  1.00  0.00    -0.285 N  
HETATM   27  H   UNL     1     -10.735   8.069  72.960  1.00  0.00     0.000 HD 
HETATM   28  O   UNL     1     -11.397   5.732  72.499  1.00  0.00    -0.282 OA 
HETATM   29  C   UNL     1     -11.643   6.685  71.774  1.00  0.00    -0.304 C  
ENDBRANCH  20  26
ENDBRANCH  15  18
ENDBRANCH  14  15
ENDBRANCH  12  14
ENDBRANCH  10  12
ENDBRANCH   9  10
ENDBRANCH   6   9
ENDBRANCH   2   3
TORSDOF 8
ENDMDL
MODEL       72
REMARK 921   NORMALIZED FREE ENERGY PREDICTED BY IDOCK:   -5.24 KCAL/MOL
REMARK 922        TOTAL FREE ENERGY PREDICTED BY IDOCK:   -9.36 KCAL/MOL
REMARK 923 INTER-LIGAND FREE ENERGY PREDICTED BY IDOCK:   -8.20 KCAL/MOL
REMARK 924 INTRA-LIGAND FREE ENERGY PREDICTED BY IDOCK:   -1.16 KCAL/MOL
REMARK 927      BINDING AFFINITY PREDICTED BY RF-SCORE:    0.00 PKD
ROOT
HETATM    1  C   UNL     1     -11.950  15.198  64.573  1.00  0.00    -0.319 C  
HETATM    2  O   UNL     1     -12.655  13.965  64.541  1.00  0.00    -0.629 OA 
ENDROOT
BRANCH   2   3
HETATM    3  C   UNL     1     -11.968  12.855  64.949  1.00  0.00    -0.392 A  
HETATM    4  C   UNL     1     -11.782  12.444  66.268  1.00  0.00    -0.457 A  
HETATM    5  C   UNL     1     -11.002  11.318  66.553  1.00  0.00    -0.303 A  
HETATM    6  C   UNL     1     -10.411  10.580  65.518  1.00  0.00    -0.287 A  
HETATM    7  C   UNL     1     -11.407  12.103  63.916  1.00  0.00    -0.501 A  
HETATM    8  C   UNL     1     -10.634  10.976  64.196  1.00  0.00    -0.412 A  
BRANCH   6   9
HETATM    9  C   UNL     1      -9.434   9.466  65.810  1.00  0.00    -0.325 C  
BRANCH   9  10
HETATM   10  C   UNL     1      -9.549   8.785  67.194  1.00  0.00    -0.175 C  
HETATM   11  C   UNL     1      -9.809   7.281  67.044  1.00  0.00    -0.265 C  
BRANCH  10  12
HETATM   12  N   UNL     1      -8.321   8.935  68.000  1.00  0.00    -0.121 NA 
HETATM   13  H   UNL     1      -7.576   9.360  67.448  1.00  0.00     0.000 HD 
BRANCH  12  14
HETATM   14  C   UNL     1      -8.531   9.679  69.254  1.00  0.00    -0.150 C  
BRANCH  14  15
HETATM   15  C   UNL     1      -8.756   8.772  70.486  1.00  0.00    -0.174 C  
HETATM   16  H   UNL     1      -8.179   6.983  71.074  1.00  0.00     0.000 HD 
HETATM   17  O   UNL     1      -8.041   7.541  70.317  1.00  0.00    -0.108 OA 
BRANCH  15  18
HETATM   18  C   UNL     1     -10.211   8.529  70.830  1.00  0.00    -0.237 A  
HETATM   19  C   UNL     1     -11.064   9.629  71.033  1.00  0.00    -0.438 A  
HETATM   20  C   UNL     1     -12.408   9.449  71.376  1.00  0.00    -0.357 A  
HETATM   21  H   UNL     1     -14.517   6.989  71.953  1.00  0.00     0.000 HD 
HETATM   22  C   UNL     1     -12.899   8.142  71.494  1.00  0.00    -0.301 A  
HETATM   23  C   UNL     1     -10.737   7.234  70.936  1.00  0.00    -0.251 A  
HETATM   24  C   UNL     1     -12.076   7.042  71.267  1.00  0.00    -0.403 A  
HETATM   25  O   UNL     1     -14.185   7.876  71.873  1.00  0.00    -0.392 OA 
BRANCH  20  26
HETATM   26  N   UNL     1     -13.280  10.534  71.587  1.00  0.00    -0.405 N  
HETATM   27  H   UNL     1     -14.273  10.350  71.451  1.00  0.00     0.000 HD 
HETATM   28  O   UNL     1     -13.782  12.684  72.101  1.00  0.00    -0.467 OA 
HETATM   29  C   UNL     1     -12.943  11.807  71.954  1.00  0.00    -0.330 C  
ENDBRANCH  20  26
ENDBRANCH  15  18
ENDBRANCH  14  15
ENDBRANCH  12  14
ENDBRANCH  10  12
ENDBRANCH   9  10
ENDBRANCH   6   9
ENDBRANCH   2   3
TORSDOF 8
ENDMDL
MODEL       73
REMARK 921   NORMALIZED FREE ENERGY PREDICTED BY IDOCK:   -5.23 KCAL/MOL
REMARK 922        TOTAL FREE ENERGY PREDICTED BY IDOCK:   -9.34 KCAL/MOL
REMARK 923 INTER-LIGAND FREE ENERGY PREDICTED BY IDOCK:   -6.95 KCAL/MOL
REMARK 924 INTRA-LIGAND FREE ENERGY PREDICTED BY IDOCK:   -2.39 KCAL/MOL
REMARK 927      BINDING AFFINITY PREDICTED BY RF-SCORE:    0.00 PKD
ROOT
HETATM    1  C   UNL     1      -8.220  11.853  67.330  1.00  0.00    -0.170 C  
HETATM    2  O   UNL     1      -8.141  12.583  68.547  1.00  0.00    -0.147 OA 
ENDROOT
BRANCH   2   3
HETATM    3  C   UNL     1      -7.674  13.865  68.462  1.00  0.00    -0.139 A  
HETATM    4  C   UNL     1      -7.188  14.633  69.520  1.00  0.00    -0.131 A  
HETATM    5  C   UNL     1      -6.796  15.959  69.308  1.00  0.00    -0.189 A  
HETATM    6  C   UNL     1      -6.873  16.529  68.030  1.00  0.00    -0.149 A  
HETATM    7  C   UNL     1      -7.720  14.421  67.184  1.00  0.00    -0.065 A  
HETATM    8  C   UNL     1      -7.325  15.741  66.966  1.00  0.00    -0.226 A  
BRANCH   6   9
HETATM    9  C   UNL     1      -6.615  18.001  67.811  1.00  0.00    -0.189 C  
BRANCH   9  10
HETATM   10  C   UNL     1      -7.419  18.986  68.691  1.00  0.00    -0.326 C  
HETATM   11  C   UNL     1      -6.483  19.945  69.437  1.00  0.00    -0.382 C  
BRANCH  10  12
HETATM   12  N   UNL     1      -8.352  19.815  67.902  1.00  0.00    -0.304 NA 
HETATM   13  H   UNL     1      -7.917  20.699  67.642  1.00  0.00     0.000 HD 
BRANCH  12  14
HETATM   14  C   UNL     1      -8.887  19.126  66.715  1.00  0.00    -0.311 C  
BRANCH  14  15
HETATM   15  C   UNL     1     -10.377  18.732  66.842  1.00  0.00    -0.404 C  
HETATM   16  H   UNL     1     -12.015  19.537  67.581  1.00  0.00     0.000 HD 
HETATM   17  O   UNL     1     -11.100  19.779  67.503  1.00  0.00    -0.306 OA 
BRANCH  15  18
HETATM   18  C   UNL     1     -10.618  17.388  67.499  1.00  0.00    -0.330 A  
HETATM   19  C   UNL     1     -11.005  16.293  66.706  1.00  0.00    -0.031 A  
HETATM   20  C   UNL     1     -11.260  15.041  67.276  1.00  0.00    -0.338 A  
HETATM   21  H   UNL     1     -11.270  13.617  70.243  1.00  0.00     0.000 HD 
HETATM   22  C   UNL     1     -11.102  14.892  68.660  1.00  0.00    -0.263 A  
HETATM   23  C   UNL     1     -10.449  17.202  68.878  1.00  0.00    -0.346 A  
HETATM   24  C   UNL     1     -10.690  15.957  69.456  1.00  0.00    -0.288 A  
HETATM   25  O   UNL     1     -11.378  13.718  69.304  1.00  0.00    -0.258 OA 
BRANCH  20  26
HETATM   26  N   UNL     1     -11.651  13.931  66.504  1.00  0.00    -0.352 N  
HETATM   27  H   UNL     1     -11.081  13.091  66.597  1.00  0.00     0.000 HD 
HETATM   28  O   UNL     1     -12.957  12.839  65.006  1.00  0.00    -0.811 OA 
HETATM   29  C   UNL     1     -12.709  13.854  65.642  1.00  0.00    -0.495 C  
ENDBRANCH  20  26
ENDBRANCH  15  18
ENDBRANCH  14  15
ENDBRANCH  12  14
ENDBRANCH  10  12
ENDBRANCH   9  10
ENDBRANCH   6   9
ENDBRANCH   2   3
TORSDOF 8
ENDMDL
MODEL       74
REMARK 921   NORMALIZED FREE ENERGY PREDICTED BY IDOCK:   -5.22 KCAL/MOL
REMARK 922        TOTAL FREE ENERGY PREDICTED BY IDOCK:   -9.33 KCAL/MOL
REMARK 923 INTER-LIGAND FREE ENERGY PREDICTED BY IDOCK:   -8.54 KCAL/MOL
REMARK 924 INTRA-LIGAND FREE ENERGY PREDICTED BY IDOCK:   -0.79 KCAL/MOL
REMARK 927      BINDING AFFINITY PREDICTED BY RF-SCORE:    0.00 PKD
ROOT
HETATM    1  C   UNL     1      -8.708   6.730  66.707  1.00  0.00    -0.122 C  
HETATM    2  O   UNL     1      -9.307   7.455  67.772  1.00  0.00    -0.136 OA 
ENDROOT
BRANCH   2   3
HETATM    3  C   UNL     1      -9.816   8.687  67.464  1.00  0.00    -0.180 A  
HETATM    4  C   UNL     1     -10.598   9.484  68.300  1.00  0.00    -0.260 A  
HETATM    5  C   UNL     1     -11.107  10.702  67.838  1.00  0.00    -0.371 A  
HETATM    6  C   UNL     1     -10.829  11.145  66.538  1.00  0.00    -0.302 A  
HETATM    7  C   UNL     1      -9.511   9.141  66.181  1.00  0.00    -0.309 A  
HETATM    8  C   UNL     1     -10.012  10.358  65.719  1.00  0.00    -0.334 A  
BRANCH   6   9
HETATM    9  C   UNL     1     -11.503  12.369  65.965  1.00  0.00    -0.431 C  
BRANCH   9  10
HETATM   10  C   UNL     1     -11.288  12.639  64.457  1.00  0.00    -0.333 C  
HETATM   11  C   UNL     1     -12.501  12.178  63.640  1.00  0.00    -0.658 C  
BRANCH  10  12
HETATM   12  N   UNL     1     -11.085  14.072  64.164  1.00  0.00    -0.584 NA 
HETATM   13  H   UNL     1     -11.971  14.522  63.935  1.00  0.00     0.000 HD 
BRANCH  12  14
HETATM   14  C   UNL     1     -10.394  14.799  65.243  1.00  0.00    -0.398 C  
BRANCH  14  15
HETATM   15  C   UNL     1     -10.995  16.193  65.540  1.00  0.00    -0.177 C  
HETATM   16  H   UNL     1     -11.623  17.736  64.491  1.00  0.00     0.000 HD 
HETATM   17  O   UNL     1     -11.253  16.880  64.309  1.00  0.00    -1.204 OA 
BRANCH  15  18
HETATM   18  C   UNL     1     -10.176  17.040  66.490  1.00  0.00    -0.321 A  
HETATM   19  C   UNL     1      -9.334  16.409  67.425  1.00  0.00    -0.223 A  
HETATM   20  C   UNL     1      -8.578  17.155  68.337  1.00  0.00    -0.246 A  
HETATM   21  H   UNL     1      -8.051  20.302  69.140  1.00  0.00     0.000 HD 
HETATM   22  C   UNL     1      -8.660  18.552  68.289  1.00  0.00    -0.318 A  
HETATM   23  C   UNL     1     -10.220  18.441  66.454  1.00  0.00    -0.431 A  
HETATM   24  C   UNL     1      -9.465  19.194  67.351  1.00  0.00    -0.362 A  
HETATM   25  O   UNL     1      -7.995  19.354  69.173  1.00  0.00    -0.329 OA 
BRANCH  20  26
HETATM   26  N   UNL     1      -7.732  16.546  69.282  1.00  0.00    -0.203 N  
HETATM   27  H   UNL     1      -8.163  16.264  70.162  1.00  0.00     0.000 HD 
HETATM   28  O   UNL     1      -5.745  15.764  70.045  1.00  0.00    -0.140 OA 
HETATM   29  C   UNL     1      -6.395  16.290  69.153  1.00  0.00    -0.168 C  
ENDBRANCH  20  26
ENDBRANCH  15  18
ENDBRANCH  14  15
ENDBRANCH  12  14
ENDBRANCH  10  12
ENDBRANCH   9  10
ENDBRANCH   6   9
ENDBRANCH   2   3
TORSDOF 8
ENDMDL
MODEL       75
REMARK 921   NORMALIZED FREE ENERGY PREDICTED BY IDOCK:   -5.21 KCAL/MOL
REMARK 922        TOTAL FREE ENERGY PREDICTED BY IDOCK:   -9.31 KCAL/MOL
REMARK 923 INTER-LIGAND FREE ENERGY PREDICTED BY IDOCK:   -8.64 KCAL/MOL
REMARK 924 INTRA-LIGAND FREE ENERGY PREDICTED BY IDOCK:   -0.67 KCAL/MOL
REMARK 927      BINDING AFFINITY PREDICTED BY RF-SCORE:    0.00 PKD
ROOT
HETATM    1  C   UNL     1      -9.553   3.717  67.840  1.00  0.00    -0.130 C  
HETATM    2  O   UNL     1      -9.593   3.778  69.259  1.00  0.00    -0.182 OA 
ENDROOT
BRANCH   2   3
HETATM    3  C   UNL     1     -10.152   4.897  69.810  1.00  0.00    -0.249 A  
HETATM    4  C   UNL     1     -10.768   5.935  69.111  1.00  0.00    -0.394 A  
HETATM    5  C   UNL     1     -11.248   7.058  69.794  1.00  0.00    -0.257 A  
HETATM    6  C   UNL     1     -11.129   7.150  71.187  1.00  0.00    -0.281 A  
HETATM    7  C   UNL     1     -10.063   4.972  71.200  1.00  0.00    -0.293 A  
HETATM    8  C   UNL     1     -10.545   6.088  71.885  1.00  0.00    -0.272 A  
BRANCH   6   9
HETATM    9  C   UNL     1     -11.487   8.420  71.922  1.00  0.00    -0.384 C  
BRANCH   9  10
HETATM   10  C   UNL     1     -12.410   9.415  71.181  1.00  0.00    -0.308 C  
HETATM   11  C   UNL     1     -13.537   9.905  72.100  1.00  0.00    -0.392 C  
BRANCH  10  12
HETATM   12  N   UNL     1     -11.685  10.611  70.708  1.00  0.00    -0.341 NA 
HETATM   13  H   UNL     1     -10.688  10.533  70.909  1.00  0.00     0.000 HD 
BRANCH  12  14
HETATM   14  C   UNL     1     -11.907  10.904  69.282  1.00  0.00    -0.324 C  
BRANCH  14  15
HETATM   15  C   UNL     1     -11.019  12.046  68.734  1.00  0.00    -0.239 C  
HETATM   16  H   UNL     1     -10.969  14.011  68.864  1.00  0.00     0.000 HD 
HETATM   17  O   UNL     1     -11.514  13.309  69.200  1.00  0.00    -0.271 OA 
BRANCH  15  18
HETATM   18  C   UNL     1     -10.841  12.038  67.230  1.00  0.00    -0.290 A  
HETATM   19  C   UNL     1     -11.004  13.236  66.511  1.00  0.00    -0.299 A  
HETATM   20  C   UNL     1     -10.873  13.267  65.118  1.00  0.00    -0.310 A  
HETATM   21  H   UNL     1     -10.238  11.202  62.635  1.00  0.00     0.000 HD 
HETATM   22  C   UNL     1     -10.554  12.078  64.450  1.00  0.00    -0.318 A  
HETATM   23  C   UNL     1     -10.503  10.869  66.535  1.00  0.00    -0.308 A  
HETATM   24  C   UNL     1     -10.359  10.890  65.149  1.00  0.00    -0.344 A  
HETATM   25  O   UNL     1     -10.455  12.009  63.088  1.00  0.00    -0.393 OA 
BRANCH  20  26
HETATM   26  N   UNL     1     -11.034  14.452  64.376  1.00  0.00    -0.618 N  
HETATM   27  H   UNL     1     -10.861  14.386  63.373  1.00  0.00     0.000 HD 
HETATM   28  O   UNL     1     -11.496  16.657  64.118  1.00  0.00    -1.131 OA 
HETATM   29  C   UNL     1     -11.395  15.682  64.850  1.00  0.00    -0.315 C  
ENDBRANCH  20  26
ENDBRANCH  15  18
ENDBRANCH  14  15
ENDBRANCH  12  14
ENDBRANCH  10  12
ENDBRANCH   9  10
ENDBRANCH   6   9
ENDBRANCH   2   3
TORSDOF 8
ENDMDL
MODEL       76
REMARK 921   NORMALIZED FREE ENERGY PREDICTED BY IDOCK:   -5.21 KCAL/MOL
REMARK 922        TOTAL FREE ENERGY PREDICTED BY IDOCK:   -9.30 KCAL/MOL
REMARK 923 INTER-LIGAND FREE ENERGY PREDICTED BY IDOCK:   -7.72 KCAL/MOL
REMARK 924 INTRA-LIGAND FREE ENERGY PREDICTED BY IDOCK:   -1.58 KCAL/MOL
REMARK 927      BINDING AFFINITY PREDICTED BY RF-SCORE:    0.00 PKD
ROOT
HETATM    1  C   UNL     1     -13.706  13.447  71.963  1.00  0.00    -0.451 C  
HETATM    2  O   UNL     1     -12.603  14.306  71.705  1.00  0.00    -0.332 OA 
ENDROOT
BRANCH   2   3
HETATM    3  C   UNL     1     -12.153  14.355  70.415  1.00  0.00    -0.331 A  
HETATM    4  C   UNL     1     -11.935  13.260  69.579  1.00  0.00    -0.366 A  
HETATM    5  C   UNL     1     -11.413  13.445  68.295  1.00  0.00    -0.350 A  
HETATM    6  C   UNL     1     -11.114  14.732  67.826  1.00  0.00    -0.306 A  
HETATM    7  C   UNL     1     -11.887  15.638  69.938  1.00  0.00    -0.374 A  
HETATM    8  C   UNL     1     -11.370  15.828  68.656  1.00  0.00    -0.369 A  
BRANCH   6   9
HETATM    9  C   UNL     1     -10.396  14.941  66.513  1.00  0.00    -0.295 C  
BRANCH   9  10
HETATM   10  C   UNL     1     -11.179  14.580  65.229  1.00  0.00    -0.352 C  
HETATM   11  C   UNL     1     -11.416  15.826  64.365  1.00  0.00    -0.268 C  
BRANCH  10  12
HETATM   12  N   UNL     1     -10.464  13.599  64.389  1.00  0.00    -0.592 NA 
HETATM   13  H   UNL     1      -9.455  13.718  64.473  1.00  0.00     0.000 HD 
BRANCH  12  14
HETATM   14  C   UNL     1     -10.849  12.204  64.663  1.00  0.00    -0.306 C  
BRANCH  14  15
HETATM   15  C   UNL     1      -9.647  11.266  64.928  1.00  0.00    -0.232 C  
HETATM   16  H   UNL     1      -8.978   9.557  64.217  1.00  0.00     0.000 HD 
HETATM   17  O   UNL     1      -9.716  10.132  64.054  1.00  0.00    -0.306 OA 
BRANCH  15  18
HETATM   18  C   UNL     1      -9.486  10.846  66.374  1.00  0.00    -0.214 A  
HETATM   19  C   UNL     1     -10.266   9.788  66.875  1.00  0.00    -0.310 A  
HETATM   20  C   UNL     1     -10.166   9.384  68.211  1.00  0.00    -0.196 A  
HETATM   21  H   UNL     1      -8.506  10.197  70.934  1.00  0.00     0.000 HD 
HETATM   22  C   UNL     1      -9.252  10.045  69.042  1.00  0.00    -0.178 A  
HETATM   23  C   UNL     1      -8.567  11.474  67.226  1.00  0.00    -0.150 A  
HETATM   24  C   UNL     1      -8.451  11.075  68.556  1.00  0.00    -0.153 A  
HETATM   25  O   UNL     1      -9.126   9.748  70.371  1.00  0.00    -0.229 OA 
BRANCH  20  26
HETATM   26  N   UNL     1     -10.937   8.331  68.736  1.00  0.00    -0.423 N  
HETATM   27  H   UNL     1     -11.885   8.565  69.029  1.00  0.00     0.000 HD 
HETATM   28  O   UNL     1     -11.306   6.187  69.374  1.00  0.00    -0.420 OA 
HETATM   29  C   UNL     1     -10.558   7.027  68.895  1.00  0.00    -0.215 C  
ENDBRANCH  20  26
ENDBRANCH  15  18
ENDBRANCH  14  15
ENDBRANCH  12  14
ENDBRANCH  10  12
ENDBRANCH   9  10
ENDBRANCH   6   9
ENDBRANCH   2   3
TORSDOF 8
ENDMDL
MODEL       77
REMARK 921   NORMALIZED FREE ENERGY PREDICTED BY IDOCK:   -5.19 KCAL/MOL
REMARK 922        TOTAL FREE ENERGY PREDICTED BY IDOCK:   -9.28 KCAL/MOL
REMARK 923 INTER-LIGAND FREE ENERGY PREDICTED BY IDOCK:   -8.07 KCAL/MOL
REMARK 924 INTRA-LIGAND FREE ENERGY PREDICTED BY IDOCK:   -1.21 KCAL/MOL
REMARK 927      BINDING AFFINITY PREDICTED BY RF-SCORE:    0.00 PKD
ROOT
HETATM    1  C   UNL     1     -10.717  15.141  67.856  1.00  0.00    -0.268 C  
HETATM    2  O   UNL     1     -11.983  14.507  67.980  1.00  0.00    -0.326 OA 
ENDROOT
BRANCH   2   3
HETATM    3  C   UNL     1     -12.038  13.401  68.783  1.00  0.00    -0.246 A  
HETATM    4  C   UNL     1     -12.378  13.384  70.135  1.00  0.00    -0.322 A  
HETATM    5  C   UNL     1     -12.336  12.188  70.858  1.00  0.00    -0.370 A  
HETATM    6  C   UNL     1     -11.967  10.989  70.233  1.00  0.00    -0.452 A  
HETATM    7  C   UNL     1     -11.703  12.203  68.151  1.00  0.00    -0.402 A  
HETATM    8  C   UNL     1     -11.665  11.007  68.867  1.00  0.00    -0.400 A  
BRANCH   6   9
HETATM    9  C   UNL     1     -11.754   9.723  71.028  1.00  0.00    -0.453 C  
BRANCH   9  10
HETATM   10  C   UNL     1     -12.851   9.354  72.054  1.00  0.00    -0.414 C  
HETATM   11  C   UNL     1     -14.139   8.915  71.345  1.00  0.00    -0.278 C  
BRANCH  10  12
HETATM   12  N   UNL     1     -12.444   8.247  72.942  1.00  0.00    -0.650 NA 
HETATM   13  H   UNL     1     -13.222   7.607  73.101  1.00  0.00     0.000 HD 
BRANCH  12  14
HETATM   14  C   UNL     1     -11.258   7.517  72.462  1.00  0.00    -0.331 C  
BRANCH  14  15
HETATM   15  C   UNL     1     -11.572   6.097  71.934  1.00  0.00    -0.296 C  
HETATM   16  H   UNL     1     -11.419   4.252  72.606  1.00  0.00     0.000 HD 
HETATM   17  O   UNL     1     -11.227   5.125  72.929  1.00  0.00    -0.274 OA 
BRANCH  15  18
HETATM   18  C   UNL     1     -10.942   5.772  70.596  1.00  0.00    -0.319 A  
HETATM   19  C   UNL     1     -11.116   6.660  69.519  1.00  0.00    -0.378 A  
HETATM   20  C   UNL     1     -10.572   6.386  68.259  1.00  0.00    -0.256 A  
HETATM   21  H   UNL     1      -8.798   4.044  66.775  1.00  0.00     0.000 HD 
HETATM   22  C   UNL     1      -9.828   5.210  68.094  1.00  0.00    -0.151 A  
HETATM   23  C   UNL     1     -10.175   4.614  70.404  1.00  0.00    -0.208 A  
HETATM   24  C   UNL     1      -9.620   4.335  69.157  1.00  0.00    -0.249 A  
HETATM   25  O   UNL     1      -9.304   4.841  66.887  1.00  0.00    -0.120 OA 
BRANCH  20  26
HETATM   26  N   UNL     1     -10.735   7.257  67.166  1.00  0.00    -0.405 N  
HETATM   27  H   UNL     1     -11.446   6.999  66.482  1.00  0.00     0.000 HD 
HETATM   28  O   UNL     1     -10.260   9.096  65.928  1.00  0.00    -0.209 OA 
HETATM   29  C   UNL     1     -10.048   8.412  66.919  1.00  0.00    -0.294 C  
ENDBRANCH  20  26
ENDBRANCH  15  18
ENDBRANCH  14  15
ENDBRANCH  12  14
ENDBRANCH  10  12
ENDBRANCH   9  10
ENDBRANCH   6   9
ENDBRANCH   2   3
TORSDOF 8
ENDMDL
MODEL       78
REMARK 921   NORMALIZED FREE ENERGY PREDICTED BY IDOCK:   -5.19 KCAL/MOL
REMARK 922        TOTAL FREE ENERGY PREDICTED BY IDOCK:   -9.27 KCAL/MOL
REMARK 923 INTER-LIGAND FREE ENERGY PREDICTED BY IDOCK:   -8.04 KCAL/MOL
REMARK 924 INTRA-LIGAND FREE ENERGY PREDICTED BY IDOCK:   -1.24 KCAL/MOL
REMARK 927      BINDING AFFINITY PREDICTED BY RF-SCORE:    0.00 PKD
ROOT
HETATM    1  C   UNL     1     -11.609  15.905  69.549  1.00  0.00    -0.335 C  
HETATM    2  O   UNL     1     -12.559  15.422  70.490  1.00  0.00    -0.394 OA 
ENDROOT
BRANCH   2   3
HETATM    3  C   UNL     1     -12.601  14.068  70.680  1.00  0.00    -0.344 A  
HETATM    4  C   UNL     1     -13.145  13.410  71.782  1.00  0.00    -0.479 A  
HETATM    5  C   UNL     1     -13.068  12.017  71.881  1.00  0.00    -0.475 A  
HETATM    6  C   UNL     1     -12.457  11.264  70.870  1.00  0.00    -0.493 A  
HETATM    7  C   UNL     1     -12.022  13.318  69.657  1.00  0.00    -0.376 A  
HETATM    8  C   UNL     1     -11.947  11.927  69.749  1.00  0.00    -0.377 A  
BRANCH   6   9
HETATM    9  C   UNL     1     -12.215   9.782  71.034  1.00  0.00    -0.436 C  
BRANCH   9  10
HETATM   10  C   UNL     1     -13.043   9.059  72.122  1.00  0.00    -0.435 C  
HETATM   11  C   UNL     1     -14.307   8.431  71.520  1.00  0.00    -0.499 C  
BRANCH  10  12
HETATM   12  N   UNL     1     -12.288   7.973  72.777  1.00  0.00    -0.610 NA 
HETATM   13  H   UNL     1     -12.593   7.852  73.743  1.00  0.00     0.000 HD 
BRANCH  12  14
HETATM   14  C   UNL     1     -12.347   6.695  72.047  1.00  0.00    -0.272 C  
BRANCH  14  15
HETATM   15  C   UNL     1     -10.969   6.199  71.547  1.00  0.00    -0.273 C  
HETATM   16  H   UNL     1      -9.122   6.174  72.227  1.00  0.00     0.000 HD 
HETATM   17  O   UNL     1      -9.968   6.478  72.534  1.00  0.00    -0.170 OA 
BRANCH  15  18
HETATM   18  C   UNL     1     -10.570   6.724  70.184  1.00  0.00    -0.254 A  
HETATM   19  C   UNL     1      -9.558   7.697  70.090  1.00  0.00    -0.168 A  
HETATM   20  C   UNL     1      -9.176   8.227  68.852  1.00  0.00    -0.147 A  
HETATM   21  H   UNL     1      -9.964   7.927  65.671  1.00  0.00     0.000 HD 
HETATM   22  C   UNL     1      -9.811   7.752  67.697  1.00  0.00    -0.163 A  
HETATM   23  C   UNL     1     -11.172   6.255  69.008  1.00  0.00    -0.415 A  
HETATM   24  C   UNL     1     -10.793   6.768  67.769  1.00  0.00    -0.339 A  
HETATM   25  O   UNL     1      -9.534   8.249  66.455  1.00  0.00    -0.198 OA 
BRANCH  20  26
HETATM   26  N   UNL     1      -8.168   9.202  68.733  1.00  0.00    -0.108 N  
HETATM   27  H   UNL     1      -7.601   9.167  67.887  1.00  0.00     0.000 HD 
HETATM   28  O   UNL     1      -6.955  10.986  69.432  1.00  0.00    -0.104 OA 
HETATM   29  C   UNL     1      -7.864  10.191  69.626  1.00  0.00    -0.175 C  
ENDBRANCH  20  26
ENDBRANCH  15  18
ENDBRANCH  14  15
ENDBRANCH  12  14
ENDBRANCH  10  12
ENDBRANCH   9  10
ENDBRANCH   6   9
ENDBRANCH   2   3
TORSDOF 8
ENDMDL
MODEL       79
REMARK 921   NORMALIZED FREE ENERGY PREDICTED BY IDOCK:   -5.18 KCAL/MOL
REMARK 922        TOTAL FREE ENERGY PREDICTED BY IDOCK:   -9.27 KCAL/MOL
REMARK 923 INTER-LIGAND FREE ENERGY PREDICTED BY IDOCK:   -8.86 KCAL/MOL
REMARK 924 INTRA-LIGAND FREE ENERGY PREDICTED BY IDOCK:   -0.41 KCAL/MOL
REMARK 927      BINDING AFFINITY PREDICTED BY RF-SCORE:    0.00 PKD
ROOT
HETATM    1  C   UNL     1      -8.537   5.084  73.209  1.00  0.00    -0.112 C  
HETATM    2  O   UNL     1      -9.923   5.164  73.512  1.00  0.00    -0.155 OA 
ENDROOT
BRANCH   2   3
HETATM    3  C   UNL     1     -10.617   6.196  72.943  1.00  0.00    -0.232 A  
HETATM    4  C   UNL     1     -11.852   6.102  72.304  1.00  0.00    -0.326 A  
HETATM    5  C   UNL     1     -12.427   7.230  71.709  1.00  0.00    -0.378 A  
HETATM    6  C   UNL     1     -11.777   8.471  71.758  1.00  0.00    -0.392 A  
HETATM    7  C   UNL     1      -9.985   7.437  73.022  1.00  0.00    -0.299 A  
HETATM    8  C   UNL     1     -10.556   8.566  72.434  1.00  0.00    -0.368 A  
BRANCH   6   9
HETATM    9  C   UNL     1     -12.296   9.658  70.982  1.00  0.00    -0.396 C  
BRANCH   9  10
HETATM   10  C   UNL     1     -11.394  10.192  69.845  1.00  0.00    -0.275 C  
HETATM   11  C   UNL     1     -10.682   9.040  69.124  1.00  0.00    -0.176 C  
BRANCH  10  12
HETATM   12  N   UNL     1     -12.156  10.939  68.824  1.00  0.00    -0.763 NA 
HETATM   13  H   UNL     1     -12.742  11.651  69.259  1.00  0.00     0.000 HD 
BRANCH  12  14
HETATM   14  C   UNL     1     -11.307  11.530  67.776  1.00  0.00    -0.296 C  
BRANCH  14  15
HETATM   15  C   UNL     1     -10.840  12.971  68.092  1.00  0.00    -0.247 C  
HETATM   16  H   UNL     1     -11.201  14.323  69.477  1.00  0.00     0.000 HD 
HETATM   17  O   UNL     1     -11.487  13.438  69.283  1.00  0.00    -0.267 OA 
BRANCH  15  18
HETATM   18  C   UNL     1     -11.005  13.950  66.948  1.00  0.00    -0.300 A  
HETATM   19  C   UNL     1     -10.517  15.262  67.088  1.00  0.00    -0.280 A  
HETATM   20  C   UNL     1     -10.670  16.204  66.065  1.00  0.00    -0.241 A  
HETATM   21  H   UNL     1     -11.970  16.407  63.048  1.00  0.00     0.000 HD 
HETATM   22  C   UNL     1     -11.305  15.807  64.880  1.00  0.00    -0.280 A  
HETATM   23  C   UNL     1     -11.617  13.578  65.743  1.00  0.00    -0.351 A  
HETATM   24  C   UNL     1     -11.767  14.505  64.713  1.00  0.00    -0.425 A  
HETATM   25  O   UNL     1     -11.539  16.676  63.851  1.00  0.00    -1.204 OA 
BRANCH  20  26
HETATM   26  N   UNL     1     -10.193  17.523  66.183  1.00  0.00    -0.353 N  
HETATM   27  H   UNL     1      -9.616  17.867  65.416  1.00  0.00     0.000 HD 
HETATM   28  O   UNL     1      -9.944  19.522  67.222  1.00  0.00    -0.338 OA 
HETATM   29  C   UNL     1     -10.417  18.395  67.211  1.00  0.00    -0.405 C  
ENDBRANCH  20  26
ENDBRANCH  15  18
ENDBRANCH  14  15
ENDBRANCH  12  14
ENDBRANCH  10  12
ENDBRANCH   9  10
ENDBRANCH   6   9
ENDBRANCH   2   3
TORSDOF 8
ENDMDL
MODEL       80
REMARK 921   NORMALIZED FREE ENERGY PREDICTED BY IDOCK:   -5.18 KCAL/MOL
REMARK 922        TOTAL FREE ENERGY PREDICTED BY IDOCK:   -9.26 KCAL/MOL
REMARK 923 INTER-LIGAND FREE ENERGY PREDICTED BY IDOCK:   -8.42 KCAL/MOL
REMARK 924 INTRA-LIGAND FREE ENERGY PREDICTED BY IDOCK:   -0.85 KCAL/MOL
REMARK 927      BINDING AFFINITY PREDICTED BY RF-SCORE:    0.00 PKD
ROOT
HETATM    1  C   UNL     1      -6.384  20.944  67.711  1.00  0.00    -0.343 C  
HETATM    2  O   UNL     1      -7.734  21.195  67.344  1.00  0.00    -0.341 OA 
ENDROOT
BRANCH   2   3
HETATM    3  C   UNL     1      -8.595  20.135  67.409  1.00  0.00    -0.343 A  
HETATM    4  C   UNL     1      -9.961  20.168  67.132  1.00  0.00    -0.595 A  
HETATM    5  C   UNL     1     -10.743  19.020  67.297  1.00  0.00    -0.556 A  
HETATM    6  C   UNL     1     -10.163  17.819  67.729  1.00  0.00    -0.362 A  
HETATM    7  C   UNL     1      -8.011  18.932  67.808  1.00  0.00    -0.275 A  
HETATM    8  C   UNL     1      -8.786  17.784  67.969  1.00  0.00    -0.251 A  
BRANCH   6   9
HETATM    9  C   UNL     1     -11.012  16.618  68.074  1.00  0.00    -0.311 C  
BRANCH   9  10
HETATM   10  C   UNL     1     -10.966  15.428  67.087  1.00  0.00    -0.317 C  
HETATM   11  C   UNL     1     -10.528  15.892  65.691  1.00  0.00    -0.411 C  
BRANCH  10  12
HETATM   12  N   UNL     1     -10.020  14.378  67.513  1.00  0.00    -0.223 NA 
HETATM   13  H   UNL     1      -9.259  14.778  68.061  1.00  0.00     0.000 HD 
BRANCH  12  14
HETATM   14  C   UNL     1     -10.663  13.272  68.242  1.00  0.00    -0.252 C  
BRANCH  14  15
HETATM   15  C   UNL     1     -11.721  12.509  67.410  1.00  0.00    -0.366 C  
HETATM   16  H   UNL     1     -12.924  10.974  67.682  1.00  0.00     0.000 HD 
HETATM   17  O   UNL     1     -12.275  11.443  68.193  1.00  0.00    -0.602 OA 
BRANCH  15  18
HETATM   18  C   UNL     1     -11.225  12.015  66.067  1.00  0.00    -0.385 A  
HETATM   19  C   UNL     1     -10.167  11.088  66.021  1.00  0.00    -0.305 A  
HETATM   20  C   UNL     1      -9.663  10.625  64.801  1.00  0.00    -0.292 A  
HETATM   21  H   UNL     1     -10.186  11.040  61.578  1.00  0.00     0.000 HD 
HETATM   22  C   UNL     1     -10.250  11.088  63.616  1.00  0.00    -0.372 A  
HETATM   23  C   UNL     1     -11.804  12.444  64.864  1.00  0.00    -0.442 A  
HETATM   24  C   UNL     1     -11.317  11.982  63.643  1.00  0.00    -0.536 A  
HETATM   25  O   UNL     1      -9.788  10.726  62.382  1.00  0.00    -0.132 OA 
BRANCH  20  26
HETATM   26  N   UNL     1      -8.604   9.701  64.730  1.00  0.00    -0.165 N  
HETATM   27  H   UNL     1      -7.883   9.890  64.034  1.00  0.00     0.000 HD 
HETATM   28  O   UNL     1      -7.477   7.830  65.340  1.00  0.00    -0.074 OA 
HETATM   29  C   UNL     1      -8.433   8.578  65.490  1.00  0.00    -0.167 C  
ENDBRANCH  20  26
ENDBRANCH  15  18
ENDBRANCH  14  15
ENDBRANCH  12  14
ENDBRANCH  10  12
ENDBRANCH   9  10
ENDBRANCH   6   9
ENDBRANCH   2   3
TORSDOF 8
ENDMDL
MODEL       81
REMARK 921   NORMALIZED FREE ENERGY PREDICTED BY IDOCK:   -5.18 KCAL/MOL
REMARK 922        TOTAL FREE ENERGY PREDICTED BY IDOCK:   -9.26 KCAL/MOL
REMARK 923 INTER-LIGAND FREE ENERGY PREDICTED BY IDOCK:   -8.42 KCAL/MOL
REMARK 924 INTRA-LIGAND FREE ENERGY PREDICTED BY IDOCK:   -0.85 KCAL/MOL
REMARK 927      BINDING AFFINITY PREDICTED BY RF-SCORE:    0.00 PKD
ROOT
HETATM    1  C   UNL     1      -7.767   7.229  63.319  1.00  0.00    -0.120 C  
HETATM    2  O   UNL     1      -7.478   8.609  63.500  1.00  0.00    -0.101 OA 
ENDROOT
BRANCH   2   3
HETATM    3  C   UNL     1      -8.547   9.439  63.694  1.00  0.00    -0.208 A  
HETATM    4  C   UNL     1      -9.122  10.274  62.737  1.00  0.00    -0.296 A  
HETATM    5  C   UNL     1     -10.179  11.122  63.085  1.00  0.00    -0.347 A  
HETATM    6  C   UNL     1     -10.683  11.134  64.392  1.00  0.00    -0.388 A  
HETATM    7  C   UNL     1      -9.069   9.426  64.988  1.00  0.00    -0.271 A  
HETATM    8  C   UNL     1     -10.127  10.266  65.337  1.00  0.00    -0.354 A  
BRANCH   6   9
HETATM    9  C   UNL     1     -11.706  12.156  64.829  1.00  0.00    -0.390 C  
BRANCH   9  10
HETATM   10  C   UNL     1     -11.264  13.638  64.800  1.00  0.00    -0.360 C  
HETATM   11  C   UNL     1     -12.469  14.573  64.961  1.00  0.00    -0.307 C  
BRANCH  10  12
HETATM   12  N   UNL     1     -10.314  13.964  65.882  1.00  0.00    -0.302 NA 
HETATM   13  H   UNL     1      -9.595  14.606  65.551  1.00  0.00     0.000 HD 
BRANCH  12  14
HETATM   14  C   UNL     1     -10.965  14.490  67.094  1.00  0.00    -0.304 C  
BRANCH  14  15
HETATM   15  C   UNL     1     -10.556  13.752  68.391  1.00  0.00    -0.253 C  
HETATM   16  H   UNL     1     -10.016  11.926  68.892  1.00  0.00     0.000 HD 
HETATM   17  O   UNL     1     -10.267  12.379  68.096  1.00  0.00    -0.212 OA 
BRANCH  15  18
HETATM   18  C   UNL     1     -11.551  13.880  69.526  1.00  0.00    -0.358 A  
HETATM   19  C   UNL     1     -11.938  12.729  70.236  1.00  0.00    -0.358 A  
HETATM   20  C   UNL     1     -12.873  12.799  71.275  1.00  0.00    -0.262 A  
HETATM   21  H   UNL     1     -14.718  15.052  72.809  1.00  0.00     0.000 HD 
HETATM   22  C   UNL     1     -13.404  14.051  71.612  1.00  0.00    -0.367 A  
HETATM   23  C   UNL     1     -12.086  15.120  69.901  1.00  0.00    -0.373 A  
HETATM   24  C   UNL     1     -13.009  15.205  70.941  1.00  0.00    -0.488 A  
HETATM   25  O   UNL     1     -14.358  14.203  72.580  1.00  0.00    -0.595 OA 
BRANCH  20  26
HETATM   26  N   UNL     1     -13.278  11.661  71.997  1.00  0.00    -0.495 N  
HETATM   27  H   UNL     1     -13.739  11.832  72.890  1.00  0.00     0.000 HD 
HETATM   28  O   UNL     1     -13.503   9.432  72.345  1.00  0.00    -0.457 OA 
HETATM   29  C   UNL     1     -13.123  10.353  71.635  1.00  0.00    -0.448 C  
ENDBRANCH  20  26
ENDBRANCH  15  18
ENDBRANCH  14  15
ENDBRANCH  12  14
ENDBRANCH  10  12
ENDBRANCH   9  10
ENDBRANCH   6   9
ENDBRANCH   2   3
TORSDOF 8
ENDMDL
MODEL       82
REMARK 921   NORMALIZED FREE ENERGY PREDICTED BY IDOCK:   -5.17 KCAL/MOL
REMARK 922        TOTAL FREE ENERGY PREDICTED BY IDOCK:   -9.25 KCAL/MOL
REMARK 923 INTER-LIGAND FREE ENERGY PREDICTED BY IDOCK:   -8.79 KCAL/MOL
REMARK 924 INTRA-LIGAND FREE ENERGY PREDICTED BY IDOCK:   -0.46 KCAL/MOL
REMARK 927      BINDING AFFINITY PREDICTED BY RF-SCORE:    0.00 PKD
ROOT
HETATM    1  C   UNL     1      -6.049  20.807  66.290  1.00  0.00    -0.233 C  
HETATM    2  O   UNL     1      -7.211  21.194  67.012  1.00  0.00    -0.368 OA 
ENDROOT
BRANCH   2   3
HETATM    3  C   UNL     1      -8.059  20.191  67.391  1.00  0.00    -0.335 A  
HETATM    4  C   UNL     1      -7.808  19.231  68.371  1.00  0.00    -0.377 A  
HETATM    5  C   UNL     1      -8.740  18.218  68.620  1.00  0.00    -0.290 A  
HETATM    6  C   UNL     1      -9.942  18.161  67.902  1.00  0.00    -0.340 A  
HETATM    7  C   UNL     1      -9.269  20.156  66.698  1.00  0.00    -0.467 A  
HETATM    8  C   UNL     1     -10.203  19.150  66.948  1.00  0.00    -0.480 A  
BRANCH   6   9
HETATM    9  C   UNL     1     -10.881  16.986  68.036  1.00  0.00    -0.330 C  
BRANCH   9  10
HETATM   10  C   UNL     1     -10.773  15.883  66.958  1.00  0.00    -0.292 C  
HETATM   11  C   UNL     1      -9.346  15.801  66.400  1.00  0.00    -0.333 C  
BRANCH  10  12
HETATM   12  N   UNL     1     -11.111  14.545  67.484  1.00  0.00    -0.297 NA 
HETATM   13  H   UNL     1     -11.237  14.576  68.496  1.00  0.00     0.000 HD 
BRANCH  12  14
HETATM   14  C   UNL     1     -12.283  13.938  66.831  1.00  0.00    -0.377 C  
BRANCH  14  15
HETATM   15  C   UNL     1     -11.925  13.030  65.630  1.00  0.00    -0.429 C  
HETATM   16  H   UNL     1     -12.876  12.237  64.099  1.00  0.00     0.000 HD 
HETATM   17  O   UNL     1     -13.095  12.795  64.836  1.00  0.00    -0.833 OA 
BRANCH  15  18
HETATM   18  C   UNL     1     -11.238  11.734  66.007  1.00  0.00    -0.352 A  
HETATM   19  C   UNL     1     -11.470  11.175  67.277  1.00  0.00    -0.218 A  
HETATM   20  C   UNL     1     -10.836   9.992  67.674  1.00  0.00    -0.278 A  
HETATM   21  H   UNL     1      -8.695   7.797  66.476  1.00  0.00     0.000 HD 
HETATM   22  C   UNL     1      -9.975   9.358  66.768  1.00  0.00    -0.239 A  
HETATM   23  C   UNL     1     -10.387  11.065  65.116  1.00  0.00    -0.346 A  
HETATM   24  C   UNL     1      -9.758   9.881  65.496  1.00  0.00    -0.370 A  
HETATM   25  O   UNL     1      -9.279   8.227  67.091  1.00  0.00    -0.137 OA 
BRANCH  20  26
HETATM   26  N   UNL     1     -11.050   9.415  68.940  1.00  0.00    -0.448 N  
HETATM   27  H   UNL     1     -11.433   8.470  68.948  1.00  0.00     0.000 HD 
HETATM   28  O   UNL     1     -11.035   9.394  71.207  1.00  0.00    -0.317 OA 
HETATM   29  C   UNL     1     -10.801   9.980  70.159  1.00  0.00    -0.311 C  
ENDBRANCH  20  26
ENDBRANCH  15  18
ENDBRANCH  14  15
ENDBRANCH  12  14
ENDBRANCH  10  12
ENDBRANCH   9  10
ENDBRANCH   6   9
ENDBRANCH   2   3
TORSDOF 8
ENDMDL
MODEL       83
REMARK 921   NORMALIZED FREE ENERGY PREDICTED BY IDOCK:   -5.17 KCAL/MOL
REMARK 922        TOTAL FREE ENERGY PREDICTED BY IDOCK:   -9.25 KCAL/MOL
REMARK 923 INTER-LIGAND FREE ENERGY PREDICTED BY IDOCK:   -8.06 KCAL/MOL
REMARK 924 INTRA-LIGAND FREE ENERGY PREDICTED BY IDOCK:   -1.19 KCAL/MOL
REMARK 927      BINDING AFFINITY PREDICTED BY RF-SCORE:    0.00 PKD
ROOT
HETATM    1  C   UNL     1     -10.756   5.829  68.365  1.00  0.00    -0.209 C  
HETATM    2  O   UNL     1     -10.802   6.668  67.218  1.00  0.00    -0.303 OA 
ENDROOT
BRANCH   2   3
HETATM    3  C   UNL     1     -10.483   7.984  67.409  1.00  0.00    -0.287 A  
HETATM    4  C   UNL     1     -10.698   8.721  68.573  1.00  0.00    -0.108 A  
HETATM    5  C   UNL     1     -10.379  10.082  68.615  1.00  0.00    -0.211 A  
HETATM    6  C   UNL     1      -9.827  10.720  67.496  1.00  0.00    -0.197 A  
HETATM    7  C   UNL     1      -9.903   8.610  66.305  1.00  0.00    -0.320 A  
HETATM    8  C   UNL     1      -9.578   9.966  66.345  1.00  0.00    -0.255 A  
BRANCH   6   9
HETATM    9  C   UNL     1      -9.631  12.218  67.465  1.00  0.00    -0.184 C  
BRANCH   9  10
HETATM   10  C   UNL     1     -10.401  12.995  66.371  1.00  0.00    -0.281 C  
HETATM   11  C   UNL     1     -11.905  12.705  66.449  1.00  0.00    -0.466 C  
BRANCH  10  12
HETATM   12  N   UNL     1     -10.233  14.457  66.496  1.00  0.00    -0.268 NA 
HETATM   13  H   UNL     1     -10.998  14.949  66.034  1.00  0.00     0.000 HD 
BRANCH  12  14
HETATM   14  C   UNL     1     -10.085  14.913  67.888  1.00  0.00    -0.227 C  
BRANCH  14  15
HETATM   15  C   UNL     1     -11.285  15.743  68.403  1.00  0.00    -0.362 C  
HETATM   16  H   UNL     1     -11.741  17.651  68.576  1.00  0.00     0.000 HD 
HETATM   17  O   UNL     1     -11.004  17.141  68.260  1.00  0.00    -0.352 OA 
BRANCH  15  18
HETATM   18  C   UNL     1     -11.724  15.404  69.813  1.00  0.00    -0.352 A  
HETATM   19  C   UNL     1     -12.207  14.112  70.092  1.00  0.00    -0.415 A  
HETATM   20  C   UNL     1     -12.645  13.765  71.375  1.00  0.00    -0.348 A  
HETATM   21  H   UNL     1     -12.978  15.145  74.345  1.00  0.00     0.000 HD 
HETATM   22  C   UNL     1     -12.574  14.730  72.389  1.00  0.00    -0.339 A  
HETATM   23  C   UNL     1     -11.647  16.340  70.853  1.00  0.00    -0.321 A  
HETATM   24  C   UNL     1     -12.071  16.003  72.137  1.00  0.00    -0.611 A  
HETATM   25  O   UNL     1     -13.026  14.491  73.657  1.00  0.00    -0.502 OA 
BRANCH  20  26
HETATM   26  N   UNL     1     -13.135  12.481  71.678  1.00  0.00    -0.376 N  
HETATM   27  H   UNL     1     -13.837  12.426  72.416  1.00  0.00     0.000 HD 
HETATM   28  O   UNL     1     -13.255  10.230  71.441  1.00  0.00    -0.376 OA 
HETATM   29  C   UNL     1     -12.775  11.299  71.094  1.00  0.00    -0.390 C  
ENDBRANCH  20  26
ENDBRANCH  15  18
ENDBRANCH  14  15
ENDBRANCH  12  14
ENDBRANCH  10  12
ENDBRANCH   9  10
ENDBRANCH   6   9
ENDBRANCH   2   3
TORSDOF 8
ENDMDL
MODEL       84
REMARK 921   NORMALIZED FREE ENERGY PREDICTED BY IDOCK:   -5.17 KCAL/MOL
REMARK 922        TOTAL FREE ENERGY PREDICTED BY IDOCK:   -9.24 KCAL/MOL
REMARK 923 INTER-LIGAND FREE ENERGY PREDICTED BY IDOCK:   -8.62 KCAL/MOL
REMARK 924 INTRA-LIGAND FREE ENERGY PREDICTED BY IDOCK:   -0.63 KCAL/MOL
REMARK 927      BINDING AFFINITY PREDICTED BY RF-SCORE:    0.00 PKD
ROOT
HETATM    1  C   UNL     1      -8.738  18.471  66.883  1.00  0.00    -0.286 C  
HETATM    2  O   UNL     1      -9.574  17.957  65.855  1.00  0.00    -0.525 OA 
ENDROOT
BRANCH   2   3
HETATM    3  C   UNL     1     -10.058  16.691  66.035  1.00  0.00    -0.340 A  
HETATM    4  C   UNL     1     -10.731  15.926  65.082  1.00  0.00    -0.449 A  
HETATM    5  C   UNL     1     -11.229  14.663  65.416  1.00  0.00    -0.347 A  
HETATM    6  C   UNL     1     -11.048  14.142  66.704  1.00  0.00    -0.314 A  
HETATM    7  C   UNL     1      -9.848  16.161  67.308  1.00  0.00    -0.241 A  
HETATM    8  C   UNL     1     -10.339  14.898  67.643  1.00  0.00    -0.242 A  
BRANCH   6   9
HETATM    9  C   UNL     1     -11.720  12.859  67.133  1.00  0.00    -0.437 C  
BRANCH   9  10
HETATM   10  C   UNL     1     -10.993  11.541  66.774  1.00  0.00    -0.294 C  
HETATM   11  C   UNL     1     -10.711  11.464  65.268  1.00  0.00    -0.326 C  
BRANCH  10  12
HETATM   12  N   UNL     1      -9.696  11.406  67.467  1.00  0.00    -0.177 NA 
HETATM   13  H   UNL     1      -9.044  12.126  67.157  1.00  0.00     0.000 HD 
BRANCH  12  14
HETATM   14  C   UNL     1      -9.814  11.405  68.935  1.00  0.00    -0.112 C  
BRANCH  14  15
HETATM   15  C   UNL     1      -9.828   9.989  69.558  1.00  0.00    -0.229 C  
HETATM   16  H   UNL     1      -9.681   8.135  68.909  1.00  0.00     0.000 HD 
HETATM   17  O   UNL     1      -9.672   9.005  68.526  1.00  0.00    -0.154 OA 
BRANCH  15  18
HETATM   18  C   UNL     1     -11.034   9.697  70.427  1.00  0.00    -0.356 A  
HETATM   19  C   UNL     1     -11.188   8.414  70.983  1.00  0.00    -0.304 A  
HETATM   20  C   UNL     1     -12.300   8.096  71.772  1.00  0.00    -0.321 A  
HETATM   21  H   UNL     1     -15.039   9.531  72.899  1.00  0.00     0.000 HD 
HETATM   22  C   UNL     1     -13.254   9.093  72.016  1.00  0.00    -0.441 A  
HETATM   23  C   UNL     1     -11.995  10.678  70.706  1.00  0.00    -0.477 A  
HETATM   24  C   UNL     1     -13.101  10.376  71.498  1.00  0.00    -0.532 A  
HETATM   25  O   UNL     1     -14.392   8.854  72.733  1.00  0.00    -0.600 OA 
BRANCH  20  26
HETATM   26  N   UNL     1     -12.477   6.819  72.337  1.00  0.00    -0.519 N  
HETATM   27  H   UNL     1     -13.430   6.569  72.600  1.00  0.00     0.000 HD 
HETATM   28  O   UNL     1     -11.775   4.796  73.081  1.00  0.00    -0.298 OA 
HETATM   29  C   UNL     1     -11.515   5.878  72.572  1.00  0.00    -0.298 C  
ENDBRANCH  20  26
ENDBRANCH  15  18
ENDBRANCH  14  15
ENDBRANCH  12  14
ENDBRANCH  10  12
ENDBRANCH   9  10
ENDBRANCH   6   9
ENDBRANCH   2   3
TORSDOF 8
ENDMDL
MODEL       85
REMARK 921   NORMALIZED FREE ENERGY PREDICTED BY IDOCK:   -5.17 KCAL/MOL
REMARK 922        TOTAL FREE ENERGY PREDICTED BY IDOCK:   -9.24 KCAL/MOL
REMARK 923 INTER-LIGAND FREE ENERGY PREDICTED BY IDOCK:   -8.30 KCAL/MOL
REMARK 924 INTRA-LIGAND FREE ENERGY PREDICTED BY IDOCK:   -0.94 KCAL/MOL
REMARK 927      BINDING AFFINITY PREDICTED BY RF-SCORE:    0.00 PKD
ROOT
HETATM    1  C   UNL     1      -6.098  20.487  68.510  1.00  0.00    -0.326 C  
HETATM    2  O   UNL     1      -7.183  19.785  69.102  1.00  0.00    -0.342 OA 
ENDROOT
BRANCH   2   3
HETATM    3  C   UNL     1      -8.094  19.231  68.247  1.00  0.00    -0.332 A  
HETATM    4  C   UNL     1      -9.465  19.484  68.233  1.00  0.00    -0.442 A  
HETATM    5  C   UNL     1     -10.299  18.801  67.341  1.00  0.00    -0.472 A  
HETATM    6  C   UNL     1      -9.768  17.866  66.442  1.00  0.00    -0.321 A  
HETATM    7  C   UNL     1      -7.560  18.326  67.330  1.00  0.00    -0.219 A  
HETATM    8  C   UNL     1      -8.387  17.646  66.436  1.00  0.00    -0.288 A  
BRANCH   6   9
HETATM    9  C   UNL     1     -10.666  17.000  65.590  1.00  0.00    -0.150 C  
BRANCH   9  10
HETATM   10  C   UNL     1     -10.504  15.470  65.744  1.00  0.00    -0.361 C  
HETATM   11  C   UNL     1     -11.090  14.988  67.077  1.00  0.00    -0.334 C  
BRANCH  10  12
HETATM   12  N   UNL     1     -11.189  14.720  64.672  1.00  0.00    -0.566 NA 
HETATM   13  H   UNL     1     -11.250  15.279  63.822  1.00  0.00     0.000 HD 
BRANCH  12  14
HETATM   14  C   UNL     1     -10.578  13.409  64.392  1.00  0.00    -0.407 C  
BRANCH  14  15
HETATM   15  C   UNL     1     -11.445  12.209  64.839  1.00  0.00    -0.325 C  
HETATM   16  H   UNL     1     -13.341  11.889  65.262  1.00  0.00     0.000 HD 
HETATM   17  O   UNL     1     -12.808  12.626  64.987  1.00  0.00    -0.765 OA 
BRANCH  15  18
HETATM   18  C   UNL     1     -10.942  11.498  66.079  1.00  0.00    -0.316 A  
HETATM   19  C   UNL     1     -11.774  11.417  67.211  1.00  0.00    -0.125 A  
HETATM   20  C   UNL     1     -11.339  10.791  68.385  1.00  0.00    -0.302 A  
HETATM   21  H   UNL     1      -8.667   9.254  69.538  1.00  0.00     0.000 HD 
HETATM   22  C   UNL     1     -10.058  10.225  68.405  1.00  0.00    -0.159 A  
HETATM   23  C   UNL     1      -9.674  10.904  66.124  1.00  0.00    -0.252 A  
HETATM   24  C   UNL     1      -9.233  10.270  67.284  1.00  0.00    -0.157 A  
HETATM   25  O   UNL     1      -9.536   9.639  69.524  1.00  0.00    -0.174 OA 
BRANCH  20  26
HETATM   26  N   UNL     1     -12.151  10.700  69.530  1.00  0.00    -0.501 N  
HETATM   27  H   UNL     1     -12.611   9.804  69.689  1.00  0.00     0.000 HD 
HETATM   28  O   UNL     1     -13.129  11.498  71.414  1.00  0.00    -0.380 OA 
HETATM   29  C   UNL     1     -12.393  11.678  70.454  1.00  0.00    -0.288 C  
ENDBRANCH  20  26
ENDBRANCH  15  18
ENDBRANCH  14  15
ENDBRANCH  12  14
ENDBRANCH  10  12
ENDBRANCH   9  10
ENDBRANCH   6   9
ENDBRANCH   2   3
TORSDOF 8
ENDMDL
MODEL       86
REMARK 921   NORMALIZED FREE ENERGY PREDICTED BY IDOCK:   -5.16 KCAL/MOL
REMARK 922        TOTAL FREE ENERGY PREDICTED BY IDOCK:   -9.24 KCAL/MOL
REMARK 923 INTER-LIGAND FREE ENERGY PREDICTED BY IDOCK:   -8.06 KCAL/MOL
REMARK 924 INTRA-LIGAND FREE ENERGY PREDICTED BY IDOCK:   -1.18 KCAL/MOL
REMARK 927      BINDING AFFINITY PREDICTED BY RF-SCORE:    0.00 PKD
ROOT
HETATM    1  C   UNL     1     -11.844   6.566  72.155  1.00  0.00    -0.305 C  
HETATM    2  O   UNL     1     -11.976   7.922  72.561  1.00  0.00    -0.340 OA 
ENDROOT
BRANCH   2   3
HETATM    3  C   UNL     1     -11.783   8.872  71.597  1.00  0.00    -0.341 A  
HETATM    4  C   UNL     1     -10.784   8.863  70.624  1.00  0.00    -0.282 A  
HETATM    5  C   UNL     1     -10.660   9.932  69.731  1.00  0.00    -0.296 A  
HETATM    6  C   UNL     1     -11.543  11.018  69.791  1.00  0.00    -0.401 A  
HETATM    7  C   UNL     1     -12.684   9.936  71.637  1.00  0.00    -0.527 A  
HETATM    8  C   UNL     1     -12.567  11.002  70.744  1.00  0.00    -0.463 A  
BRANCH   6   9
HETATM    9  C   UNL     1     -11.325  12.254  68.950  1.00  0.00    -0.337 C  
BRANCH   9  10
HETATM   10  C   UNL     1     -11.311  12.057  67.416  1.00  0.00    -0.327 C  
HETATM   11  C   UNL     1     -12.017  13.220  66.708  1.00  0.00    -0.438 C  
BRANCH  10  12
HETATM   12  N   UNL     1      -9.941  11.982  66.870  1.00  0.00    -0.201 NA 
HETATM   13  H   UNL     1      -9.901  12.392  65.937  1.00  0.00     0.000 HD 
BRANCH  12  14
HETATM   14  C   UNL     1      -8.926  12.586  67.749  1.00  0.00    -0.184 C  
BRANCH  14  15
HETATM   15  C   UNL     1      -8.174  13.776  67.107  1.00  0.00    -0.108 C  
HETATM   16  H   UNL     1      -6.363  14.542  67.194  1.00  0.00     0.000 HD 
HETATM   17  O   UNL     1      -6.825  13.811  67.589  1.00  0.00    -0.161 OA 
BRANCH  15  18
HETATM   18  C   UNL     1      -8.861  15.116  67.274  1.00  0.00    -0.216 A  
HETATM   19  C   UNL     1      -9.602  15.369  68.443  1.00  0.00    -0.200 A  
HETATM   20  C   UNL     1     -10.272  16.584  68.626  1.00  0.00    -0.264 A  
HETATM   21  H   UNL     1     -10.767  19.415  67.021  1.00  0.00     0.000 HD 
HETATM   22  C   UNL     1     -10.173  17.559  67.625  1.00  0.00    -0.343 A  
HETATM   23  C   UNL     1      -8.765  16.119  66.300  1.00  0.00    -0.373 A  
HETATM   24  C   UNL     1      -9.419  17.337  66.476  1.00  0.00    -0.286 A  
HETATM   25  O   UNL     1     -10.834  18.753  67.700  1.00  0.00    -0.426 OA 
BRANCH  20  26
HETATM   26  N   UNL     1     -11.021  16.860  69.785  1.00  0.00    -0.371 N  
HETATM   27  H   UNL     1     -11.269  17.836  69.943  1.00  0.00     0.000 HD 
HETATM   28  O   UNL     1     -12.094  16.311  71.706  1.00  0.00    -0.462 OA 
HETATM   29  C   UNL     1     -11.454  15.964  70.722  1.00  0.00    -0.407 C  
ENDBRANCH  20  26
ENDBRANCH  15  18
ENDBRANCH  14  15
ENDBRANCH  12  14
ENDBRANCH  10  12
ENDBRANCH   9  10
ENDBRANCH   6   9
ENDBRANCH   2   3
TORSDOF 8
ENDMDL
MODEL       87
REMARK 921   NORMALIZED FREE ENERGY PREDICTED BY IDOCK:   -5.16 KCAL/MOL
REMARK 922        TOTAL FREE ENERGY PREDICTED BY IDOCK:   -9.24 KCAL/MOL
REMARK 923 INTER-LIGAND FREE ENERGY PREDICTED BY IDOCK:   -8.28 KCAL/MOL
REMARK 924 INTRA-LIGAND FREE ENERGY PREDICTED BY IDOCK:   -0.96 KCAL/MOL
REMARK 927      BINDING AFFINITY PREDICTED BY RF-SCORE:    0.00 PKD
ROOT
HETATM    1  C   UNL     1     -10.960   5.860  73.159  1.00  0.00    -0.253 C  
HETATM    2  O   UNL     1     -11.435   7.063  72.570  1.00  0.00    -0.266 OA 
ENDROOT
BRANCH   2   3
HETATM    3  C   UNL     1     -11.098   7.280  71.262  1.00  0.00    -0.247 A  
HETATM    4  C   UNL     1     -10.602   8.468  70.729  1.00  0.00    -0.244 A  
HETATM    5  C   UNL     1     -10.354   8.576  69.356  1.00  0.00    -0.218 A  
HETATM    6  C   UNL     1     -10.586   7.490  68.502  1.00  0.00    -0.172 A  
HETATM    7  C   UNL     1     -11.299   6.187  70.419  1.00  0.00    -0.399 A  
HETATM    8  C   UNL     1     -11.048   6.288  69.050  1.00  0.00    -0.446 A  
BRANCH   6   9
HETATM    9  C   UNL     1     -10.485   7.636  67.002  1.00  0.00    -0.419 C  
BRANCH   9  10
HETATM   10  C   UNL     1      -9.197   7.097  66.337  1.00  0.00    -0.157 C  
HETATM   11  C   UNL     1      -9.396   5.658  65.845  1.00  0.00    -0.119 C  
BRANCH  10  12
HETATM   12  N   UNL     1      -8.786   7.903  65.170  1.00  0.00    -0.376 NA 
HETATM   13  H   UNL     1      -9.298   7.618  64.336  1.00  0.00     0.000 HD 
BRANCH  12  14
HETATM   14  C   UNL     1      -8.908   9.354  65.388  1.00  0.00    -0.184 C  
BRANCH  14  15
HETATM   15  C   UNL     1      -9.422  10.129  64.151  1.00  0.00    -0.293 C  
HETATM   16  H   UNL     1      -8.626  11.143  62.663  1.00  0.00     0.000 HD 
HETATM   17  O   UNL     1      -8.311  10.667  63.422  1.00  0.00    -0.149 OA 
BRANCH  15  18
HETATM   18  C   UNL     1     -10.454  11.193  64.461  1.00  0.00    -0.415 A  
HETATM   19  C   UNL     1     -10.751  11.494  65.803  1.00  0.00    -0.325 A  
HETATM   20  C   UNL     1     -11.715  12.453  66.133  1.00  0.00    -0.400 A  
HETATM   21  H   UNL     1     -13.802  14.501  64.622  1.00  0.00     0.000 HD 
HETATM   22  C   UNL     1     -12.369  13.128  65.094  1.00  0.00    -0.473 A  
HETATM   23  C   UNL     1     -11.111  11.900  63.445  1.00  0.00    -0.463 A  
HETATM   24  C   UNL     1     -12.066  12.865  63.762  1.00  0.00    -0.583 A  
HETATM   25  O   UNL     1     -13.358  14.043  65.327  1.00  0.00    -0.741 OA 
BRANCH  20  26
HETATM   26  N   UNL     1     -12.032  12.769  67.468  1.00  0.00    -0.341 N  
HETATM   27  H   UNL     1     -12.713  12.165  67.927  1.00  0.00     0.000 HD 
HETATM   28  O   UNL     1     -11.879  13.990  69.372  1.00  0.00    -0.289 OA 
HETATM   29  C   UNL     1     -11.527  13.794  68.217  1.00  0.00    -0.312 C  
ENDBRANCH  20  26
ENDBRANCH  15  18
ENDBRANCH  14  15
ENDBRANCH  12  14
ENDBRANCH  10  12
ENDBRANCH   9  10
ENDBRANCH   6   9
ENDBRANCH   2   3
TORSDOF 8
ENDMDL
MODEL       88
REMARK 921   NORMALIZED FREE ENERGY PREDICTED BY IDOCK:   -5.16 KCAL/MOL
REMARK 922        TOTAL FREE ENERGY PREDICTED BY IDOCK:   -9.24 KCAL/MOL
REMARK 923 INTER-LIGAND FREE ENERGY PREDICTED BY IDOCK:   -8.68 KCAL/MOL
REMARK 924 INTRA-LIGAND FREE ENERGY PREDICTED BY IDOCK:   -0.56 KCAL/MOL
REMARK 927      BINDING AFFINITY PREDICTED BY RF-SCORE:    0.00 PKD
ROOT
HETATM    1  C   UNL     1      -6.469  21.088  67.046  1.00  0.00    -0.335 C  
HETATM    2  O   UNL     1      -7.820  21.294  67.437  1.00  0.00    -0.312 OA 
ENDROOT
BRANCH   2   3
HETATM    3  C   UNL     1      -8.607  20.180  67.533  1.00  0.00    -0.336 A  
HETATM    4  C   UNL     1      -9.815  19.968  66.869  1.00  0.00    -0.571 A  
HETATM    5  C   UNL     1     -10.554  18.804  67.104  1.00  0.00    -0.491 A  
HETATM    6  C   UNL     1     -10.087  17.830  67.996  1.00  0.00    -0.355 A  
HETATM    7  C   UNL     1      -8.124  19.197  68.397  1.00  0.00    -0.378 A  
HETATM    8  C   UNL     1      -8.856  18.032  68.630  1.00  0.00    -0.272 A  
BRANCH   6   9
HETATM    9  C   UNL     1     -10.945  16.651  68.390  1.00  0.00    -0.345 C  
BRANCH   9  10
HETATM   10  C   UNL     1     -10.996  15.467  67.395  1.00  0.00    -0.306 C  
HETATM   11  C   UNL     1      -9.589  15.104  66.903  1.00  0.00    -0.252 C  
BRANCH  10  12
HETATM   12  N   UNL     1     -11.573  14.249  67.998  1.00  0.00    -0.313 NA 
HETATM   13  H   UNL     1     -12.199  13.783  67.342  1.00  0.00     0.000 HD 
BRANCH  12  14
HETATM   14  C   UNL     1     -10.558  13.310  68.506  1.00  0.00    -0.256 C  
BRANCH  14  15
HETATM   15  C   UNL     1     -10.802  11.841  68.086  1.00  0.00    -0.217 C  
HETATM   16  H   UNL     1     -12.293  10.792  67.341  1.00  0.00     0.000 HD 
HETATM   17  O   UNL     1     -12.142  11.694  67.599  1.00  0.00    -0.615 OA 
BRANCH  15  18
HETATM   18  C   UNL     1     -10.484  10.820  69.159  1.00  0.00    -0.243 A  
HETATM   19  C   UNL     1     -11.518  10.349  69.989  1.00  0.00    -0.382 A  
HETATM   20  C   UNL     1     -11.263   9.424  71.008  1.00  0.00    -0.342 A  
HETATM   21  H   UNL     1      -8.718   7.776  72.288  1.00  0.00     0.000 HD 
HETATM   22  C   UNL     1      -9.953   8.958  71.175  1.00  0.00    -0.272 A  
HETATM   23  C   UNL     1      -9.188  10.319  69.338  1.00  0.00    -0.206 A  
HETATM   24  C   UNL     1      -8.924   9.391  70.343  1.00  0.00    -0.294 A  
HETATM   25  O   UNL     1      -9.607   8.092  72.175  1.00  0.00    -0.195 OA 
BRANCH  20  26
HETATM   26  N   UNL     1     -12.280   8.940  71.852  1.00  0.00    -0.348 N  
HETATM   27  H   UNL     1     -12.065   8.096  72.383  1.00  0.00     0.000 HD 
HETATM   28  O   UNL     1     -14.343   8.966  72.793  1.00  0.00    -0.600 OA 
HETATM   29  C   UNL     1     -13.524   9.474  72.040  1.00  0.00    -0.443 C  
ENDBRANCH  20  26
ENDBRANCH  15  18
ENDBRANCH  14  15
ENDBRANCH  12  14
ENDBRANCH  10  12
ENDBRANCH   9  10
ENDBRANCH   6   9
ENDBRANCH   2   3
TORSDOF 8
ENDMDL
MODEL       89
REMARK 921   NORMALIZED FREE ENERGY PREDICTED BY IDOCK:   -5.16 KCAL/MOL
REMARK 922        TOTAL FREE ENERGY PREDICTED BY IDOCK:   -9.23 KCAL/MOL
REMARK 923 INTER-LIGAND FREE ENERGY PREDICTED BY IDOCK:   -8.45 KCAL/MOL
REMARK 924 INTRA-LIGAND FREE ENERGY PREDICTED BY IDOCK:   -0.78 KCAL/MOL
REMARK 927      BINDING AFFINITY PREDICTED BY RF-SCORE:    0.00 PKD
ROOT
HETATM    1  C   UNL     1     -10.047   4.718  70.775  1.00  0.00    -0.216 C  
HETATM    2  O   UNL     1     -11.098   5.603  70.411  1.00  0.00    -0.261 OA 
ENDROOT
BRANCH   2   3
HETATM    3  C   UNL     1     -10.794   6.571  69.494  1.00  0.00    -0.304 A  
HETATM    4  C   UNL     1     -10.284   7.838  69.776  1.00  0.00    -0.211 A  
HETATM    5  C   UNL     1     -10.073   8.760  68.745  1.00  0.00    -0.213 A  
HETATM    6  C   UNL     1     -10.357   8.419  67.416  1.00  0.00    -0.355 A  
HETATM    7  C   UNL     1     -11.045   6.219  68.168  1.00  0.00    -0.364 A  
HETATM    8  C   UNL     1     -10.831   7.133  67.136  1.00  0.00    -0.403 A  
BRANCH   6   9
HETATM    9  C   UNL     1     -10.296   9.449  66.312  1.00  0.00    -0.211 C  
BRANCH   9  10
HETATM   10  C   UNL     1     -10.295  10.933  66.747  1.00  0.00    -0.241 C  
HETATM   11  C   UNL     1      -9.226  11.727  65.984  1.00  0.00    -0.202 C  
BRANCH  10  12
HETATM   12  N   UNL     1     -11.590  11.595  66.496  1.00  0.00    -0.477 NA 
HETATM   13  H   UNL     1     -11.830  12.223  67.262  1.00  0.00     0.000 HD 
BRANCH  12  14
HETATM   14  C   UNL     1     -11.646  12.303  65.205  1.00  0.00    -0.351 C  
BRANCH  14  15
HETATM   15  C   UNL     1     -12.346  13.680  65.279  1.00  0.00    -0.465 C  
HETATM   16  H   UNL     1     -13.031  15.011  63.999  1.00  0.00     0.000 HD 
HETATM   17  O   UNL     1     -12.601  14.165  63.954  1.00  0.00    -0.752 OA 
BRANCH  15  18
HETATM   18  C   UNL     1     -11.619  14.710  66.119  1.00  0.00    -0.332 A  
HETATM   19  C   UNL     1     -11.866  14.769  67.503  1.00  0.00    -0.326 A  
HETATM   20  C   UNL     1     -11.235  15.721  68.311  1.00  0.00    -0.356 A  
HETATM   21  H   UNL     1      -9.089  18.199  68.017  1.00  0.00     0.000 HD 
HETATM   22  C   UNL     1     -10.328  16.607  67.715  1.00  0.00    -0.306 A  
HETATM   23  C   UNL     1     -10.691  15.597  65.557  1.00  0.00    -0.403 A  
HETATM   24  C   UNL     1     -10.048  16.543  66.353  1.00  0.00    -0.323 A  
HETATM   25  O   UNL     1      -9.704  17.598  68.421  1.00  0.00    -0.290 OA 
BRANCH  20  26
HETATM   26  N   UNL     1     -11.468  15.801  69.696  1.00  0.00    -0.322 N  
HETATM   27  H   UNL     1     -10.702  16.159  70.265  1.00  0.00     0.000 HD 
HETATM   28  O   UNL     1     -12.705  15.552  71.580  1.00  0.00    -0.371 OA 
HETATM   29  C   UNL     1     -12.608  15.454  70.365  1.00  0.00    -0.389 C  
ENDBRANCH  20  26
ENDBRANCH  15  18
ENDBRANCH  14  15
ENDBRANCH  12  14
ENDBRANCH  10  12
ENDBRANCH   9  10
ENDBRANCH   6   9
ENDBRANCH   2   3
TORSDOF 8
ENDMDL
MODEL       90
REMARK 921   NORMALIZED FREE ENERGY PREDICTED BY IDOCK:   -5.15 KCAL/MOL
REMARK 922        TOTAL FREE ENERGY PREDICTED BY IDOCK:   -9.23 KCAL/MOL
REMARK 923 INTER-LIGAND FREE ENERGY PREDICTED BY IDOCK:   -8.46 KCAL/MOL
REMARK 924 INTRA-LIGAND FREE ENERGY PREDICTED BY IDOCK:   -0.76 KCAL/MOL
REMARK 927      BINDING AFFINITY PREDICTED BY RF-SCORE:    0.00 PKD
ROOT
HETATM    1  C   UNL     1     -13.690   7.955  72.062  1.00  0.00    -0.228 C  
HETATM    2  O   UNL     1     -12.493   8.668  72.344  1.00  0.00    -0.382 OA 
ENDROOT
BRANCH   2   3
HETATM    3  C   UNL     1     -12.197   9.718  71.520  1.00  0.00    -0.406 A  
HETATM    4  C   UNL     1     -12.869  10.939  71.473  1.00  0.00    -0.560 A  
HETATM    5  C   UNL     1     -12.502  11.911  70.537  1.00  0.00    -0.301 A  
HETATM    6  C   UNL     1     -11.447  11.679  69.644  1.00  0.00    -0.359 A  
HETATM    7  C   UNL     1     -11.126   9.498  70.654  1.00  0.00    -0.364 A  
HETATM    8  C   UNL     1     -10.753  10.467  69.723  1.00  0.00    -0.325 A  
BRANCH   6   9
HETATM    9  C   UNL     1     -11.144  12.642  68.521  1.00  0.00    -0.300 C  
BRANCH   9  10
HETATM   10  C   UNL     1     -11.833  14.024  68.586  1.00  0.00    -0.361 C  
HETATM   11  C   UNL     1     -10.962  15.036  69.342  1.00  0.00    -0.275 C  
BRANCH  10  12
HETATM   12  N   UNL     1     -12.091  14.590  67.246  1.00  0.00    -0.562 NA 
HETATM   13  H   UNL     1     -12.828  15.293  67.287  1.00  0.00     0.000 HD 
BRANCH  12  14
HETATM   14  C   UNL     1     -10.886  15.133  66.598  1.00  0.00    -0.318 C  
BRANCH  14  15
HETATM   15  C   UNL     1     -11.139  16.440  65.809  1.00  0.00     0.102 C  
HETATM   16  H   UNL     1     -11.220  16.980  63.917  1.00  0.00     0.000 HD 
HETATM   17  O   UNL     1     -11.065  16.177  64.402  1.00  0.00    -0.628 OA 
BRANCH  15  18
HETATM   18  C   UNL     1     -10.245  17.597  66.208  1.00  0.00    -0.362 A  
HETATM   19  C   UNL     1      -8.976  17.330  66.752  1.00  0.00    -0.269 A  
HETATM   20  C   UNL     1      -8.129  18.369  67.157  1.00  0.00    -0.239 A  
HETATM   21  H   UNL     1      -8.118  21.658  67.286  1.00  0.00     0.000 HD 
HETATM   22  C   UNL     1      -8.565  19.690  66.988  1.00  0.00    -0.312 A  
HETATM   23  C   UNL     1     -10.644  18.929  66.034  1.00  0.00    -0.470 A  
HETATM   24  C   UNL     1      -9.805  19.972  66.423  1.00  0.00    -0.578 A  
HETATM   25  O   UNL     1      -7.823  20.761  67.400  1.00  0.00    -0.339 OA 
BRANCH  20  26
HETATM   26  N   UNL     1      -6.856  18.127  67.706  1.00  0.00    -0.199 N  
HETATM   27  H   UNL     1      -6.067  18.181  67.062  1.00  0.00     0.000 HD 
HETATM   28  O   UNL     1      -5.413  17.625  69.381  1.00  0.00    -0.183 OA 
HETATM   29  C   UNL     1      -6.559  17.830  69.007  1.00  0.00    -0.244 C  
ENDBRANCH  20  26
ENDBRANCH  15  18
ENDBRANCH  14  15
ENDBRANCH  12  14
ENDBRANCH  10  12
ENDBRANCH   9  10
ENDBRANCH   6   9
ENDBRANCH   2   3
TORSDOF 8
ENDMDL
MODEL       91
REMARK 921   NORMALIZED FREE ENERGY PREDICTED BY IDOCK:   -5.15 KCAL/MOL
REMARK 922        TOTAL FREE ENERGY PREDICTED BY IDOCK:   -9.22 KCAL/MOL
REMARK 923 INTER-LIGAND FREE ENERGY PREDICTED BY IDOCK:   -8.31 KCAL/MOL
REMARK 924 INTRA-LIGAND FREE ENERGY PREDICTED BY IDOCK:   -0.91 KCAL/MOL
REMARK 927      BINDING AFFINITY PREDICTED BY RF-SCORE:    0.00 PKD
ROOT
HETATM    1  C   UNL     1     -10.389   5.373  74.176  1.00  0.00    -0.280 C  
HETATM    2  O   UNL     1     -11.372   5.815  73.250  1.00  0.00    -0.213 OA 
ENDROOT
BRANCH   2   3
HETATM    3  C   UNL     1     -10.918   6.474  72.142  1.00  0.00    -0.249 A  
HETATM    4  C   UNL     1     -10.321   7.734  72.123  1.00  0.00    -0.279 A  
HETATM    5  C   UNL     1      -9.955   8.324  70.909  1.00  0.00    -0.223 A  
HETATM    6  C   UNL     1     -10.169   7.653  69.697  1.00  0.00    -0.204 A  
HETATM    7  C   UNL     1     -11.101   5.791  70.940  1.00  0.00    -0.267 A  
HETATM    8  C   UNL     1     -10.733   6.373  69.726  1.00  0.00    -0.341 A  
BRANCH   6   9
HETATM    9  C   UNL     1      -9.937   8.337  68.370  1.00  0.00    -0.211 C  
BRANCH   9  10
HETATM   10  C   UNL     1     -10.082   9.876  68.348  1.00  0.00    -0.167 C  
HETATM   11  C   UNL     1      -9.081  10.506  67.370  1.00  0.00    -0.147 C  
BRANCH  10  12
HETATM   12  N   UNL     1     -11.430  10.309  67.929  1.00  0.00    -0.652 NA 
HETATM   13  H   UNL     1     -12.108   9.559  68.060  1.00  0.00     0.000 HD 
BRANCH  12  14
HETATM   14  C   UNL     1     -11.882  11.543  68.595  1.00  0.00    -0.318 C  
BRANCH  14  15
HETATM   15  C   UNL     1     -11.995  11.415  70.132  1.00  0.00    -0.377 C  
HETATM   16  H   UNL     1     -12.998  10.300  71.408  1.00  0.00     0.000 HD 
HETATM   17  O   UNL     1     -12.928  10.379  70.464  1.00  0.00    -0.344 OA 
BRANCH  15  18
HETATM   18  C   UNL     1     -12.322  12.710  70.848  1.00  0.00    -0.352 A  
HETATM   19  C   UNL     1     -11.857  13.926  70.316  1.00  0.00    -0.360 A  
HETATM   20  C   UNL     1     -12.116  15.143  70.958  1.00  0.00    -0.333 A  
HETATM   21  H   UNL     1     -13.640  16.253  73.656  1.00  0.00     0.000 HD 
HETATM   22  C   UNL     1     -12.871  15.128  72.139  1.00  0.00    -0.344 A  
HETATM   23  C   UNL     1     -13.091  12.730  72.019  1.00  0.00    -0.474 A  
HETATM   24  C   UNL     1     -13.364  13.936  72.662  1.00  0.00    -0.640 A  
HETATM   25  O   UNL     1     -13.128  16.263  72.855  1.00  0.00    -0.403 OA 
BRANCH  20  26
HETATM   26  N   UNL     1     -11.659  16.372  70.448  1.00  0.00    -0.456 N  
HETATM   27  H   UNL     1     -12.156  17.205  70.760  1.00  0.00     0.000 HD 
HETATM   28  O   UNL     1     -10.313  17.689  69.186  1.00  0.00    -0.353 OA 
HETATM   29  C   UNL     1     -10.623  16.574  69.579  1.00  0.00    -0.321 C  
ENDBRANCH  20  26
ENDBRANCH  15  18
ENDBRANCH  14  15
ENDBRANCH  12  14
ENDBRANCH  10  12
ENDBRANCH   9  10
ENDBRANCH   6   9
ENDBRANCH   2   3
TORSDOF 8
ENDMDL
MODEL       92
REMARK 921   NORMALIZED FREE ENERGY PREDICTED BY IDOCK:   -5.14 KCAL/MOL
REMARK 922        TOTAL FREE ENERGY PREDICTED BY IDOCK:   -9.21 KCAL/MOL
REMARK 923 INTER-LIGAND FREE ENERGY PREDICTED BY IDOCK:   -8.53 KCAL/MOL
REMARK 924 INTRA-LIGAND FREE ENERGY PREDICTED BY IDOCK:   -0.68 KCAL/MOL
REMARK 927      BINDING AFFINITY PREDICTED BY RF-SCORE:    0.00 PKD
ROOT
HETATM    1  C   UNL     1      -9.003   4.709  66.684  1.00  0.00    -0.112 C  
HETATM    2  O   UNL     1     -10.233   4.845  67.384  1.00  0.00    -0.172 OA 
ENDROOT
BRANCH   2   3
HETATM    3  C   UNL     1     -10.432   6.023  68.049  1.00  0.00    -0.233 A  
HETATM    4  C   UNL     1     -10.243   7.302  67.526  1.00  0.00    -0.284 A  
HETATM    5  C   UNL     1     -10.425   8.428  68.335  1.00  0.00    -0.208 A  
HETATM    6  C   UNL     1     -10.813   8.289  69.675  1.00  0.00    -0.154 A  
HETATM    7  C   UNL     1     -10.850   5.884  69.372  1.00  0.00    -0.422 A  
HETATM    8  C   UNL     1     -11.038   7.005  70.181  1.00  0.00    -0.323 A  
BRANCH   6   9
HETATM    9  C   UNL     1     -10.852   9.477  70.607  1.00  0.00    -0.371 C  
BRANCH   9  10
HETATM   10  C   UNL     1     -11.908  10.565  70.302  1.00  0.00    -0.331 C  
HETATM   11  C   UNL     1     -12.812  10.807  71.518  1.00  0.00    -0.567 C  
BRANCH  10  12
HETATM   12  N   UNL     1     -11.297  11.862  69.950  1.00  0.00    -0.505 NA 
HETATM   13  H   UNL     1     -10.307  11.747  69.733  1.00  0.00     0.000 HD 
BRANCH  12  14
HETATM   14  C   UNL     1     -11.994  12.561  68.857  1.00  0.00    -0.236 C  
BRANCH  14  15
HETATM   15  C   UNL     1     -11.372  12.311  67.462  1.00  0.00    -0.325 C  
HETATM   16  H   UNL     1      -9.692  11.570  66.753  1.00  0.00     0.000 HD 
HETATM   17  O   UNL     1     -10.073  11.724  67.610  1.00  0.00    -0.189 OA 
BRANCH  15  18
HETATM   18  C   UNL     1     -11.334  13.531  66.565  1.00  0.00    -0.340 A  
HETATM   19  C   UNL     1     -10.859  14.751  67.082  1.00  0.00    -0.311 A  
HETATM   20  C   UNL     1     -10.829  15.908  66.294  1.00  0.00    -0.200 A  
HETATM   21  H   UNL     1     -11.611  16.855  63.241  1.00  0.00     0.000 HD 
HETATM   22  C   UNL     1     -11.265  15.823  64.965  1.00  0.00    -0.308 A  
HETATM   23  C   UNL     1     -11.744  13.475  65.226  1.00  0.00    -0.341 A  
HETATM   24  C   UNL     1     -11.710  14.617  64.430  1.00  0.00    -0.358 A  
HETATM   25  O   UNL     1     -11.316  16.913  64.143  1.00  0.00    -1.208 OA 
BRANCH  20  26
HETATM   26  N   UNL     1     -10.362  17.139  66.789  1.00  0.00    -0.314 N  
HETATM   27  H   UNL     1     -10.019  17.805  66.097  1.00  0.00     0.000 HD 
HETATM   28  O   UNL     1      -9.878  18.637  68.421  1.00  0.00    -0.343 OA 
HETATM   29  C   UNL     1     -10.316  17.543  68.094  1.00  0.00    -0.375 C  
ENDBRANCH  20  26
ENDBRANCH  15  18
ENDBRANCH  14  15
ENDBRANCH  12  14
ENDBRANCH  10  12
ENDBRANCH   9  10
ENDBRANCH   6   9
ENDBRANCH   2   3
TORSDOF 8
ENDMDL
MODEL       93
REMARK 921   NORMALIZED FREE ENERGY PREDICTED BY IDOCK:   -5.14 KCAL/MOL
REMARK 922        TOTAL FREE ENERGY PREDICTED BY IDOCK:   -9.21 KCAL/MOL
REMARK 923 INTER-LIGAND FREE ENERGY PREDICTED BY IDOCK:   -7.90 KCAL/MOL
REMARK 924 INTRA-LIGAND FREE ENERGY PREDICTED BY IDOCK:   -1.31 KCAL/MOL
REMARK 927      BINDING AFFINITY PREDICTED BY RF-SCORE:    0.00 PKD
ROOT
HETATM    1  C   UNL     1     -10.980  11.842  63.327  1.00  0.00    -0.321 C  
HETATM    2  O   UNL     1     -11.777  12.905  63.833  1.00  0.00    -0.392 OA 
ENDROOT
BRANCH   2   3
HETATM    3  C   UNL     1     -11.113  13.923  64.461  1.00  0.00    -0.366 A  
HETATM    4  C   UNL     1      -9.942  13.801  65.209  1.00  0.00    -0.245 A  
HETATM    5  C   UNL     1      -9.397  14.917  65.853  1.00  0.00    -0.216 A  
HETATM    6  C   UNL     1     -10.010  16.172  65.745  1.00  0.00    -0.370 A  
HETATM    7  C   UNL     1     -11.706  15.178  64.326  1.00  0.00    -0.234 A  
HETATM    8  C   UNL     1     -11.163  16.294  64.962  1.00  0.00    -0.181 A  
BRANCH   6   9
HETATM    9  C   UNL     1      -9.535  17.350  66.563  1.00  0.00    -0.288 C  
BRANCH   9  10
HETATM   10  C   UNL     1      -9.579  17.189  68.101  1.00  0.00    -0.270 C  
HETATM   11  C   UNL     1      -9.188  18.498  68.800  1.00  0.00    -0.292 C  
BRANCH  10  12
HETATM   12  N   UNL     1     -10.922  16.819  68.591  1.00  0.00    -0.328 NA 
HETATM   13  H   UNL     1     -11.456  16.347  67.861  1.00  0.00     0.000 HD 
BRANCH  12  14
HETATM   14  C   UNL     1     -10.894  16.012  69.822  1.00  0.00    -0.337 C  
BRANCH  14  15
HETATM   15  C   UNL     1     -12.138  15.110  70.004  1.00  0.00    -0.345 C  
HETATM   16  H   UNL     1     -13.362  14.635  71.472  1.00  0.00     0.000 HD 
HETATM   17  O   UNL     1     -12.598  15.189  71.360  1.00  0.00    -0.303 OA 
BRANCH  15  18
HETATM   18  C   UNL     1     -11.942  13.674  69.565  1.00  0.00    -0.397 A  
HETATM   19  C   UNL     1     -11.948  12.651  70.530  1.00  0.00    -0.279 A  
HETATM   20  C   UNL     1     -11.746  11.314  70.170  1.00  0.00    -0.343 A  
HETATM   21  H   UNL     1     -11.178   9.529  67.464  1.00  0.00     0.000 HD 
HETATM   22  C   UNL     1     -11.558  11.008  68.816  1.00  0.00    -0.318 A  
HETATM   23  C   UNL     1     -11.771  13.333  68.216  1.00  0.00    -0.388 A  
HETATM   24  C   UNL     1     -11.579  12.004  67.843  1.00  0.00    -0.405 A  
HETATM   25  O   UNL     1     -11.305   9.737  68.383  1.00  0.00    -0.087 OA 
BRANCH  20  26
HETATM   26  N   UNL     1     -11.745  10.274  71.118  1.00  0.00    -0.361 N  
HETATM   27  H   UNL     1     -10.838   9.865  71.341  1.00  0.00     0.000 HD 
HETATM   28  O   UNL     1     -12.715   8.834  72.576  1.00  0.00    -0.396 OA 
HETATM   29  C   UNL     1     -12.824   9.751  71.774  1.00  0.00    -0.434 C  
ENDBRANCH  20  26
ENDBRANCH  15  18
ENDBRANCH  14  15
ENDBRANCH  12  14
ENDBRANCH  10  12
ENDBRANCH   9  10
ENDBRANCH   6   9
ENDBRANCH   2   3
TORSDOF 8
ENDMDL
MODEL       94
REMARK 921   NORMALIZED FREE ENERGY PREDICTED BY IDOCK:   -5.13 KCAL/MOL
REMARK 922        TOTAL FREE ENERGY PREDICTED BY IDOCK:   -9.19 KCAL/MOL
REMARK 923 INTER-LIGAND FREE ENERGY PREDICTED BY IDOCK:   -8.01 KCAL/MOL
REMARK 924 INTRA-LIGAND FREE ENERGY PREDICTED BY IDOCK:   -1.18 KCAL/MOL
REMARK 927      BINDING AFFINITY PREDICTED BY RF-SCORE:    0.00 PKD
ROOT
HETATM    1  C   UNL     1     -12.280  14.799  64.407  1.00  0.00    -0.428 C  
HETATM    2  O   UNL     1     -12.892  13.555  64.721  1.00  0.00    -0.677 OA 
ENDROOT
BRANCH   2   3
HETATM    3  C   UNL     1     -12.071  12.572  65.200  1.00  0.00    -0.446 A  
HETATM    4  C   UNL     1     -11.890  12.236  66.541  1.00  0.00    -0.378 A  
HETATM    5  C   UNL     1     -10.970  11.246  66.903  1.00  0.00    -0.348 A  
HETATM    6  C   UNL     1     -10.230  10.570  65.924  1.00  0.00    -0.311 A  
HETATM    7  C   UNL     1     -11.359  11.878  64.223  1.00  0.00    -0.425 A  
HETATM    8  C   UNL     1     -10.444  10.886  64.578  1.00  0.00    -0.393 A  
BRANCH   6   9
HETATM    9  C   UNL     1      -9.116   9.621  66.299  1.00  0.00    -0.197 C  
BRANCH   9  10
HETATM   10  C   UNL     1      -8.802   8.487  65.296  1.00  0.00    -0.100 C  
HETATM   11  C   UNL     1      -7.303   8.439  64.975  1.00  0.00    -0.086 C  
BRANCH  10  12
HETATM   12  N   UNL     1      -9.179   7.156  65.814  1.00  0.00    -0.383 NA 
HETATM   13  H   UNL     1      -8.377   6.695  66.244  1.00  0.00     0.000 HD 
BRANCH  12  14
HETATM   14  C   UNL     1     -10.321   7.191  66.743  1.00  0.00    -0.227 C  
BRANCH  14  15
HETATM   15  C   UNL     1     -10.031   6.532  68.112  1.00  0.00    -0.139 C  
HETATM   16  H   UNL     1     -10.084   4.715  68.868  1.00  0.00     0.000 HD 
HETATM   17  O   UNL     1     -10.262   5.120  68.027  1.00  0.00    -0.164 OA 
BRANCH  15  18
HETATM   18  C   UNL     1     -10.776   7.150  69.277  1.00  0.00    -0.231 A  
HETATM   19  C   UNL     1     -10.712   8.541  69.475  1.00  0.00    -0.181 A  
HETATM   20  C   UNL     1     -11.365   9.150  70.553  1.00  0.00    -0.257 A  
HETATM   21  H   UNL     1     -13.240   8.301  73.121  1.00  0.00     0.000 HD 
HETATM   22  C   UNL     1     -12.108   8.343  71.425  1.00  0.00    -0.301 A  
HETATM   23  C   UNL     1     -11.544   6.374  70.155  1.00  0.00    -0.449 A  
HETATM   24  C   UNL     1     -12.207   6.969  71.226  1.00  0.00    -0.419 A  
HETATM   25  O   UNL     1     -12.736   8.848  72.530  1.00  0.00    -0.390 OA 
BRANCH  20  26
HETATM   26  N   UNL     1     -11.313  10.538  70.774  1.00  0.00    -0.382 N  
HETATM   27  H   UNL     1     -10.545  10.877  71.353  1.00  0.00     0.000 HD 
HETATM   28  O   UNL     1     -12.047  12.673  70.560  1.00  0.00    -0.363 OA 
HETATM   29  C   UNL     1     -12.176  11.485  70.298  1.00  0.00    -0.332 C  
ENDBRANCH  20  26
ENDBRANCH  15  18
ENDBRANCH  14  15
ENDBRANCH  12  14
ENDBRANCH  10  12
ENDBRANCH   9  10
ENDBRANCH   6   9
ENDBRANCH   2   3
TORSDOF 8
ENDMDL
MODEL       95
REMARK 921   NORMALIZED FREE ENERGY PREDICTED BY IDOCK:   -5.13 KCAL/MOL
REMARK 922        TOTAL FREE ENERGY PREDICTED BY IDOCK:   -9.19 KCAL/MOL
REMARK 923 INTER-LIGAND FREE ENERGY PREDICTED BY IDOCK:   -6.71 KCAL/MOL
REMARK 924 INTRA-LIGAND FREE ENERGY PREDICTED BY IDOCK:   -2.47 KCAL/MOL
REMARK 927      BINDING AFFINITY PREDICTED BY RF-SCORE:    0.00 PKD
ROOT
HETATM    1  C   UNL     1      -8.007  11.793  67.561  1.00  0.00    -0.148 C  
HETATM    2  O   UNL     1      -7.972  12.579  68.744  1.00  0.00    -0.065 OA 
ENDROOT
BRANCH   2   3
HETATM    3  C   UNL     1      -7.588  13.884  68.602  1.00  0.00    -0.130 A  
HETATM    4  C   UNL     1      -7.351  14.788  69.637  1.00  0.00    -0.114 A  
HETATM    5  C   UNL     1      -7.023  16.117  69.352  1.00  0.00    -0.220 A  
HETATM    6  C   UNL     1      -6.912  16.555  68.025  1.00  0.00    -0.153 A  
HETATM    7  C   UNL     1      -7.447  14.310  67.281  1.00  0.00    -0.082 A  
HETATM    8  C   UNL     1      -7.114  15.634  66.992  1.00  0.00    -0.127 A  
BRANCH   6   9
HETATM    9  C   UNL     1      -6.724  18.017  67.695  1.00  0.00    -0.192 C  
BRANCH   9  10
HETATM   10  C   UNL     1      -7.561  19.027  68.514  1.00  0.00    -0.329 C  
HETATM   11  C   UNL     1      -6.654  19.942  69.347  1.00  0.00    -0.375 C  
BRANCH  10  12
HETATM   12  N   UNL     1      -8.389  19.900  67.657  1.00  0.00    -0.315 NA 
HETATM   13  H   UNL     1      -7.947  20.811  67.535  1.00  0.00     0.000 HD 
BRANCH  12  14
HETATM   14  C   UNL     1      -8.715  19.299  66.353  1.00  0.00    -0.348 C  
BRANCH  14  15
HETATM   15  C   UNL     1     -10.196  18.874  66.216  1.00  0.00    -0.438 C  
HETATM   16  H   UNL     1     -11.936  19.498  66.897  1.00  0.00     0.000 HD 
HETATM   17  O   UNL     1     -11.026  19.759  66.980  1.00  0.00    -0.435 OA 
BRANCH  15  18
HETATM   18  C   UNL     1     -10.467  17.423  66.558  1.00  0.00    -0.264 A  
HETATM   19  C   UNL     1     -10.605  17.047  67.906  1.00  0.00    -0.365 A  
HETATM   20  C   UNL     1     -10.831  15.714  68.267  1.00  0.00    -0.298 A  
HETATM   21  H   UNL     1     -11.182  12.776  66.825  1.00  0.00     0.000 HD 
HETATM   22  C   UNL     1     -10.938  14.756  67.250  1.00  0.00    -0.318 A  
HETATM   23  C   UNL     1     -10.599  16.444  65.563  1.00  0.00    -0.346 A  
HETATM   24  C   UNL     1     -10.834  15.115  65.909  1.00  0.00    -0.342 A  
HETATM   25  O   UNL     1     -11.109  13.426  67.515  1.00  0.00    -0.262 OA 
BRANCH  20  26
HETATM   26  N   UNL     1     -10.970  15.313  69.609  1.00  0.00    -0.266 N  
HETATM   27  H   UNL     1     -10.649  14.373  69.836  1.00  0.00     0.000 HD 
HETATM   28  O   UNL     1     -11.573  15.596  71.776  1.00  0.00    -0.382 OA 
HETATM   29  C   UNL     1     -11.487  16.045  70.641  1.00  0.00    -0.402 C  
ENDBRANCH  20  26
ENDBRANCH  15  18
ENDBRANCH  14  15
ENDBRANCH  12  14
ENDBRANCH  10  12
ENDBRANCH   9  10
ENDBRANCH   6   9
ENDBRANCH   2   3
TORSDOF 8
ENDMDL
MODEL       96
REMARK 921   NORMALIZED FREE ENERGY PREDICTED BY IDOCK:   -5.12 KCAL/MOL
REMARK 922        TOTAL FREE ENERGY PREDICTED BY IDOCK:   -9.17 KCAL/MOL
REMARK 923 INTER-LIGAND FREE ENERGY PREDICTED BY IDOCK:   -8.43 KCAL/MOL
REMARK 924 INTRA-LIGAND FREE ENERGY PREDICTED BY IDOCK:   -0.74 KCAL/MOL
REMARK 927      BINDING AFFINITY PREDICTED BY RF-SCORE:    0.00 PKD
ROOT
HETATM    1  C   UNL     1      -9.886   4.405  65.968  1.00  0.00    -0.230 C  
HETATM    2  O   UNL     1      -9.840   4.308  67.386  1.00  0.00    -0.185 OA 
ENDROOT
BRANCH   2   3
HETATM    3  C   UNL     1     -10.083   5.457  68.087  1.00  0.00    -0.166 A  
HETATM    4  C   UNL     1     -10.127   6.746  67.558  1.00  0.00    -0.215 A  
HETATM    5  C   UNL     1     -10.325   7.847  68.399  1.00  0.00    -0.235 A  
HETATM    6  C   UNL     1     -10.496   7.668  69.779  1.00  0.00    -0.232 A  
HETATM    7  C   UNL     1     -10.285   5.274  69.454  1.00  0.00    -0.321 A  
HETATM    8  C   UNL     1     -10.489   6.368  70.296  1.00  0.00    -0.270 A  
BRANCH   6   9
HETATM    9  C   UNL     1     -10.544   8.847  70.722  1.00  0.00    -0.281 C  
BRANCH   9  10
HETATM   10  C   UNL     1     -11.692   9.861  70.509  1.00  0.00    -0.295 C  
HETATM   11  C   UNL     1     -12.708   9.787  71.656  1.00  0.00    -0.517 C  
BRANCH  10  12
HETATM   12  N   UNL     1     -11.209  11.255  70.445  1.00  0.00    -0.425 NA 
HETATM   13  H   UNL     1     -10.198  11.281  70.313  1.00  0.00     0.000 HD 
BRANCH  12  14
HETATM   14  C   UNL     1     -11.891  12.065  69.422  1.00  0.00    -0.324 C  
BRANCH  14  15
HETATM   15  C   UNL     1     -10.925  12.831  68.488  1.00  0.00    -0.258 C  
HETATM   16  H   UNL     1     -10.007  14.573  68.491  1.00  0.00     0.000 HD 
HETATM   17  O   UNL     1     -10.601  14.102  69.064  1.00  0.00    -0.246 OA 
BRANCH  15  18
HETATM   18  C   UNL     1     -11.412  12.974  67.061  1.00  0.00    -0.381 A  
HETATM   19  C   UNL     1     -11.042  12.008  66.106  1.00  0.00    -0.367 A  
HETATM   20  C   UNL     1     -11.451  12.116  64.772  1.00  0.00    -0.322 A  
HETATM   21  H   UNL     1     -13.210  14.144  62.868  1.00  0.00     0.000 HD 
HETATM   22  C   UNL     1     -12.259  13.200  64.406  1.00  0.00    -0.398 A  
HETATM   23  C   UNL     1     -12.238  14.036  66.667  1.00  0.00    -0.463 A  
HETATM   24  C   UNL     1     -12.660  14.148  65.344  1.00  0.00    -0.485 A  
HETATM   25  O   UNL     1     -12.662  13.408  63.117  1.00  0.00    -0.663 OA 
BRANCH  20  26
HETATM   26  N   UNL     1     -11.091  11.165  63.799  1.00  0.00    -0.522 N  
HETATM   27  H   UNL     1     -11.846  10.588  63.429  1.00  0.00     0.000 HD 
HETATM   28  O   UNL     1      -9.635  10.065  62.454  1.00  0.00    -0.263 OA 
HETATM   29  C   UNL     1      -9.843  10.929  63.294  1.00  0.00    -0.365 C  
ENDBRANCH  20  26
ENDBRANCH  15  18
ENDBRANCH  14  15
ENDBRANCH  12  14
ENDBRANCH  10  12
ENDBRANCH   9  10
ENDBRANCH   6   9
ENDBRANCH   2   3
TORSDOF 8
ENDMDL
MODEL       97
REMARK 921   NORMALIZED FREE ENERGY PREDICTED BY IDOCK:   -5.12 KCAL/MOL
REMARK 922        TOTAL FREE ENERGY PREDICTED BY IDOCK:   -9.17 KCAL/MOL
REMARK 923 INTER-LIGAND FREE ENERGY PREDICTED BY IDOCK:   -8.42 KCAL/MOL
REMARK 924 INTRA-LIGAND FREE ENERGY PREDICTED BY IDOCK:   -0.75 KCAL/MOL
REMARK 927      BINDING AFFINITY PREDICTED BY RF-SCORE:    0.00 PKD
ROOT
HETATM    1  C   UNL     1      -9.730  11.018  63.077  1.00  0.00    -0.354 C  
HETATM    2  O   UNL     1     -11.034  11.187  63.618  1.00  0.00    -0.349 OA 
ENDROOT
BRANCH   2   3
HETATM    3  C   UNL     1     -11.156  12.063  64.661  1.00  0.00    -0.322 A  
HETATM    4  C   UNL     1     -10.189  12.323  65.631  1.00  0.00    -0.287 A  
HETATM    5  C   UNL     1     -10.465  13.201  66.684  1.00  0.00    -0.280 A  
HETATM    6  C   UNL     1     -11.709  13.841  66.772  1.00  0.00    -0.420 A  
HETATM    7  C   UNL     1     -12.382  12.724  64.728  1.00  0.00    -0.540 A  
HETATM    8  C   UNL     1     -12.660  13.605  65.774  1.00  0.00    -0.511 A  
BRANCH   6   9
HETATM    9  C   UNL     1     -12.086  14.659  67.984  1.00  0.00    -0.206 C  
BRANCH   9  10
HETATM   10  C   UNL     1     -11.192  14.499  69.236  1.00  0.00    -0.281 C  
HETATM   11  C   UNL     1     -10.746  15.867  69.769  1.00  0.00    -0.324 C  
BRANCH  10  12
HETATM   12  N   UNL     1     -11.886  13.807  70.340  1.00  0.00    -0.474 NA 
HETATM   13  H   UNL     1     -12.828  14.179  70.465  1.00  0.00     0.000 HD 
BRANCH  12  14
HETATM   14  C   UNL     1     -11.920  12.343  70.185  1.00  0.00    -0.298 C  
BRANCH  14  15
HETATM   15  C   UNL     1     -13.025  11.653  71.021  1.00  0.00    -0.135 C  
HETATM   16  H   UNL     1     -13.968  11.999  72.714  1.00  0.00     0.000 HD 
HETATM   17  O   UNL     1     -13.290  12.423  72.201  1.00  0.00    -0.528 OA 
BRANCH  15  18
HETATM   18  C   UNL     1     -12.746  10.202  71.353  1.00  0.00    -0.530 A  
HETATM   19  C   UNL     1     -11.416   9.744  71.379  1.00  0.00    -0.435 A  
HETATM   20  C   UNL     1     -11.117   8.406  71.657  1.00  0.00    -0.278 A  
HETATM   21  H   UNL     1     -12.691   5.600  72.350  1.00  0.00     0.000 HD 
HETATM   22  C   UNL     1     -12.173   7.527  71.931  1.00  0.00    -0.306 A  
HETATM   23  C   UNL     1     -13.780   9.303  71.651  1.00  0.00    -0.421 A  
HETATM   24  C   UNL     1     -13.493   7.970  71.939  1.00  0.00    -0.342 A  
HETATM   25  O   UNL     1     -11.974   6.195  72.164  1.00  0.00    -0.331 OA 
BRANCH  20  26
HETATM   26  N   UNL     1      -9.795   7.924  71.686  1.00  0.00    -0.162 N  
HETATM   27  H   UNL     1      -9.500   7.360  70.890  1.00  0.00     0.000 HD 
HETATM   28  O   UNL     1      -7.736   7.653  72.597  1.00  0.00    -0.087 OA 
HETATM   29  C   UNL     1      -8.861   8.128  72.663  1.00  0.00    -0.219 C  
ENDBRANCH  20  26
ENDBRANCH  15  18
ENDBRANCH  14  15
ENDBRANCH  12  14
ENDBRANCH  10  12
ENDBRANCH   9  10
ENDBRANCH   6   9
ENDBRANCH   2   3
TORSDOF 8
ENDMDL
MODEL       98
REMARK 921   NORMALIZED FREE ENERGY PREDICTED BY IDOCK:   -5.12 KCAL/MOL
REMARK 922        TOTAL FREE ENERGY PREDICTED BY IDOCK:   -9.17 KCAL/MOL
REMARK 923 INTER-LIGAND FREE ENERGY PREDICTED BY IDOCK:   -8.26 KCAL/MOL
REMARK 924 INTRA-LIGAND FREE ENERGY PREDICTED BY IDOCK:   -0.91 KCAL/MOL
REMARK 927      BINDING AFFINITY PREDICTED BY RF-SCORE:    0.00 PKD
ROOT
HETATM    1  C   UNL     1      -8.703   9.354  69.107  1.00  0.00    -0.142 C  
HETATM    2  O   UNL     1      -9.788  10.091  69.655  1.00  0.00    -0.214 OA 
ENDROOT
BRANCH   2   3
HETATM    3  C   UNL     1     -10.462  10.917  68.798  1.00  0.00    -0.200 A  
HETATM    4  C   UNL     1     -11.344  11.934  69.162  1.00  0.00    -0.338 A  
HETATM    5  C   UNL     1     -12.018  12.668  68.181  1.00  0.00    -0.274 A  
HETATM    6  C   UNL     1     -11.807  12.403  66.821  1.00  0.00    -0.385 A  
HETATM    7  C   UNL     1     -10.226  10.674  67.445  1.00  0.00    -0.243 A  
HETATM    8  C   UNL     1     -10.892  11.407  66.463  1.00  0.00    -0.334 A  
BRANCH   6   9
HETATM    9  C   UNL     1     -12.645  13.066  65.753  1.00  0.00    -0.269 C  
BRANCH   9  10
HETATM   10  C   UNL     1     -12.098  13.011  64.308  1.00  0.00    -0.414 C  
HETATM   11  C   UNL     1     -12.864  11.978  63.472  1.00  0.00    -0.472 C  
BRANCH  10  12
HETATM   12  N   UNL     1     -12.215  14.307  63.611  1.00  0.00    -1.064 NA 
HETATM   13  H   UNL     1     -13.064  14.339  63.047  1.00  0.00     0.000 HD 
BRANCH  12  14
HETATM   14  C   UNL     1     -12.147  15.467  64.516  1.00  0.00    -0.182 C  
BRANCH  14  15
HETATM   15  C   UNL     1     -10.706  15.962  64.785  1.00  0.00    -0.229 C  
HETATM   16  H   UNL     1      -8.946  15.143  65.112  1.00  0.00     0.000 HD 
HETATM   17  O   UNL     1      -9.831  14.839  64.946  1.00  0.00    -0.200 OA 
BRANCH  15  18
HETATM   18  C   UNL     1     -10.583  16.935  65.940  1.00  0.00    -0.239 A  
HETATM   19  C   UNL     1     -10.622  16.447  67.259  1.00  0.00    -0.293 A  
HETATM   20  C   UNL     1     -10.537  17.314  68.354  1.00  0.00    -0.368 A  
HETATM   21  H   UNL     1     -10.244  20.537  68.955  1.00  0.00     0.000 HD 
HETATM   22  C   UNL     1     -10.388  18.686  68.110  1.00  0.00    -0.359 A  
HETATM   23  C   UNL     1     -10.413  18.311  65.729  1.00  0.00    -0.228 A  
HETATM   24  C   UNL     1     -10.316  19.183  66.812  1.00  0.00    -0.507 A  
HETATM   25  O   UNL     1     -10.345  19.606  69.120  1.00  0.00    -0.309 OA 
BRANCH  20  26
HETATM   26  N   UNL     1     -10.577  16.850  69.682  1.00  0.00    -0.276 N  
HETATM   27  H   UNL     1      -9.926  17.287  70.334  1.00  0.00     0.000 HD 
HETATM   28  O   UNL     1     -11.339  15.541  71.369  1.00  0.00    -0.359 OA 
HETATM   29  C   UNL     1     -11.391  15.880  70.195  1.00  0.00    -0.365 C  
ENDBRANCH  20  26
ENDBRANCH  15  18
ENDBRANCH  14  15
ENDBRANCH  12  14
ENDBRANCH  10  12
ENDBRANCH   9  10
ENDBRANCH   6   9
ENDBRANCH   2   3
TORSDOF 8
ENDMDL
MODEL       99
REMARK 921   NORMALIZED FREE ENERGY PREDICTED BY IDOCK:   -5.12 KCAL/MOL
REMARK 922        TOTAL FREE ENERGY PREDICTED BY IDOCK:   -9.17 KCAL/MOL
REMARK 923 INTER-LIGAND FREE ENERGY PREDICTED BY IDOCK:   -8.69 KCAL/MOL
REMARK 924 INTRA-LIGAND FREE ENERGY PREDICTED BY IDOCK:   -0.48 KCAL/MOL
REMARK 927      BINDING AFFINITY PREDICTED BY RF-SCORE:    0.00 PKD
ROOT
HETATM    1  C   UNL     1      -9.432   4.427  73.577  1.00  0.00    -0.117 C  
HETATM    2  O   UNL     1     -10.613   5.169  73.849  1.00  0.00    -0.253 OA 
ENDROOT
BRANCH   2   3
HETATM    3  C   UNL     1     -10.816   6.295  73.100  1.00  0.00    -0.254 A  
HETATM    4  C   UNL     1     -10.076   7.474  73.175  1.00  0.00    -0.362 A  
HETATM    5  C   UNL     1     -10.428   8.579  72.392  1.00  0.00    -0.367 A  
HETATM    6  C   UNL     1     -11.517   8.511  71.512  1.00  0.00    -0.350 A  
HETATM    7  C   UNL     1     -11.880   6.215  72.201  1.00  0.00    -0.339 A  
HETATM    8  C   UNL     1     -12.231   7.312  71.415  1.00  0.00    -0.384 A  
BRANCH   6   9
HETATM    9  C   UNL     1     -12.015   9.738  70.785  1.00  0.00    -0.382 C  
BRANCH   9  10
HETATM   10  C   UNL     1     -11.128  10.271  69.635  1.00  0.00    -0.274 C  
HETATM   11  C   UNL     1     -10.225   9.162  69.081  1.00  0.00    -0.215 C  
BRANCH  10  12
HETATM   12  N   UNL     1     -11.924  10.789  68.504  1.00  0.00    -0.793 NA 
HETATM   13  H   UNL     1     -12.556  11.527  68.815  1.00  0.00     0.000 HD 
BRANCH  12  14
HETATM   14  C   UNL     1     -11.101  11.250  67.372  1.00  0.00    -0.297 C  
BRANCH  14  15
HETATM   15  C   UNL     1     -11.693  12.469  66.627  1.00  0.00    -0.387 C  
HETATM   16  H   UNL     1     -11.648  13.191  64.796  1.00  0.00     0.000 HD 
HETATM   17  O   UNL     1     -11.284  12.442  65.253  1.00  0.00    -0.299 OA 
BRANCH  15  18
HETATM   18  C   UNL     1     -11.392  13.806  67.272  1.00  0.00    -0.343 A  
HETATM   19  C   UNL     1     -12.128  14.207  68.402  1.00  0.00    -0.308 A  
HETATM   20  C   UNL     1     -11.898  15.445  69.014  1.00  0.00    -0.335 A  
HETATM   21  H   UNL     1      -9.966  18.082  68.636  1.00  0.00     0.000 HD 
HETATM   22  C   UNL     1     -10.900  16.275  68.488  1.00  0.00    -0.330 A  
HETATM   23  C   UNL     1     -10.386  14.650  66.782  1.00  0.00    -0.268 A  
HETATM   24  C   UNL     1     -10.142  15.881  67.389  1.00  0.00    -0.252 A  
HETATM   25  O   UNL     1     -10.644  17.519  68.993  1.00  0.00    -0.306 OA 
BRANCH  20  26
HETATM   26  N   UNL     1     -12.623  15.868  70.143  1.00  0.00    -0.570 N  
HETATM   27  H   UNL     1     -12.618  16.870  70.335  1.00  0.00     0.000 HD 
HETATM   28  O   UNL     1     -13.923  15.557  71.974  1.00  0.00    -0.484 OA 
HETATM   29  C   UNL     1     -13.334  15.088  71.011  1.00  0.00    -0.419 C  
ENDBRANCH  20  26
ENDBRANCH  15  18
ENDBRANCH  14  15
ENDBRANCH  12  14
ENDBRANCH  10  12
ENDBRANCH   9  10
ENDBRANCH   6   9
ENDBRANCH   2   3
TORSDOF 8
ENDMDL
MODEL      100
REMARK 921   NORMALIZED FREE ENERGY PREDICTED BY IDOCK:   -5.12 KCAL/MOL
REMARK 922        TOTAL FREE ENERGY PREDICTED BY IDOCK:   -9.17 KCAL/MOL
REMARK 923 INTER-LIGAND FREE ENERGY PREDICTED BY IDOCK:   -7.64 KCAL/MOL
REMARK 924 INTRA-LIGAND FREE ENERGY PREDICTED BY IDOCK:   -1.53 KCAL/MOL
REMARK 927      BINDING AFFINITY PREDICTED BY RF-SCORE:    0.00 PKD
ROOT
HETATM    1  C   UNL     1     -10.659  17.857  67.737  1.00  0.00    -0.389 C  
HETATM    2  O   UNL     1     -10.695  17.539  69.122  1.00  0.00    -0.204 OA 
ENDROOT
BRANCH   2   3
HETATM    3  C   UNL     1     -11.174  16.302  69.455  1.00  0.00    -0.311 A  
HETATM    4  C   UNL     1     -11.769  15.391  68.583  1.00  0.00    -0.371 A  
HETATM    5  C   UNL     1     -12.274  14.179  69.066  1.00  0.00    -0.274 A  
HETATM    6  C   UNL     1     -12.176  13.858  70.427  1.00  0.00    -0.438 A  
HETATM    7  C   UNL     1     -11.047  15.970  70.803  1.00  0.00    -0.321 A  
HETATM    8  C   UNL     1     -11.544  14.760  71.288  1.00  0.00    -0.314 A  
BRANCH   6   9
HETATM    9  C   UNL     1     -12.860  12.636  70.995  1.00  0.00    -0.254 C  
BRANCH   9  10
HETATM   10  C   UNL     1     -12.121  11.287  70.829  1.00  0.00    -0.349 C  
HETATM   11  C   UNL     1     -12.749  10.207  71.719  1.00  0.00    -0.534 C  
BRANCH  10  12
HETATM   12  N   UNL     1     -12.166  10.787  69.441  1.00  0.00    -0.574 NA 
HETATM   13  H   UNL     1     -11.985  11.541  68.779  1.00  0.00     0.000 HD 
BRANCH  12  14
HETATM   14  C   UNL     1     -11.258   9.652  69.199  1.00  0.00    -0.019 C  
BRANCH  14  15
HETATM   15  C   UNL     1      -9.834  10.074  68.766  1.00  0.00    -0.167 C  
HETATM   16  H   UNL     1      -8.123  10.469  69.657  1.00  0.00     0.000 HD 
HETATM   17  O   UNL     1      -8.998  10.210  69.922  1.00  0.00    -0.185 OA 
BRANCH  15  18
HETATM   18  C   UNL     1      -9.784  11.311  67.894  1.00  0.00    -0.185 A  
HETATM   19  C   UNL     1     -10.529  11.344  66.701  1.00  0.00    -0.285 A  
HETATM   20  C   UNL     1     -10.492  12.457  65.854  1.00  0.00    -0.256 A  
HETATM   21  H   UNL     1      -9.046  15.410  65.694  1.00  0.00     0.000 HD 
HETATM   22  C   UNL     1      -9.709  13.557  66.230  1.00  0.00    -0.277 A  
HETATM   23  C   UNL     1      -9.027  12.435  68.252  1.00  0.00    -0.178 A  
HETATM   24  C   UNL     1      -8.990  13.554  67.422  1.00  0.00    -0.219 A  
HETATM   25  O   UNL     1      -9.577  14.664  65.439  1.00  0.00    -0.225 OA 
BRANCH  20  26
HETATM   26  N   UNL     1     -11.226  12.511  64.654  1.00  0.00    -0.300 N  
HETATM   27  H   UNL     1     -10.728  12.855  63.834  1.00  0.00     0.000 HD 
HETATM   28  O   UNL     1     -13.082  12.252  63.379  1.00  0.00    -0.727 OA 
HETATM   29  C   UNL     1     -12.532  12.155  64.467  1.00  0.00    -0.283 C  
ENDBRANCH  20  26
ENDBRANCH  15  18
ENDBRANCH  14  15
ENDBRANCH  12  14
ENDBRANCH  10  12
ENDBRANCH   9  10
ENDBRANCH   6   9
ENDBRANCH   2   3
TORSDOF 8
ENDMDL
MODEL      101
REMARK 921   NORMALIZED FREE ENERGY PREDICTED BY IDOCK:   -5.12 KCAL/MOL
REMARK 922        TOTAL FREE ENERGY PREDICTED BY IDOCK:   -9.17 KCAL/MOL
REMARK 923 INTER-LIGAND FREE ENERGY PREDICTED BY IDOCK:   -7.73 KCAL/MOL
REMARK 924 INTRA-LIGAND FREE ENERGY PREDICTED BY IDOCK:   -1.44 KCAL/MOL
REMARK 927      BINDING AFFINITY PREDICTED BY RF-SCORE:    0.00 PKD
ROOT
HETATM    1  C   UNL     1      -8.505  10.156  64.437  1.00  0.00    -0.175 C  
HETATM    2  O   UNL     1      -8.978  11.336  65.072  1.00  0.00    -0.133 OA 
ENDROOT
BRANCH   2   3
HETATM    3  C   UNL     1      -9.399  11.209  66.367  1.00  0.00    -0.188 A  
HETATM    4  C   UNL     1      -8.586  11.225  67.500  1.00  0.00    -0.134 A  
HETATM    5  C   UNL     1      -9.140  11.021  68.768  1.00  0.00    -0.161 A  
HETATM    6  C   UNL     1     -10.517  10.814  68.920  1.00  0.00    -0.228 A  
HETATM    7  C   UNL     1     -10.775  11.035  66.519  1.00  0.00    -0.298 A  
HETATM    8  C   UNL     1     -11.331  10.837  67.783  1.00  0.00    -0.354 A  
BRANCH   6   9
HETATM    9  C   UNL     1     -11.109  10.427  70.255  1.00  0.00    -0.379 C  
BRANCH   9  10
HETATM   10  C   UNL     1     -12.397  11.169  70.684  1.00  0.00    -0.388 C  
HETATM   11  C   UNL     1     -13.117  10.411  71.807  1.00  0.00    -0.567 C  
BRANCH  10  12
HETATM   12  N   UNL     1     -12.123  12.531  71.186  1.00  0.00    -0.269 NA 
HETATM   13  H   UNL     1     -11.140  12.771  71.058  1.00  0.00     0.000 HD 
BRANCH  12  14
HETATM   14  C   UNL     1     -12.993  13.560  70.592  1.00  0.00    -0.026 C  
BRANCH  14  15
HETATM   15  C   UNL     1     -12.339  14.959  70.512  1.00  0.00    -0.342 C  
HETATM   16  H   UNL     1     -12.886  16.819  70.853  1.00  0.00     0.000 HD 
HETATM   17  O   UNL     1     -13.288  15.960  70.902  1.00  0.00    -0.498 OA 
BRANCH  15  18
HETATM   18  C   UNL     1     -11.707  15.281  69.173  1.00  0.00    -0.355 A  
HETATM   19  C   UNL     1     -11.118  16.544  68.976  1.00  0.00    -0.284 A  
HETATM   20  C   UNL     1     -10.546  16.891  67.747  1.00  0.00    -0.340 A  
HETATM   21  H   UNL     1     -10.063  15.573  64.770  1.00  0.00     0.000 HD 
HETATM   22  C   UNL     1     -10.552  15.943  66.715  1.00  0.00    -0.309 A  
HETATM   23  C   UNL     1     -11.679  14.348  68.128  1.00  0.00    -0.377 A  
HETATM   24  C   UNL     1     -11.103  14.679  66.903  1.00  0.00    -0.333 A  
HETATM   25  O   UNL     1     -10.059  16.216  65.470  1.00  0.00    -0.435 OA 
BRANCH  20  26
HETATM   26  N   UNL     1      -9.954  18.148  67.525  1.00  0.00    -0.318 N  
HETATM   27  H   UNL     1      -9.072  18.149  67.012  1.00  0.00     0.000 HD 
HETATM   28  O   UNL     1      -9.826  20.406  67.683  1.00  0.00    -0.415 OA 
HETATM   29  C   UNL     1     -10.428  19.368  67.919  1.00  0.00    -0.421 C  
ENDBRANCH  20  26
ENDBRANCH  15  18
ENDBRANCH  14  15
ENDBRANCH  12  14
ENDBRANCH  10  12
ENDBRANCH   9  10
ENDBRANCH   6   9
ENDBRANCH   2   3
TORSDOF 8
ENDMDL
MODEL      102
REMARK 921   NORMALIZED FREE ENERGY PREDICTED BY IDOCK:   -5.10 KCAL/MOL
REMARK 922        TOTAL FREE ENERGY PREDICTED BY IDOCK:   -9.14 KCAL/MOL
REMARK 923 INTER-LIGAND FREE ENERGY PREDICTED BY IDOCK:   -8.53 KCAL/MOL
REMARK 924 INTRA-LIGAND FREE ENERGY PREDICTED BY IDOCK:   -0.62 KCAL/MOL
REMARK 927      BINDING AFFINITY PREDICTED BY RF-SCORE:    0.00 PKD
ROOT
HETATM    1  C   UNL     1     -14.378   8.345  71.868  1.00  0.00    -0.473 C  
HETATM    2  O   UNL     1     -13.083   8.414  72.449  1.00  0.00    -0.307 OA 
ENDROOT
BRANCH   2   3
HETATM    3  C   UNL     1     -12.021   8.294  71.596  1.00  0.00    -0.303 A  
HETATM    4  C   UNL     1     -11.037   9.256  71.370  1.00  0.00    -0.437 A  
HETATM    5  C   UNL     1     -10.035   9.031  70.421  1.00  0.00    -0.244 A  
HETATM    6  C   UNL     1      -9.996   7.832  69.697  1.00  0.00    -0.190 A  
HETATM    7  C   UNL     1     -11.965   7.087  70.900  1.00  0.00    -0.409 A  
HETATM    8  C   UNL     1     -10.963   6.855  69.957  1.00  0.00    -0.320 A  
BRANCH   6   9
HETATM    9  C   UNL     1      -9.026   7.637  68.555  1.00  0.00    -0.129 C  
BRANCH   9  10
HETATM   10  C   UNL     1      -8.983   8.750  67.482  1.00  0.00    -0.134 C  
HETATM   11  C   UNL     1      -8.205   8.287  66.244  1.00  0.00    -0.112 C  
BRANCH  10  12
HETATM   12  N   UNL     1     -10.331   9.146  67.027  1.00  0.00    -0.264 NA 
HETATM   13  H   UNL     1     -10.971   9.222  67.816  1.00  0.00     0.000 HD 
BRANCH  12  14
HETATM   14  C   UNL     1     -10.338  10.383  66.228  1.00  0.00    -0.203 C  
BRANCH  14  15
HETATM   15  C   UNL     1     -10.902  11.610  66.984  1.00  0.00    -0.266 C  
HETATM   16  H   UNL     1     -12.409  11.978  68.197  1.00  0.00     0.000 HD 
HETATM   17  O   UNL     1     -12.062  11.225  67.733  1.00  0.00    -0.631 OA 
BRANCH  15  18
HETATM   18  C   UNL     1     -11.178  12.814  66.108  1.00  0.00    -0.336 A  
HETATM   19  C   UNL     1     -10.544  14.036  66.397  1.00  0.00    -0.280 A  
HETATM   20  C   UNL     1     -10.790  15.180  65.629  1.00  0.00    -0.360 A  
HETATM   21  H   UNL     1     -12.604  16.087  63.037  1.00  0.00     0.000 HD 
HETATM   22  C   UNL     1     -11.672  15.079  64.544  1.00  0.00    -0.368 A  
HETATM   23  C   UNL     1     -12.039  12.741  65.005  1.00  0.00    -0.491 A  
HETATM   24  C   UNL     1     -12.285  13.870  64.226  1.00  0.00    -0.447 A  
HETATM   25  O   UNL     1     -12.006  16.156  63.773  1.00  0.00    -0.926 OA 
BRANCH  20  26
HETATM   26  N   UNL     1     -10.169  16.413  65.900  1.00  0.00    -0.350 N  
HETATM   27  H   UNL     1      -9.734  16.885  65.108  1.00  0.00     0.000 HD 
HETATM   28  O   UNL     1      -9.510  18.121  67.238  1.00  0.00    -0.255 OA 
HETATM   29  C   UNL     1     -10.086  17.050  67.107  1.00  0.00    -0.292 C  
ENDBRANCH  20  26
ENDBRANCH  15  18
ENDBRANCH  14  15
ENDBRANCH  12  14
ENDBRANCH  10  12
ENDBRANCH   9  10
ENDBRANCH   6   9
ENDBRANCH   2   3
TORSDOF 8
ENDMDL
MODEL      103
REMARK 921   NORMALIZED FREE ENERGY PREDICTED BY IDOCK:   -5.09 KCAL/MOL
REMARK 922        TOTAL FREE ENERGY PREDICTED BY IDOCK:   -9.12 KCAL/MOL
REMARK 923 INTER-LIGAND FREE ENERGY PREDICTED BY IDOCK:   -6.76 KCAL/MOL
REMARK 924 INTRA-LIGAND FREE ENERGY PREDICTED BY IDOCK:   -2.37 KCAL/MOL
REMARK 927      BINDING AFFINITY PREDICTED BY RF-SCORE:    0.00 PKD
ROOT
HETATM    1  C   UNL     1      -9.999   8.329  66.509  1.00  0.00    -0.250 C  
HETATM    2  O   UNL     1     -10.951   7.554  67.225  1.00  0.00    -0.264 OA 
ENDROOT
BRANCH   2   3
HETATM    3  C   UNL     1     -10.467   6.767  68.233  1.00  0.00    -0.206 A  
HETATM    4  C   UNL     1     -11.212   6.220  69.277  1.00  0.00    -0.458 A  
HETATM    5  C   UNL     1     -10.580   5.480  70.282  1.00  0.00    -0.357 A  
HETATM    6  C   UNL     1      -9.196   5.266  70.247  1.00  0.00    -0.185 A  
HETATM    7  C   UNL     1      -9.094   6.528  68.179  1.00  0.00    -0.114 A  
HETATM    8  C   UNL     1      -8.461   5.786  69.176  1.00  0.00    -0.107 A  
BRANCH   6   9
HETATM    9  C   UNL     1      -8.473   4.617  71.403  1.00  0.00    -0.113 C  
BRANCH   9  10
HETATM   10  C   UNL     1      -8.083   5.536  72.584  1.00  0.00    -0.106 C  
HETATM   11  C   UNL     1      -7.539   4.716  73.761  1.00  0.00    -0.090 C  
BRANCH  10  12
HETATM   12  N   UNL     1      -7.040   6.514  72.216  1.00  0.00    -0.077 NA 
HETATM   13  H   UNL     1      -6.769   6.404  71.239  1.00  0.00     0.000 HD 
BRANCH  12  14
HETATM   14  C   UNL     1      -7.420   7.909  72.498  1.00  0.00    -0.104 C  
BRANCH  14  15
HETATM   15  C   UNL     1      -7.940   8.676  71.259  1.00  0.00    -0.136 C  
HETATM   16  H   UNL     1      -7.532  10.373  70.348  1.00  0.00     0.000 HD 
HETATM   17  O   UNL     1      -7.213   9.902  71.109  1.00  0.00    -0.305 OA 
BRANCH  15  18
HETATM   18  C   UNL     1      -9.436   8.910  71.249  1.00  0.00    -0.343 A  
HETATM   19  C   UNL     1     -10.016   9.611  70.176  1.00  0.00    -0.309 A  
HETATM   20  C   UNL     1     -11.391   9.871  70.139  1.00  0.00    -0.275 A  
HETATM   21  H   UNL     1     -14.071   9.328  71.971  1.00  0.00     0.000 HD 
HETATM   22  C   UNL     1     -12.188   9.398  71.190  1.00  0.00    -0.323 A  
HETATM   23  C   UNL     1     -10.264   8.433  72.274  1.00  0.00    -0.396 A  
HETATM   24  C   UNL     1     -11.636   8.677  72.244  1.00  0.00    -0.424 A  
HETATM   25  O   UNL     1     -13.530   9.649  71.258  1.00  0.00    -0.376 OA 
BRANCH  20  26
HETATM   26  N   UNL     1     -11.994  10.572  69.078  1.00  0.00    -0.531 N  
HETATM   27  H   UNL     1     -13.010  10.515  69.016  1.00  0.00     0.000 HD 
HETATM   28  O   UNL     1     -11.988  11.884  67.229  1.00  0.00    -0.605 OA 
HETATM   29  C   UNL     1     -11.369  11.321  68.121  1.00  0.00    -0.303 C  
ENDBRANCH  20  26
ENDBRANCH  15  18
ENDBRANCH  14  15
ENDBRANCH  12  14
ENDBRANCH  10  12
ENDBRANCH   9  10
ENDBRANCH   6   9
ENDBRANCH   2   3
TORSDOF 8
ENDMDL
MODEL      104
REMARK 921   NORMALIZED FREE ENERGY PREDICTED BY IDOCK:   -5.09 KCAL/MOL
REMARK 922        TOTAL FREE ENERGY PREDICTED BY IDOCK:   -9.12 KCAL/MOL
REMARK 923 INTER-LIGAND FREE ENERGY PREDICTED BY IDOCK:   -6.77 KCAL/MOL
REMARK 924 INTRA-LIGAND FREE ENERGY PREDICTED BY IDOCK:   -2.36 KCAL/MOL
REMARK 927      BINDING AFFINITY PREDICTED BY RF-SCORE:    0.00 PKD
ROOT
HETATM    1  C   UNL     1      -7.405  19.932  67.976  1.00  0.00    -0.297 C  
HETATM    2  O   UNL     1      -7.131  18.932  67.004  1.00  0.00    -0.206 OA 
ENDROOT
BRANCH   2   3
HETATM    3  C   UNL     1      -7.219  17.632  67.420  1.00  0.00    -0.181 A  
HETATM    4  C   UNL     1      -7.230  16.506  66.598  1.00  0.00    -0.246 A  
HETATM    5  C   UNL     1      -7.386  15.231  67.150  1.00  0.00    -0.178 A  
HETATM    6  C   UNL     1      -7.520  15.065  68.536  1.00  0.00    -0.119 A  
HETATM    7  C   UNL     1      -7.319  17.467  68.801  1.00  0.00    -0.257 A  
HETATM    8  C   UNL     1      -7.470  16.196  69.357  1.00  0.00    -0.181 A  
BRANCH   6   9
HETATM    9  C   UNL     1      -7.857  13.721  69.136  1.00  0.00     0.195 C  
BRANCH   9  10
HETATM   10  C   UNL     1      -8.140  12.568  68.144  1.00  0.00    -0.167 C  
HETATM   11  C   UNL     1      -7.061  11.482  68.243  1.00  0.00    -0.080 C  
BRANCH  10  12
HETATM   12  N   UNL     1      -9.439  11.914  68.396  1.00  0.00    -0.232 NA 
HETATM   13  H   UNL     1      -9.928  12.367  69.168  1.00  0.00     0.000 HD 
BRANCH  12  14
HETATM   14  C   UNL     1     -10.300  11.843  67.203  1.00  0.00    -0.210 C  
BRANCH  14  15
HETATM   15  C   UNL     1     -11.583  12.702  67.308  1.00  0.00    -0.364 C  
HETATM   16  H   UNL     1     -13.196  13.009  66.222  1.00  0.00     0.000 HD 
HETATM   17  O   UNL     1     -12.409  12.481  66.158  1.00  0.00    -0.596 OA 
BRANCH  15  18
HETATM   18  C   UNL     1     -11.332  14.178  67.539  1.00  0.00    -0.343 A  
HETATM   19  C   UNL     1     -11.424  14.697  68.843  1.00  0.00    -0.323 A  
HETATM   20  C   UNL     1     -11.224  16.059  69.097  1.00  0.00    -0.342 A  
HETATM   21  H   UNL     1     -10.531  18.818  67.442  1.00  0.00     0.000 HD 
HETATM   22  C   UNL     1     -10.908  16.899  68.021  1.00  0.00    -0.338 A  
HETATM   23  C   UNL     1     -10.994  15.041  66.487  1.00  0.00    -0.327 A  
HETATM   24  C   UNL     1     -10.783  16.397  66.728  1.00  0.00    -0.180 A  
HETATM   25  O   UNL     1     -10.745  18.248  68.172  1.00  0.00    -0.330 OA 
BRANCH  20  26
HETATM   26  N   UNL     1     -11.313  16.601  70.392  1.00  0.00    -0.439 N  
HETATM   27  H   UNL     1     -10.941  17.542  70.516  1.00  0.00     0.000 HD 
HETATM   28  O   UNL     1     -11.861  16.564  72.592  1.00  0.00    -0.541 OA 
HETATM   29  C   UNL     1     -11.842  16.007  71.503  1.00  0.00    -0.486 C  
ENDBRANCH  20  26
ENDBRANCH  15  18
ENDBRANCH  14  15
ENDBRANCH  12  14
ENDBRANCH  10  12
ENDBRANCH   9  10
ENDBRANCH   6   9
ENDBRANCH   2   3
TORSDOF 8
ENDMDL
MODEL      105
REMARK 921   NORMALIZED FREE ENERGY PREDICTED BY IDOCK:   -5.07 KCAL/MOL
REMARK 922        TOTAL FREE ENERGY PREDICTED BY IDOCK:   -9.11 KCAL/MOL
REMARK 923 INTER-LIGAND FREE ENERGY PREDICTED BY IDOCK:   -8.44 KCAL/MOL
REMARK 924 INTRA-LIGAND FREE ENERGY PREDICTED BY IDOCK:   -0.66 KCAL/MOL
REMARK 927      BINDING AFFINITY PREDICTED BY RF-SCORE:    0.00 PKD
ROOT
HETATM    1  C   UNL     1     -10.943   4.417  73.734  1.00  0.00    -0.280 C  
HETATM    2  O   UNL     1     -10.618   4.782  72.399  1.00  0.00    -0.206 OA 
ENDROOT
BRANCH   2   3
HETATM    3  C   UNL     1     -10.783   6.098  72.067  1.00  0.00    -0.233 A  
HETATM    4  C   UNL     1     -10.268   7.191  72.763  1.00  0.00    -0.243 A  
HETATM    5  C   UNL     1     -10.564   8.494  72.349  1.00  0.00    -0.368 A  
HETATM    6  C   UNL     1     -11.367   8.719  71.223  1.00  0.00    -0.357 A  
HETATM    7  C   UNL     1     -11.555   6.320  70.926  1.00  0.00    -0.338 A  
HETATM    8  C   UNL     1     -11.848   7.618  70.507  1.00  0.00    -0.102 A  
BRANCH   6   9
HETATM    9  C   UNL     1     -11.834  10.109  70.858  1.00  0.00    -0.468 C  
BRANCH   9  10
HETATM   10  C   UNL     1     -11.099  10.803  69.688  1.00  0.00    -0.279 C  
HETATM   11  C   UNL     1      -9.679  10.245  69.524  1.00  0.00    -0.235 C  
BRANCH  10  12
HETATM   12  N   UNL     1     -11.791  10.617  68.397  1.00  0.00    -0.769 NA 
HETATM   13  H   UNL     1     -12.758  10.936  68.456  1.00  0.00     0.000 HD 
BRANCH  12  14
HETATM   14  C   UNL     1     -11.099  11.256  67.264  1.00  0.00    -0.305 C  
BRANCH  14  15
HETATM   15  C   UNL     1     -11.886  12.430  66.636  1.00  0.00    -0.325 C  
HETATM   16  H   UNL     1     -12.216  13.129  64.825  1.00  0.00     0.000 HD 
HETATM   17  O   UNL     1     -11.733  12.408  65.211  1.00  0.00    -0.362 OA 
BRANCH  15  18
HETATM   18  C   UNL     1     -11.549  13.790  67.211  1.00  0.00    -0.391 A  
HETATM   19  C   UNL     1     -10.745  14.673  66.467  1.00  0.00    -0.312 A  
HETATM   20  C   UNL     1     -10.390  15.929  66.972  1.00  0.00    -0.297 A  
HETATM   21  H   UNL     1     -10.860  17.742  69.678  1.00  0.00     0.000 HD 
HETATM   22  C   UNL     1     -10.871  16.302  68.234  1.00  0.00    -0.340 A  
HETATM   23  C   UNL     1     -12.031  14.201  68.461  1.00  0.00    -0.367 A  
HETATM   24  C   UNL     1     -11.692  15.453  68.970  1.00  0.00    -0.380 A  
HETATM   25  O   UNL     1     -10.533  17.489  68.822  1.00  0.00    -0.355 OA 
BRANCH  20  26
HETATM   26  N   UNL     1      -9.585  16.827  66.247  1.00  0.00    -0.281 N  
HETATM   27  H   UNL     1     -10.071  17.468  65.621  1.00  0.00     0.000 HD 
HETATM   28  O   UNL     1      -7.615  17.749  65.606  1.00  0.00    -0.541 OA 
HETATM   29  C   UNL     1      -8.223  16.937  66.289  1.00  0.00    -0.309 C  
ENDBRANCH  20  26
ENDBRANCH  15  18
ENDBRANCH  14  15
ENDBRANCH  12  14
ENDBRANCH  10  12
ENDBRANCH   9  10
ENDBRANCH   6   9
ENDBRANCH   2   3
TORSDOF 8
ENDMDL
MODEL      106
REMARK 921   NORMALIZED FREE ENERGY PREDICTED BY IDOCK:   -5.07 KCAL/MOL
REMARK 922        TOTAL FREE ENERGY PREDICTED BY IDOCK:   -9.10 KCAL/MOL
REMARK 923 INTER-LIGAND FREE ENERGY PREDICTED BY IDOCK:   -8.31 KCAL/MOL
REMARK 924 INTRA-LIGAND FREE ENERGY PREDICTED BY IDOCK:   -0.79 KCAL/MOL
REMARK 927      BINDING AFFINITY PREDICTED BY RF-SCORE:    0.00 PKD
ROOT
HETATM    1  C   UNL     1      -6.184  20.282  69.243  1.00  0.00    -0.321 C  
HETATM    2  O   UNL     1      -7.193  20.596  68.292  1.00  0.00    -0.162 OA 
ENDROOT
BRANCH   2   3
HETATM    3  C   UNL     1      -8.143  19.638  68.068  1.00  0.00    -0.308 A  
HETATM    4  C   UNL     1      -9.485  19.868  67.767  1.00  0.00    -0.474 A  
HETATM    5  C   UNL     1     -10.369  18.795  67.621  1.00  0.00    -0.476 A  
HETATM    6  C   UNL     1      -9.918  17.475  67.760  1.00  0.00    -0.312 A  
HETATM    7  C   UNL     1      -7.685  18.325  68.174  1.00  0.00    -0.288 A  
HETATM    8  C   UNL     1      -8.562  17.251  68.024  1.00  0.00    -0.234 A  
BRANCH   6   9
HETATM    9  C   UNL     1     -10.883  16.313  67.772  1.00  0.00    -0.315 C  
BRANCH   9  10
HETATM   10  C   UNL     1     -11.005  15.498  66.464  1.00  0.00    -0.243 C  
HETATM   11  C   UNL     1     -10.537  16.324  65.258  1.00  0.00    -0.357 C  
BRANCH  10  12
HETATM   12  N   UNL     1     -10.192  14.266  66.489  1.00  0.00    -0.270 NA 
HETATM   13  H   UNL     1      -9.533  14.284  67.267  1.00  0.00     0.000 HD 
BRANCH  12  14
HETATM   14  C   UNL     1     -10.997  13.033  66.514  1.00  0.00    -0.285 C  
BRANCH  14  15
HETATM   15  C   UNL     1     -10.557  12.024  67.601  1.00  0.00    -0.210 C  
HETATM   16  H   UNL     1     -10.263  10.081  67.718  1.00  0.00     0.000 HD 
HETATM   17  O   UNL     1     -10.533  10.701  67.051  1.00  0.00    -0.220 OA 
BRANCH  15  18
HETATM   18  C   UNL     1     -11.371  12.082  68.878  1.00  0.00    -0.333 A  
HETATM   19  C   UNL     1     -11.619  13.329  69.480  1.00  0.00    -0.349 A  
HETATM   20  C   UNL     1     -12.345  13.425  70.673  1.00  0.00    -0.348 A  
HETATM   21  H   UNL     1     -13.855  11.449  72.828  1.00  0.00     0.000 HD 
HETATM   22  C   UNL     1     -12.842  12.249  71.249  1.00  0.00    -0.239 A  
HETATM   23  C   UNL     1     -11.898  10.926  69.468  1.00  0.00    -0.404 A  
HETATM   24  C   UNL     1     -12.631  11.010  70.650  1.00  0.00    -0.427 A  
HETATM   25  O   UNL     1     -13.517  12.247  72.437  1.00  0.00    -0.467 OA 
BRANCH  20  26
HETATM   26  N   UNL     1     -12.604  14.661  71.295  1.00  0.00    -0.310 N  
HETATM   27  H   UNL     1     -13.568  14.990  71.266  1.00  0.00     0.000 HD 
HETATM   28  O   UNL     1     -12.034  16.535  72.436  1.00  0.00    -0.513 OA 
HETATM   29  C   UNL     1     -11.706  15.469  71.935  1.00  0.00    -0.446 C  
ENDBRANCH  20  26
ENDBRANCH  15  18
ENDBRANCH  14  15
ENDBRANCH  12  14
ENDBRANCH  10  12
ENDBRANCH   9  10
ENDBRANCH   6   9
ENDBRANCH   2   3
TORSDOF 8
ENDMDL
MODEL      107
REMARK 921   NORMALIZED FREE ENERGY PREDICTED BY IDOCK:   -5.06 KCAL/MOL
REMARK 922        TOTAL FREE ENERGY PREDICTED BY IDOCK:   -9.09 KCAL/MOL
REMARK 923 INTER-LIGAND FREE ENERGY PREDICTED BY IDOCK:   -6.57 KCAL/MOL
REMARK 924 INTRA-LIGAND FREE ENERGY PREDICTED BY IDOCK:   -2.53 KCAL/MOL
REMARK 927      BINDING AFFINITY PREDICTED BY RF-SCORE:    0.00 PKD
ROOT
HETATM    1  C   UNL     1      -9.888   3.622  72.093  1.00  0.00    -0.170 C  
HETATM    2  O   UNL     1      -8.952   4.165  71.172  1.00  0.00    -0.108 OA 
ENDROOT
BRANCH   2   3
HETATM    3  C   UNL     1      -9.429   5.095  70.291  1.00  0.00    -0.172 A  
HETATM    4  C   UNL     1     -10.770   5.409  70.074  1.00  0.00    -0.296 A  
HETATM    5  C   UNL     1     -11.127   6.341  69.094  1.00  0.00    -0.457 A  
HETATM    6  C   UNL     1     -10.145   6.983  68.329  1.00  0.00    -0.185 A  
HETATM    7  C   UNL     1      -8.448   5.757  69.552  1.00  0.00    -0.112 A  
HETATM    8  C   UNL     1      -8.799   6.692  68.578  1.00  0.00    -0.122 A  
BRANCH   6   9
HETATM    9  C   UNL     1     -10.514   7.864  67.158  1.00  0.00    -0.414 C  
BRANCH   9  10
HETATM   10  C   UNL     1     -10.293   9.384  67.336  1.00  0.00    -0.263 C  
HETATM   11  C   UNL     1      -9.966  10.051  65.994  1.00  0.00    -0.334 C  
BRANCH  10  12
HETATM   12  N   UNL     1     -11.483  10.066  67.882  1.00  0.00    -0.608 NA 
HETATM   13  H   UNL     1     -12.266   9.418  67.964  1.00  0.00     0.000 HD 
BRANCH  12  14
HETATM   14  C   UNL     1     -11.232  10.746  69.164  1.00  0.00    -0.262 C  
BRANCH  14  15
HETATM   15  C   UNL     1     -11.980  10.112  70.362  1.00  0.00    -0.267 C  
HETATM   16  H   UNL     1     -13.108  10.747  71.845  1.00  0.00     0.000 HD 
HETATM   17  O   UNL     1     -12.649  11.136  71.110  1.00  0.00    -0.377 OA 
BRANCH  15  18
HETATM   18  C   UNL     1     -11.117   9.244  71.253  1.00  0.00    -0.427 A  
HETATM   19  C   UNL     1      -9.717   9.308  71.129  1.00  0.00    -0.327 A  
HETATM   20  C   UNL     1      -8.883   8.505  71.915  1.00  0.00    -0.216 A  
HETATM   21  H   UNL     1      -9.136   6.208  74.260  1.00  0.00     0.000 HD 
HETATM   22  C   UNL     1      -9.473   7.645  72.851  1.00  0.00    -0.206 A  
HETATM   23  C   UNL     1     -11.675   8.388  72.212  1.00  0.00    -0.453 A  
HETATM   24  C   UNL     1     -10.855   7.591  73.008  1.00  0.00    -0.445 A  
HETATM   25  O   UNL     1      -8.736   6.792  73.624  1.00  0.00    -0.127 OA 
BRANCH  20  26
HETATM   26  N   UNL     1      -7.480   8.549  71.807  1.00  0.00    -0.102 N  
HETATM   27  H   UNL     1      -6.955   8.040  72.518  1.00  0.00     0.000 HD 
HETATM   28  O   UNL     1      -5.521   9.181  70.858  1.00  0.00    -0.031 OA 
HETATM   29  C   UNL     1      -6.744   9.196  70.856  1.00  0.00    -0.087 C  
ENDBRANCH  20  26
ENDBRANCH  15  18
ENDBRANCH  14  15
ENDBRANCH  12  14
ENDBRANCH  10  12
ENDBRANCH   9  10
ENDBRANCH   6   9
ENDBRANCH   2   3
TORSDOF 8
ENDMDL
MODEL      108
REMARK 921   NORMALIZED FREE ENERGY PREDICTED BY IDOCK:   -5.06 KCAL/MOL
REMARK 922        TOTAL FREE ENERGY PREDICTED BY IDOCK:   -9.08 KCAL/MOL
REMARK 923 INTER-LIGAND FREE ENERGY PREDICTED BY IDOCK:   -7.94 KCAL/MOL
REMARK 924 INTRA-LIGAND FREE ENERGY PREDICTED BY IDOCK:   -1.14 KCAL/MOL
REMARK 927      BINDING AFFINITY PREDICTED BY RF-SCORE:    0.00 PKD
ROOT
HETATM    1  C   UNL     1     -13.278  12.306  72.110  1.00  0.00    -0.361 C  
HETATM    2  O   UNL     1     -13.407  11.181  71.251  1.00  0.00    -0.206 OA 
ENDROOT
BRANCH   2   3
HETATM    3  C   UNL     1     -12.250  10.543  70.898  1.00  0.00    -0.388 A  
HETATM    4  C   UNL     1     -11.276  11.034  70.029  1.00  0.00    -0.303 A  
HETATM    5  C   UNL     1     -10.164  10.251  69.702  1.00  0.00    -0.268 A  
HETATM    6  C   UNL     1     -10.005   8.972  70.253  1.00  0.00    -0.229 A  
HETATM    7  C   UNL     1     -12.077   9.285  71.473  1.00  0.00    -0.435 A  
HETATM    8  C   UNL     1     -10.967   8.503  71.154  1.00  0.00    -0.306 A  
BRANCH   6   9
HETATM    9  C   UNL     1      -8.904   8.049  69.788  1.00  0.00    -0.144 C  
BRANCH   9  10
HETATM   10  C   UNL     1      -9.052   7.451  68.369  1.00  0.00    -0.132 C  
HETATM   11  C   UNL     1     -10.505   7.042  68.096  1.00  0.00    -0.242 C  
BRANCH  10  12
HETATM   12  N   UNL     1      -8.664   8.406  67.312  1.00  0.00    -0.126 NA 
HETATM   13  H   UNL     1      -7.802   8.109  66.855  1.00  0.00     0.000 HD 
BRANCH  12  14
HETATM   14  C   UNL     1      -9.726   8.644  66.319  1.00  0.00    -0.251 C  
BRANCH  14  15
HETATM   15  C   UNL     1      -9.320   9.627  65.196  1.00  0.00    -0.259 C  
HETATM   16  H   UNL     1      -7.714  10.655  64.701  1.00  0.00     0.000 HD 
HETATM   17  O   UNL     1      -7.964  10.051  65.391  1.00  0.00    -0.129 OA 
BRANCH  15  18
HETATM   18  C   UNL     1     -10.253  10.808  65.027  1.00  0.00    -0.373 A  
HETATM   19  C   UNL     1     -10.717  11.488  66.168  1.00  0.00    -0.324 A  
HETATM   20  C   UNL     1     -11.601  12.568  66.058  1.00  0.00    -0.406 A  
HETATM   21  H   UNL     1     -13.169  14.266  63.715  1.00  0.00     0.000 HD 
HETATM   22  C   UNL     1     -12.001  12.976  64.779  1.00  0.00    -0.395 A  
HETATM   23  C   UNL     1     -10.656  11.254  63.761  1.00  0.00    -0.455 A  
HETATM   24  C   UNL     1     -11.527  12.334  63.638  1.00  0.00    -0.572 A  
HETATM   25  O   UNL     1     -12.897  13.989  64.583  1.00  0.00    -0.661 OA 
BRANCH  20  26
HETATM   26  N   UNL     1     -12.080  13.261  67.184  1.00  0.00    -0.340 N  
HETATM   27  H   UNL     1     -12.954  12.922  67.587  1.00  0.00     0.000 HD 
HETATM   28  O   UNL     1     -12.014  14.878  68.773  1.00  0.00    -0.303 OA 
HETATM   29  C   UNL     1     -11.507  14.339  67.800  1.00  0.00    -0.329 C  
ENDBRANCH  20  26
ENDBRANCH  15  18
ENDBRANCH  14  15
ENDBRANCH  12  14
ENDBRANCH  10  12
ENDBRANCH   9  10
ENDBRANCH   6   9
ENDBRANCH   2   3
TORSDOF 8
ENDMDL
MODEL      109
REMARK 921   NORMALIZED FREE ENERGY PREDICTED BY IDOCK:   -5.06 KCAL/MOL
REMARK 922        TOTAL FREE ENERGY PREDICTED BY IDOCK:   -9.08 KCAL/MOL
REMARK 923 INTER-LIGAND FREE ENERGY PREDICTED BY IDOCK:   -7.67 KCAL/MOL
REMARK 924 INTRA-LIGAND FREE ENERGY PREDICTED BY IDOCK:   -1.41 KCAL/MOL
REMARK 927      BINDING AFFINITY PREDICTED BY RF-SCORE:    0.00 PKD
ROOT
HETATM    1  C   UNL     1     -10.733  17.337  67.910  1.00  0.00    -0.351 C  
HETATM    2  O   UNL     1     -10.733  15.930  68.109  1.00  0.00    -0.279 OA 
ENDROOT
BRANCH   2   3
HETATM    3  C   UNL     1     -11.111  15.160  67.044  1.00  0.00    -0.328 A  
HETATM    4  C   UNL     1     -12.198  14.288  67.007  1.00  0.00    -0.338 A  
HETATM    5  C   UNL     1     -12.440  13.510  65.870  1.00  0.00    -0.484 A  
HETATM    6  C   UNL     1     -11.604  13.606  64.749  1.00  0.00    -0.374 A  
HETATM    7  C   UNL     1     -10.298  15.282  65.917  1.00  0.00    -0.346 A  
HETATM    8  C   UNL     1     -10.539  14.512  64.779  1.00  0.00    -0.401 A  
BRANCH   6   9
HETATM    9  C   UNL     1     -11.747  12.660  63.581  1.00  0.00    -0.597 C  
BRANCH   9  10
HETATM   10  C   UNL     1     -10.918  11.356  63.638  1.00  0.00    -0.363 C  
HETATM   11  C   UNL     1      -9.557  11.542  62.955  1.00  0.00    -0.371 C  
BRANCH  10  12
HETATM   12  N   UNL     1     -10.653  10.916  65.022  1.00  0.00    -0.259 NA 
HETATM   13  H   UNL     1     -11.136  10.041  65.222  1.00  0.00     0.000 HD 
BRANCH  12  14
HETATM   14  C   UNL     1      -9.218  10.805  65.337  1.00  0.00    -0.205 C  
BRANCH  14  15
HETATM   15  C   UNL     1      -8.833  11.408  66.708  1.00  0.00    -0.179 C  
HETATM   16  H   UNL     1      -7.176  11.698  67.732  1.00  0.00     0.000 HD 
HETATM   17  O   UNL     1      -7.413  11.327  66.890  1.00  0.00    -0.131 OA 
BRANCH  15  18
HETATM   18  C   UNL     1      -9.580  10.818  67.886  1.00  0.00    -0.171 A  
HETATM   19  C   UNL     1     -10.406  11.650  68.664  1.00  0.00    -0.229 A  
HETATM   20  C   UNL     1     -11.095  11.151  69.776  1.00  0.00    -0.202 A  
HETATM   21  H   UNL     1     -11.469   8.311  71.397  1.00  0.00     0.000 HD 
HETATM   22  C   UNL     1     -10.962   9.792  70.089  1.00  0.00    -0.291 A  
HETATM   23  C   UNL     1      -9.484   9.459  68.214  1.00  0.00    -0.147 A  
HETATM   24  C   UNL     1     -10.172   8.948  69.312  1.00  0.00    -0.214 A  
HETATM   25  O   UNL     1     -11.559   9.233  71.184  1.00  0.00    -0.279 OA 
BRANCH  20  26
HETATM   26  N   UNL     1     -11.925  11.963  70.570  1.00  0.00    -0.484 N  
HETATM   27  H   UNL     1     -12.490  11.485  71.271  1.00  0.00     0.000 HD 
HETATM   28  O   UNL     1     -12.820  13.936  71.241  1.00  0.00    -0.331 OA 
HETATM   29  C   UNL     1     -12.057  13.322  70.507  1.00  0.00    -0.314 C  
ENDBRANCH  20  26
ENDBRANCH  15  18
ENDBRANCH  14  15
ENDBRANCH  12  14
ENDBRANCH  10  12
ENDBRANCH   9  10
ENDBRANCH   6   9
ENDBRANCH   2   3
TORSDOF 8
ENDMDL
MODEL      110
REMARK 921   NORMALIZED FREE ENERGY PREDICTED BY IDOCK:   -5.05 KCAL/MOL
REMARK 922        TOTAL FREE ENERGY PREDICTED BY IDOCK:   -9.07 KCAL/MOL
REMARK 923 INTER-LIGAND FREE ENERGY PREDICTED BY IDOCK:   -8.22 KCAL/MOL
REMARK 924 INTRA-LIGAND FREE ENERGY PREDICTED BY IDOCK:   -0.85 KCAL/MOL
REMARK 927      BINDING AFFINITY PREDICTED BY RF-SCORE:    0.00 PKD
ROOT
HETATM    1  C   UNL     1      -7.964   4.315  68.225  1.00  0.00    -0.078 C  
HETATM    2  O   UNL     1      -8.214   4.228  69.622  1.00  0.00    -0.059 OA 
ENDROOT
BRANCH   2   3
HETATM    3  C   UNL     1      -9.298   4.916  70.094  1.00  0.00    -0.154 A  
HETATM    4  C   UNL     1      -9.748   4.933  71.414  1.00  0.00    -0.237 A  
HETATM    5  C   UNL     1     -10.911   5.631  71.753  1.00  0.00    -0.290 A  
HETATM    6  C   UNL     1     -11.632   6.334  70.778  1.00  0.00    -0.347 A  
HETATM    7  C   UNL     1      -9.995   5.641  69.128  1.00  0.00    -0.244 A  
HETATM    8  C   UNL     1     -11.153   6.343  69.463  1.00  0.00    -0.460 A  
BRANCH   6   9
HETATM    9  C   UNL     1     -12.974   6.952  71.088  1.00  0.00    -0.248 C  
BRANCH   9  10
HETATM   10  C   UNL     1     -12.987   8.469  71.393  1.00  0.00    -0.243 C  
HETATM   11  C   UNL     1     -13.879   8.777  72.602  1.00  0.00    -0.352 C  
BRANCH  10  12
HETATM   12  N   UNL     1     -11.641   8.993  71.701  1.00  0.00    -0.331 NA 
HETATM   13  H   UNL     1     -10.956   8.238  71.725  1.00  0.00     0.000 HD 
BRANCH  12  14
HETATM   14  C   UNL     1     -11.207  10.064  70.788  1.00  0.00    -0.352 C  
BRANCH  14  15
HETATM   15  C   UNL     1     -12.376  10.855  70.156  1.00  0.00    -0.322 C  
HETATM   16  H   UNL     1     -12.908  11.429  68.349  1.00  0.00     0.000 HD 
HETATM   17  O   UNL     1     -12.190  10.943  68.737  1.00  0.00    -0.518 OA 
BRANCH  15  18
HETATM   18  C   UNL     1     -12.617  12.219  70.771  1.00  0.00    -0.302 A  
HETATM   19  C   UNL     1     -12.205  13.370  70.076  1.00  0.00    -0.367 A  
HETATM   20  C   UNL     1     -12.385  14.647  70.620  1.00  0.00    -0.331 A  
HETATM   21  H   UNL     1     -13.603  16.039  73.343  1.00  0.00     0.000 HD 
HETATM   22  C   UNL     1     -13.009  14.759  71.870  1.00  0.00    -0.327 A  
HETATM   23  C   UNL     1     -13.255  12.365  72.011  1.00  0.00    -0.514 A  
HETATM   24  C   UNL     1     -13.450  13.632  72.557  1.00  0.00    -0.675 A  
HETATM   25  O   UNL     1     -13.180  15.963  72.495  1.00  0.00    -0.469 OA 
BRANCH  20  26
HETATM   26  N   UNL     1     -11.979  15.813  69.945  1.00  0.00    -0.353 N  
HETATM   27  H   UNL     1     -12.717  16.468  69.688  1.00  0.00     0.000 HD 
HETATM   28  O   UNL     1     -10.460  17.204  68.997  1.00  0.00    -0.322 OA 
HETATM   29  C   UNL     1     -10.706  16.167  69.596  1.00  0.00    -0.325 C  
ENDBRANCH  20  26
ENDBRANCH  15  18
ENDBRANCH  14  15
ENDBRANCH  12  14
ENDBRANCH  10  12
ENDBRANCH   9  10
ENDBRANCH   6   9
ENDBRANCH   2   3
TORSDOF 8
ENDMDL
MODEL      111
REMARK 921   NORMALIZED FREE ENERGY PREDICTED BY IDOCK:   -5.03 KCAL/MOL
REMARK 922        TOTAL FREE ENERGY PREDICTED BY IDOCK:   -9.04 KCAL/MOL
REMARK 923 INTER-LIGAND FREE ENERGY PREDICTED BY IDOCK:   -8.28 KCAL/MOL
REMARK 924 INTRA-LIGAND FREE ENERGY PREDICTED BY IDOCK:   -0.77 KCAL/MOL
REMARK 927      BINDING AFFINITY PREDICTED BY RF-SCORE:    0.00 PKD
ROOT
HETATM    1  C   UNL     1     -12.077   7.247  71.942  1.00  0.00    -0.314 C  
HETATM    2  O   UNL     1     -11.347   8.416  72.290  1.00  0.00    -0.336 OA 
ENDROOT
BRANCH   2   3
HETATM    3  C   UNL     1     -11.450   9.479  71.437  1.00  0.00    -0.392 A  
HETATM    4  C   UNL     1     -12.526  10.362  71.350  1.00  0.00    -0.521 A  
HETATM    5  C   UNL     1     -12.531  11.376  70.387  1.00  0.00    -0.345 A  
HETATM    6  C   UNL     1     -11.452  11.528  69.506  1.00  0.00    -0.378 A  
HETATM    7  C   UNL     1     -10.360   9.650  70.583  1.00  0.00    -0.365 A  
HETATM    8  C   UNL     1     -10.359  10.663  69.624  1.00  0.00    -0.185 A  
BRANCH   6   9
HETATM    9  C   UNL     1     -11.510  12.505  68.355  1.00  0.00    -0.355 C  
BRANCH   9  10
HETATM   10  C   UNL     1     -11.813  13.979  68.710  1.00  0.00    -0.361 C  
HETATM   11  C   UNL     1     -10.688  14.578  69.565  1.00  0.00    -0.168 C  
BRANCH  10  12
HETATM   12  N   UNL     1     -11.948  14.831  67.512  1.00  0.00    -0.508 NA 
HETATM   13  H   UNL     1     -12.621  15.580  67.676  1.00  0.00     0.000 HD 
BRANCH  12  14
HETATM   14  C   UNL     1     -10.667  15.376  67.033  1.00  0.00    -0.321 C  
BRANCH  14  15
HETATM   15  C   UNL     1     -10.764  16.830  66.512  1.00  0.00    -0.104 C  
HETATM   16  H   UNL     1     -10.862  17.721  64.759  1.00  0.00     0.000 HD 
HETATM   17  O   UNL     1     -10.802  16.828  65.079  1.00  0.00    -0.653 OA 
BRANCH  15  18
HETATM   18  C   UNL     1      -9.690  17.758  67.039  1.00  0.00    -0.290 A  
HETATM   19  C   UNL     1      -9.131  18.724  66.181  1.00  0.00    -0.152 A  
HETATM   20  C   UNL     1      -8.119  19.585  66.621  1.00  0.00    -0.306 A  
HETATM   21  H   UNL     1      -6.373  20.178  69.347  1.00  0.00     0.000 HD 
HETATM   22  C   UNL     1      -7.684  19.481  67.949  1.00  0.00    -0.289 A  
HETATM   23  C   UNL     1      -9.246  17.693  68.367  1.00  0.00    -0.288 A  
HETATM   24  C   UNL     1      -8.247  18.552  68.820  1.00  0.00    -0.278 A  
HETATM   25  O   UNL     1      -6.668  20.248  68.446  1.00  0.00    -0.291 OA 
BRANCH  20  26
HETATM   26  N   UNL     1      -7.544  20.556  65.781  1.00  0.00    -0.526 N  
HETATM   27  H   UNL     1      -7.863  21.515  65.912  1.00  0.00     0.000 HD 
HETATM   28  O   UNL     1      -6.176  21.273  64.121  1.00  0.00    -0.283 OA 
HETATM   29  C   UNL     1      -6.605  20.357  64.808  1.00  0.00    -0.270 C  
ENDBRANCH  20  26
ENDBRANCH  15  18
ENDBRANCH  14  15
ENDBRANCH  12  14
ENDBRANCH  10  12
ENDBRANCH   9  10
ENDBRANCH   6   9
ENDBRANCH   2   3
TORSDOF 8
ENDMDL
MODEL      112
REMARK 921   NORMALIZED FREE ENERGY PREDICTED BY IDOCK:   -5.03 KCAL/MOL
REMARK 922        TOTAL FREE ENERGY PREDICTED BY IDOCK:   -9.04 KCAL/MOL
REMARK 923 INTER-LIGAND FREE ENERGY PREDICTED BY IDOCK:   -7.55 KCAL/MOL
REMARK 924 INTRA-LIGAND FREE ENERGY PREDICTED BY IDOCK:   -1.49 KCAL/MOL
REMARK 927      BINDING AFFINITY PREDICTED BY RF-SCORE:    0.00 PKD
ROOT
HETATM    1  C   UNL     1      -7.241  10.200  65.317  1.00  0.00    -0.141 C  
HETATM    2  O   UNL     1      -8.629  10.302  65.606  1.00  0.00    -0.148 OA 
ENDROOT
BRANCH   2   3
HETATM    3  C   UNL     1      -9.019   9.959  66.871  1.00  0.00    -0.138 A  
HETATM    4  C   UNL     1     -10.101   9.146  67.205  1.00  0.00    -0.301 A  
HETATM    5  C   UNL     1     -10.429   8.923  68.546  1.00  0.00    -0.218 A  
HETATM    6  C   UNL     1      -9.667   9.499  69.572  1.00  0.00    -0.201 A  
HETATM    7  C   UNL     1      -8.240  10.507  67.890  1.00  0.00    -0.107 A  
HETATM    8  C   UNL     1      -8.559  10.282  69.230  1.00  0.00    -0.175 A  
BRANCH   6   9
HETATM    9  C   UNL     1     -10.100   9.408  71.016  1.00  0.00    -0.353 C  
BRANCH   9  10
HETATM   10  C   UNL     1     -11.548   8.933  71.278  1.00  0.00    -0.304 C  
HETATM   11  C   UNL     1     -11.596   7.944  72.450  1.00  0.00    -0.436 C  
BRANCH  10  12
HETATM   12  N   UNL     1     -12.455  10.049  71.614  1.00  0.00    -0.402 NA 
HETATM   13  H   UNL     1     -12.106  10.570  72.417  1.00  0.00     0.000 HD 
BRANCH  12  14
HETATM   14  C   UNL     1     -12.717  10.952  70.480  1.00  0.00    -0.280 C  
BRANCH  14  15
HETATM   15  C   UNL     1     -12.140  12.375  70.670  1.00  0.00    -0.225 C  
HETATM   16  H   UNL     1     -12.629  13.999  71.670  1.00  0.00     0.000 HD 
HETATM   17  O   UNL     1     -12.984  13.125  71.553  1.00  0.00    -0.366 OA 
BRANCH  15  18
HETATM   18  C   UNL     1     -11.877  13.123  69.380  1.00  0.00    -0.383 A  
HETATM   19  C   UNL     1     -11.842  12.413  68.166  1.00  0.00    -0.372 A  
HETATM   20  C   UNL     1     -11.577  13.062  66.955  1.00  0.00    -0.366 A  
HETATM   21  H   UNL     1     -10.915  16.091  65.853  1.00  0.00     0.000 HD 
HETATM   22  C   UNL     1     -11.368  14.447  66.971  1.00  0.00    -0.346 A  
HETATM   23  C   UNL     1     -11.683  14.511  69.360  1.00  0.00    -0.361 A  
HETATM   24  C   UNL     1     -11.430  15.170  68.159  1.00  0.00    -0.356 A  
HETATM   25  O   UNL     1     -11.057  15.151  65.842  1.00  0.00    -0.339 OA 
BRANCH  20  26
HETATM   26  N   UNL     1     -11.534  12.372  65.729  1.00  0.00    -0.352 N  
HETATM   27  H   UNL     1     -10.741  11.747  65.588  1.00  0.00     0.000 HD 
HETATM   28  O   UNL     1     -12.300  11.809  63.671  1.00  0.00    -0.471 OA 
HETATM   29  C   UNL     1     -12.437  12.446  64.706  1.00  0.00    -0.401 C  
ENDBRANCH  20  26
ENDBRANCH  15  18
ENDBRANCH  14  15
ENDBRANCH  12  14
ENDBRANCH  10  12
ENDBRANCH   9  10
ENDBRANCH   6   9
ENDBRANCH   2   3
TORSDOF 8
ENDMDL
MODEL      113
REMARK 921   NORMALIZED FREE ENERGY PREDICTED BY IDOCK:   -4.99 KCAL/MOL
REMARK 922        TOTAL FREE ENERGY PREDICTED BY IDOCK:   -8.98 KCAL/MOL
REMARK 923 INTER-LIGAND FREE ENERGY PREDICTED BY IDOCK:   -7.04 KCAL/MOL
REMARK 924 INTRA-LIGAND FREE ENERGY PREDICTED BY IDOCK:   -1.94 KCAL/MOL
REMARK 927      BINDING AFFINITY PREDICTED BY RF-SCORE:    0.00 PKD
ROOT
HETATM    1  C   UNL     1      -6.845  16.014  68.726  1.00  0.00    -0.132 C  
HETATM    2  O   UNL     1      -7.921  16.016  67.798  1.00  0.00    -0.134 OA 
ENDROOT
BRANCH   2   3
HETATM    3  C   UNL     1      -9.176  15.841  68.314  1.00  0.00    -0.188 A  
HETATM    4  C   UNL     1     -10.375  16.175  67.687  1.00  0.00    -0.288 A  
HETATM    5  C   UNL     1     -11.592  15.999  68.353  1.00  0.00    -0.279 A  
HETATM    6  C   UNL     1     -11.625  15.474  69.652  1.00  0.00    -0.359 A  
HETATM    7  C   UNL     1      -9.208  15.287  69.594  1.00  0.00    -0.139 A  
HETATM    8  C   UNL     1     -10.420  15.106  70.261  1.00  0.00    -0.151 A  
BRANCH   6   9
HETATM    9  C   UNL     1     -12.907  15.433  70.450  1.00  0.00    -0.355 C  
BRANCH   9  10
HETATM   10  C   UNL     1     -12.837  14.767  71.844  1.00  0.00    -0.324 C  
HETATM   11  C   UNL     1     -13.533  15.634  72.901  1.00  0.00    -0.657 C  
BRANCH  10  12
HETATM   12  N   UNL     1     -13.491  13.443  71.870  1.00  0.00    -0.435 NA 
HETATM   13  H   UNL     1     -14.249  13.401  71.189  1.00  0.00     0.000 HD 
BRANCH  12  14
HETATM   14  C   UNL     1     -12.554  12.323  71.676  1.00  0.00    -0.093 C  
BRANCH  14  15
HETATM   15  C   UNL     1     -12.865  11.459  70.432  1.00  0.00     0.011 C  
HETATM   16  H   UNL     1     -13.329   9.579  70.071  1.00  0.00     0.000 HD 
HETATM   17  O   UNL     1     -13.138  10.111  70.836  1.00  0.00    -0.381 OA 
BRANCH  15  18
HETATM   18  C   UNL     1     -11.806  11.512  69.350  1.00  0.00    -0.417 A  
HETATM   19  C   UNL     1     -12.021  12.315  68.215  1.00  0.00    -0.259 A  
HETATM   20  C   UNL     1     -11.080  12.374  67.180  1.00  0.00    -0.280 A  
HETATM   21  H   UNL     1      -8.151  11.085  66.411  1.00  0.00     0.000 HD 
HETATM   22  C   UNL     1      -9.900  11.629  67.308  1.00  0.00    -0.187 A  
HETATM   23  C   UNL     1     -10.606  10.795  69.456  1.00  0.00    -0.235 A  
HETATM   24  C   UNL     1      -9.657  10.853  68.438  1.00  0.00    -0.177 A  
HETATM   25  O   UNL     1      -8.952  11.591  66.324  1.00  0.00    -0.193 OA 
BRANCH  20  26
HETATM   26  N   UNL     1     -11.275  13.167  66.034  1.00  0.00    -0.288 N  
HETATM   27  H   UNL     1     -10.434  13.532  65.588  1.00  0.00     0.000 HD 
HETATM   28  O   UNL     1     -12.525  14.211  64.458  1.00  0.00    -0.602 OA 
HETATM   29  C   UNL     1     -12.465  13.502  65.452  1.00  0.00    -0.497 C  
ENDBRANCH  20  26
ENDBRANCH  15  18
ENDBRANCH  14  15
ENDBRANCH  12  14
ENDBRANCH  10  12
ENDBRANCH   9  10
ENDBRANCH   6   9
ENDBRANCH   2   3
TORSDOF 8
ENDMDL
MODEL      114
REMARK 921   NORMALIZED FREE ENERGY PREDICTED BY IDOCK:   -4.99 KCAL/MOL
REMARK 922        TOTAL FREE ENERGY PREDICTED BY IDOCK:   -8.98 KCAL/MOL
REMARK 923 INTER-LIGAND FREE ENERGY PREDICTED BY IDOCK:   -7.76 KCAL/MOL
REMARK 924 INTRA-LIGAND FREE ENERGY PREDICTED BY IDOCK:   -1.22 KCAL/MOL
REMARK 927      BINDING AFFINITY PREDICTED BY RF-SCORE:    0.00 PKD
ROOT
HETATM    1  C   UNL     1     -12.001  16.210  73.475  1.00  0.00    -0.370 C  
HETATM    2  O   UNL     1     -11.751  14.976  72.815  1.00  0.00    -0.346 OA 
ENDROOT
BRANCH   2   3
HETATM    3  C   UNL     1     -11.709  15.010  71.449  1.00  0.00    -0.357 A  
HETATM    4  C   UNL     1     -11.418  16.125  70.664  1.00  0.00    -0.386 A  
HETATM    5  C   UNL     1     -11.469  16.038  69.269  1.00  0.00    -0.350 A  
HETATM    6  C   UNL     1     -11.798  14.829  68.641  1.00  0.00    -0.334 A  
HETATM    7  C   UNL     1     -12.005  13.798  70.825  1.00  0.00    -0.318 A  
HETATM    8  C   UNL     1     -12.052  13.706  69.434  1.00  0.00    -0.364 A  
BRANCH   6   9
HETATM    9  C   UNL     1     -12.022  14.756  67.149  1.00  0.00    -0.224 C  
BRANCH   9  10
HETATM   10  C   UNL     1     -10.857  15.230  66.248  1.00  0.00    -0.312 C  
HETATM   11  C   UNL     1      -9.535  14.580  66.675  1.00  0.00    -0.301 C  
BRANCH  10  12
HETATM   12  N   UNL     1     -11.069  14.890  64.827  1.00  0.00    -0.532 NA 
HETATM   13  H   UNL     1     -10.838  15.681  64.227  1.00  0.00     0.000 HD 
BRANCH  12  14
HETATM   14  C   UNL     1     -10.343  13.682  64.399  1.00  0.00    -0.216 C  
BRANCH  14  15
HETATM   15  C   UNL     1     -11.227  12.414  64.334  1.00  0.00    -0.332 C  
HETATM   16  H   UNL     1     -13.151  12.001  64.418  1.00  0.00     0.000 HD 
HETATM   17  O   UNL     1     -12.607  12.780  64.458  1.00  0.00    -0.587 OA 
BRANCH  15  18
HETATM   18  C   UNL     1     -10.847  11.332  65.323  1.00  0.00    -0.261 A  
HETATM   19  C   UNL     1     -10.038  10.262  64.897  1.00  0.00    -0.346 A  
HETATM   20  C   UNL     1      -9.684   9.229  65.772  1.00  0.00    -0.269 A  
HETATM   21  H   UNL     1     -10.183   8.343  68.902  1.00  0.00     0.000 HD 
HETATM   22  C   UNL     1     -10.135   9.291  67.097  1.00  0.00    -0.236 A  
HETATM   23  C   UNL     1     -11.265  11.375  66.660  1.00  0.00    -0.298 A  
HETATM   24  C   UNL     1     -10.910  10.358  67.543  1.00  0.00    -0.358 A  
HETATM   25  O   UNL     1      -9.877   8.301  68.003  1.00  0.00    -0.157 OA 
BRANCH  20  26
HETATM   26  N   UNL     1      -8.879   8.147  65.367  1.00  0.00    -0.365 N  
HETATM   27  H   UNL     1      -9.302   7.488  64.714  1.00  0.00     0.000 HD 
HETATM   28  O   UNL     1      -6.985   6.902  65.348  1.00  0.00    -0.056 OA 
HETATM   29  C   UNL     1      -7.595   7.882  65.752  1.00  0.00    -0.083 C  
ENDBRANCH  20  26
ENDBRANCH  15  18
ENDBRANCH  14  15
ENDBRANCH  12  14
ENDBRANCH  10  12
ENDBRANCH   9  10
ENDBRANCH   6   9
ENDBRANCH   2   3
TORSDOF 8
ENDMDL
MODEL      115
REMARK 921   NORMALIZED FREE ENERGY PREDICTED BY IDOCK:   -4.98 KCAL/MOL
REMARK 922        TOTAL FREE ENERGY PREDICTED BY IDOCK:   -8.96 KCAL/MOL
REMARK 923 INTER-LIGAND FREE ENERGY PREDICTED BY IDOCK:   -7.98 KCAL/MOL
REMARK 924 INTRA-LIGAND FREE ENERGY PREDICTED BY IDOCK:   -0.98 KCAL/MOL
REMARK 927      BINDING AFFINITY PREDICTED BY RF-SCORE:    0.00 PKD
ROOT
HETATM    1  C   UNL     1      -8.729   3.200  68.694  1.00  0.00    -0.103 C  
HETATM    2  O   UNL     1      -8.555   3.734  70.000  1.00  0.00    -0.062 OA 
ENDROOT
BRANCH   2   3
HETATM    3  C   UNL     1      -9.531   4.578  70.452  1.00  0.00    -0.182 A  
HETATM    4  C   UNL     1      -9.932   4.735  71.779  1.00  0.00    -0.255 A  
HETATM    5  C   UNL     1     -10.989   5.592  72.100  1.00  0.00    -0.307 A  
HETATM    6  C   UNL     1     -11.650   6.315  71.097  1.00  0.00    -0.339 A  
HETATM    7  C   UNL     1     -10.166   5.322  69.457  1.00  0.00    -0.338 A  
HETATM    8  C   UNL     1     -11.218   6.182  69.774  1.00  0.00    -0.494 A  
BRANCH   6   9
HETATM    9  C   UNL     1     -12.897   7.114  71.399  1.00  0.00    -0.431 C  
BRANCH   9  10
HETATM   10  C   UNL     1     -12.774   8.653  71.309  1.00  0.00    -0.215 C  
HETATM   11  C   UNL     1     -13.823   9.338  72.195  1.00  0.00    -0.478 C  
BRANCH  10  12
HETATM   12  N   UNL     1     -11.450   9.140  71.747  1.00  0.00    -0.368 NA 
HETATM   13  H   UNL     1     -10.880   8.370  72.097  1.00  0.00     0.000 HD 
BRANCH  12  14
HETATM   14  C   UNL     1     -10.730   9.892  70.706  1.00  0.00    -0.280 C  
BRANCH  14  15
HETATM   15  C   UNL     1     -11.621  10.315  69.514  1.00  0.00    -0.168 C  
HETATM   16  H   UNL     1     -11.685   9.965  67.577  1.00  0.00     0.000 HD 
HETATM   17  O   UNL     1     -11.138   9.705  68.310  1.00  0.00    -0.168 OA 
BRANCH  15  18
HETATM   18  C   UNL     1     -11.785  11.812  69.353  1.00  0.00    -0.405 A  
HETATM   19  C   UNL     1     -11.777  12.371  68.062  1.00  0.00    -0.414 A  
HETATM   20  C   UNL     1     -11.901  13.752  67.870  1.00  0.00    -0.378 A  
HETATM   21  H   UNL     1     -12.241  16.489  69.666  1.00  0.00     0.000 HD 
HETATM   22  C   UNL     1     -12.056  14.572  68.996  1.00  0.00    -0.251 A  
HETATM   23  C   UNL     1     -11.962  12.657  70.457  1.00  0.00    -0.279 A  
HETATM   24  C   UNL     1     -12.097  14.032  70.279  1.00  0.00    -0.425 A  
HETATM   25  O   UNL     1     -12.135  15.933  68.903  1.00  0.00    -0.315 OA 
BRANCH  20  26
HETATM   26  N   UNL     1     -11.893  14.335  66.589  1.00  0.00    -0.408 N  
HETATM   27  H   UNL     1     -11.593  15.308  66.536  1.00  0.00     0.000 HD 
HETATM   28  O   UNL     1     -12.210  14.344  64.344  1.00  0.00    -0.483 OA 
HETATM   29  C   UNL     1     -12.242  13.742  65.408  1.00  0.00    -0.440 C  
ENDBRANCH  20  26
ENDBRANCH  15  18
ENDBRANCH  14  15
ENDBRANCH  12  14
ENDBRANCH  10  12
ENDBRANCH   9  10
ENDBRANCH   6   9
ENDBRANCH   2   3
TORSDOF 8
ENDMDL
MODEL      116
REMARK 921   NORMALIZED FREE ENERGY PREDICTED BY IDOCK:   -4.97 KCAL/MOL
REMARK 922        TOTAL FREE ENERGY PREDICTED BY IDOCK:   -8.95 KCAL/MOL
REMARK 923 INTER-LIGAND FREE ENERGY PREDICTED BY IDOCK:   -7.48 KCAL/MOL
REMARK 924 INTRA-LIGAND FREE ENERGY PREDICTED BY IDOCK:   -1.47 KCAL/MOL
REMARK 927      BINDING AFFINITY PREDICTED BY RF-SCORE:    0.00 PKD
ROOT
HETATM    1  C   UNL     1      -7.815   8.723  63.901  1.00  0.00    -0.141 C  
HETATM    2  O   UNL     1      -8.726   9.569  64.590  1.00  0.00    -0.180 OA 
ENDROOT
BRANCH   2   3
HETATM    3  C   UNL     1      -8.934   9.298  65.914  1.00  0.00    -0.184 A  
HETATM    4  C   UNL     1      -7.944   9.081  66.872  1.00  0.00    -0.105 A  
HETATM    5  C   UNL     1      -8.295   8.750  68.185  1.00  0.00    -0.122 A  
HETATM    6  C   UNL     1      -9.641   8.647  68.559  1.00  0.00    -0.162 A  
HETATM    7  C   UNL     1     -10.274   9.228  66.292  1.00  0.00    -0.273 A  
HETATM    8  C   UNL     1     -10.628   8.903  67.602  1.00  0.00    -0.292 A  
BRANCH   6   9
HETATM    9  C   UNL     1     -10.039   8.130  69.922  1.00  0.00    -0.195 C  
BRANCH   9  10
HETATM   10  C   UNL     1     -11.274   7.200  69.979  1.00  0.00    -0.238 C  
HETATM   11  C   UNL     1     -10.848   5.730  70.073  1.00  0.00    -0.403 C  
BRANCH  10  12
HETATM   12  N   UNL     1     -12.136   7.479  71.145  1.00  0.00    -0.326 NA 
HETATM   13  H   UNL     1     -12.121   6.697  71.800  1.00  0.00     0.000 HD 
BRANCH  12  14
HETATM   14  C   UNL     1     -11.805   8.740  71.830  1.00  0.00    -0.367 C  
BRANCH  14  15
HETATM   15  C   UNL     1     -13.014   9.689  72.006  1.00  0.00    -0.428 C  
HETATM   16  H   UNL     1     -14.936   9.656  71.581  1.00  0.00     0.000 HD 
HETATM   17  O   UNL     1     -14.193   9.073  71.473  1.00  0.00    -0.312 OA 
BRANCH  15  18
HETATM   18  C   UNL     1     -12.808  11.079  71.442  1.00  0.00    -0.548 A  
HETATM   19  C   UNL     1     -12.137  11.232  70.215  1.00  0.00    -0.459 A  
HETATM   20  C   UNL     1     -11.903  12.500  69.670  1.00  0.00    -0.314 A  
HETATM   21  H   UNL     1     -12.465  15.660  70.402  1.00  0.00     0.000 HD 
HETATM   22  C   UNL     1     -12.373  13.622  70.365  1.00  0.00    -0.345 A  
HETATM   23  C   UNL     1     -13.283  12.221  72.103  1.00  0.00    -0.466 A  
HETATM   24  C   UNL     1     -13.065  13.488  71.565  1.00  0.00    -0.427 A  
HETATM   25  O   UNL     1     -12.146  14.898  69.930  1.00  0.00    -0.305 OA 
BRANCH  20  26
HETATM   26  N   UNL     1     -11.232  12.678  68.446  1.00  0.00    -0.258 N  
HETATM   27  H   UNL     1     -10.246  12.930  68.503  1.00  0.00     0.000 HD 
HETATM   28  O   UNL     1     -11.084  12.740  66.185  1.00  0.00    -0.277 OA 
HETATM   29  C   UNL     1     -11.755  12.551  67.190  1.00  0.00    -0.355 C  
ENDBRANCH  20  26
ENDBRANCH  15  18
ENDBRANCH  14  15
ENDBRANCH  12  14
ENDBRANCH  10  12
ENDBRANCH   9  10
ENDBRANCH   6   9
ENDBRANCH   2   3
TORSDOF 8
ENDMDL
MODEL      117
REMARK 921   NORMALIZED FREE ENERGY PREDICTED BY IDOCK:   -4.96 KCAL/MOL
REMARK 922        TOTAL FREE ENERGY PREDICTED BY IDOCK:   -8.94 KCAL/MOL
REMARK 923 INTER-LIGAND FREE ENERGY PREDICTED BY IDOCK:   -7.92 KCAL/MOL
REMARK 924 INTRA-LIGAND FREE ENERGY PREDICTED BY IDOCK:   -1.02 KCAL/MOL
REMARK 927      BINDING AFFINITY PREDICTED BY RF-SCORE:    0.00 PKD
ROOT
HETATM    1  C   UNL     1     -12.278   7.324  71.625  1.00  0.00    -0.343 C  
HETATM    2  O   UNL     1     -11.827   8.592  72.085  1.00  0.00    -0.333 OA 
ENDROOT
BRANCH   2   3
HETATM    3  C   UNL     1     -11.608   9.547  71.131  1.00  0.00    -0.367 A  
HETATM    4  C   UNL     1     -10.762   9.427  70.029  1.00  0.00    -0.270 A  
HETATM    5  C   UNL     1     -10.580  10.507  69.159  1.00  0.00    -0.258 A  
HETATM    6  C   UNL     1     -11.254  11.717  69.373  1.00  0.00    -0.311 A  
HETATM    7  C   UNL     1     -12.305  10.739  71.327  1.00  0.00    -0.470 A  
HETATM    8  C   UNL     1     -12.130  11.817  70.459  1.00  0.00    -0.439 A  
BRANCH   6   9
HETATM    9  C   UNL     1     -10.946  12.943  68.547  1.00  0.00    -0.288 C  
BRANCH   9  10
HETATM   10  C   UNL     1     -10.833  12.741  67.018  1.00  0.00    -0.257 C  
HETATM   11  C   UNL     1     -11.915  13.539  66.279  1.00  0.00    -0.457 C  
BRANCH  10  12
HETATM   12  N   UNL     1      -9.528  13.180  66.485  1.00  0.00    -0.287 NA 
HETATM   13  H   UNL     1      -9.655  13.797  65.683  1.00  0.00     0.000 HD 
BRANCH  12  14
HETATM   14  C   UNL     1      -8.665  13.812  67.498  1.00  0.00    -0.194 C  
BRANCH  14  15
HETATM   15  C   UNL     1      -7.976  15.108  67.008  1.00  0.00    -0.188 C  
HETATM   16  H   UNL     1      -6.147  15.837  66.980  1.00  0.00     0.000 HD 
HETATM   17  O   UNL     1      -6.571  15.041  67.281  1.00  0.00    -0.292 OA 
BRANCH  15  18
HETATM   18  C   UNL     1      -8.588  16.385  67.545  1.00  0.00    -0.185 A  
HETATM   19  C   UNL     1      -7.744  17.434  67.955  1.00  0.00    -0.202 A  
HETATM   20  C   UNL     1      -8.267  18.621  68.480  1.00  0.00    -0.341 A  
HETATM   21  H   UNL     1     -11.196  19.951  69.176  1.00  0.00     0.000 HD 
HETATM   22  C   UNL     1      -9.659  18.755  68.570  1.00  0.00    -0.369 A  
HETATM   23  C   UNL     1      -9.976  16.559  67.630  1.00  0.00    -0.254 A  
HETATM   24  C   UNL     1     -10.509  17.740  68.141  1.00  0.00    -0.382 A  
HETATM   25  O   UNL     1     -10.252  19.860  69.115  1.00  0.00    -0.407 OA 
BRANCH  20  26
HETATM   26  N   UNL     1      -7.444  19.682  68.899  1.00  0.00    -0.347 N  
HETATM   27  H   UNL     1      -7.389  20.487  68.276  1.00  0.00     0.000 HD 
HETATM   28  O   UNL     1      -6.012  20.724  70.316  1.00  0.00    -0.500 OA 
HETATM   29  C   UNL     1      -6.709  19.755  70.049  1.00  0.00    -0.185 C  
ENDBRANCH  20  26
ENDBRANCH  15  18
ENDBRANCH  14  15
ENDBRANCH  12  14
ENDBRANCH  10  12
ENDBRANCH   9  10
ENDBRANCH   6   9
ENDBRANCH   2   3
TORSDOF 8
ENDMDL
MODEL      118
REMARK 921   NORMALIZED FREE ENERGY PREDICTED BY IDOCK:   -4.95 KCAL/MOL
REMARK 922        TOTAL FREE ENERGY PREDICTED BY IDOCK:   -8.93 KCAL/MOL
REMARK 923 INTER-LIGAND FREE ENERGY PREDICTED BY IDOCK:   -8.32 KCAL/MOL
REMARK 924 INTRA-LIGAND FREE ENERGY PREDICTED BY IDOCK:   -0.61 KCAL/MOL
REMARK 927      BINDING AFFINITY PREDICTED BY RF-SCORE:    0.00 PKD
ROOT
HETATM    1  C   UNL     1     -10.351   3.819  73.822  1.00  0.00    -0.169 C  
HETATM    2  O   UNL     1     -11.128   4.978  73.551  1.00  0.00    -0.304 OA 
ENDROOT
BRANCH   2   3
HETATM    3  C   UNL     1     -11.129   5.428  72.260  1.00  0.00    -0.196 A  
HETATM    4  C   UNL     1     -11.925   6.452  71.747  1.00  0.00    -0.370 A  
HETATM    5  C   UNL     1     -11.870   6.774  70.387  1.00  0.00    -0.395 A  
HETATM    6  C   UNL     1     -11.007   6.084  69.525  1.00  0.00    -0.467 A  
HETATM    7  C   UNL     1     -10.245   4.763  71.410  1.00  0.00    -0.237 A  
HETATM    8  C   UNL     1     -10.184   5.085  70.054  1.00  0.00    -0.339 A  
BRANCH   6   9
HETATM    9  C   UNL     1     -11.053   6.301  68.031  1.00  0.00    -0.365 C  
BRANCH   9  10
HETATM   10  C   UNL     1      -9.952   7.202  67.425  1.00  0.00    -0.172 C  
HETATM   11  C   UNL     1      -8.819   6.356  66.829  1.00  0.00    -0.124 C  
BRANCH  10  12
HETATM   12  N   UNL     1     -10.463   8.068  66.344  1.00  0.00    -0.363 NA 
HETATM   13  H   UNL     1     -11.452   8.275  66.484  1.00  0.00     0.000 HD 
BRANCH  12  14
HETATM   14  C   UNL     1      -9.689   9.310  66.173  1.00  0.00    -0.279 C  
BRANCH  14  15
HETATM   15  C   UNL     1     -10.396  10.368  65.294  1.00  0.00    -0.197 C  
HETATM   16  H   UNL     1     -10.011  11.328  63.618  1.00  0.00     0.000 HD 
HETATM   17  O   UNL     1      -9.577  10.678  64.159  1.00  0.00    -0.246 OA 
BRANCH  15  18
HETATM   18  C   UNL     1     -10.819  11.620  66.035  1.00  0.00    -0.339 A  
HETATM   19  C   UNL     1     -10.625  12.876  65.431  1.00  0.00    -0.308 A  
HETATM   20  C   UNL     1     -10.978  14.058  66.092  1.00  0.00    -0.295 A  
HETATM   21  H   UNL     1     -12.272  15.007  68.965  1.00  0.00     0.000 HD 
HETATM   22  C   UNL     1     -11.553  13.965  67.366  1.00  0.00    -0.368 A  
HETATM   23  C   UNL     1     -11.414  11.560  67.302  1.00  0.00    -0.338 A  
HETATM   24  C   UNL     1     -11.779  12.729  67.965  1.00  0.00    -0.405 A  
HETATM   25  O   UNL     1     -11.882  15.070  68.101  1.00  0.00    -0.334 OA 
BRANCH  20  26
HETATM   26  N   UNL     1     -10.792  15.326  65.510  1.00  0.00    -0.352 N  
HETATM   27  H   UNL     1      -9.926  15.810  65.747  1.00  0.00     0.000 HD 
HETATM   28  O   UNL     1     -11.388  17.092  64.219  1.00  0.00    -1.191 OA 
HETATM   29  C   UNL     1     -11.641  15.981  64.663  1.00  0.00    -0.169 C  
ENDBRANCH  20  26
ENDBRANCH  15  18
ENDBRANCH  14  15
ENDBRANCH  12  14
ENDBRANCH  10  12
ENDBRANCH   9  10
ENDBRANCH   6   9
ENDBRANCH   2   3
TORSDOF 8
ENDMDL
MODEL      119
REMARK 921   NORMALIZED FREE ENERGY PREDICTED BY IDOCK:   -4.95 KCAL/MOL
REMARK 922        TOTAL FREE ENERGY PREDICTED BY IDOCK:   -8.92 KCAL/MOL
REMARK 923 INTER-LIGAND FREE ENERGY PREDICTED BY IDOCK:   -8.16 KCAL/MOL
REMARK 924 INTRA-LIGAND FREE ENERGY PREDICTED BY IDOCK:   -0.75 KCAL/MOL
REMARK 927      BINDING AFFINITY PREDICTED BY RF-SCORE:    0.00 PKD
ROOT
HETATM    1  C   UNL     1     -10.044  19.620  68.887  1.00  0.00    -0.401 C  
HETATM    2  O   UNL     1     -10.621  19.184  67.664  1.00  0.00    -0.434 OA 
ENDROOT
BRANCH   2   3
HETATM    3  C   UNL     1     -10.412  17.877  67.319  1.00  0.00    -0.366 A  
HETATM    4  C   UNL     1     -10.191  17.393  66.030  1.00  0.00    -0.308 A  
HETATM    5  C   UNL     1     -10.052  16.020  65.807  1.00  0.00    -0.393 A  
HETATM    6  C   UNL     1     -10.117  15.113  66.873  1.00  0.00    -0.256 A  
HETATM    7  C   UNL     1     -10.444  16.980  68.386  1.00  0.00    -0.370 A  
HETATM    8  C   UNL     1     -10.300  15.609  68.168  1.00  0.00    -0.246 A  
BRANCH   6   9
HETATM    9  C   UNL     1     -10.136  13.622  66.635  1.00  0.00    -0.277 C  
BRANCH   9  10
HETATM   10  C   UNL     1     -11.480  13.009  66.177  1.00  0.00    -0.340 C  
HETATM   11  C   UNL     1     -11.297  12.182  64.898  1.00  0.00    -0.378 C  
BRANCH  10  12
HETATM   12  N   UNL     1     -12.066  12.113  67.194  1.00  0.00    -0.532 NA 
HETATM   13  H   UNL     1     -12.149  11.163  66.833  1.00  0.00     0.000 HD 
BRANCH  12  14
HETATM   14  C   UNL     1     -11.338  12.124  68.474  1.00  0.00    -0.275 C  
BRANCH  14  15
HETATM   15  C   UNL     1     -12.258  12.027  69.714  1.00  0.00    -0.159 C  
HETATM   16  H   UNL     1     -12.607  13.100  71.328  1.00  0.00     0.000 HD 
HETATM   17  O   UNL     1     -12.042  13.159  70.566  1.00  0.00    -0.357 OA 
BRANCH  15  18
HETATM   18  C   UNL     1     -12.144  10.724  70.480  1.00  0.00    -0.459 A  
HETATM   19  C   UNL     1     -11.214   9.757  70.058  1.00  0.00    -0.297 A  
HETATM   20  C   UNL     1     -11.094   8.530  70.722  1.00  0.00    -0.254 A  
HETATM   21  H   UNL     1     -12.445   6.940  73.267  1.00  0.00     0.000 HD 
HETATM   22  C   UNL     1     -11.909   8.291  71.836  1.00  0.00    -0.324 A  
HETATM   23  C   UNL     1     -12.931  10.462  71.610  1.00  0.00    -0.581 A  
HETATM   24  C   UNL     1     -12.813   9.249  72.285  1.00  0.00    -0.459 A  
HETATM   25  O   UNL     1     -11.891   7.103  72.511  1.00  0.00    -0.229 OA 
BRANCH  20  26
HETATM   26  N   UNL     1     -10.173   7.546  70.317  1.00  0.00    -0.202 N  
HETATM   27  H   UNL     1     -10.303   6.615  70.711  1.00  0.00     0.000 HD 
HETATM   28  O   UNL     1      -8.370   6.777  69.177  1.00  0.00    -0.122 OA 
HETATM   29  C   UNL     1      -9.123   7.700  69.456  1.00  0.00    -0.146 C  
ENDBRANCH  20  26
ENDBRANCH  15  18
ENDBRANCH  14  15
ENDBRANCH  12  14
ENDBRANCH  10  12
ENDBRANCH   9  10
ENDBRANCH   6   9
ENDBRANCH   2   3
TORSDOF 8
ENDMDL
MODEL      120
REMARK 921   NORMALIZED FREE ENERGY PREDICTED BY IDOCK:   -4.94 KCAL/MOL
REMARK 922        TOTAL FREE ENERGY PREDICTED BY IDOCK:   -8.91 KCAL/MOL
REMARK 923 INTER-LIGAND FREE ENERGY PREDICTED BY IDOCK:   -8.20 KCAL/MOL
REMARK 924 INTRA-LIGAND FREE ENERGY PREDICTED BY IDOCK:   -0.71 KCAL/MOL
REMARK 927      BINDING AFFINITY PREDICTED BY RF-SCORE:    0.00 PKD
ROOT
HETATM    1  C   UNL     1      -8.719   2.367  73.421  1.00  0.00    -0.070 C  
HETATM    2  O   UNL     1      -9.976   2.999  73.623  1.00  0.00    -0.102 OA 
ENDROOT
BRANCH   2   3
HETATM    3  C   UNL     1     -10.325   3.970  72.725  1.00  0.00    -0.168 A  
HETATM    4  C   UNL     1      -9.826   4.107  71.430  1.00  0.00    -0.254 A  
HETATM    5  C   UNL     1     -10.223   5.186  70.633  1.00  0.00    -0.326 A  
HETATM    6  C   UNL     1     -11.135   6.133  71.117  1.00  0.00    -0.360 A  
HETATM    7  C   UNL     1     -11.258   4.893  73.196  1.00  0.00    -0.403 A  
HETATM    8  C   UNL     1     -11.660   5.967  72.403  1.00  0.00    -0.349 A  
BRANCH   6   9
HETATM    9  C   UNL     1     -11.447   7.390  70.339  1.00  0.00    -0.250 C  
BRANCH   9  10
HETATM   10  C   UNL     1     -10.250   8.116  69.683  1.00  0.00    -0.205 C  
HETATM   11  C   UNL     1     -10.272   7.942  68.159  1.00  0.00    -0.248 C  
BRANCH  10  12
HETATM   12  N   UNL     1     -10.252   9.567  69.954  1.00  0.00    -0.214 NA 
HETATM   13  H   UNL     1     -10.296  10.098  69.085  1.00  0.00     0.000 HD 
BRANCH  12  14
HETATM   14  C   UNL     1     -11.320   9.989  70.877  1.00  0.00    -0.361 C  
BRANCH  14  15
HETATM   15  C   UNL     1     -12.436  10.819  70.201  1.00  0.00    -0.285 C  
HETATM   16  H   UNL     1     -12.901  11.374  68.370  1.00  0.00     0.000 HD 
HETATM   17  O   UNL     1     -12.215  10.863  68.785  1.00  0.00    -0.518 OA 
BRANCH  15  18
HETATM   18  C   UNL     1     -12.624  12.207  70.779  1.00  0.00    -0.305 A  
HETATM   19  C   UNL     1     -12.068  13.313  70.110  1.00  0.00    -0.403 A  
HETATM   20  C   UNL     1     -12.197  14.609  70.622  1.00  0.00    -0.325 A  
HETATM   21  H   UNL     1     -13.531  16.133  73.216  1.00  0.00     0.000 HD 
HETATM   22  C   UNL     1     -12.913  14.788  71.813  1.00  0.00    -0.332 A  
HETATM   23  C   UNL     1     -13.351  12.422  71.957  1.00  0.00    -0.511 A  
HETATM   24  C   UNL     1     -13.495  13.709  72.472  1.00  0.00    -0.675 A  
HETATM   25  O   UNL     1     -13.045  16.011  72.408  1.00  0.00    -0.448 OA 
BRANCH  20  26
HETATM   26  N   UNL     1     -11.648  15.730  69.973  1.00  0.00    -0.335 N  
HETATM   27  H   UNL     1     -11.381  16.513  70.568  1.00  0.00     0.000 HD 
HETATM   28  O   UNL     1     -10.955  16.911  68.165  1.00  0.00    -0.365 OA 
HETATM   29  C   UNL     1     -11.431  15.885  68.632  1.00  0.00    -0.391 C  
ENDBRANCH  20  26
ENDBRANCH  15  18
ENDBRANCH  14  15
ENDBRANCH  12  14
ENDBRANCH  10  12
ENDBRANCH   9  10
ENDBRANCH   6   9
ENDBRANCH   2   3
TORSDOF 8
ENDMDL
MODEL      121
REMARK 921   NORMALIZED FREE ENERGY PREDICTED BY IDOCK:   -4.94 KCAL/MOL
REMARK 922        TOTAL FREE ENERGY PREDICTED BY IDOCK:   -8.91 KCAL/MOL
REMARK 923 INTER-LIGAND FREE ENERGY PREDICTED BY IDOCK:   -7.87 KCAL/MOL
REMARK 924 INTRA-LIGAND FREE ENERGY PREDICTED BY IDOCK:   -1.04 KCAL/MOL
REMARK 927      BINDING AFFINITY PREDICTED BY RF-SCORE:    0.00 PKD
ROOT
HETATM    1  C   UNL     1      -6.733  14.107  67.540  1.00  0.00    -0.105 C  
HETATM    2  O   UNL     1      -5.768  15.136  67.716  1.00  0.00    -0.183 OA 
ENDROOT
BRANCH   2   3
HETATM    3  C   UNL     1      -6.233  16.422  67.699  1.00  0.00    -0.141 A  
HETATM    4  C   UNL     1      -6.428  17.239  68.812  1.00  0.00    -0.194 A  
HETATM    5  C   UNL     1      -6.970  18.519  68.661  1.00  0.00    -0.289 A  
HETATM    6  C   UNL     1      -7.310  19.004  67.391  1.00  0.00    -0.245 A  
HETATM    7  C   UNL     1      -6.540  16.915  66.431  1.00  0.00    -0.121 A  
HETATM    8  C   UNL     1      -7.075  18.194  66.275  1.00  0.00    -0.298 A  
BRANCH   6   9
HETATM    9  C   UNL     1      -8.048  20.312  67.222  1.00  0.00    -0.381 C  
BRANCH   9  10
HETATM   10  C   UNL     1      -9.583  20.271  67.398  1.00  0.00    -0.432 C  
HETATM   11  C   UNL     1     -10.279  19.949  66.069  1.00  0.00    -0.591 C  
BRANCH  10  12
HETATM   12  N   UNL     1     -10.012  19.247  68.372  1.00  0.00    -0.394 NA 
HETATM   13  H   UNL     1     -10.431  19.682  69.193  1.00  0.00     0.000 HD 
BRANCH  12  14
HETATM   14  C   UNL     1     -10.916  18.235  67.799  1.00  0.00    -0.088 C  
BRANCH  14  15
HETATM   15  C   UNL     1     -10.270  16.839  67.642  1.00  0.00    -0.289 C  
HETATM   16  H   UNL     1      -9.889  15.593  66.165  1.00  0.00     0.000 HD 
HETATM   17  O   UNL     1     -10.286  16.451  66.262  1.00  0.00    -0.301 OA 
BRANCH  15  18
HETATM   18  C   UNL     1     -10.868  15.767  68.529  1.00  0.00    -0.290 A  
HETATM   19  C   UNL     1     -10.928  15.977  69.919  1.00  0.00    -0.353 A  
HETATM   20  C   UNL     1     -11.450  15.002  70.777  1.00  0.00    -0.292 A  
HETATM   21  H   UNL     1     -12.745  11.982  70.609  1.00  0.00     0.000 HD 
HETATM   22  C   UNL     1     -11.935  13.812  70.219  1.00  0.00    -0.326 A  
HETATM   23  C   UNL     1     -11.380  14.574  68.000  1.00  0.00    -0.326 A  
HETATM   24  C   UNL     1     -11.911  13.600  68.843  1.00  0.00    -0.392 A  
HETATM   25  O   UNL     1     -12.416  12.789  70.987  1.00  0.00    -0.376 OA 
BRANCH  20  26
HETATM   26  N   UNL     1     -11.517  15.189  72.170  1.00  0.00    -0.463 N  
HETATM   27  H   UNL     1     -10.684  14.939  72.701  1.00  0.00     0.000 HD 
HETATM   28  O   UNL     1     -12.535  15.781  74.107  1.00  0.00    -0.554 OA 
HETATM   29  C   UNL     1     -12.575  15.667  72.890  1.00  0.00    -0.446 C  
ENDBRANCH  20  26
ENDBRANCH  15  18
ENDBRANCH  14  15
ENDBRANCH  12  14
ENDBRANCH  10  12
ENDBRANCH   9  10
ENDBRANCH   6   9
ENDBRANCH   2   3
TORSDOF 8
ENDMDL
MODEL      122
REMARK 921   NORMALIZED FREE ENERGY PREDICTED BY IDOCK:   -4.94 KCAL/MOL
REMARK 922        TOTAL FREE ENERGY PREDICTED BY IDOCK:   -8.91 KCAL/MOL
REMARK 923 INTER-LIGAND FREE ENERGY PREDICTED BY IDOCK:   -7.79 KCAL/MOL
REMARK 924 INTRA-LIGAND FREE ENERGY PREDICTED BY IDOCK:   -1.11 KCAL/MOL
REMARK 927      BINDING AFFINITY PREDICTED BY RF-SCORE:    0.00 PKD
ROOT
HETATM    1  C   UNL     1     -12.329  15.354  74.082  1.00  0.00    -0.663 C  
HETATM    2  O   UNL     1     -12.197  16.138  72.903  1.00  0.00    -0.469 OA 
ENDROOT
BRANCH   2   3
HETATM    3  C   UNL     1     -12.118  15.457  71.720  1.00  0.00    -0.390 A  
HETATM    4  C   UNL     1     -12.471  14.124  71.515  1.00  0.00    -0.423 A  
HETATM    5  C   UNL     1     -12.283  13.529  70.264  1.00  0.00    -0.417 A  
HETATM    6  C   UNL     1     -11.754  14.266  69.196  1.00  0.00    -0.360 A  
HETATM    7  C   UNL     1     -11.622  16.202  70.650  1.00  0.00    -0.347 A  
HETATM    8  C   UNL     1     -11.438  15.613  69.398  1.00  0.00    -0.354 A  
BRANCH   6   9
HETATM    9  C   UNL     1     -11.388  13.602  67.889  1.00  0.00    -0.325 C  
BRANCH   9  10
HETATM   10  C   UNL     1     -10.146  12.681  67.902  1.00  0.00    -0.222 C  
HETATM   11  C   UNL     1      -9.651  12.409  66.475  1.00  0.00    -0.242 C  
BRANCH  10  12
HETATM   12  N   UNL     1      -9.016  13.269  68.648  1.00  0.00    -0.379 NA 
HETATM   13  H   UNL     1      -8.465  12.541  69.103  1.00  0.00     0.000 HD 
BRANCH  12  14
HETATM   14  C   UNL     1      -8.156  14.135  67.824  1.00  0.00    -0.166 C  
BRANCH  14  15
HETATM   15  C   UNL     1      -7.064  14.878  68.629  1.00  0.00    -0.111 C  
HETATM   16  H   UNL     1      -6.425  14.905  70.491  1.00  0.00     0.000 HD 
HETATM   17  O   UNL     1      -7.096  14.449  69.996  1.00  0.00    -0.048 OA 
BRANCH  15  18
HETATM   18  C   UNL     1      -7.120  16.388  68.518  1.00  0.00    -0.157 A  
HETATM   19  C   UNL     1      -7.940  16.977  67.537  1.00  0.00    -0.189 A  
HETATM   20  C   UNL     1      -8.001  18.366  67.384  1.00  0.00    -0.238 A  
HETATM   21  H   UNL     1      -6.692  21.073  68.721  1.00  0.00     0.000 HD 
HETATM   22  C   UNL     1      -7.243  19.168  68.247  1.00  0.00    -0.271 A  
HETATM   23  C   UNL     1      -6.389  17.218  69.379  1.00  0.00    -0.244 A  
HETATM   24  C   UNL     1      -6.450  18.603  69.243  1.00  0.00    -0.289 A  
HETATM   25  O   UNL     1      -7.207  20.530  68.136  1.00  0.00    -0.244 OA 
BRANCH  20  26
HETATM   26  N   UNL     1      -8.811  18.978  66.409  1.00  0.00    -0.326 N  
HETATM   27  H   UNL     1      -8.348  19.254  65.544  1.00  0.00     0.000 HD 
HETATM   28  O   UNL     1     -10.760  19.792  65.586  1.00  0.00    -0.505 OA 
HETATM   29  C   UNL     1     -10.149  19.243  66.492  1.00  0.00    -0.415 C  
ENDBRANCH  20  26
ENDBRANCH  15  18
ENDBRANCH  14  15
ENDBRANCH  12  14
ENDBRANCH  10  12
ENDBRANCH   9  10
ENDBRANCH   6   9
ENDBRANCH   2   3
TORSDOF 8
ENDMDL
MODEL      123
REMARK 921   NORMALIZED FREE ENERGY PREDICTED BY IDOCK:   -4.92 KCAL/MOL
REMARK 922        TOTAL FREE ENERGY PREDICTED BY IDOCK:   -8.89 KCAL/MOL
REMARK 923 INTER-LIGAND FREE ENERGY PREDICTED BY IDOCK:   -8.27 KCAL/MOL
REMARK 924 INTRA-LIGAND FREE ENERGY PREDICTED BY IDOCK:   -0.62 KCAL/MOL
REMARK 927      BINDING AFFINITY PREDICTED BY RF-SCORE:    0.00 PKD
ROOT
HETATM    1  C   UNL     1      -9.491   3.228  68.586  1.00  0.00    -0.131 C  
HETATM    2  O   UNL     1      -9.416   3.180  70.005  1.00  0.00    -0.170 OA 
ENDROOT
BRANCH   2   3
HETATM    3  C   UNL     1      -9.882   4.275  70.680  1.00  0.00    -0.195 A  
HETATM    4  C   UNL     1      -9.916   4.431  72.065  1.00  0.00    -0.252 A  
HETATM    5  C   UNL     1     -10.478   5.580  72.631  1.00  0.00    -0.257 A  
HETATM    6  C   UNL     1     -10.999   6.595  71.817  1.00  0.00    -0.276 A  
HETATM    7  C   UNL     1     -10.371   5.298  69.867  1.00  0.00    -0.374 A  
HETATM    8  C   UNL     1     -10.927   6.448  70.428  1.00  0.00    -0.367 A  
BRANCH   6   9
HETATM    9  C   UNL     1     -11.757   7.761  72.406  1.00  0.00    -0.394 C  
BRANCH   9  10
HETATM   10  C   UNL     1     -12.533   8.658  71.413  1.00  0.00    -0.301 C  
HETATM   11  C   UNL     1     -13.939   8.969  71.940  1.00  0.00    -0.445 C  
BRANCH  10  12
HETATM   12  N   UNL     1     -11.861   9.952  71.178  1.00  0.00    -0.356 NA 
HETATM   13  H   UNL     1     -11.121   9.854  70.483  1.00  0.00     0.000 HD 
BRANCH  12  14
HETATM   14  C   UNL     1     -12.788  11.034  70.807  1.00  0.00    -0.266 C  
BRANCH  14  15
HETATM   15  C   UNL     1     -12.439  12.399  71.446  1.00  0.00    -0.100 C  
HETATM   16  H   UNL     1     -13.305  13.669  72.677  1.00  0.00     0.000 HD 
HETATM   17  O   UNL     1     -13.519  12.830  72.284  1.00  0.00    -0.565 OA 
BRANCH  15  18
HETATM   18  C   UNL     1     -12.041  13.473  70.454  1.00  0.00    -0.415 A  
HETATM   19  C   UNL     1     -12.032  13.172  69.080  1.00  0.00    -0.329 A  
HETATM   20  C   UNL     1     -11.647  14.128  68.132  1.00  0.00    -0.331 A  
HETATM   21  H   UNL     1     -10.610  17.250  68.032  1.00  0.00     0.000 HD 
HETATM   22  C   UNL     1     -11.288  15.406  68.580  1.00  0.00    -0.335 A  
HETATM   23  C   UNL     1     -11.696  14.767  70.868  1.00  0.00    -0.360 A  
HETATM   24  C   UNL     1     -11.321  15.730  69.934  1.00  0.00    -0.349 A  
HETATM   25  O   UNL     1     -10.854  16.382  67.728  1.00  0.00    -0.332 OA 
BRANCH  20  26
HETATM   26  N   UNL     1     -11.627  13.850  66.753  1.00  0.00    -0.358 N  
HETATM   27  H   UNL     1     -10.817  13.338  66.406  1.00  0.00     0.000 HD 
HETATM   28  O   UNL     1     -12.454  13.907  64.643  1.00  0.00    -0.560 OA 
HETATM   29  C   UNL     1     -12.573  14.189  65.827  1.00  0.00    -0.447 C  
ENDBRANCH  20  26
ENDBRANCH  15  18
ENDBRANCH  14  15
ENDBRANCH  12  14
ENDBRANCH  10  12
ENDBRANCH   9  10
ENDBRANCH   6   9
ENDBRANCH   2   3
TORSDOF 8
ENDMDL
MODEL      124
REMARK 921   NORMALIZED FREE ENERGY PREDICTED BY IDOCK:   -4.91 KCAL/MOL
REMARK 922        TOTAL FREE ENERGY PREDICTED BY IDOCK:   -8.87 KCAL/MOL
REMARK 923 INTER-LIGAND FREE ENERGY PREDICTED BY IDOCK:   -7.96 KCAL/MOL
REMARK 924 INTRA-LIGAND FREE ENERGY PREDICTED BY IDOCK:   -0.91 KCAL/MOL
REMARK 927      BINDING AFFINITY PREDICTED BY RF-SCORE:    0.00 PKD
ROOT
HETATM    1  C   UNL     1     -12.330  15.354  74.077  1.00  0.00    -0.659 C  
HETATM    2  O   UNL     1     -12.232  16.110  72.876  1.00  0.00    -0.469 OA 
ENDROOT
BRANCH   2   3
HETATM    3  C   UNL     1     -12.197  15.401  71.708  1.00  0.00    -0.379 A  
HETATM    4  C   UNL     1     -12.536  14.057  71.552  1.00  0.00    -0.432 A  
HETATM    5  C   UNL     1     -12.397  13.434  70.308  1.00  0.00    -0.354 A  
HETATM    6  C   UNL     1     -11.929  14.152  69.199  1.00  0.00    -0.388 A  
HETATM    7  C   UNL     1     -11.763  16.126  70.598  1.00  0.00    -0.300 A  
HETATM    8  C   UNL     1     -11.627  15.509  69.354  1.00  0.00    -0.366 A  
BRANCH   6   9
HETATM    9  C   UNL     1     -11.613  13.461  67.893  1.00  0.00    -0.374 C  
BRANCH   9  10
HETATM   10  C   UNL     1     -10.334  12.593  67.859  1.00  0.00    -0.218 C  
HETATM   11  C   UNL     1      -9.951  12.240  66.416  1.00  0.00    -0.243 C  
BRANCH  10  12
HETATM   12  N   UNL     1      -9.172  13.277  68.462  1.00  0.00    -0.355 NA 
HETATM   13  H   UNL     1      -8.562  12.607  68.930  1.00  0.00     0.000 HD 
BRANCH  12  14
HETATM   14  C   UNL     1      -8.411  14.094  67.502  1.00  0.00    -0.185 C  
BRANCH  14  15
HETATM   15  C   UNL     1      -7.306  14.956  68.157  1.00  0.00    -0.117 C  
HETATM   16  H   UNL     1      -6.565  15.206  69.964  1.00  0.00     0.000 HD 
HETATM   17  O   UNL     1      -7.243  14.677  69.561  1.00  0.00    -0.159 OA 
BRANCH  15  18
HETATM   18  C   UNL     1      -7.428  16.442  67.890  1.00  0.00    -0.151 A  
HETATM   19  C   UNL     1      -7.126  17.354  68.918  1.00  0.00    -0.251 A  
HETATM   20  C   UNL     1      -7.249  18.734  68.720  1.00  0.00    -0.308 A  
HETATM   21  H   UNL     1      -8.136  20.835  66.347  1.00  0.00     0.000 HD 
HETATM   22  C   UNL     1      -7.662  19.195  67.463  1.00  0.00    -0.237 A  
HETATM   23  C   UNL     1      -7.819  16.936  66.638  1.00  0.00    -0.298 A  
HETATM   24  C   UNL     1      -7.936  18.308  66.426  1.00  0.00    -0.290 A  
HETATM   25  O   UNL     1      -7.856  20.522  67.200  1.00  0.00    -0.324 OA 
BRANCH  20  26
HETATM   26  N   UNL     1      -6.955  19.665  69.734  1.00  0.00    -0.245 N  
HETATM   27  H   UNL     1      -7.749  20.024  70.264  1.00  0.00     0.000 HD 
HETATM   28  O   UNL     1      -5.579  20.964  70.982  1.00  0.00    -0.545 OA 
HETATM   29  C   UNL     1      -5.725  20.143  70.088  1.00  0.00    -0.317 C  
ENDBRANCH  20  26
ENDBRANCH  15  18
ENDBRANCH  14  15
ENDBRANCH  12  14
ENDBRANCH  10  12
ENDBRANCH   9  10
ENDBRANCH   6   9
ENDBRANCH   2   3
TORSDOF 8
ENDMDL
MODEL      125
REMARK 921   NORMALIZED FREE ENERGY PREDICTED BY IDOCK:   -4.91 KCAL/MOL
REMARK 922        TOTAL FREE ENERGY PREDICTED BY IDOCK:   -8.86 KCAL/MOL
REMARK 923 INTER-LIGAND FREE ENERGY PREDICTED BY IDOCK:   -7.84 KCAL/MOL
REMARK 924 INTRA-LIGAND FREE ENERGY PREDICTED BY IDOCK:   -1.02 KCAL/MOL
REMARK 927      BINDING AFFINITY PREDICTED BY RF-SCORE:    0.00 PKD
ROOT
HETATM    1  C   UNL     1     -11.909  15.898  64.109  1.00  0.00     0.028 C  
HETATM    2  O   UNL     1     -12.650  14.686  64.048  1.00  0.00    -0.819 OA 
ENDROOT
BRANCH   2   3
HETATM    3  C   UNL     1     -12.145  13.623  64.744  1.00  0.00    -0.402 A  
HETATM    4  C   UNL     1     -12.202  13.444  66.125  1.00  0.00    -0.471 A  
HETATM    5  C   UNL     1     -11.588  12.336  66.719  1.00  0.00    -0.434 A  
HETATM    6  C   UNL     1     -10.922  11.384  65.935  1.00  0.00    -0.268 A  
HETATM    7  C   UNL     1     -11.511  12.660  63.959  1.00  0.00    -0.475 A  
HETATM    8  C   UNL     1     -10.902  11.550  64.546  1.00  0.00    -0.390 A  
BRANCH   6   9
HETATM    9  C   UNL     1     -10.115  10.275  66.566  1.00  0.00    -0.290 C  
BRANCH   9  10
HETATM   10  C   UNL     1      -8.580  10.347  66.390  1.00  0.00    -0.132 C  
HETATM   11  C   UNL     1      -8.046  11.725  66.801  1.00  0.00    -0.133 C  
BRANCH  10  12
HETATM   12  N   UNL     1      -7.871   9.344  67.210  1.00  0.00    -0.098 NA 
HETATM   13  H   UNL     1      -7.045   9.754  67.647  1.00  0.00     0.000 HD 
BRANCH  12  14
HETATM   14  C   UNL     1      -8.729   8.699  68.218  1.00  0.00    -0.142 C  
BRANCH  14  15
HETATM   15  C   UNL     1      -8.654   9.360  69.615  1.00  0.00    -0.168 C  
HETATM   16  H   UNL     1      -7.525   9.197  71.220  1.00  0.00     0.000 HD 
HETATM   17  O   UNL     1      -7.571   8.791  70.362  1.00  0.00    -0.066 OA 
BRANCH  15  18
HETATM   18  C   UNL     1      -9.951   9.322  70.398  1.00  0.00    -0.287 A  
HETATM   19  C   UNL     1     -10.156   8.298  71.340  1.00  0.00    -0.257 A  
HETATM   20  C   UNL     1     -11.350   8.211  72.067  1.00  0.00    -0.316 A  
HETATM   21  H   UNL     1     -14.215   9.807  72.336  1.00  0.00     0.000 HD 
HETATM   22  C   UNL     1     -12.334   9.184  71.852  1.00  0.00    -0.385 A  
HETATM   23  C   UNL     1     -10.947  10.291  70.221  1.00  0.00    -0.375 A  
HETATM   24  C   UNL     1     -12.135  10.222  70.945  1.00  0.00    -0.468 A  
HETATM   25  O   UNL     1     -13.547   9.147  72.482  1.00  0.00    -0.470 OA 
BRANCH  20  26
HETATM   26  N   UNL     1     -11.579   7.195  73.012  1.00  0.00    -0.550 N  
HETATM   27  H   UNL     1     -12.379   7.324  73.631  1.00  0.00     0.000 HD 
HETATM   28  O   UNL     1     -11.130   5.233  74.057  1.00  0.00    -0.212 OA 
HETATM   29  C   UNL     1     -10.851   6.053  73.193  1.00  0.00    -0.259 C  
ENDBRANCH  20  26
ENDBRANCH  15  18
ENDBRANCH  14  15
ENDBRANCH  12  14
ENDBRANCH  10  12
ENDBRANCH   9  10
ENDBRANCH   6   9
ENDBRANCH   2   3
TORSDOF 8
ENDMDL
MODEL      126
REMARK 921   NORMALIZED FREE ENERGY PREDICTED BY IDOCK:   -4.90 KCAL/MOL
REMARK 922        TOTAL FREE ENERGY PREDICTED BY IDOCK:   -8.86 KCAL/MOL
REMARK 923 INTER-LIGAND FREE ENERGY PREDICTED BY IDOCK:   -7.74 KCAL/MOL
REMARK 924 INTRA-LIGAND FREE ENERGY PREDICTED BY IDOCK:   -1.12 KCAL/MOL
REMARK 927      BINDING AFFINITY PREDICTED BY RF-SCORE:    0.00 PKD
ROOT
HETATM    1  C   UNL     1      -7.250  17.886  66.210  1.00  0.00    -0.289 C  
HETATM    2  O   UNL     1      -8.396  17.238  65.674  1.00  0.00    -0.475 OA 
ENDROOT
BRANCH   2   3
HETATM    3  C   UNL     1      -9.269  16.693  66.574  1.00  0.00    -0.270 A  
HETATM    4  C   UNL     1     -10.328  15.836  66.275  1.00  0.00    -0.320 A  
HETATM    5  C   UNL     1     -11.188  15.397  67.287  1.00  0.00    -0.270 A  
HETATM    6  C   UNL     1     -10.990  15.800  68.615  1.00  0.00    -0.307 A  
HETATM    7  C   UNL     1      -9.052  17.069  67.899  1.00  0.00    -0.232 A  
HETATM    8  C   UNL     1      -9.904  16.629  68.913  1.00  0.00    -0.261 A  
BRANCH   6   9
HETATM    9  C   UNL     1     -12.000  15.476  69.691  1.00  0.00    -0.380 C  
BRANCH   9  10
HETATM   10  C   UNL     1     -11.669  14.281  70.615  1.00  0.00    -0.223 C  
HETATM   11  C   UNL     1     -12.940  13.733  71.277  1.00  0.00    -0.409 C  
BRANCH  10  12
HETATM   12  N   UNL     1     -11.041  13.161  69.886  1.00  0.00    -0.448 NA 
HETATM   13  H   UNL     1     -10.296  12.741  70.442  1.00  0.00     0.000 HD 
BRANCH  12  14
HETATM   14  C   UNL     1     -12.003  12.137  69.445  1.00  0.00    -0.270 C  
BRANCH  14  15
HETATM   15  C   UNL     1     -11.341  10.894  68.804  1.00  0.00    -0.292 C  
HETATM   16  H   UNL     1      -9.759   9.774  69.151  1.00  0.00     0.000 HD 
HETATM   17  O   UNL     1     -10.166  10.537  69.545  1.00  0.00    -0.227 OA 
BRANCH  15  18
HETATM   18  C   UNL     1     -11.046  11.032  67.325  1.00  0.00    -0.359 A  
HETATM   19  C   UNL     1     -10.217  10.085  66.696  1.00  0.00    -0.288 A  
HETATM   20  C   UNL     1      -9.899  10.190  65.337  1.00  0.00    -0.307 A  
HETATM   21  H   UNL     1     -10.518  12.176  62.787  1.00  0.00     0.000 HD 
HETATM   22  C   UNL     1     -10.445  11.251  64.604  1.00  0.00    -0.325 A  
HETATM   23  C   UNL     1     -11.592  12.071  66.559  1.00  0.00    -0.384 A  
HETATM   24  C   UNL     1     -11.292  12.180  65.202  1.00  0.00    -0.379 A  
HETATM   25  O   UNL     1     -10.148  11.456  63.285  1.00  0.00    -0.345 OA 
BRANCH  20  26
HETATM   26  N   UNL     1      -9.070   9.257  64.688  1.00  0.00    -0.407 N  
HETATM   27  H   UNL     1      -8.981   9.357  63.677  1.00  0.00     0.000 HD 
HETATM   28  O   UNL     1      -7.682   7.466  64.600  1.00  0.00    -0.104 OA 
HETATM   29  C   UNL     1      -8.370   8.232  65.260  1.00  0.00    -0.166 C  
ENDBRANCH  20  26
ENDBRANCH  15  18
ENDBRANCH  14  15
ENDBRANCH  12  14
ENDBRANCH  10  12
ENDBRANCH   9  10
ENDBRANCH   6   9
ENDBRANCH   2   3
TORSDOF 8
ENDMDL
MODEL      127
REMARK 921   NORMALIZED FREE ENERGY PREDICTED BY IDOCK:   -4.90 KCAL/MOL
REMARK 922        TOTAL FREE ENERGY PREDICTED BY IDOCK:   -8.85 KCAL/MOL
REMARK 923 INTER-LIGAND FREE ENERGY PREDICTED BY IDOCK:   -7.36 KCAL/MOL
REMARK 924 INTRA-LIGAND FREE ENERGY PREDICTED BY IDOCK:   -1.50 KCAL/MOL
REMARK 927      BINDING AFFINITY PREDICTED BY RF-SCORE:    0.00 PKD
ROOT
HETATM    1  C   UNL     1     -11.086  16.193  70.227  1.00  0.00    -0.369 C  
HETATM    2  O   UNL     1     -12.085  15.738  71.132  1.00  0.00    -0.365 OA 
ENDROOT
BRANCH   2   3
HETATM    3  C   UNL     1     -12.364  14.400  71.114  1.00  0.00    -0.358 A  
HETATM    4  C   UNL     1     -13.084  13.699  72.080  1.00  0.00    -0.489 A  
HETATM    5  C   UNL     1     -13.247  12.313  71.972  1.00  0.00    -0.508 A  
HETATM    6  C   UNL     1     -12.701  11.614  70.887  1.00  0.00    -0.351 A  
HETATM    7  C   UNL     1     -11.848  13.710  70.016  1.00  0.00    -0.378 A  
HETATM    8  C   UNL     1     -12.013  12.329  69.902  1.00  0.00    -0.377 A  
BRANCH   6   9
HETATM    9  C   UNL     1     -12.721  10.104  70.838  1.00  0.00    -0.448 C  
BRANCH   9  10
HETATM   10  C   UNL     1     -12.535   9.363  72.182  1.00  0.00    -0.323 C  
HETATM   11  C   UNL     1     -13.861   8.759  72.663  1.00  0.00    -0.352 C  
BRANCH  10  12
HETATM   12  N   UNL     1     -11.563   8.256  72.086  1.00  0.00    -0.337 NA 
HETATM   13  H   UNL     1     -11.713   7.578  72.833  1.00  0.00     0.000 HD 
BRANCH  12  14
HETATM   14  C   UNL     1     -11.560   7.592  70.771  1.00  0.00    -0.265 C  
BRANCH  14  15
HETATM   15  C   UNL     1     -10.148   7.425  70.161  1.00  0.00    -0.197 C  
HETATM   16  H   UNL     1      -8.367   6.876  70.798  1.00  0.00     0.000 HD 
HETATM   17  O   UNL     1      -9.234   6.979  71.172  1.00  0.00    -0.157 OA 
BRANCH  15  18
HETATM   18  C   UNL     1      -9.626   8.651  69.441  1.00  0.00    -0.166 A  
HETATM   19  C   UNL     1     -10.277   9.093  68.274  1.00  0.00    -0.242 A  
HETATM   20  C   UNL     1      -9.812  10.206  67.564  1.00  0.00    -0.177 A  
HETATM   21  H   UNL     1      -7.383  12.420  67.727  1.00  0.00     0.000 HD 
HETATM   22  C   UNL     1      -8.691  10.890  68.052  1.00  0.00    -0.132 A  
HETATM   23  C   UNL     1      -8.519   9.368  69.914  1.00  0.00    -0.186 A  
HETATM   24  C   UNL     1      -8.054  10.484  69.221  1.00  0.00    -0.152 A  
HETATM   25  O   UNL     1      -8.143  11.956  67.395  1.00  0.00    -0.147 OA 
BRANCH  20  26
HETATM   26  N   UNL     1     -10.445  10.665  66.394  1.00  0.00    -0.235 N  
HETATM   27  H   UNL     1     -10.276  10.125  65.546  1.00  0.00     0.000 HD 
HETATM   28  O   UNL     1     -11.754  12.076  65.195  1.00  0.00    -0.330 OA 
HETATM   29  C   UNL     1     -11.260  11.755  66.267  1.00  0.00    -0.312 C  
ENDBRANCH  20  26
ENDBRANCH  15  18
ENDBRANCH  14  15
ENDBRANCH  12  14
ENDBRANCH  10  12
ENDBRANCH   9  10
ENDBRANCH   6   9
ENDBRANCH   2   3
TORSDOF 8
ENDMDL
MODEL      128
REMARK 921   NORMALIZED FREE ENERGY PREDICTED BY IDOCK:   -4.89 KCAL/MOL
REMARK 922        TOTAL FREE ENERGY PREDICTED BY IDOCK:   -8.84 KCAL/MOL
REMARK 923 INTER-LIGAND FREE ENERGY PREDICTED BY IDOCK:   -7.66 KCAL/MOL
REMARK 924 INTRA-LIGAND FREE ENERGY PREDICTED BY IDOCK:   -1.18 KCAL/MOL
REMARK 927      BINDING AFFINITY PREDICTED BY RF-SCORE:    0.00 PKD
ROOT
HETATM    1  C   UNL     1      -9.956  11.672  63.198  1.00  0.00    -0.375 C  
HETATM    2  O   UNL     1     -10.009  10.462  63.943  1.00  0.00    -0.315 OA 
ENDROOT
BRANCH   2   3
HETATM    3  C   UNL     1     -10.352  10.570  65.263  1.00  0.00    -0.229 A  
HETATM    4  C   UNL     1     -11.110  11.592  65.833  1.00  0.00    -0.320 A  
HETATM    5  C   UNL     1     -11.339  11.616  67.212  1.00  0.00    -0.372 A  
HETATM    6  C   UNL     1     -10.822  10.608  68.038  1.00  0.00    -0.309 A  
HETATM    7  C   UNL     1      -9.865   9.549  66.078  1.00  0.00    -0.353 A  
HETATM    8  C   UNL     1     -10.095   9.565  67.454  1.00  0.00    -0.262 A  
BRANCH   6   9
HETATM    9  C   UNL     1     -10.914  10.703  69.543  1.00  0.00    -0.321 C  
BRANCH   9  10
HETATM   10  C   UNL     1     -12.205  11.329  70.121  1.00  0.00    -0.330 C  
HETATM   11  C   UNL     1     -12.878  10.374  71.116  1.00  0.00    -0.511 C  
BRANCH  10  12
HETATM   12  N   UNL     1     -11.946  12.593  70.840  1.00  0.00    -0.389 NA 
HETATM   13  H   UNL     1     -10.967  12.656  71.117  1.00  0.00     0.000 HD 
BRANCH  12  14
HETATM   14  C   UNL     1     -12.353  13.790  70.084  1.00  0.00    -0.323 C  
BRANCH  14  15
HETATM   15  C   UNL     1     -11.455  15.023  70.341  1.00  0.00    -0.280 C  
HETATM   16  H   UNL     1     -11.691  16.845  71.050  1.00  0.00     0.000 HD 
HETATM   17  O   UNL     1     -12.242  16.087  70.893  1.00  0.00    -0.392 OA 
BRANCH  15  18
HETATM   18  C   UNL     1     -10.663  15.484  69.135  1.00  0.00    -0.250 A  
HETATM   19  C   UNL     1      -9.368  16.004  69.320  1.00  0.00    -0.244 A  
HETATM   20  C   UNL     1      -8.611  16.463  68.236  1.00  0.00    -0.200 A  
HETATM   21  H   UNL     1      -8.888  16.788  64.972  1.00  0.00     0.000 HD 
HETATM   22  C   UNL     1      -9.163  16.377  66.951  1.00  0.00    -0.218 A  
HETATM   23  C   UNL     1     -11.178  15.392  67.835  1.00  0.00    -0.329 A  
HETATM   24  C   UNL     1     -10.431  15.838  66.747  1.00  0.00    -0.305 A  
HETATM   25  O   UNL     1      -8.514  16.847  65.844  1.00  0.00    -0.501 OA 
BRANCH  20  26
HETATM   26  N   UNL     1      -7.316  16.989  68.396  1.00  0.00    -0.202 N  
HETATM   27  H   UNL     1      -6.798  17.187  67.540  1.00  0.00     0.000 HD 
HETATM   28  O   UNL     1      -5.536  17.713  69.600  1.00  0.00    -0.196 OA 
HETATM   29  C   UNL     1      -6.674  17.265  69.570  1.00  0.00    -0.130 C  
ENDBRANCH  20  26
ENDBRANCH  15  18
ENDBRANCH  14  15
ENDBRANCH  12  14
ENDBRANCH  10  12
ENDBRANCH   9  10
ENDBRANCH   6   9
ENDBRANCH   2   3
TORSDOF 8
ENDMDL
MODEL      129
REMARK 921   NORMALIZED FREE ENERGY PREDICTED BY IDOCK:   -4.87 KCAL/MOL
REMARK 922        TOTAL FREE ENERGY PREDICTED BY IDOCK:   -8.81 KCAL/MOL
REMARK 923 INTER-LIGAND FREE ENERGY PREDICTED BY IDOCK:   -7.62 KCAL/MOL
REMARK 924 INTRA-LIGAND FREE ENERGY PREDICTED BY IDOCK:   -1.19 KCAL/MOL
REMARK 927      BINDING AFFINITY PREDICTED BY RF-SCORE:    0.00 PKD
ROOT
HETATM    1  C   UNL     1     -12.282  13.213  63.222  1.00  0.00    -0.360 C  
HETATM    2  O   UNL     1     -11.135  12.384  63.093  1.00  0.00    -0.379 OA 
ENDROOT
BRANCH   2   3
HETATM    3  C   UNL     1     -10.774  11.662  64.197  1.00  0.00    -0.362 A  
HETATM    4  C   UNL     1      -9.886  10.587  64.220  1.00  0.00    -0.402 A  
HETATM    5  C   UNL     1      -9.649   9.893  65.411  1.00  0.00    -0.350 A  
HETATM    6  C   UNL     1     -10.288  10.276  66.598  1.00  0.00    -0.283 A  
HETATM    7  C   UNL     1     -11.386  12.065  65.384  1.00  0.00    -0.375 A  
HETATM    8  C   UNL     1     -11.148  11.378  66.575  1.00  0.00    -0.312 A  
BRANCH   6   9
HETATM    9  C   UNL     1     -10.177   9.441  67.853  1.00  0.00    -0.259 C  
BRANCH   9  10
HETATM   10  C   UNL     1      -9.212   9.957  68.946  1.00  0.00    -0.160 C  
HETATM   11  C   UNL     1      -7.789   9.435  68.711  1.00  0.00    -0.084 C  
BRANCH  10  12
HETATM   12  N   UNL     1      -9.135  11.431  68.981  1.00  0.00    -0.393 NA 
HETATM   13  H   UNL     1      -9.475  11.790  69.872  1.00  0.00     0.000 HD 
BRANCH  12  14
HETATM   14  C   UNL     1      -7.789  11.954  68.687  1.00  0.00    -0.104 C  
BRANCH  14  15
HETATM   15  C   UNL     1      -7.753  12.947  67.502  1.00  0.00    -0.174 C  
HETATM   16  H   UNL     1      -6.373  13.768  66.361  1.00  0.00     0.000 HD 
HETATM   17  O   UNL     1      -6.396  13.158  67.089  1.00  0.00    -0.257 OA 
BRANCH  15  18
HETATM   18  C   UNL     1      -8.466  14.258  67.759  1.00  0.00    -0.177 A  
HETATM   19  C   UNL     1      -9.217  14.849  66.726  1.00  0.00    -0.281 A  
HETATM   20  C   UNL     1      -9.871  16.072  66.914  1.00  0.00    -0.245 A  
HETATM   21  H   UNL     1     -10.288  18.329  69.273  1.00  0.00     0.000 HD 
HETATM   22  C   UNL     1      -9.781  16.691  68.168  1.00  0.00    -0.244 A  
HETATM   23  C   UNL     1      -8.413  14.894  69.008  1.00  0.00    -0.178 A  
HETATM   24  C   UNL     1      -9.068  16.106  69.210  1.00  0.00    -0.213 A  
HETATM   25  O   UNL     1     -10.348  17.909  68.422  1.00  0.00    -0.366 OA 
BRANCH  20  26
HETATM   26  N   UNL     1     -10.625  16.683  65.895  1.00  0.00    -0.291 N  
HETATM   27  H   UNL     1     -10.774  17.688  65.982  1.00  0.00     0.000 HD 
HETATM   28  O   UNL     1     -11.831  16.704  63.976  1.00  0.00    -1.034 OA 
HETATM   29  C   UNL     1     -11.180  16.080  64.802  1.00  0.00    -0.339 C  
ENDBRANCH  20  26
ENDBRANCH  15  18
ENDBRANCH  14  15
ENDBRANCH  12  14
ENDBRANCH  10  12
ENDBRANCH   9  10
ENDBRANCH   6   9
ENDBRANCH   2   3
TORSDOF 8
ENDMDL
MODEL      130
REMARK 921   NORMALIZED FREE ENERGY PREDICTED BY IDOCK:   -4.86 KCAL/MOL
REMARK 922        TOTAL FREE ENERGY PREDICTED BY IDOCK:   -8.79 KCAL/MOL
REMARK 923 INTER-LIGAND FREE ENERGY PREDICTED BY IDOCK:   -7.35 KCAL/MOL
REMARK 924 INTRA-LIGAND FREE ENERGY PREDICTED BY IDOCK:   -1.44 KCAL/MOL
REMARK 927      BINDING AFFINITY PREDICTED BY RF-SCORE:    0.00 PKD
ROOT
HETATM    1  C   UNL     1     -10.082   6.552  66.987  1.00  0.00    -0.179 C  
HETATM    2  O   UNL     1     -10.768   7.785  66.813  1.00  0.00    -0.311 OA 
ENDROOT
BRANCH   2   3
HETATM    3  C   UNL     1     -10.006   8.920  66.851  1.00  0.00    -0.247 A  
HETATM    4  C   UNL     1      -9.977   9.922  65.881  1.00  0.00    -0.347 A  
HETATM    5  C   UNL     1      -9.104  11.007  66.014  1.00  0.00    -0.212 A  
HETATM    6  C   UNL     1      -8.259  11.110  67.127  1.00  0.00    -0.137 A  
HETATM    7  C   UNL     1      -9.190   9.038  67.976  1.00  0.00    -0.143 A  
HETATM    8  C   UNL     1      -8.321  10.121  68.114  1.00  0.00    -0.117 A  
BRANCH   6   9
HETATM    9  C   UNL     1      -7.195  12.179  67.207  1.00  0.00    -0.144 C  
BRANCH   9  10
HETATM   10  C   UNL     1      -7.490  13.385  68.130  1.00  0.00    -0.133 C  
HETATM   11  C   UNL     1      -7.225  14.709  67.402  1.00  0.00    -0.182 C  
BRANCH  10  12
HETATM   12  N   UNL     1      -8.893  13.414  68.588  1.00  0.00    -0.366 NA 
HETATM   13  H   UNL     1      -8.953  13.758  69.546  1.00  0.00     0.000 HD 
BRANCH  12  14
HETATM   14  C   UNL     1      -9.784  14.181  67.701  1.00  0.00    -0.228 C  
BRANCH  14  15
HETATM   15  C   UNL     1     -11.181  13.544  67.518  1.00  0.00    -0.283 C  
HETATM   16  H   UNL     1     -12.949  14.125  66.875  1.00  0.00     0.000 HD 
HETATM   17  O   UNL     1     -12.091  14.516  66.987  1.00  0.00    -0.398 OA 
BRANCH  15  18
HETATM   18  C   UNL     1     -11.737  12.882  68.762  1.00  0.00    -0.363 A  
HETATM   19  C   UNL     1     -12.164  13.684  69.837  1.00  0.00    -0.367 A  
HETATM   20  C   UNL     1     -12.660  13.112  71.014  1.00  0.00    -0.312 A  
HETATM   21  H   UNL     1     -13.228  10.127  72.279  1.00  0.00     0.000 HD 
HETATM   22  C   UNL     1     -12.744  11.716  71.094  1.00  0.00    -0.325 A  
HETATM   23  C   UNL     1     -11.852  11.489  68.867  1.00  0.00    -0.406 A  
HETATM   24  C   UNL     1     -12.355  10.908  70.029  1.00  0.00    -0.385 A  
HETATM   25  O   UNL     1     -13.171  11.074  72.224  1.00  0.00    -0.405 OA 
BRANCH  20  26
HETATM   26  N   UNL     1     -13.091  13.893  72.102  1.00  0.00    -0.389 N  
HETATM   27  H   UNL     1     -13.220  13.404  72.988  1.00  0.00     0.000 HD 
HETATM   28  O   UNL     1     -13.737  15.818  73.109  1.00  0.00    -0.549 OA 
HETATM   29  C   UNL     1     -13.355  15.234  72.106  1.00  0.00    -0.422 C  
ENDBRANCH  20  26
ENDBRANCH  15  18
ENDBRANCH  14  15
ENDBRANCH  12  14
ENDBRANCH  10  12
ENDBRANCH   9  10
ENDBRANCH   6   9
ENDBRANCH   2   3
TORSDOF 8
ENDMDL
MODEL      131
REMARK 921   NORMALIZED FREE ENERGY PREDICTED BY IDOCK:   -4.85 KCAL/MOL
REMARK 922        TOTAL FREE ENERGY PREDICTED BY IDOCK:   -8.78 KCAL/MOL
REMARK 923 INTER-LIGAND FREE ENERGY PREDICTED BY IDOCK:   -8.10 KCAL/MOL
REMARK 924 INTRA-LIGAND FREE ENERGY PREDICTED BY IDOCK:   -0.68 KCAL/MOL
REMARK 927      BINDING AFFINITY PREDICTED BY RF-SCORE:    0.00 PKD
ROOT
HETATM    1  C   UNL     1     -11.280  16.190  70.164  1.00  0.00    -0.370 C  
HETATM    2  O   UNL     1     -12.438  15.692  70.822  1.00  0.00    -0.415 OA 
ENDROOT
BRANCH   2   3
HETATM    3  C   UNL     1     -12.548  14.333  70.924  1.00  0.00    -0.356 A  
HETATM    4  C   UNL     1     -13.236  13.637  71.917  1.00  0.00    -0.497 A  
HETATM    5  C   UNL     1     -13.219  12.238  71.939  1.00  0.00    -0.481 A  
HETATM    6  C   UNL     1     -12.524  11.518  70.959  1.00  0.00    -0.458 A  
HETATM    7  C   UNL     1     -11.883  13.617  69.928  1.00  0.00    -0.389 A  
HETATM    8  C   UNL     1     -11.868  12.222  69.944  1.00  0.00    -0.383 A  
BRANCH   6   9
HETATM    9  C   UNL     1     -12.353  10.020  71.059  1.00  0.00    -0.458 C  
BRANCH   9  10
HETATM   10  C   UNL     1     -13.111   9.310  72.205  1.00  0.00    -0.441 C  
HETATM   11  C   UNL     1     -14.376   8.619  71.680  1.00  0.00    -0.451 C  
BRANCH  10  12
HETATM   12  N   UNL     1     -12.292   8.274  72.866  1.00  0.00    -0.631 NA 
HETATM   13  H   UNL     1     -12.708   7.998  73.755  1.00  0.00     0.000 HD 
BRANCH  12  14
HETATM   14  C   UNL     1     -12.043   7.096  72.018  1.00  0.00    -0.292 C  
BRANCH  14  15
HETATM   15  C   UNL     1     -11.311   5.946  72.749  1.00  0.00    -0.263 C  
HETATM   16  H   UNL     1     -10.012   5.779  74.219  1.00  0.00     0.000 HD 
HETATM   17  O   UNL     1     -10.462   6.485  73.770  1.00  0.00    -0.285 OA 
BRANCH  15  18
HETATM   18  C   UNL     1     -10.555   5.003  71.836  1.00  0.00    -0.224 A  
HETATM   19  C   UNL     1     -10.384   5.344  70.482  1.00  0.00    -0.344 A  
HETATM   20  C   UNL     1      -9.713   4.490  69.599  1.00  0.00    -0.218 A  
HETATM   21  H   UNL     1      -8.215   1.560  69.634  1.00  0.00     0.000 HD 
HETATM   22  C   UNL     1      -9.193   3.288  70.098  1.00  0.00    -0.156 A  
HETATM   23  C   UNL     1     -10.005   3.803  72.308  1.00  0.00    -0.239 A  
HETATM   24  C   UNL     1      -9.327   2.949  71.441  1.00  0.00    -0.204 A  
HETATM   25  O   UNL     1      -8.568   2.375  69.296  1.00  0.00    -0.062 OA 
BRANCH  20  26
HETATM   26  N   UNL     1      -9.532   4.809  68.240  1.00  0.00    -0.135 N  
HETATM   27  H   UNL     1      -8.844   4.254  67.733  1.00  0.00     0.000 HD 
HETATM   28  O   UNL     1      -9.935   5.983  66.343  1.00  0.00    -0.156 OA 
HETATM   29  C   UNL     1     -10.176   5.779  67.525  1.00  0.00    -0.196 C  
ENDBRANCH  20  26
ENDBRANCH  15  18
ENDBRANCH  14  15
ENDBRANCH  12  14
ENDBRANCH  10  12
ENDBRANCH   9  10
ENDBRANCH   6   9
ENDBRANCH   2   3
TORSDOF 8
ENDMDL
MODEL      132
REMARK 921   NORMALIZED FREE ENERGY PREDICTED BY IDOCK:   -4.85 KCAL/MOL
REMARK 922        TOTAL FREE ENERGY PREDICTED BY IDOCK:   -8.78 KCAL/MOL
REMARK 923 INTER-LIGAND FREE ENERGY PREDICTED BY IDOCK:   -8.38 KCAL/MOL
REMARK 924 INTRA-LIGAND FREE ENERGY PREDICTED BY IDOCK:   -0.40 KCAL/MOL
REMARK 927      BINDING AFFINITY PREDICTED BY RF-SCORE:    0.00 PKD
ROOT
HETATM    1  C   UNL     1      -5.930  20.447  66.702  1.00  0.00    -0.181 C  
HETATM    2  O   UNL     1      -7.200  20.934  67.115  1.00  0.00    -0.343 OA 
ENDROOT
BRANCH   2   3
HETATM    3  C   UNL     1      -8.096  20.004  67.565  1.00  0.00    -0.316 A  
HETATM    4  C   UNL     1      -9.481  20.154  67.611  1.00  0.00    -0.514 A  
HETATM    5  C   UNL     1     -10.283  19.144  68.154  1.00  0.00    -0.489 A  
HETATM    6  C   UNL     1      -9.708  17.964  68.645  1.00  0.00    -0.355 A  
HETATM    7  C   UNL     1      -7.524  18.817  68.023  1.00  0.00    -0.273 A  
HETATM    8  C   UNL     1      -8.321  17.805  68.560  1.00  0.00    -0.298 A  
BRANCH   6   9
HETATM    9  C   UNL     1     -10.534  16.938  69.384  1.00  0.00    -0.283 C  
BRANCH   9  10
HETATM   10  C   UNL     1     -11.722  16.317  68.613  1.00  0.00    -0.113 C  
HETATM   11  C   UNL     1     -11.244  15.195  67.682  1.00  0.00    -0.329 C  
BRANCH  10  12
HETATM   12  N   UNL     1     -12.735  15.733  69.514  1.00  0.00    -0.483 NA 
HETATM   13  H   UNL     1     -13.318  15.061  69.015  1.00  0.00     0.000 HD 
BRANCH  12  14
HETATM   14  C   UNL     1     -12.160  15.125  70.726  1.00  0.00    -0.336 C  
BRANCH  14  15
HETATM   15  C   UNL     1     -12.952  13.901  71.245  1.00  0.00    -0.341 C  
HETATM   16  H   UNL     1     -13.527  13.203  72.994  1.00  0.00     0.000 HD 
HETATM   17  O   UNL     1     -13.041  13.955  72.675  1.00  0.00    -0.454 OA 
BRANCH  15  18
HETATM   18  C   UNL     1     -12.423  12.564  70.770  1.00  0.00    -0.357 A  
HETATM   19  C   UNL     1     -12.541  11.440  71.607  1.00  0.00    -0.338 A  
HETATM   20  C   UNL     1     -12.044  10.191  71.216  1.00  0.00    -0.394 A  
HETATM   21  H   UNL     1     -10.479   8.828  68.662  1.00  0.00     0.000 HD 
HETATM   22  C   UNL     1     -11.442  10.076  69.957  1.00  0.00    -0.248 A  
HETATM   23  C   UNL     1     -11.834  12.411  69.507  1.00  0.00    -0.368 A  
HETATM   24  C   UNL     1     -11.344  11.171  69.103  1.00  0.00    -0.340 A  
HETATM   25  O   UNL     1     -10.887   8.907  69.517  1.00  0.00    -0.225 OA 
BRANCH  20  26
HETATM   26  N   UNL     1     -12.147   9.053  72.038  1.00  0.00    -0.370 N  
HETATM   27  H   UNL     1     -13.086   8.801  72.347  1.00  0.00     0.000 HD 
HETATM   28  O   UNL     1     -11.327   7.283  73.193  1.00  0.00    -0.261 OA 
HETATM   29  C   UNL     1     -11.130   8.247  72.467  1.00  0.00    -0.368 C  
ENDBRANCH  20  26
ENDBRANCH  15  18
ENDBRANCH  14  15
ENDBRANCH  12  14
ENDBRANCH  10  12
ENDBRANCH   9  10
ENDBRANCH   6   9
ENDBRANCH   2   3
TORSDOF 8
ENDMDL
MODEL      133
REMARK 921   NORMALIZED FREE ENERGY PREDICTED BY IDOCK:   -4.84 KCAL/MOL
REMARK 922        TOTAL FREE ENERGY PREDICTED BY IDOCK:   -8.77 KCAL/MOL
REMARK 923 INTER-LIGAND FREE ENERGY PREDICTED BY IDOCK:   -8.46 KCAL/MOL
REMARK 924 INTRA-LIGAND FREE ENERGY PREDICTED BY IDOCK:   -0.31 KCAL/MOL
REMARK 927      BINDING AFFINITY PREDICTED BY RF-SCORE:    0.00 PKD
ROOT
HETATM    1  C   UNL     1     -13.404  14.636  72.761  1.00  0.00    -0.499 C  
HETATM    2  O   UNL     1     -13.355  13.297  72.287  1.00  0.00    -0.495 OA 
ENDROOT
BRANCH   2   3
HETATM    3  C   UNL     1     -12.630  13.076  71.149  1.00  0.00    -0.297 A  
HETATM    4  C   UNL     1     -11.984  14.048  70.385  1.00  0.00    -0.398 A  
HETATM    5  C   UNL     1     -11.324  13.693  69.204  1.00  0.00    -0.335 A  
HETATM    6  C   UNL     1     -11.290  12.358  68.779  1.00  0.00    -0.339 A  
HETATM    7  C   UNL     1     -12.569  11.742  70.745  1.00  0.00    -0.344 A  
HETATM    8  C   UNL     1     -11.907  11.383  69.570  1.00  0.00    -0.426 A  
BRANCH   6   9
HETATM    9  C   UNL     1     -10.730  11.979  67.428  1.00  0.00    -0.266 C  
BRANCH   9  10
HETATM   10  C   UNL     1     -11.358  12.673  66.197  1.00  0.00    -0.330 C  
HETATM   11  C   UNL     1     -12.529  13.572  66.613  1.00  0.00    -0.263 C  
BRANCH  10  12
HETATM   12  N   UNL     1     -10.391  13.525  65.476  1.00  0.00    -0.292 NA 
HETATM   13  H   UNL     1     -10.441  13.357  64.471  1.00  0.00     0.000 HD 
BRANCH  12  14
HETATM   14  C   UNL     1     -10.538  14.959  65.774  1.00  0.00    -0.331 C  
BRANCH  14  15
HETATM   15  C   UNL     1      -9.193  15.688  66.010  1.00  0.00    -0.339 C  
HETATM   16  H   UNL     1      -7.609  15.440  67.152  1.00  0.00     0.000 HD 
HETATM   17  O   UNL     1      -8.435  14.992  67.007  1.00  0.00    -0.202 OA 
BRANCH  15  18
HETATM   18  C   UNL     1      -9.327  17.161  66.337  1.00  0.00    -0.286 A  
HETATM   19  C   UNL     1      -8.261  17.824  66.973  1.00  0.00    -0.239 A  
HETATM   20  C   UNL     1      -8.353  19.178  67.316  1.00  0.00    -0.277 A  
HETATM   21  H   UNL     1     -10.514  21.652  67.112  1.00  0.00     0.000 HD 
HETATM   22  C   UNL     1      -9.526  19.871  66.991  1.00  0.00    -0.380 A  
HETATM   23  C   UNL     1     -10.479  17.888  66.008  1.00  0.00    -0.293 A  
HETATM   24  C   UNL     1     -10.578  19.238  66.335  1.00  0.00    -0.542 A  
HETATM   25  O   UNL     1      -9.718  21.181  67.332  1.00  0.00    -0.347 OA 
BRANCH  20  26
HETATM   26  N   UNL     1      -7.302  19.862  67.955  1.00  0.00    -0.285 N  
HETATM   27  H   UNL     1      -6.751  20.492  67.372  1.00  0.00     0.000 HD 
HETATM   28  O   UNL     1      -5.995  20.409  69.725  1.00  0.00    -0.340 OA 
HETATM   29  C   UNL     1      -6.937  19.776  69.269  1.00  0.00    -0.314 C  
ENDBRANCH  20  26
ENDBRANCH  15  18
ENDBRANCH  14  15
ENDBRANCH  12  14
ENDBRANCH  10  12
ENDBRANCH   9  10
ENDBRANCH   6   9
ENDBRANCH   2   3
TORSDOF 8
ENDMDL
MODEL      134
REMARK 921   NORMALIZED FREE ENERGY PREDICTED BY IDOCK:   -4.83 KCAL/MOL
REMARK 922        TOTAL FREE ENERGY PREDICTED BY IDOCK:   -8.75 KCAL/MOL
REMARK 923 INTER-LIGAND FREE ENERGY PREDICTED BY IDOCK:   -8.25 KCAL/MOL
REMARK 924 INTRA-LIGAND FREE ENERGY PREDICTED BY IDOCK:   -0.50 KCAL/MOL
REMARK 927      BINDING AFFINITY PREDICTED BY RF-SCORE:    0.00 PKD
ROOT
HETATM    1  C   UNL     1      -8.958  17.877  68.379  1.00  0.00    -0.282 C  
HETATM    2  O   UNL     1     -10.338  17.643  68.626  1.00  0.00    -0.355 OA 
ENDROOT
BRANCH   2   3
HETATM    3  C   UNL     1     -10.837  16.435  68.223  1.00  0.00    -0.347 A  
HETATM    4  C   UNL     1     -11.754  15.651  68.922  1.00  0.00    -0.396 A  
HETATM    5  C   UNL     1     -12.138  14.402  68.425  1.00  0.00    -0.278 A  
HETATM    6  C   UNL     1     -11.618  13.926  67.213  1.00  0.00    -0.393 A  
HETATM    7  C   UNL     1     -10.344  15.978  67.001  1.00  0.00    -0.292 A  
HETATM    8  C   UNL     1     -10.728  14.735  66.499  1.00  0.00    -0.319 A  
BRANCH   6   9
HETATM    9  C   UNL     1     -11.888  12.516  66.743  1.00  0.00    -0.416 C  
BRANCH   9  10
HETATM   10  C   UNL     1     -11.304  11.373  67.606  1.00  0.00    -0.290 C  
HETATM   11  C   UNL     1     -10.084  11.855  68.401  1.00  0.00    -0.206 C  
BRANCH  10  12
HETATM   12  N   UNL     1     -12.280  10.849  68.583  1.00  0.00    -0.810 NA 
HETATM   13  H   UNL     1     -12.682   9.971  68.257  1.00  0.00     0.000 HD 
BRANCH  12  14
HETATM   14  C   UNL     1     -11.727  10.698  69.940  1.00  0.00    -0.317 C  
BRANCH  14  15
HETATM   15  C   UNL     1     -12.647   9.913  70.904  1.00  0.00    -0.302 C  
HETATM   16  H   UNL     1     -13.724  10.315  72.502  1.00  0.00     0.000 HD 
HETATM   17  O   UNL     1     -13.159  10.797  71.910  1.00  0.00    -0.481 OA 
BRANCH  15  18
HETATM   18  C   UNL     1     -12.011   8.682  71.515  1.00  0.00    -0.362 A  
HETATM   19  C   UNL     1     -10.946   8.834  72.422  1.00  0.00    -0.229 A  
HETATM   20  C   UNL     1     -10.315   7.722  72.990  1.00  0.00    -0.347 A  
HETATM   21  H   UNL     1     -10.506   4.438  72.895  1.00  0.00     0.000 HD 
HETATM   22  C   UNL     1     -10.780   6.445  72.653  1.00  0.00    -0.234 A  
HETATM   23  C   UNL     1     -12.466   7.391  71.213  1.00  0.00    -0.381 A  
HETATM   24  C   UNL     1     -11.852   6.276  71.781  1.00  0.00    -0.342 A  
HETATM   25  O   UNL     1     -10.190   5.305  73.123  1.00  0.00    -0.170 OA 
BRANCH  20  26
HETATM   26  N   UNL     1      -9.247   7.850  73.898  1.00  0.00    -0.360 N  
HETATM   27  H   UNL     1      -9.476   7.745  74.886  1.00  0.00     0.000 HD 
HETATM   28  O   UNL     1      -7.082   8.202  74.472  1.00  0.00    -0.146 OA 
HETATM   29  C   UNL     1      -7.935   8.098  73.603  1.00  0.00    -0.199 C  
ENDBRANCH  20  26
ENDBRANCH  15  18
ENDBRANCH  14  15
ENDBRANCH  12  14
ENDBRANCH  10  12
ENDBRANCH   9  10
ENDBRANCH   6   9
ENDBRANCH   2   3
TORSDOF 8
ENDMDL
MODEL      135
REMARK 921   NORMALIZED FREE ENERGY PREDICTED BY IDOCK:   -4.81 KCAL/MOL
REMARK 922        TOTAL FREE ENERGY PREDICTED BY IDOCK:   -8.72 KCAL/MOL
REMARK 923 INTER-LIGAND FREE ENERGY PREDICTED BY IDOCK:   -7.15 KCAL/MOL
REMARK 924 INTRA-LIGAND FREE ENERGY PREDICTED BY IDOCK:   -1.58 KCAL/MOL
REMARK 927      BINDING AFFINITY PREDICTED BY RF-SCORE:    0.00 PKD
ROOT
HETATM    1  C   UNL     1      -7.832   8.413  68.869  1.00  0.00    -0.113 C  
HETATM    2  O   UNL     1      -8.815   8.317  67.846  1.00  0.00    -0.137 OA 
ENDROOT
BRANCH   2   3
HETATM    3  C   UNL     1      -9.073   9.457  67.136  1.00  0.00    -0.130 A  
HETATM    4  C   UNL     1      -8.850  10.763  67.570  1.00  0.00    -0.128 A  
HETATM    5  C   UNL     1      -9.217  11.846  66.765  1.00  0.00    -0.194 A  
HETATM    6  C   UNL     1      -9.799  11.636  65.508  1.00  0.00    -0.264 A  
HETATM    7  C   UNL     1      -9.622   9.245  65.871  1.00  0.00    -0.345 A  
HETATM    8  C   UNL     1      -9.985  10.323  65.063  1.00  0.00    -0.393 A  
BRANCH   6   9
HETATM    9  C   UNL     1     -10.353  12.784  64.699  1.00  0.00    -0.362 C  
BRANCH   9  10
HETATM   10  C   UNL     1     -11.885  12.991  64.745  1.00  0.00    -0.363 C  
HETATM   11  C   UNL     1     -12.399  12.956  66.190  1.00  0.00    -0.266 C  
BRANCH  10  12
HETATM   12  N   UNL     1     -12.297  14.286  64.169  1.00  0.00    -0.746 NA 
HETATM   13  H   UNL     1     -13.113  14.656  64.656  1.00  0.00     0.000 HD 
BRANCH  12  14
HETATM   14  C   UNL     1     -11.214  15.283  64.135  1.00  0.00     0.167 C  
BRANCH  14  15
HETATM   15  C   UNL     1     -11.265  16.298  65.301  1.00  0.00    -0.033 C  
HETATM   16  H   UNL     1     -11.068  18.246  65.517  1.00  0.00     0.000 HD 
HETATM   17  O   UNL     1     -11.037  17.622  64.801  1.00  0.00    -0.915 OA 
BRANCH  15  18
HETATM   18  C   UNL     1     -10.342  15.973  66.458  1.00  0.00    -0.303 A  
HETATM   19  C   UNL     1     -10.893  15.707  67.725  1.00  0.00    -0.307 A  
HETATM   20  C   UNL     1     -10.074  15.426  68.825  1.00  0.00    -0.213 A  
HETATM   21  H   UNL     1      -6.872  15.156  69.535  1.00  0.00     0.000 HD 
HETATM   22  C   UNL     1      -8.687  15.395  68.635  1.00  0.00    -0.191 A  
HETATM   23  C   UNL     1      -8.951  15.914  66.296  1.00  0.00    -0.381 A  
HETATM   24  C   UNL     1      -8.127  15.626  67.382  1.00  0.00    -0.195 A  
HETATM   25  O   UNL     1      -7.814  15.177  69.664  1.00  0.00    -0.213 OA 
BRANCH  20  26
HETATM   26  N   UNL     1     -10.602  15.159  70.102  1.00  0.00    -0.459 N  
HETATM   27  H   UNL     1     -10.037  15.458  70.897  1.00  0.00     0.000 HD 
HETATM   28  O   UNL     1     -12.150  14.350  71.548  1.00  0.00    -0.349 OA 
HETATM   29  C   UNL     1     -11.787  14.545  70.396  1.00  0.00    -0.311 C  
ENDBRANCH  20  26
ENDBRANCH  15  18
ENDBRANCH  14  15
ENDBRANCH  12  14
ENDBRANCH  10  12
ENDBRANCH   9  10
ENDBRANCH   6   9
ENDBRANCH   2   3
TORSDOF 8
ENDMDL
MODEL      136
REMARK 921   NORMALIZED FREE ENERGY PREDICTED BY IDOCK:   -4.81 KCAL/MOL
REMARK 922        TOTAL FREE ENERGY PREDICTED BY IDOCK:   -8.72 KCAL/MOL
REMARK 923 INTER-LIGAND FREE ENERGY PREDICTED BY IDOCK:   -7.25 KCAL/MOL
REMARK 924 INTRA-LIGAND FREE ENERGY PREDICTED BY IDOCK:   -1.47 KCAL/MOL
REMARK 927      BINDING AFFINITY PREDICTED BY RF-SCORE:    0.00 PKD
ROOT
HETATM    1  C   UNL     1     -10.855   5.177  72.913  1.00  0.00    -0.268 C  
HETATM    2  O   UNL     1     -10.895   6.563  72.599  1.00  0.00    -0.227 OA 
ENDROOT
BRANCH   2   3
HETATM    3  C   UNL     1     -10.617   6.905  71.304  1.00  0.00    -0.220 A  
HETATM    4  C   UNL     1      -9.654   7.823  70.887  1.00  0.00    -0.173 A  
HETATM    5  C   UNL     1      -9.512   8.129  69.530  1.00  0.00    -0.156 A  
HETATM    6  C   UNL     1     -10.324   7.509  68.570  1.00  0.00    -0.224 A  
HETATM    7  C   UNL     1     -11.403   6.262  70.348  1.00  0.00    -0.440 A  
HETATM    8  C   UNL     1     -11.262   6.561  68.993  1.00  0.00    -0.354 A  
BRANCH   6   9
HETATM    9  C   UNL     1     -10.302   7.946  67.125  1.00  0.00    -0.398 C  
BRANCH   9  10
HETATM   10  C   UNL     1      -9.033   8.686  66.641  1.00  0.00    -0.145 C  
HETATM   11  C   UNL     1      -8.309   7.880  65.555  1.00  0.00    -0.152 C  
BRANCH  10  12
HETATM   12  N   UNL     1      -9.338  10.012  66.068  1.00  0.00    -0.164 NA 
HETATM   13  H   UNL     1      -9.341   9.973  65.049  1.00  0.00     0.000 HD 
BRANCH  12  14
HETATM   14  C   UNL     1     -10.594  10.594  66.573  1.00  0.00    -0.193 C  
BRANCH  14  15
HETATM   15  C   UNL     1     -10.393  11.884  67.402  1.00  0.00    -0.207 C  
HETATM   16  H   UNL     1      -8.874  12.872  68.172  1.00  0.00     0.000 HD 
HETATM   17  O   UNL     1      -8.997  12.080  67.662  1.00  0.00    -0.160 OA 
BRANCH  15  18
HETATM   18  C   UNL     1     -11.211  11.945  68.676  1.00  0.00    -0.311 A  
HETATM   19  C   UNL     1     -11.498  13.196  69.251  1.00  0.00    -0.348 A  
HETATM   20  C   UNL     1     -12.229  13.296  70.440  1.00  0.00    -0.332 A  
HETATM   21  H   UNL     1     -13.684  11.321  72.635  1.00  0.00     0.000 HD 
HETATM   22  C   UNL     1     -12.692  12.117  71.041  1.00  0.00    -0.228 A  
HETATM   23  C   UNL     1     -11.705  10.786  69.290  1.00  0.00    -0.374 A  
HETATM   24  C   UNL     1     -12.443  10.873  70.469  1.00  0.00    -0.438 A  
HETATM   25  O   UNL     1     -13.370  12.120  72.228  1.00  0.00    -0.500 OA 
BRANCH  20  26
HETATM   26  N   UNL     1     -12.526  14.536  71.036  1.00  0.00    -0.317 N  
HETATM   27  H   UNL     1     -13.468  14.896  70.887  1.00  0.00     0.000 HD 
HETATM   28  O   UNL     1     -12.048  16.385  72.257  1.00  0.00    -0.501 OA 
HETATM   29  C   UNL     1     -11.693  15.311  71.792  1.00  0.00    -0.418 C  
ENDBRANCH  20  26
ENDBRANCH  15  18
ENDBRANCH  14  15
ENDBRANCH  12  14
ENDBRANCH  10  12
ENDBRANCH   9  10
ENDBRANCH   6   9
ENDBRANCH   2   3
TORSDOF 8
ENDMDL
MODEL      137
REMARK 921   NORMALIZED FREE ENERGY PREDICTED BY IDOCK:   -4.80 KCAL/MOL
REMARK 922        TOTAL FREE ENERGY PREDICTED BY IDOCK:   -8.71 KCAL/MOL
REMARK 923 INTER-LIGAND FREE ENERGY PREDICTED BY IDOCK:   -7.47 KCAL/MOL
REMARK 924 INTRA-LIGAND FREE ENERGY PREDICTED BY IDOCK:   -1.24 KCAL/MOL
REMARK 927      BINDING AFFINITY PREDICTED BY RF-SCORE:    0.00 PKD
ROOT
HETATM    1  C   UNL     1      -9.212   7.677  67.846  1.00  0.00    -0.136 C  
HETATM    2  O   UNL     1     -10.542   7.807  68.332  1.00  0.00    -0.187 OA 
ENDROOT
BRANCH   2   3
HETATM    3  C   UNL     1     -10.870   9.005  68.904  1.00  0.00    -0.045 A  
HETATM    4  C   UNL     1     -11.176   9.216  70.248  1.00  0.00    -0.249 A  
HETATM    5  C   UNL     1     -11.557  10.486  70.694  1.00  0.00    -0.445 A  
HETATM    6  C   UNL     1     -11.623  11.565  69.802  1.00  0.00    -0.401 A  
HETATM    7  C   UNL     1     -10.903  10.085  68.021  1.00  0.00    -0.311 A  
HETATM    8  C   UNL     1     -11.277  11.354  68.463  1.00  0.00    -0.309 A  
BRANCH   6   9
HETATM    9  C   UNL     1     -12.190  12.899  70.225  1.00  0.00    -0.362 C  
BRANCH   9  10
HETATM   10  C   UNL     1     -11.788  14.127  69.374  1.00  0.00    -0.330 C  
HETATM   11  C   UNL     1     -12.209  15.432  70.062  1.00  0.00    -0.392 C  
BRANCH  10  12
HETATM   12  N   UNL     1     -10.330  14.204  69.150  1.00  0.00    -0.409 NA 
HETATM   13  H   UNL     1      -9.993  13.368  68.673  1.00  0.00     0.000 HD 
BRANCH  12  14
HETATM   14  C   UNL     1      -9.912  15.420  68.431  1.00  0.00    -0.215 C  
BRANCH  14  15
HETATM   15  C   UNL     1      -9.277  15.138  67.049  1.00  0.00    -0.223 C  
HETATM   16  H   UNL     1      -8.490  16.201  65.589  1.00  0.00     0.000 HD 
HETATM   17  O   UNL     1      -8.881  16.373  66.438  1.00  0.00    -0.254 OA 
BRANCH  15  18
HETATM   18  C   UNL     1     -10.138  14.308  66.119  1.00  0.00    -0.325 A  
HETATM   19  C   UNL     1      -9.701  13.027  65.736  1.00  0.00    -0.157 A  
HETATM   20  C   UNL     1     -10.454  12.238  64.859  1.00  0.00    -0.289 A  
HETATM   21  H   UNL     1     -13.270  12.402  63.164  1.00  0.00     0.000 HD 
HETATM   22  C   UNL     1     -11.671  12.743  64.383  1.00  0.00    -0.368 A  
HETATM   23  C   UNL     1     -11.370  14.777  65.641  1.00  0.00    -0.343 A  
HETATM   24  C   UNL     1     -12.133  13.996  64.776  1.00  0.00    -0.455 A  
HETATM   25  O   UNL     1     -12.445  12.059  63.487  1.00  0.00    -0.558 OA 
BRANCH  20  26
HETATM   26  N   UNL     1     -10.037  10.954  64.460  1.00  0.00    -0.315 N  
HETATM   27  H   UNL     1     -10.603  10.495  63.747  1.00  0.00     0.000 HD 
HETATM   28  O   UNL     1      -8.686   9.134  64.513  1.00  0.00    -0.189 OA 
HETATM   29  C   UNL     1      -8.957  10.255  64.921  1.00  0.00    -0.201 C  
ENDBRANCH  20  26
ENDBRANCH  15  18
ENDBRANCH  14  15
ENDBRANCH  12  14
ENDBRANCH  10  12
ENDBRANCH   9  10
ENDBRANCH   6   9
ENDBRANCH   2   3
TORSDOF 8
ENDMDL
MODEL      138
REMARK 921   NORMALIZED FREE ENERGY PREDICTED BY IDOCK:   -4.79 KCAL/MOL
REMARK 922        TOTAL FREE ENERGY PREDICTED BY IDOCK:   -8.69 KCAL/MOL
REMARK 923 INTER-LIGAND FREE ENERGY PREDICTED BY IDOCK:   -6.55 KCAL/MOL
REMARK 924 INTRA-LIGAND FREE ENERGY PREDICTED BY IDOCK:   -2.14 KCAL/MOL
REMARK 927      BINDING AFFINITY PREDICTED BY RF-SCORE:    0.00 PKD
ROOT
HETATM    1  C   UNL     1      -7.465   4.705  67.759  1.00  0.00    -0.077 C  
HETATM    2  O   UNL     1      -8.369   5.264  68.702  1.00  0.00    -0.090 OA 
ENDROOT
BRANCH   2   3
HETATM    3  C   UNL     1      -9.021   6.405  68.325  1.00  0.00    -0.116 A  
HETATM    4  C   UNL     1     -10.169   6.473  67.536  1.00  0.00    -0.221 A  
HETATM    5  C   UNL     1     -10.702   7.713  67.171  1.00  0.00    -0.361 A  
HETATM    6  C   UNL     1     -10.100   8.903  67.602  1.00  0.00    -0.274 A  
HETATM    7  C   UNL     1      -8.439   7.588  68.782  1.00  0.00    -0.129 A  
HETATM    8  C   UNL     1      -8.971   8.827  68.425  1.00  0.00    -0.141 A  
BRANCH   6   9
HETATM    9  C   UNL     1     -10.557  10.246  67.084  1.00  0.00    -0.320 C  
BRANCH   9  10
HETATM   10  C   UNL     1     -11.165  11.220  68.121  1.00  0.00    -0.286 C  
HETATM   11  C   UNL     1     -11.588  12.535  67.455  1.00  0.00    -0.434 C  
BRANCH  10  12
HETATM   12  N   UNL     1     -12.361  10.664  68.784  1.00  0.00    -0.784 NA 
HETATM   13  H   UNL     1     -12.532   9.706  68.477  1.00  0.00     0.000 HD 
BRANCH  12  14
HETATM   14  C   UNL     1     -12.305  10.739  70.254  1.00  0.00    -0.341 C  
BRANCH  14  15
HETATM   15  C   UNL     1     -12.875   9.488  70.964  1.00  0.00    -0.221 C  
HETATM   16  H   UNL     1     -13.944   9.116  72.575  1.00  0.00     0.000 HD 
HETATM   17  O   UNL     1     -13.594   9.885  72.139  1.00  0.00    -0.409 OA 
BRANCH  15  18
HETATM   18  C   UNL     1     -11.847   8.419  71.273  1.00  0.00    -0.327 A  
HETATM   19  C   UNL     1     -10.648   8.781  71.913  1.00  0.00    -0.425 A  
HETATM   20  C   UNL     1      -9.662   7.829  72.195  1.00  0.00    -0.185 A  
HETATM   21  H   UNL     1      -9.137   4.604  71.801  1.00  0.00     0.000 HD 
HETATM   22  C   UNL     1      -9.902   6.494  71.844  1.00  0.00    -0.157 A  
HETATM   23  C   UNL     1     -12.066   7.072  70.953  1.00  0.00    -0.403 A  
HETATM   24  C   UNL     1     -11.096   6.113  71.238  1.00  0.00    -0.351 A  
HETATM   25  O   UNL     1      -8.974   5.509  72.038  1.00  0.00    -0.134 OA 
BRANCH  20  26
HETATM   26  N   UNL     1      -8.453   8.167  72.831  1.00  0.00    -0.182 N  
HETATM   27  H   UNL     1      -8.480   8.238  73.848  1.00  0.00     0.000 HD 
HETATM   28  O   UNL     1      -6.253   8.712  72.886  1.00  0.00    -0.086 OA 
HETATM   29  C   UNL     1      -7.246   8.413  72.238  1.00  0.00    -0.092 C  
ENDBRANCH  20  26
ENDBRANCH  15  18
ENDBRANCH  14  15
ENDBRANCH  12  14
ENDBRANCH  10  12
ENDBRANCH   9  10
ENDBRANCH   6   9
ENDBRANCH   2   3
TORSDOF 8
ENDMDL
MODEL      139
REMARK 921   NORMALIZED FREE ENERGY PREDICTED BY IDOCK:   -4.78 KCAL/MOL
REMARK 922        TOTAL FREE ENERGY PREDICTED BY IDOCK:   -8.67 KCAL/MOL
REMARK 923 INTER-LIGAND FREE ENERGY PREDICTED BY IDOCK:   -7.94 KCAL/MOL
REMARK 924 INTRA-LIGAND FREE ENERGY PREDICTED BY IDOCK:   -0.73 KCAL/MOL
REMARK 927      BINDING AFFINITY PREDICTED BY RF-SCORE:    0.00 PKD
ROOT
HETATM    1  C   UNL     1     -12.589  14.846  73.194  1.00  0.00    -0.452 C  
HETATM    2  O   UNL     1     -11.951  15.755  72.308  1.00  0.00    -0.399 OA 
ENDROOT
BRANCH   2   3
HETATM    3  C   UNL     1     -11.881  15.383  70.994  1.00  0.00    -0.360 A  
HETATM    4  C   UNL     1     -12.421  14.222  70.440  1.00  0.00    -0.426 A  
HETATM    5  C   UNL     1     -12.225  13.930  69.086  1.00  0.00    -0.305 A  
HETATM    6  C   UNL     1     -11.498  14.803  68.266  1.00  0.00    -0.338 A  
HETATM    7  C   UNL     1     -11.186  16.269  70.171  1.00  0.00    -0.340 A  
HETATM    8  C   UNL     1     -10.993  15.984  68.820  1.00  0.00    -0.320 A  
BRANCH   6   9
HETATM    9  C   UNL     1     -11.134  14.427  66.849  1.00  0.00    -0.325 C  
BRANCH   9  10
HETATM   10  C   UNL     1     -12.250  13.786  65.991  1.00  0.00    -0.457 C  
HETATM   11  C   UNL     1     -12.278  14.396  64.584  1.00  0.00    -0.479 C  
BRANCH  10  12
HETATM   12  N   UNL     1     -12.072  12.330  65.831  1.00  0.00    -0.620 NA 
HETATM   13  H   UNL     1     -12.208  12.054  64.858  1.00  0.00     0.000 HD 
BRANCH  12  14
HETATM   14  C   UNL     1     -10.778  11.839  66.336  1.00  0.00    -0.266 C  
BRANCH  14  15
HETATM   15  C   UNL     1      -9.981  11.007  65.303  1.00  0.00    -0.266 C  
HETATM   16  H   UNL     1     -10.259  10.355  63.466  1.00  0.00     0.000 HD 
HETATM   17  O   UNL     1     -10.748  10.866  64.101  1.00  0.00    -0.362 OA 
BRANCH  15  18
HETATM   18  C   UNL     1      -9.496   9.667  65.816  1.00  0.00    -0.308 A  
HETATM   19  C   UNL     1     -10.010   9.166  67.026  1.00  0.00    -0.294 A  
HETATM   20  C   UNL     1      -9.571   7.944  67.548  1.00  0.00    -0.152 A  
HETATM   21  H   UNL     1      -7.452   5.540  66.798  1.00  0.00     0.000 HD 
HETATM   22  C   UNL     1      -8.618   7.213  66.827  1.00  0.00    -0.124 A  
HETATM   23  C   UNL     1      -8.558   8.903  65.108  1.00  0.00    -0.208 A  
HETATM   24  C   UNL     1      -8.121   7.680  65.613  1.00  0.00    -0.127 A  
HETATM   25  O   UNL     1      -8.099   6.036  67.287  1.00  0.00    -0.105 OA 
BRANCH  20  26
HETATM   26  N   UNL     1     -10.068   7.424  68.757  1.00  0.00    -0.174 N  
HETATM   27  H   UNL     1      -9.681   7.819  69.614  1.00  0.00     0.000 HD 
HETATM   28  O   UNL     1     -11.369   6.057  70.015  1.00  0.00    -0.384 OA 
HETATM   29  C   UNL     1     -11.013   6.448  68.912  1.00  0.00    -0.346 C  
ENDBRANCH  20  26
ENDBRANCH  15  18
ENDBRANCH  14  15
ENDBRANCH  12  14
ENDBRANCH  10  12
ENDBRANCH   9  10
ENDBRANCH   6   9
ENDBRANCH   2   3
TORSDOF 8
ENDMDL
MODEL      140
REMARK 921   NORMALIZED FREE ENERGY PREDICTED BY IDOCK:   -4.78 KCAL/MOL
REMARK 922        TOTAL FREE ENERGY PREDICTED BY IDOCK:   -8.67 KCAL/MOL
REMARK 923 INTER-LIGAND FREE ENERGY PREDICTED BY IDOCK:   -7.88 KCAL/MOL
REMARK 924 INTRA-LIGAND FREE ENERGY PREDICTED BY IDOCK:   -0.79 KCAL/MOL
REMARK 927      BINDING AFFINITY PREDICTED BY RF-SCORE:    0.00 PKD
ROOT
HETATM    1  C   UNL     1     -11.319   6.526  70.097  1.00  0.00    -0.402 C  
HETATM    2  O   UNL     1     -10.625   6.880  68.909  1.00  0.00    -0.202 OA 
ENDROOT
BRANCH   2   3
HETATM    3  C   UNL     1     -10.258   8.191  68.782  1.00  0.00    -0.207 A  
HETATM    4  C   UNL     1     -10.749   9.258  69.533  1.00  0.00    -0.236 A  
HETATM    5  C   UNL     1     -10.333  10.565  69.260  1.00  0.00    -0.248 A  
HETATM    6  C   UNL     1      -9.407  10.819  68.239  1.00  0.00    -0.161 A  
HETATM    7  C   UNL     1      -9.312   8.439  67.787  1.00  0.00    -0.150 A  
HETATM    8  C   UNL     1      -8.890   9.740  67.514  1.00  0.00    -0.129 A  
BRANCH   6   9
HETATM    9  C   UNL     1      -9.072  12.231  67.818  1.00  0.00    -0.191 C  
BRANCH   9  10
HETATM   10  C   UNL     1      -9.471  12.640  66.380  1.00  0.00    -0.231 C  
HETATM   11  C   UNL     1     -10.923  12.247  66.082  1.00  0.00    -0.328 C  
BRANCH  10  12
HETATM   12  N   UNL     1      -9.359  14.095  66.157  1.00  0.00    -0.494 NA 
HETATM   13  H   UNL     1     -10.101  14.423  65.538  1.00  0.00     0.000 HD 
BRANCH  12  14
HETATM   14  C   UNL     1      -9.335  14.879  67.403  1.00  0.00    -0.199 C  
BRANCH  14  15
HETATM   15  C   UNL     1     -10.682  15.563  67.735  1.00  0.00    -0.297 C  
HETATM   16  H   UNL     1     -11.333  17.406  67.974  1.00  0.00     0.000 HD 
HETATM   17  O   UNL     1     -10.506  16.985  67.770  1.00  0.00    -0.325 OA 
BRANCH  15  18
HETATM   18  C   UNL     1     -11.352  15.054  68.995  1.00  0.00    -0.306 A  
HETATM   19  C   UNL     1     -11.341  15.853  70.152  1.00  0.00    -0.369 A  
HETATM   20  C   UNL     1     -11.926  15.409  71.344  1.00  0.00    -0.378 A  
HETATM   21  H   UNL     1     -13.521  12.771  72.497  1.00  0.00     0.000 HD 
HETATM   22  C   UNL     1     -12.547  14.153  71.356  1.00  0.00    -0.368 A  
HETATM   23  C   UNL     1     -11.998  13.811  69.034  1.00  0.00    -0.399 A  
HETATM   24  C   UNL     1     -12.593  13.363  70.211  1.00  0.00    -0.187 A  
HETATM   25  O   UNL     1     -13.099  13.623  72.488  1.00  0.00    -0.426 OA 
BRANCH  20  26
HETATM   26  N   UNL     1     -11.925  16.190  72.515  1.00  0.00    -0.532 N  
HETATM   27  H   UNL     1     -11.150  16.843  72.624  1.00  0.00     0.000 HD 
HETATM   28  O   UNL     1     -12.748  16.886  74.510  1.00  0.00    -0.562 OA 
HETATM   29  C   UNL     1     -12.848  16.170  73.523  1.00  0.00    -0.549 C  
ENDBRANCH  20  26
ENDBRANCH  15  18
ENDBRANCH  14  15
ENDBRANCH  12  14
ENDBRANCH  10  12
ENDBRANCH   9  10
ENDBRANCH   6   9
ENDBRANCH   2   3
TORSDOF 8
ENDMDL
MODEL      141
REMARK 921   NORMALIZED FREE ENERGY PREDICTED BY IDOCK:   -4.77 KCAL/MOL
REMARK 922        TOTAL FREE ENERGY PREDICTED BY IDOCK:   -8.67 KCAL/MOL
REMARK 923 INTER-LIGAND FREE ENERGY PREDICTED BY IDOCK:   -7.06 KCAL/MOL
REMARK 924 INTRA-LIGAND FREE ENERGY PREDICTED BY IDOCK:   -1.61 KCAL/MOL
REMARK 927      BINDING AFFINITY PREDICTED BY RF-SCORE:    0.00 PKD
ROOT
HETATM    1  C   UNL     1      -7.401  10.207  64.758  1.00  0.00    -0.134 C  
HETATM    2  O   UNL     1      -8.745   9.814  65.002  1.00  0.00    -0.150 OA 
ENDROOT
BRANCH   2   3
HETATM    3  C   UNL     1      -9.080   9.555  66.303  1.00  0.00    -0.163 A  
HETATM    4  C   UNL     1      -8.468  10.098  67.432  1.00  0.00    -0.122 A  
HETATM    5  C   UNL     1      -8.870   9.700  68.711  1.00  0.00    -0.130 A  
HETATM    6  C   UNL     1      -9.900   8.764  68.877  1.00  0.00    -0.183 A  
HETATM    7  C   UNL     1     -10.128   8.648  66.466  1.00  0.00    -0.339 A  
HETATM    8  C   UNL     1     -10.535   8.253  67.740  1.00  0.00    -0.280 A  
BRANCH   6   9
HETATM    9  C   UNL     1     -10.234   8.199  70.237  1.00  0.00    -0.200 C  
BRANCH   9  10
HETATM   10  C   UNL     1     -11.568   8.658  70.872  1.00  0.00    -0.269 C  
HETATM   11  C   UNL     1     -11.850   7.889  72.169  1.00  0.00    -0.384 C  
BRANCH  10  12
HETATM   12  N   UNL     1     -11.565  10.095  71.211  1.00  0.00    -0.351 NA 
HETATM   13  H   UNL     1     -10.611  10.451  71.272  1.00  0.00     0.000 HD 
BRANCH  12  14
HETATM   14  C   UNL     1     -12.369  10.916  70.289  1.00  0.00    -0.330 C  
BRANCH  14  15
HETATM   15  C   UNL     1     -11.786  12.327  70.041  1.00  0.00    -0.296 C  
HETATM   16  H   UNL     1     -12.176  14.164  70.634  1.00  0.00     0.000 HD 
HETATM   17  O   UNL     1     -12.534  13.297  70.786  1.00  0.00    -0.353 OA 
BRANCH  15  18
HETATM   18  C   UNL     1     -11.674  12.712  68.580  1.00  0.00    -0.372 A  
HETATM   19  C   UNL     1     -11.406  14.050  68.239  1.00  0.00    -0.317 A  
HETATM   20  C   UNL     1     -11.319  14.453  66.901  1.00  0.00    -0.348 A  
HETATM   21  H   UNL     1     -11.576  13.146  63.892  1.00  0.00     0.000 HD 
HETATM   22  C   UNL     1     -11.485  13.487  65.901  1.00  0.00    -0.320 A  
HETATM   23  C   UNL     1     -11.815  11.766  67.556  1.00  0.00    -0.227 A  
HETATM   24  C   UNL     1     -11.720  12.152  66.221  1.00  0.00    -0.389 A  
HETATM   25  O   UNL     1     -11.464  13.802  64.571  1.00  0.00    -0.361 OA 
BRANCH  20  26
HETATM   26  N   UNL     1     -11.055  15.786  66.536  1.00  0.00    -0.160 N  
HETATM   27  H   UNL     1     -11.784  16.467  66.748  1.00  0.00     0.000 HD 
HETATM   28  O   UNL     1      -9.804  17.453  65.642  1.00  0.00    -0.544 OA 
HETATM   29  C   UNL     1      -9.930  16.270  65.929  1.00  0.00    -0.339 C  
ENDBRANCH  20  26
ENDBRANCH  15  18
ENDBRANCH  14  15
ENDBRANCH  12  14
ENDBRANCH  10  12
ENDBRANCH   9  10
ENDBRANCH   6   9
ENDBRANCH   2   3
TORSDOF 8
ENDMDL
MODEL      142
REMARK 921   NORMALIZED FREE ENERGY PREDICTED BY IDOCK:   -4.76 KCAL/MOL
REMARK 922        TOTAL FREE ENERGY PREDICTED BY IDOCK:   -8.65 KCAL/MOL
REMARK 923 INTER-LIGAND FREE ENERGY PREDICTED BY IDOCK:   -8.10 KCAL/MOL
REMARK 924 INTRA-LIGAND FREE ENERGY PREDICTED BY IDOCK:   -0.55 KCAL/MOL
REMARK 927      BINDING AFFINITY PREDICTED BY RF-SCORE:    0.00 PKD
ROOT
HETATM    1  C   UNL     1      -9.297  10.170  63.307  1.00  0.00    -0.294 C  
HETATM    2  O   UNL     1     -10.366  11.096  63.168  1.00  0.00    -0.343 OA 
ENDROOT
BRANCH   2   3
HETATM    3  C   UNL     1     -10.631  11.892  64.248  1.00  0.00    -0.334 A  
HETATM    4  C   UNL     1      -9.841  12.015  65.391  1.00  0.00    -0.243 A  
HETATM    5  C   UNL     1     -10.260  12.822  66.454  1.00  0.00    -0.263 A  
HETATM    6  C   UNL     1     -11.468  13.528  66.381  1.00  0.00    -0.356 A  
HETATM    7  C   UNL     1     -11.818  12.620  64.160  1.00  0.00    -0.483 A  
HETATM    8  C   UNL     1     -12.236  13.430  65.216  1.00  0.00    -0.478 A  
BRANCH   6   9
HETATM    9  C   UNL     1     -12.018  14.268  67.577  1.00  0.00    -0.411 C  
BRANCH   9  10
HETATM   10  C   UNL     1     -11.311  14.023  68.931  1.00  0.00    -0.280 C  
HETATM   11  C   UNL     1     -11.066  15.345  69.668  1.00  0.00    -0.280 C  
BRANCH  10  12
HETATM   12  N   UNL     1     -12.102  13.162  69.832  1.00  0.00    -0.309 NA 
HETATM   13  H   UNL     1     -13.053  13.518  69.929  1.00  0.00     0.000 HD 
BRANCH  12  14
HETATM   14  C   UNL     1     -12.114  11.746  69.429  1.00  0.00    -0.238 C  
BRANCH  14  15
HETATM   15  C   UNL     1     -12.537  10.779  70.561  1.00  0.00    -0.336 C  
HETATM   16  H   UNL     1     -13.175  10.937  72.417  1.00  0.00     0.000 HD 
HETATM   17  O   UNL     1     -12.916  11.530  71.721  1.00  0.00    -0.446 OA 
BRANCH  15  18
HETATM   18  C   UNL     1     -11.510   9.717  70.895  1.00  0.00    -0.447 A  
HETATM   19  C   UNL     1     -11.817   8.741  71.860  1.00  0.00    -0.437 A  
HETATM   20  C   UNL     1     -10.888   7.757  72.216  1.00  0.00    -0.283 A  
HETATM   21  H   UNL     1      -7.816   6.850  71.458  1.00  0.00     0.000 HD 
HETATM   22  C   UNL     1      -9.643   7.749  71.573  1.00  0.00    -0.155 A  
HETATM   23  C   UNL     1     -10.263   9.670  70.255  1.00  0.00    -0.333 A  
HETATM   24  C   UNL     1      -9.333   8.689  70.594  1.00  0.00    -0.218 A  
HETATM   25  O   UNL     1      -8.661   6.855  71.895  1.00  0.00    -0.119 OA 
BRANCH  20  26
HETATM   26  N   UNL     1     -11.172   6.772  73.180  1.00  0.00    -0.496 N  
HETATM   27  H   UNL     1     -11.330   7.102  74.132  1.00  0.00     0.000 HD 
HETATM   28  O   UNL     1     -11.503   4.647  73.897  1.00  0.00    -0.204 OA 
HETATM   29  C   UNL     1     -11.260   5.422  72.984  1.00  0.00    -0.311 C  
ENDBRANCH  20  26
ENDBRANCH  15  18
ENDBRANCH  14  15
ENDBRANCH  12  14
ENDBRANCH  10  12
ENDBRANCH   9  10
ENDBRANCH   6   9
ENDBRANCH   2   3
TORSDOF 8
ENDMDL
MODEL      143
REMARK 921   NORMALIZED FREE ENERGY PREDICTED BY IDOCK:   -4.75 KCAL/MOL
REMARK 922        TOTAL FREE ENERGY PREDICTED BY IDOCK:   -8.64 KCAL/MOL
REMARK 923 INTER-LIGAND FREE ENERGY PREDICTED BY IDOCK:   -6.71 KCAL/MOL
REMARK 924 INTRA-LIGAND FREE ENERGY PREDICTED BY IDOCK:   -1.92 KCAL/MOL
REMARK 927      BINDING AFFINITY PREDICTED BY RF-SCORE:    0.00 PKD
ROOT
HETATM    1  C   UNL     1     -10.784  15.857  65.496  1.00  0.00    -0.372 C  
HETATM    2  O   UNL     1     -10.138  15.508  66.714  1.00  0.00    -0.252 OA 
ENDROOT
BRANCH   2   3
HETATM    3  C   UNL     1     -10.712  14.505  67.446  1.00  0.00    -0.282 A  
HETATM    4  C   UNL     1     -10.908  14.506  68.827  1.00  0.00    -0.256 A  
HETATM    5  C   UNL     1     -11.454  13.385  69.462  1.00  0.00    -0.308 A  
HETATM    6  C   UNL     1     -11.823  12.255  68.721  1.00  0.00    -0.356 A  
HETATM    7  C   UNL     1     -11.109  13.394  66.703  1.00  0.00    -0.310 A  
HETATM    8  C   UNL     1     -11.658  12.276  67.332  1.00  0.00    -0.425 A  
BRANCH   6   9
HETATM    9  C   UNL     1     -12.255  10.978  69.402  1.00  0.00    -0.329 C  
BRANCH   9  10
HETATM   10  C   UNL     1     -11.900  10.835  70.901  1.00  0.00    -0.297 C  
HETATM   11  C   UNL     1     -13.148  10.512  71.731  1.00  0.00    -0.570 C  
BRANCH  10  12
HETATM   12  N   UNL     1     -10.922   9.757  71.148  1.00  0.00    -0.352 NA 
HETATM   13  H   UNL     1     -11.039   9.370  72.084  1.00  0.00     0.000 HD 
BRANCH  12  14
HETATM   14  C   UNL     1     -10.958   8.689  70.134  1.00  0.00    -0.226 C  
BRANCH  14  15
HETATM   15  C   UNL     1      -9.585   8.401  69.483  1.00  0.00    -0.170 C  
HETATM   16  H   UNL     1      -7.691   8.614  69.977  1.00  0.00     0.000 HD 
HETATM   17  O   UNL     1      -8.535   8.791  70.377  1.00  0.00    -0.128 OA 
BRANCH  15  18
HETATM   18  C   UNL     1      -9.402   9.012  68.109  1.00  0.00    -0.151 A  
HETATM   19  C   UNL     1      -8.672  10.208  67.978  1.00  0.00    -0.122 A  
HETATM   20  C   UNL     1      -8.500  10.818  66.730  1.00  0.00    -0.134 A  
HETATM   21  H   UNL     1      -9.353  10.333  63.589  1.00  0.00     0.000 HD 
HETATM   22  C   UNL     1      -9.055  10.200  65.602  1.00  0.00    -0.179 A  
HETATM   23  C   UNL     1      -9.927   8.408  66.958  1.00  0.00    -0.323 A  
HETATM   24  C   UNL     1      -9.754   9.001  65.709  1.00  0.00    -0.254 A  
HETATM   25  O   UNL     1      -8.977  10.752  64.354  1.00  0.00    -0.191 OA 
BRANCH  20  26
HETATM   26  N   UNL     1      -7.777  12.015  66.575  1.00  0.00    -0.385 N  
HETATM   27  H   UNL     1      -7.321  12.155  65.674  1.00  0.00     0.000 HD 
HETATM   28  O   UNL     1      -6.956  14.013  67.264  1.00  0.00    -0.179 OA 
HETATM   29  C   UNL     1      -7.618  13.012  67.497  1.00  0.00    -0.165 C  
ENDBRANCH  20  26
ENDBRANCH  15  18
ENDBRANCH  14  15
ENDBRANCH  12  14
ENDBRANCH  10  12
ENDBRANCH   9  10
ENDBRANCH   6   9
ENDBRANCH   2   3
TORSDOF 8
ENDMDL
MODEL      144
REMARK 921   NORMALIZED FREE ENERGY PREDICTED BY IDOCK:   -4.75 KCAL/MOL
REMARK 922        TOTAL FREE ENERGY PREDICTED BY IDOCK:   -8.63 KCAL/MOL
REMARK 923 INTER-LIGAND FREE ENERGY PREDICTED BY IDOCK:   -7.85 KCAL/MOL
REMARK 924 INTRA-LIGAND FREE ENERGY PREDICTED BY IDOCK:   -0.79 KCAL/MOL
REMARK 927      BINDING AFFINITY PREDICTED BY RF-SCORE:    0.00 PKD
ROOT
HETATM    1  C   UNL     1     -10.681  15.755  64.848  1.00  0.00    -0.361 C  
HETATM    2  O   UNL     1     -11.231  14.446  64.926  1.00  0.00    -0.352 OA 
ENDROOT
BRANCH   2   3
HETATM    3  C   UNL     1     -11.461  13.952  66.180  1.00  0.00    -0.345 A  
HETATM    4  C   UNL     1     -11.667  14.706  67.335  1.00  0.00    -0.413 A  
HETATM    5  C   UNL     1     -11.831  14.073  68.571  1.00  0.00    -0.399 A  
HETATM    6  C   UNL     1     -11.807  12.675  68.665  1.00  0.00    -0.342 A  
HETATM    7  C   UNL     1     -11.469  12.560  66.266  1.00  0.00    -0.421 A  
HETATM    8  C   UNL     1     -11.638  11.924  67.496  1.00  0.00    -0.374 A  
BRANCH   6   9
HETATM    9  C   UNL     1     -11.814  11.978  70.005  1.00  0.00    -0.392 C  
BRANCH   9  10
HETATM   10  C   UNL     1     -11.836  10.432  69.984  1.00  0.00    -0.273 C  
HETATM   11  C   UNL     1     -10.543   9.859  70.579  1.00  0.00    -0.359 C  
BRANCH  10  12
HETATM   12  N   UNL     1     -12.958   9.873  70.764  1.00  0.00    -0.560 NA 
HETATM   13  H   UNL     1     -13.712   9.571  70.147  1.00  0.00     0.000 HD 
BRANCH  12  14
HETATM   14  C   UNL     1     -12.556   8.783  71.669  1.00  0.00    -0.345 C  
BRANCH  14  15
HETATM   15  C   UNL     1     -12.929   7.374  71.151  1.00  0.00    -0.240 C  
HETATM   16  H   UNL     1     -14.064   5.880  71.750  1.00  0.00     0.000 HD 
HETATM   17  O   UNL     1     -13.834   6.745  72.068  1.00  0.00    -0.180 OA 
BRANCH  15  18
HETATM   18  C   UNL     1     -11.743   6.484  70.842  1.00  0.00    -0.416 A  
HETATM   19  C   UNL     1     -11.250   6.426  69.525  1.00  0.00    -0.477 A  
HETATM   20  C   UNL     1     -10.172   5.599  69.191  1.00  0.00    -0.236 A  
HETATM   21  H   UNL     1      -8.143   3.454  70.645  1.00  0.00     0.000 HD 
HETATM   22  C   UNL     1      -9.574   4.839  70.205  1.00  0.00    -0.199 A  
HETATM   23  C   UNL     1     -11.110   5.727  71.837  1.00  0.00    -0.308 A  
HETATM   24  C   UNL     1     -10.029   4.908  71.519  1.00  0.00    -0.260 A  
HETATM   25  O   UNL     1      -8.549   3.970  69.958  1.00  0.00    -0.063 OA 
BRANCH  20  26
HETATM   26  N   UNL     1      -9.664   5.522  67.881  1.00  0.00    -0.125 N  
HETATM   27  H   UNL     1      -8.735   5.914  67.732  1.00  0.00     0.000 HD 
HETATM   28  O   UNL     1      -9.750   4.974  65.683  1.00  0.00    -0.160 OA 
HETATM   29  C   UNL     1     -10.277   4.980  66.786  1.00  0.00    -0.248 C  
ENDBRANCH  20  26
ENDBRANCH  15  18
ENDBRANCH  14  15
ENDBRANCH  12  14
ENDBRANCH  10  12
ENDBRANCH   9  10
ENDBRANCH   6   9
ENDBRANCH   2   3
TORSDOF 8
ENDMDL
MODEL      145
REMARK 921   NORMALIZED FREE ENERGY PREDICTED BY IDOCK:   -4.75 KCAL/MOL
REMARK 922        TOTAL FREE ENERGY PREDICTED BY IDOCK:   -8.63 KCAL/MOL
REMARK 923 INTER-LIGAND FREE ENERGY PREDICTED BY IDOCK:   -7.60 KCAL/MOL
REMARK 924 INTRA-LIGAND FREE ENERGY PREDICTED BY IDOCK:   -1.03 KCAL/MOL
REMARK 927      BINDING AFFINITY PREDICTED BY RF-SCORE:    0.00 PKD
ROOT
HETATM    1  C   UNL     1     -12.306  14.831  64.300  1.00  0.00    -0.320 C  
HETATM    2  O   UNL     1     -12.725  13.479  64.175  1.00  0.00    -0.650 OA 
ENDROOT
BRANCH   2   3
HETATM    3  C   UNL     1     -11.973  12.541  64.827  1.00  0.00    -0.409 A  
HETATM    4  C   UNL     1     -11.867  12.392  66.210  1.00  0.00    -0.431 A  
HETATM    5  C   UNL     1     -11.012  11.427  66.751  1.00  0.00    -0.347 A  
HETATM    6  C   UNL     1     -10.262  10.589  65.915  1.00  0.00    -0.311 A  
HETATM    7  C   UNL     1     -11.253  11.686  63.993  1.00  0.00    -0.448 A  
HETATM    8  C   UNL     1     -10.402  10.719  64.529  1.00  0.00    -0.401 A  
BRANCH   6   9
HETATM    9  C   UNL     1      -9.212   9.658  66.475  1.00  0.00    -0.197 C  
BRANCH   9  10
HETATM   10  C   UNL     1      -8.672   8.567  65.522  1.00  0.00    -0.174 C  
HETATM   11  C   UNL     1      -7.143   8.471  65.609  1.00  0.00    -0.079 C  
BRANCH  10  12
HETATM   12  N   UNL     1      -9.210   7.228  65.835  1.00  0.00    -0.379 NA 
HETATM   13  H   UNL     1      -8.848   6.532  65.183  1.00  0.00     0.000 HD 
BRANCH  12  14
HETATM   14  C   UNL     1      -8.971   6.812  67.228  1.00  0.00    -0.117 C  
BRANCH  14  15
HETATM   15  C   UNL     1     -10.188   6.122  67.889  1.00  0.00    -0.175 C  
HETATM   16  H   UNL     1     -11.998   5.574  67.341  1.00  0.00     0.000 HD 
HETATM   17  O   UNL     1     -11.250   5.998  66.935  1.00  0.00    -0.240 OA 
BRANCH  15  18
HETATM   18  C   UNL     1     -10.663   6.779  69.169  1.00  0.00    -0.287 A  
HETATM   19  C   UNL     1     -10.942   5.977  70.291  1.00  0.00    -0.412 A  
HETATM   20  C   UNL     1     -11.407   6.541  71.485  1.00  0.00    -0.291 A  
HETATM   21  H   UNL     1     -12.172   9.501  72.702  1.00  0.00     0.000 HD 
HETATM   22  C   UNL     1     -11.568   7.931  71.549  1.00  0.00    -0.270 A  
HETATM   23  C   UNL     1     -10.816   8.168  69.272  1.00  0.00    -0.064 A  
HETATM   24  C   UNL     1     -11.267   8.742  70.458  1.00  0.00    -0.278 A  
HETATM   25  O   UNL     1     -12.063   8.558  72.659  1.00  0.00    -0.378 OA 
BRANCH  20  26
HETATM   26  N   UNL     1     -11.696   5.760  72.619  1.00  0.00    -0.476 N  
HETATM   27  H   UNL     1     -12.645   5.827  72.986  1.00  0.00     0.000 HD 
HETATM   28  O   UNL     1     -11.197   4.292  74.274  1.00  0.00    -0.177 OA 
HETATM   29  C   UNL     1     -10.847   4.921  73.285  1.00  0.00    -0.289 C  
ENDBRANCH  20  26
ENDBRANCH  15  18
ENDBRANCH  14  15
ENDBRANCH  12  14
ENDBRANCH  10  12
ENDBRANCH   9  10
ENDBRANCH   6   9
ENDBRANCH   2   3
TORSDOF 8
ENDMDL
MODEL      146
REMARK 921   NORMALIZED FREE ENERGY PREDICTED BY IDOCK:   -4.75 KCAL/MOL
REMARK 922        TOTAL FREE ENERGY PREDICTED BY IDOCK:   -8.63 KCAL/MOL
REMARK 923 INTER-LIGAND FREE ENERGY PREDICTED BY IDOCK:   -7.19 KCAL/MOL
REMARK 924 INTRA-LIGAND FREE ENERGY PREDICTED BY IDOCK:   -1.44 KCAL/MOL
REMARK 927      BINDING AFFINITY PREDICTED BY RF-SCORE:    0.00 PKD
ROOT
HETATM    1  C   UNL     1     -14.400   8.416  72.090  1.00  0.00    -0.427 C  
HETATM    2  O   UNL     1     -13.320   9.232  72.524  1.00  0.00    -0.457 OA 
ENDROOT
BRANCH   2   3
HETATM    3  C   UNL     1     -12.797  10.097  71.603  1.00  0.00    -0.454 A  
HETATM    4  C   UNL     1     -12.006   9.750  70.507  1.00  0.00    -0.282 A  
HETATM    5  C   UNL     1     -11.482  10.743  69.673  1.00  0.00    -0.376 A  
HETATM    6  C   UNL     1     -11.756  12.096  69.916  1.00  0.00    -0.361 A  
HETATM    7  C   UNL     1     -13.097  11.441  71.827  1.00  0.00    -0.523 A  
HETATM    8  C   UNL     1     -12.581  12.434  70.994  1.00  0.00    -0.349 A  
BRANCH   6   9
HETATM    9  C   UNL     1     -11.067  13.188  69.132  1.00  0.00    -0.248 C  
BRANCH   9  10
HETATM   10  C   UNL     1     -11.960  14.046  68.205  1.00  0.00    -0.347 C  
HETATM   11  C   UNL     1     -12.157  15.453  68.783  1.00  0.00    -0.183 C  
BRANCH  10  12
HETATM   12  N   UNL     1     -11.382  14.207  66.856  1.00  0.00    -0.317 NA 
HETATM   13  H   UNL     1     -10.398  14.468  66.914  1.00  0.00     0.000 HD 
BRANCH  12  14
HETATM   14  C   UNL     1     -11.559  13.024  65.997  1.00  0.00    -0.365 C  
BRANCH  14  15
HETATM   15  C   UNL     1     -10.230  12.422  65.484  1.00  0.00    -0.274 C  
HETATM   16  H   UNL     1      -9.480  11.873  63.748  1.00  0.00     0.000 HD 
HETATM   17  O   UNL     1     -10.296  12.242  64.064  1.00  0.00    -0.342 OA 
BRANCH  15  18
HETATM   18  C   UNL     1      -9.804  11.149  66.187  1.00  0.00    -0.265 A  
HETATM   19  C   UNL     1      -8.848  11.218  67.217  1.00  0.00    -0.150 A  
HETATM   20  C   UNL     1      -8.409  10.063  67.876  1.00  0.00    -0.117 A  
HETATM   21  H   UNL     1      -8.926   6.814  67.803  1.00  0.00     0.000 HD 
HETATM   22  C   UNL     1      -8.959   8.831  67.501  1.00  0.00    -0.134 A  
HETATM   23  C   UNL     1     -10.350   9.903  65.850  1.00  0.00    -0.184 A  
HETATM   24  C   UNL     1      -9.928   8.748  66.505  1.00  0.00    -0.360 A  
HETATM   25  O   UNL     1      -8.552   7.650  68.057  1.00  0.00    -0.123 OA 
BRANCH  20  26
HETATM   26  N   UNL     1      -7.452  10.107  68.907  1.00  0.00    -0.081 N  
HETATM   27  H   UNL     1      -6.516  10.415  68.644  1.00  0.00     0.000 HD 
HETATM   28  O   UNL     1      -6.731   9.845  71.040  1.00  0.00    -0.300 OA 
HETATM   29  C   UNL     1      -7.637   9.783  70.221  1.00  0.00    -0.172 C  
ENDBRANCH  20  26
ENDBRANCH  15  18
ENDBRANCH  14  15
ENDBRANCH  12  14
ENDBRANCH  10  12
ENDBRANCH   9  10
ENDBRANCH   6   9
ENDBRANCH   2   3
TORSDOF 8
ENDMDL
MODEL      147
REMARK 921   NORMALIZED FREE ENERGY PREDICTED BY IDOCK:   -4.73 KCAL/MOL
REMARK 922        TOTAL FREE ENERGY PREDICTED BY IDOCK:   -8.60 KCAL/MOL
REMARK 923 INTER-LIGAND FREE ENERGY PREDICTED BY IDOCK:   -7.92 KCAL/MOL
REMARK 924 INTRA-LIGAND FREE ENERGY PREDICTED BY IDOCK:   -0.68 KCAL/MOL
REMARK 927      BINDING AFFINITY PREDICTED BY RF-SCORE:    0.00 PKD
ROOT
HETATM    1  C   UNL     1      -6.596  20.747  66.818  1.00  0.00    -0.282 C  
HETATM    2  O   UNL     1      -7.772  20.730  67.616  1.00  0.00    -0.274 OA 
ENDROOT
BRANCH   2   3
HETATM    3  C   UNL     1      -8.495  19.569  67.616  1.00  0.00    -0.310 A  
HETATM    4  C   UNL     1      -9.711  19.359  66.966  1.00  0.00    -0.425 A  
HETATM    5  C   UNL     1     -10.379  18.137  67.097  1.00  0.00    -0.391 A  
HETATM    6  C   UNL     1      -9.832  17.105  67.871  1.00  0.00    -0.283 A  
HETATM    7  C   UNL     1      -7.933  18.531  68.360  1.00  0.00    -0.337 A  
HETATM    8  C   UNL     1      -8.595  17.309  68.489  1.00  0.00    -0.270 A  
BRANCH   6   9
HETATM    9  C   UNL     1     -10.613  15.845  68.161  1.00  0.00    -0.280 C  
BRANCH   9  10
HETATM   10  C   UNL     1     -10.765  15.449  69.649  1.00  0.00    -0.276 C  
HETATM   11  C   UNL     1     -12.053  16.035  70.242  1.00  0.00    -0.180 C  
BRANCH  10  12
HETATM   12  N   UNL     1     -10.825  13.986  69.840  1.00  0.00    -0.449 NA 
HETATM   13  H   UNL     1     -11.058  13.758  70.806  1.00  0.00     0.000 HD 
BRANCH  12  14
HETATM   14  C   UNL     1     -11.744  13.311  68.908  1.00  0.00    -0.327 C  
BRANCH  14  15
HETATM   15  C   UNL     1     -11.312  11.871  68.543  1.00  0.00    -0.276 C  
HETATM   16  H   UNL     1     -11.845  10.504  67.229  1.00  0.00     0.000 HD 
HETATM   17  O   UNL     1     -12.110  11.389  67.454  1.00  0.00    -0.533 OA 
BRANCH  15  18
HETATM   18  C   UNL     1     -11.313  10.901  69.706  1.00  0.00    -0.374 A  
HETATM   19  C   UNL     1     -10.223  10.027  69.875  1.00  0.00    -0.304 A  
HETATM   20  C   UNL     1     -10.195   9.099  70.922  1.00  0.00    -0.282 A  
HETATM   21  H   UNL     1     -12.080   8.143  73.446  1.00  0.00     0.000 HD 
HETATM   22  C   UNL     1     -11.272   9.070  71.818  1.00  0.00    -0.378 A  
HETATM   23  C   UNL     1     -12.366  10.860  70.631  1.00  0.00    -0.470 A  
HETATM   24  C   UNL     1     -12.345   9.947  71.683  1.00  0.00    -0.496 A  
HETATM   25  O   UNL     1     -11.349   8.163  72.838  1.00  0.00    -0.387 OA 
BRANCH  20  26
HETATM   26  N   UNL     1      -9.118   8.214  71.110  1.00  0.00    -0.147 N  
HETATM   27  H   UNL     1      -9.229   7.276  70.724  1.00  0.00     0.000 HD 
HETATM   28  O   UNL     1      -7.066   7.622  71.871  1.00  0.00    -0.061 OA 
HETATM   29  C   UNL     1      -7.939   8.470  71.752  1.00  0.00    -0.131 C  
ENDBRANCH  20  26
ENDBRANCH  15  18
ENDBRANCH  14  15
ENDBRANCH  12  14
ENDBRANCH  10  12
ENDBRANCH   9  10
ENDBRANCH   6   9
ENDBRANCH   2   3
TORSDOF 8
ENDMDL
MODEL      148
REMARK 921   NORMALIZED FREE ENERGY PREDICTED BY IDOCK:   -4.70 KCAL/MOL
REMARK 922        TOTAL FREE ENERGY PREDICTED BY IDOCK:   -8.56 KCAL/MOL
REMARK 923 INTER-LIGAND FREE ENERGY PREDICTED BY IDOCK:   -6.91 KCAL/MOL
REMARK 924 INTRA-LIGAND FREE ENERGY PREDICTED BY IDOCK:   -1.64 KCAL/MOL
REMARK 927      BINDING AFFINITY PREDICTED BY RF-SCORE:    0.00 PKD
ROOT
HETATM    1  C   UNL     1     -10.600  13.341  64.693  1.00  0.00    -0.404 C  
HETATM    2  O   UNL     1      -9.847  13.087  65.871  1.00  0.00    -0.275 OA 
ENDROOT
BRANCH   2   3
HETATM    3  C   UNL     1     -10.487  12.415  66.875  1.00  0.00    -0.224 A  
HETATM    4  C   UNL     1     -10.578  11.030  67.008  1.00  0.00    -0.303 A  
HETATM    5  C   UNL     1     -11.319  10.468  68.053  1.00  0.00    -0.319 A  
HETATM    6  C   UNL     1     -11.966  11.287  68.988  1.00  0.00    -0.393 A  
HETATM    7  C   UNL     1     -11.103  13.231  67.823  1.00  0.00    -0.289 A  
HETATM    8  C   UNL     1     -11.838  12.675  68.871  1.00  0.00    -0.345 A  
BRANCH   6   9
HETATM    9  C   UNL     1     -12.904  10.708  70.021  1.00  0.00    -0.067 C  
BRANCH   9  10
HETATM   10  C   UNL     1     -12.574  11.006  71.503  1.00  0.00    -0.356 C  
HETATM   11  C   UNL     1     -13.241  12.309  71.961  1.00  0.00    -0.508 C  
BRANCH  10  12
HETATM   12  N   UNL     1     -13.039   9.937  72.410  1.00  0.00    -0.506 NA 
HETATM   13  H   UNL     1     -13.844  10.249  72.952  1.00  0.00     0.000 HD 
BRANCH  12  14
HETATM   14  C   UNL     1     -13.334   8.670  71.719  1.00  0.00    -0.374 C  
BRANCH  14  15
HETATM   15  C   UNL     1     -12.259   7.579  71.934  1.00  0.00    -0.306 C  
HETATM   16  H   UNL     1     -10.913   7.142  73.303  1.00  0.00     0.000 HD 
HETATM   17  O   UNL     1     -11.574   7.812  73.171  1.00  0.00    -0.273 OA 
BRANCH  15  18
HETATM   18  C   UNL     1     -11.289   7.418  70.781  1.00  0.00    -0.303 A  
HETATM   19  C   UNL     1     -10.097   8.166  70.774  1.00  0.00    -0.211 A  
HETATM   20  C   UNL     1      -9.186   8.066  69.717  1.00  0.00    -0.149 A  
HETATM   21  H   UNL     1      -8.860   6.462  66.862  1.00  0.00     0.000 HD 
HETATM   22  C   UNL     1      -9.475   7.184  68.668  1.00  0.00    -0.140 A  
HETATM   23  C   UNL     1     -11.539   6.529  69.727  1.00  0.00    -0.392 A  
HETATM   24  C   UNL     1     -10.634   6.413  68.674  1.00  0.00    -0.300 A  
HETATM   25  O   UNL     1      -8.664   7.061  67.574  1.00  0.00    -0.121 OA 
BRANCH  20  26
HETATM   26  N   UNL     1      -7.990   8.806  69.686  1.00  0.00    -0.093 N  
HETATM   27  H   UNL     1      -7.124   8.269  69.706  1.00  0.00     0.000 HD 
HETATM   28  O   UNL     1      -6.765  10.713  69.621  1.00  0.00    -0.084 OA 
HETATM   29  C   UNL     1      -7.859  10.166  69.632  1.00  0.00    -0.175 C  
ENDBRANCH  20  26
ENDBRANCH  15  18
ENDBRANCH  14  15
ENDBRANCH  12  14
ENDBRANCH  10  12
ENDBRANCH   9  10
ENDBRANCH   6   9
ENDBRANCH   2   3
TORSDOF 8
ENDMDL
MODEL      149
REMARK 921   NORMALIZED FREE ENERGY PREDICTED BY IDOCK:   -4.68 KCAL/MOL
REMARK 922        TOTAL FREE ENERGY PREDICTED BY IDOCK:   -8.53 KCAL/MOL
REMARK 923 INTER-LIGAND FREE ENERGY PREDICTED BY IDOCK:   -7.71 KCAL/MOL
REMARK 924 INTRA-LIGAND FREE ENERGY PREDICTED BY IDOCK:   -0.82 KCAL/MOL
REMARK 927      BINDING AFFINITY PREDICTED BY RF-SCORE:    0.00 PKD
ROOT
HETATM    1  C   UNL     1      -6.317  19.929  70.031  1.00  0.00    -0.346 C  
HETATM    2  O   UNL     1      -6.660  20.325  68.709  1.00  0.00    -0.310 OA 
ENDROOT
BRANCH   2   3
HETATM    3  C   UNL     1      -7.658  19.618  68.097  1.00  0.00    -0.307 A  
HETATM    4  C   UNL     1      -8.941  19.407  68.600  1.00  0.00    -0.419 A  
HETATM    5  C   UNL     1      -9.851  18.609  67.898  1.00  0.00    -0.363 A  
HETATM    6  C   UNL     1      -9.493  18.025  66.676  1.00  0.00    -0.300 A  
HETATM    7  C   UNL     1      -7.311  19.065  66.865  1.00  0.00    -0.221 A  
HETATM    8  C   UNL     1      -8.217  18.273  66.159  1.00  0.00    -0.171 A  
BRANCH   6   9
HETATM    9  C   UNL     1     -10.397  17.030  65.987  1.00  0.00    -0.324 C  
BRANCH   9  10
HETATM   10  C   UNL     1      -9.841  15.599  65.801  1.00  0.00    -0.351 C  
HETATM   11  C   UNL     1      -9.621  14.917  67.157  1.00  0.00    -0.229 C  
BRANCH  10  12
HETATM   12  N   UNL     1     -10.752  14.737  65.023  1.00  0.00    -0.407 NA 
HETATM   13  H   UNL     1     -10.826  15.065  64.060  1.00  0.00     0.000 HD 
BRANCH  12  14
HETATM   14  C   UNL     1     -10.385  13.311  65.062  1.00  0.00    -0.340 C  
BRANCH  14  15
HETATM   15  C   UNL     1     -11.553  12.377  65.457  1.00  0.00    -0.385 C  
HETATM   16  H   UNL     1     -13.515  12.503  65.566  1.00  0.00     0.000 HD 
HETATM   17  O   UNL     1     -12.797  13.076  65.323  1.00  0.00    -0.642 OA 
BRANCH  15  18
HETATM   18  C   UNL     1     -11.414  11.744  66.826  1.00  0.00    -0.352 A  
HETATM   19  C   UNL     1     -10.778  10.495  66.946  1.00  0.00    -0.281 A  
HETATM   20  C   UNL     1     -10.651   9.864  68.189  1.00  0.00    -0.227 A  
HETATM   21  H   UNL     1     -11.457  10.389  71.336  1.00  0.00     0.000 HD 
HETATM   22  C   UNL     1     -11.154  10.514  69.323  1.00  0.00    -0.246 A  
HETATM   23  C   UNL     1     -11.889  12.378  67.983  1.00  0.00    -0.376 A  
HETATM   24  C   UNL     1     -11.760  11.764  69.227  1.00  0.00    -0.398 A  
HETATM   25  O   UNL     1     -11.116   9.948  70.567  1.00  0.00    -0.282 OA 
BRANCH  20  26
HETATM   26  N   UNL     1     -10.022   8.613  68.334  1.00  0.00    -0.177 N  
HETATM   27  H   UNL     1     -10.559   7.887  68.806  1.00  0.00     0.000 HD 
HETATM   28  O   UNL     1      -8.310   7.146  68.097  1.00  0.00    -0.122 OA 
HETATM   29  C   UNL     1      -8.770   8.263  67.911  1.00  0.00    -0.135 C  
ENDBRANCH  20  26
ENDBRANCH  15  18
ENDBRANCH  14  15
ENDBRANCH  12  14
ENDBRANCH  10  12
ENDBRANCH   9  10
ENDBRANCH   6   9
ENDBRANCH   2   3
TORSDOF 8
ENDMDL
MODEL      150
REMARK 921   NORMALIZED FREE ENERGY PREDICTED BY IDOCK:   -4.68 KCAL/MOL
REMARK 922        TOTAL FREE ENERGY PREDICTED BY IDOCK:   -8.53 KCAL/MOL
REMARK 923 INTER-LIGAND FREE ENERGY PREDICTED BY IDOCK:   -7.73 KCAL/MOL
REMARK 924 INTRA-LIGAND FREE ENERGY PREDICTED BY IDOCK:   -0.79 KCAL/MOL
REMARK 927      BINDING AFFINITY PREDICTED BY RF-SCORE:    0.00 PKD
ROOT
HETATM    1  C   UNL     1      -8.996  10.886  63.207  1.00  0.00    -0.202 C  
HETATM    2  O   UNL     1     -10.368  11.138  63.482  1.00  0.00    -0.354 OA 
ENDROOT
BRANCH   2   3
HETATM    3  C   UNL     1     -10.642  11.898  64.585  1.00  0.00    -0.306 A  
HETATM    4  C   UNL     1      -9.790  12.108  65.669  1.00  0.00    -0.256 A  
HETATM    5  C   UNL     1     -10.219  12.861  66.767  1.00  0.00    -0.243 A  
HETATM    6  C   UNL     1     -11.501  13.426  66.788  1.00  0.00    -0.376 A  
HETATM    7  C   UNL     1     -11.906  12.487  64.589  1.00  0.00    -0.439 A  
HETATM    8  C   UNL     1     -12.336  13.243  65.681  1.00  0.00    -0.521 A  
BRANCH   6   9
HETATM    9  C   UNL     1     -12.042  14.097  68.028  1.00  0.00    -0.303 C  
BRANCH   9  10
HETATM   10  C   UNL     1     -11.201  13.955  69.318  1.00  0.00    -0.251 C  
HETATM   11  C   UNL     1     -11.048  15.309  70.024  1.00  0.00    -0.303 C  
BRANCH  10  12
HETATM   12  N   UNL     1     -11.811  13.025  70.289  1.00  0.00    -0.532 NA 
HETATM   13  H   UNL     1     -12.750  13.332  70.543  1.00  0.00     0.000 HD 
BRANCH  12  14
HETATM   14  C   UNL     1     -11.826  11.626  69.830  1.00  0.00    -0.357 C  
BRANCH  14  15
HETATM   15  C   UNL     1     -12.643  10.680  70.742  1.00  0.00    -0.386 C  
HETATM   16  H   UNL     1     -13.505  10.783  72.509  1.00  0.00     0.000 HD 
HETATM   17  O   UNL     1     -13.004  11.364  71.949  1.00  0.00    -0.453 OA 
BRANCH  15  18
HETATM   18  C   UNL     1     -11.971   9.354  71.033  1.00  0.00    -0.389 A  
HETATM   19  C   UNL     1     -11.338   8.658  69.986  1.00  0.00    -0.022 A  
HETATM   20  C   UNL     1     -10.727   7.419  70.206  1.00  0.00    -0.237 A  
HETATM   21  H   UNL     1     -10.218   5.304  72.676  1.00  0.00     0.000 HD 
HETATM   22  C   UNL     1     -10.739   6.889  71.503  1.00  0.00    -0.223 A  
HETATM   23  C   UNL     1     -11.949   8.806  72.323  1.00  0.00    -0.415 A  
HETATM   24  C   UNL     1     -11.335   7.577  72.556  1.00  0.00    -0.384 A  
HETATM   25  O   UNL     1     -10.210   5.663  71.796  1.00  0.00    -0.189 OA 
BRANCH  20  26
HETATM   26  N   UNL     1     -10.090   6.703  69.175  1.00  0.00    -0.163 N  
HETATM   27  H   UNL     1      -9.091   6.535  69.290  1.00  0.00     0.000 HD 
HETATM   28  O   UNL     1     -10.012   5.607  67.192  1.00  0.00    -0.135 OA 
HETATM   29  C   UNL     1     -10.661   6.208  68.036  1.00  0.00    -0.295 C  
ENDBRANCH  20  26
ENDBRANCH  15  18
ENDBRANCH  14  15
ENDBRANCH  12  14
ENDBRANCH  10  12
ENDBRANCH   9  10
ENDBRANCH   6   9
ENDBRANCH   2   3
TORSDOF 8
ENDMDL
MODEL      151
REMARK 921   NORMALIZED FREE ENERGY PREDICTED BY IDOCK:   -4.68 KCAL/MOL
REMARK 922        TOTAL FREE ENERGY PREDICTED BY IDOCK:   -8.52 KCAL/MOL
REMARK 923 INTER-LIGAND FREE ENERGY PREDICTED BY IDOCK:   -7.53 KCAL/MOL
REMARK 924 INTRA-LIGAND FREE ENERGY PREDICTED BY IDOCK:   -0.99 KCAL/MOL
REMARK 927      BINDING AFFINITY PREDICTED BY RF-SCORE:    0.00 PKD
ROOT
HETATM    1  C   UNL     1      -9.369   4.595  67.002  1.00  0.00    -0.141 C  
HETATM    2  O   UNL     1      -9.851   5.766  67.649  1.00  0.00    -0.114 OA 
ENDROOT
BRANCH   2   3
HETATM    3  C   UNL     1      -9.662   6.950  66.992  1.00  0.00    -0.163 A  
HETATM    4  C   UNL     1      -8.709   7.198  66.004  1.00  0.00    -0.162 A  
HETATM    5  C   UNL     1      -8.581   8.478  65.454  1.00  0.00    -0.202 A  
HETATM    6  C   UNL     1      -9.414   9.522  65.875  1.00  0.00    -0.307 A  
HETATM    7  C   UNL     1     -10.515   7.980  67.389  1.00  0.00    -0.357 A  
HETATM    8  C   UNL     1     -10.393   9.256  66.838  1.00  0.00    -0.316 A  
BRANCH   6   9
HETATM    9  C   UNL     1      -9.183  10.943  65.418  1.00  0.00    -0.231 C  
BRANCH   9  10
HETATM   10  C   UNL     1      -9.019  12.011  66.525  1.00  0.00    -0.193 C  
HETATM   11  C   UNL     1      -7.610  11.958  67.132  1.00  0.00    -0.154 C  
BRANCH  10  12
HETATM   12  N   UNL     1      -9.223  13.383  66.020  1.00  0.00    -0.476 NA 
HETATM   13  H   UNL     1      -9.089  13.420  65.010  1.00  0.00     0.000 HD 
BRANCH  12  14
HETATM   14  C   UNL     1     -10.527  13.957  66.395  1.00  0.00    -0.284 C  
BRANCH  14  15
HETATM   15  C   UNL     1     -10.508  14.718  67.742  1.00  0.00    -0.254 C  
HETATM   16  H   UNL     1      -9.143  15.473  68.944  1.00  0.00     0.000 HD 
HETATM   17  O   UNL     1      -9.155  15.005  68.116  1.00  0.00    -0.172 OA 
BRANCH  15  18
HETATM   18  C   UNL     1     -11.262  14.030  68.862  1.00  0.00    -0.303 A  
HETATM   19  C   UNL     1     -11.937  14.810  69.819  1.00  0.00    -0.368 A  
HETATM   20  C   UNL     1     -12.624  14.215  70.883  1.00  0.00    -0.363 A  
HETATM   21  H   UNL     1     -13.266  11.208  72.055  1.00  0.00     0.000 HD 
HETATM   22  C   UNL     1     -12.646  12.817  70.966  1.00  0.00    -0.271 A  
HETATM   23  C   UNL     1     -11.320  12.633  68.962  1.00  0.00    -0.345 A  
HETATM   24  C   UNL     1     -12.009  12.029  70.011  1.00  0.00    -0.400 A  
HETATM   25  O   UNL     1     -13.251  12.157  71.998  1.00  0.00    -0.499 OA 
BRANCH  20  26
HETATM   26  N   UNL     1     -13.303  14.975  71.854  1.00  0.00    -0.349 N  
HETATM   27  H   UNL     1     -14.316  15.041  71.750  1.00  0.00     0.000 HD 
HETATM   28  O   UNL     1     -13.440  16.278  73.704  1.00  0.00    -0.653 OA 
HETATM   29  C   UNL     1     -12.758  15.633  72.920  1.00  0.00    -0.453 C  
ENDBRANCH  20  26
ENDBRANCH  15  18
ENDBRANCH  14  15
ENDBRANCH  12  14
ENDBRANCH  10  12
ENDBRANCH   9  10
ENDBRANCH   6   9
ENDBRANCH   2   3
TORSDOF 8
ENDMDL
MODEL      152
REMARK 921   NORMALIZED FREE ENERGY PREDICTED BY IDOCK:   -4.67 KCAL/MOL
REMARK 922        TOTAL FREE ENERGY PREDICTED BY IDOCK:   -8.52 KCAL/MOL
REMARK 923 INTER-LIGAND FREE ENERGY PREDICTED BY IDOCK:   -7.45 KCAL/MOL
REMARK 924 INTRA-LIGAND FREE ENERGY PREDICTED BY IDOCK:   -1.06 KCAL/MOL
REMARK 927      BINDING AFFINITY PREDICTED BY RF-SCORE:    0.00 PKD
ROOT
HETATM    1  C   UNL     1      -7.350   6.658  64.644  1.00  0.00    -0.085 C  
HETATM    2  O   UNL     1      -7.442   7.383  65.863  1.00  0.00    -0.076 OA 
ENDROOT
BRANCH   2   3
HETATM    3  C   UNL     1      -8.315   8.435  65.885  1.00  0.00    -0.134 A  
HETATM    4  C   UNL     1      -9.064   8.858  66.983  1.00  0.00    -0.161 A  
HETATM    5  C   UNL     1      -9.970   9.915  66.854  1.00  0.00    -0.268 A  
HETATM    6  C   UNL     1     -10.128  10.573  65.627  1.00  0.00    -0.333 A  
HETATM    7  C   UNL     1      -8.447   9.110  64.672  1.00  0.00    -0.197 A  
HETATM    8  C   UNL     1      -9.346  10.169  64.540  1.00  0.00    -0.345 A  
BRANCH   6   9
HETATM    9  C   UNL     1     -11.216  11.602  65.423  1.00  0.00    -0.262 C  
BRANCH   9  10
HETATM   10  C   UNL     1     -11.249  12.314  64.051  1.00  0.00    -0.392 C  
HETATM   11  C   UNL     1     -12.672  12.331  63.477  1.00  0.00    -0.512 C  
BRANCH  10  12
HETATM   12  N   UNL     1     -10.797  13.717  64.133  1.00  0.00    -0.568 NA 
HETATM   13  H   UNL     1     -11.552  14.356  63.882  1.00  0.00     0.000 HD 
BRANCH  12  14
HETATM   14  C   UNL     1     -10.227  14.073  65.444  1.00  0.00    -0.347 C  
BRANCH  14  15
HETATM   15  C   UNL     1     -10.991  15.206  66.169  1.00  0.00    -0.331 C  
HETATM   16  H   UNL     1     -10.728  17.129  66.500  1.00  0.00     0.000 HD 
HETATM   17  O   UNL     1     -10.258  16.433  66.055  1.00  0.00    -0.322 OA 
BRANCH  15  18
HETATM   18  C   UNL     1     -11.347  14.901  67.609  1.00  0.00    -0.348 A  
HETATM   19  C   UNL     1     -11.236  13.580  68.081  1.00  0.00    -0.302 A  
HETATM   20  C   UNL     1     -11.579  13.251  69.398  1.00  0.00    -0.305 A  
HETATM   21  H   UNL     1     -12.715  14.725  72.112  1.00  0.00     0.000 HD 
HETATM   22  C   UNL     1     -12.017  14.273  70.250  1.00  0.00    -0.329 A  
HETATM   23  C   UNL     1     -11.770  15.904  68.492  1.00  0.00    -0.297 A  
HETATM   24  C   UNL     1     -12.104  15.591  69.808  1.00  0.00    -0.372 A  
HETATM   25  O   UNL     1     -12.418  14.032  71.534  1.00  0.00    -0.341 OA 
BRANCH  20  26
HETATM   26  N   UNL     1     -11.479  11.937  69.892  1.00  0.00    -0.495 N  
HETATM   27  H   UNL     1     -10.699  11.748  70.521  1.00  0.00     0.000 HD 
HETATM   28  O   UNL     1     -12.127   9.774  70.097  1.00  0.00    -0.112 OA 
HETATM   29  C   UNL     1     -12.310  10.886  69.622  1.00  0.00    -0.221 C  
ENDBRANCH  20  26
ENDBRANCH  15  18
ENDBRANCH  14  15
ENDBRANCH  12  14
ENDBRANCH  10  12
ENDBRANCH   9  10
ENDBRANCH   6   9
ENDBRANCH   2   3
TORSDOF 8
ENDMDL
MODEL      153
REMARK 921   NORMALIZED FREE ENERGY PREDICTED BY IDOCK:   -4.66 KCAL/MOL
REMARK 922        TOTAL FREE ENERGY PREDICTED BY IDOCK:   -8.50 KCAL/MOL
REMARK 923 INTER-LIGAND FREE ENERGY PREDICTED BY IDOCK:   -7.53 KCAL/MOL
REMARK 924 INTRA-LIGAND FREE ENERGY PREDICTED BY IDOCK:   -0.97 KCAL/MOL
REMARK 927      BINDING AFFINITY PREDICTED BY RF-SCORE:    0.00 PKD
ROOT
HETATM    1  C   UNL     1      -6.503   5.022  65.122  1.00  0.00    -0.036 C  
HETATM    2  O   UNL     1      -7.721   5.519  64.583  1.00  0.00    -0.082 OA 
ENDROOT
BRANCH   2   3
HETATM    3  C   UNL     1      -8.378   6.464  65.322  1.00  0.00    -0.131 A  
HETATM    4  C   UNL     1      -8.089   7.828  65.353  1.00  0.00    -0.131 A  
HETATM    5  C   UNL     1      -8.802   8.680  66.203  1.00  0.00    -0.204 A  
HETATM    6  C   UNL     1      -9.824   8.179  67.022  1.00  0.00    -0.299 A  
HETATM    7  C   UNL     1      -9.416   5.969  66.111  1.00  0.00    -0.116 A  
HETATM    8  C   UNL     1     -10.133   6.817  66.956  1.00  0.00    -0.264 A  
BRANCH   6   9
HETATM    9  C   UNL     1     -10.490   9.047  68.064  1.00  0.00    -0.270 C  
BRANCH   9  10
HETATM   10  C   UNL     1     -10.255   8.661  69.543  1.00  0.00    -0.209 C  
HETATM   11  C   UNL     1      -9.350   9.686  70.239  1.00  0.00    -0.292 C  
BRANCH  10  12
HETATM   12  N   UNL     1     -11.511   8.594  70.315  1.00  0.00    -0.448 NA 
HETATM   13  H   UNL     1     -11.735   7.630  70.558  1.00  0.00     0.000 HD 
BRANCH  12  14
HETATM   14  C   UNL     1     -11.506   9.448  71.516  1.00  0.00    -0.397 C  
BRANCH  14  15
HETATM   15  C   UNL     1     -12.841  10.192  71.756  1.00  0.00    -0.452 C  
HETATM   16  H   UNL     1     -14.721   9.979  71.208  1.00  0.00     0.000 HD 
HETATM   17  O   UNL     1     -13.900   9.522  71.060  1.00  0.00    -0.226 OA 
BRANCH  15  18
HETATM   18  C   UNL     1     -12.805  11.669  71.426  1.00  0.00    -0.461 A  
HETATM   19  C   UNL     1     -12.160  12.096  70.250  1.00  0.00    -0.385 A  
HETATM   20  C   UNL     1     -12.081  13.454  69.920  1.00  0.00    -0.322 A  
HETATM   21  H   UNL     1     -13.016  16.365  71.138  1.00  0.00     0.000 HD 
HETATM   22  C   UNL     1     -12.681  14.386  70.778  1.00  0.00    -0.360 A  
HETATM   23  C   UNL     1     -13.412  12.625  72.252  1.00  0.00    -0.541 A  
HETATM   24  C   UNL     1     -13.349  13.979  71.929  1.00  0.00    -0.489 A  
HETATM   25  O   UNL     1     -12.609  15.733  70.557  1.00  0.00    -0.421 OA 
BRANCH  20  26
HETATM   26  N   UNL     1     -11.439  13.905  68.752  1.00  0.00    -0.270 N  
HETATM   27  H   UNL     1     -10.472  14.209  68.855  1.00  0.00     0.000 HD 
HETATM   28  O   UNL     1     -11.324  14.402  66.543  1.00  0.00    -0.331 OA 
HETATM   29  C   UNL     1     -11.968  13.982  67.494  1.00  0.00    -0.395 C  
ENDBRANCH  20  26
ENDBRANCH  15  18
ENDBRANCH  14  15
ENDBRANCH  12  14
ENDBRANCH  10  12
ENDBRANCH   9  10
ENDBRANCH   6   9
ENDBRANCH   2   3
TORSDOF 8
ENDMDL
MODEL      154
REMARK 921   NORMALIZED FREE ENERGY PREDICTED BY IDOCK:   -4.66 KCAL/MOL
REMARK 922        TOTAL FREE ENERGY PREDICTED BY IDOCK:   -8.49 KCAL/MOL
REMARK 923 INTER-LIGAND FREE ENERGY PREDICTED BY IDOCK:   -7.61 KCAL/MOL
REMARK 924 INTRA-LIGAND FREE ENERGY PREDICTED BY IDOCK:   -0.88 KCAL/MOL
REMARK 927      BINDING AFFINITY PREDICTED BY RF-SCORE:    0.00 PKD
ROOT
HETATM    1  C   UNL     1      -5.498  19.916  68.210  1.00  0.00    -0.207 C  
HETATM    2  O   UNL     1      -6.780  20.185  67.659  1.00  0.00    -0.229 OA 
ENDROOT
BRANCH   2   3
HETATM    3  C   UNL     1      -7.775  19.298  67.962  1.00  0.00    -0.288 A  
HETATM    4  C   UNL     1      -9.139  19.584  68.026  1.00  0.00    -0.386 A  
HETATM    5  C   UNL     1     -10.050  18.594  68.408  1.00  0.00    -0.426 A  
HETATM    6  C   UNL     1      -9.609  17.300  68.717  1.00  0.00    -0.269 A  
HETATM    7  C   UNL     1      -7.339  18.002  68.236  1.00  0.00    -0.259 A  
HETATM    8  C   UNL     1      -8.245  17.010  68.612  1.00  0.00    -0.261 A  
BRANCH   6   9
HETATM    9  C   UNL     1     -10.550  16.267  69.290  1.00  0.00    -0.293 C  
BRANCH   9  10
HETATM   10  C   UNL     1     -11.642  15.719  68.341  1.00  0.00    -0.338 C  
HETATM   11  C   UNL     1     -11.020  15.178  67.047  1.00  0.00    -0.322 C  
BRANCH  10  12
HETATM   12  N   UNL     1     -12.413  14.615  68.947  1.00  0.00    -0.574 NA 
HETATM   13  H   UNL     1     -13.000  14.159  68.249  1.00  0.00     0.000 HD 
BRANCH  12  14
HETATM   14  C   UNL     1     -11.573  13.628  69.647  1.00  0.00    -0.278 C  
BRANCH  14  15
HETATM   15  C   UNL     1     -12.146  12.192  69.620  1.00  0.00    -0.218 C  
HETATM   16  H   UNL     1     -12.552  10.786  70.938  1.00  0.00     0.000 HD 
HETATM   17  O   UNL     1     -12.200  11.668  70.954  1.00  0.00    -0.364 OA 
BRANCH  15  18
HETATM   18  C   UNL     1     -11.428  11.246  68.680  1.00  0.00    -0.362 A  
HETATM   19  C   UNL     1     -11.219  11.632  67.343  1.00  0.00    -0.358 A  
HETATM   20  C   UNL     1     -10.581  10.779  66.434  1.00  0.00    -0.203 A  
HETATM   21  H   UNL     1      -9.242   7.774  66.369  1.00  0.00     0.000 HD 
HETATM   22  C   UNL     1     -10.133   9.532  66.890  1.00  0.00    -0.230 A  
HETATM   23  C   UNL     1     -10.950  10.001  69.109  1.00  0.00    -0.256 A  
HETATM   24  C   UNL     1     -10.305   9.147  68.217  1.00  0.00    -0.256 A  
HETATM   25  O   UNL     1      -9.546   8.620  66.060  1.00  0.00    -0.236 OA 
BRANCH  20  26
HETATM   26  N   UNL     1     -10.364  11.142  65.092  1.00  0.00    -0.282 N  
HETATM   27  H   UNL     1      -9.577  10.693  64.624  1.00  0.00     0.000 HD 
HETATM   28  O   UNL     1     -10.807  12.282  63.184  1.00  0.00    -0.377 OA 
HETATM   29  C   UNL     1     -11.089  12.028  64.346  1.00  0.00    -0.342 C  
ENDBRANCH  20  26
ENDBRANCH  15  18
ENDBRANCH  14  15
ENDBRANCH  12  14
ENDBRANCH  10  12
ENDBRANCH   9  10
ENDBRANCH   6   9
ENDBRANCH   2   3
TORSDOF 8
ENDMDL
MODEL      155
REMARK 921   NORMALIZED FREE ENERGY PREDICTED BY IDOCK:   -4.65 KCAL/MOL
REMARK 922        TOTAL FREE ENERGY PREDICTED BY IDOCK:   -8.48 KCAL/MOL
REMARK 923 INTER-LIGAND FREE ENERGY PREDICTED BY IDOCK:   -7.27 KCAL/MOL
REMARK 924 INTRA-LIGAND FREE ENERGY PREDICTED BY IDOCK:   -1.21 KCAL/MOL
REMARK 927      BINDING AFFINITY PREDICTED BY RF-SCORE:    0.00 PKD
ROOT
HETATM    1  C   UNL     1     -12.408  13.236  63.322  1.00  0.00    -0.238 C  
HETATM    2  O   UNL     1     -11.880  11.918  63.264  1.00  0.00    -0.421 OA 
ENDROOT
BRANCH   2   3
HETATM    3  C   UNL     1     -11.225  11.470  64.378  1.00  0.00    -0.256 A  
HETATM    4  C   UNL     1     -10.111  10.631  64.394  1.00  0.00    -0.418 A  
HETATM    5  C   UNL     1      -9.573  10.198  65.610  1.00  0.00    -0.302 A  
HETATM    6  C   UNL     1     -10.133  10.611  66.826  1.00  0.00    -0.272 A  
HETATM    7  C   UNL     1     -11.764  11.909  65.588  1.00  0.00    -0.214 A  
HETATM    8  C   UNL     1     -11.227  11.483  66.803  1.00  0.00    -0.350 A  
BRANCH   6   9
HETATM    9  C   UNL     1      -9.674  10.025  68.141  1.00  0.00    -0.156 C  
BRANCH   9  10
HETATM   10  C   UNL     1      -8.579  10.805  68.904  1.00  0.00    -0.153 C  
HETATM   11  C   UNL     1      -7.180  10.380  68.440  1.00  0.00    -0.080 C  
BRANCH  10  12
HETATM   12  N   UNL     1      -8.680  12.264  68.701  1.00  0.00    -0.367 NA 
HETATM   13  H   UNL     1      -8.672  12.754  69.595  1.00  0.00     0.000 HD 
BRANCH  12  14
HETATM   14  C   UNL     1      -7.647  12.803  67.801  1.00  0.00    -0.141 C  
BRANCH  14  15
HETATM   15  C   UNL     1      -7.492  14.340  67.880  1.00  0.00    -0.150 C  
HETATM   16  H   UNL     1      -7.432  15.703  69.300  1.00  0.00     0.000 HD 
HETATM   17  O   UNL     1      -7.527  14.759  69.251  1.00  0.00    -0.154 OA 
BRANCH  15  18
HETATM   18  C   UNL     1      -8.480  15.115  67.035  1.00  0.00    -0.259 A  
HETATM   19  C   UNL     1      -8.555  16.514  67.171  1.00  0.00    -0.208 A  
HETATM   20  C   UNL     1      -9.472  17.266  66.427  1.00  0.00    -0.263 A  
HETATM   21  H   UNL     1     -11.826  16.793  64.176  1.00  0.00     0.000 HD 
HETATM   22  C   UNL     1     -10.305  16.596  65.521  1.00  0.00    -0.247 A  
HETATM   23  C   UNL     1      -9.314  14.478  66.105  1.00  0.00    -0.242 A  
HETATM   24  C   UNL     1     -10.224  15.217  65.352  1.00  0.00    -0.414 A  
HETATM   25  O   UNL     1     -11.261  17.246  64.791  1.00  0.00    -0.890 OA 
BRANCH  20  26
HETATM   26  N   UNL     1      -9.567  18.664  66.548  1.00  0.00    -0.327 N  
HETATM   27  H   UNL     1      -9.384  19.206  65.703  1.00  0.00     0.000 HD 
HETATM   28  O   UNL     1      -9.923  20.601  67.672  1.00  0.00    -0.402 OA 
HETATM   29  C   UNL     1      -9.877  19.379  67.671  1.00  0.00    -0.349 C  
ENDBRANCH  20  26
ENDBRANCH  15  18
ENDBRANCH  14  15
ENDBRANCH  12  14
ENDBRANCH  10  12
ENDBRANCH   9  10
ENDBRANCH   6   9
ENDBRANCH   2   3
TORSDOF 8
ENDMDL
MODEL      156
REMARK 921   NORMALIZED FREE ENERGY PREDICTED BY IDOCK:   -4.65 KCAL/MOL
REMARK 922        TOTAL FREE ENERGY PREDICTED BY IDOCK:   -8.48 KCAL/MOL
REMARK 923 INTER-LIGAND FREE ENERGY PREDICTED BY IDOCK:   -7.73 KCAL/MOL
REMARK 924 INTRA-LIGAND FREE ENERGY PREDICTED BY IDOCK:   -0.75 KCAL/MOL
REMARK 927      BINDING AFFINITY PREDICTED BY RF-SCORE:    0.00 PKD
ROOT
HETATM    1  C   UNL     1      -9.832  20.367  67.305  1.00  0.00    -0.456 C  
HETATM    2  O   UNL     1     -10.458  19.202  66.784  1.00  0.00    -0.382 OA 
ENDROOT
BRANCH   2   3
HETATM    3  C   UNL     1      -9.730  18.045  66.826  1.00  0.00    -0.323 A  
HETATM    4  C   UNL     1      -9.988  16.886  66.095  1.00  0.00    -0.332 A  
HETATM    5  C   UNL     1      -9.198  15.746  66.278  1.00  0.00    -0.368 A  
HETATM    6  C   UNL     1      -8.130  15.757  67.186  1.00  0.00    -0.244 A  
HETATM    7  C   UNL     1      -8.647  18.068  67.705  1.00  0.00    -0.244 A  
HETATM    8  C   UNL     1      -7.854  16.935  67.887  1.00  0.00    -0.180 A  
BRANCH   6   9
HETATM    9  C   UNL     1      -7.373  14.494  67.521  1.00  0.00    -0.212 C  
BRANCH   9  10
HETATM   10  C   UNL     1      -8.132  13.159  67.335  1.00  0.00    -0.179 C  
HETATM   11  C   UNL     1      -7.153  11.991  67.166  1.00  0.00    -0.130 C  
BRANCH  10  12
HETATM   12  N   UNL     1      -8.997  12.837  68.488  1.00  0.00    -0.369 NA 
HETATM   13  H   UNL     1      -9.122  13.655  69.085  1.00  0.00     0.000 HD 
BRANCH  12  14
HETATM   14  C   UNL     1     -10.300  12.269  68.102  1.00  0.00    -0.216 C  
BRANCH  14  15
HETATM   15  C   UNL     1     -11.484  12.795  68.947  1.00  0.00    -0.305 C  
HETATM   16  H   UNL     1     -11.851  14.362  70.082  1.00  0.00     0.000 HD 
HETATM   17  O   UNL     1     -11.124  14.039  69.562  1.00  0.00    -0.230 OA 
BRANCH  15  18
HETATM   18  C   UNL     1     -12.019  11.806  69.962  1.00  0.00    -0.421 A  
HETATM   19  C   UNL     1     -11.733  10.437  69.807  1.00  0.00    -0.310 A  
HETATM   20  C   UNL     1     -12.228   9.487  70.708  1.00  0.00    -0.196 A  
HETATM   21  H   UNL     1     -14.090   9.369  73.419  1.00  0.00     0.000 HD 
HETATM   22  C   UNL     1     -13.002   9.931  71.788  1.00  0.00    -0.449 A  
HETATM   23  C   UNL     1     -12.779  12.220  71.065  1.00  0.00    -0.319 A  
HETATM   24  C   UNL     1     -13.269  11.285  71.974  1.00  0.00    -0.437 A  
HETATM   25  O   UNL     1     -13.565   9.068  72.686  1.00  0.00    -0.465 OA 
BRANCH  20  26
HETATM   26  N   UNL     1     -11.959   8.113  70.571  1.00  0.00    -0.484 N  
HETATM   27  H   UNL     1     -12.700   7.475  70.859  1.00  0.00     0.000 HD 
HETATM   28  O   UNL     1     -10.675   6.324  70.028  1.00  0.00    -0.231 OA 
HETATM   29  C   UNL     1     -10.814   7.538  70.095  1.00  0.00    -0.249 C  
ENDBRANCH  20  26
ENDBRANCH  15  18
ENDBRANCH  14  15
ENDBRANCH  12  14
ENDBRANCH  10  12
ENDBRANCH   9  10
ENDBRANCH   6   9
ENDBRANCH   2   3
TORSDOF 8
ENDMDL
MODEL      157
REMARK 921   NORMALIZED FREE ENERGY PREDICTED BY IDOCK:   -4.63 KCAL/MOL
REMARK 922        TOTAL FREE ENERGY PREDICTED BY IDOCK:   -8.46 KCAL/MOL
REMARK 923 INTER-LIGAND FREE ENERGY PREDICTED BY IDOCK:   -7.13 KCAL/MOL
REMARK 924 INTRA-LIGAND FREE ENERGY PREDICTED BY IDOCK:   -1.33 KCAL/MOL
REMARK 927      BINDING AFFINITY PREDICTED BY RF-SCORE:    0.00 PKD
ROOT
HETATM    1  C   UNL     1      -7.367  13.991  67.488  1.00  0.00    -0.170 C  
HETATM    2  O   UNL     1      -8.388  14.885  67.065  1.00  0.00    -0.207 OA 
ENDROOT
BRANCH   2   3
HETATM    3  C   UNL     1      -9.529  14.913  67.819  1.00  0.00    -0.203 A  
HETATM    4  C   UNL     1     -10.818  14.633  67.368  1.00  0.00    -0.298 A  
HETATM    5  C   UNL     1     -11.911  14.759  68.231  1.00  0.00    -0.316 A  
HETATM    6  C   UNL     1     -11.725  15.153  69.563  1.00  0.00    -0.351 A  
HETATM    7  C   UNL     1      -9.339  15.274  69.153  1.00  0.00    -0.236 A  
HETATM    8  C   UNL     1     -10.425  15.396  70.019  1.00  0.00    -0.301 A  
BRANCH   6   9
HETATM    9  C   UNL     1     -12.901  15.456  70.463  1.00  0.00    -0.425 C  
BRANCH   9  10
HETATM   10  C   UNL     1     -12.949  14.711  71.817  1.00  0.00    -0.335 C  
HETATM   11  C   UNL     1     -13.634  15.568  72.889  1.00  0.00    -0.633 C  
BRANCH  10  12
HETATM   12  N   UNL     1     -13.695  13.439  71.735  1.00  0.00    -0.322 NA 
HETATM   13  H   UNL     1     -14.056  13.293  70.792  1.00  0.00     0.000 HD 
BRANCH  12  14
HETATM   14  C   UNL     1     -12.914  12.273  72.182  1.00  0.00    -0.186 C  
BRANCH  14  15
HETATM   15  C   UNL     1     -13.269  10.964  71.437  1.00  0.00    -0.258 C  
HETATM   16  H   UNL     1     -13.777   9.127  71.929  1.00  0.00     0.000 HD 
HETATM   17  O   UNL     1     -13.560   9.931  72.387  1.00  0.00    -0.378 OA 
BRANCH  15  18
HETATM   18  C   UNL     1     -12.232  10.516  70.427  1.00  0.00    -0.415 A  
HETATM   19  C   UNL     1     -11.463   9.368  70.691  1.00  0.00    -0.344 A  
HETATM   20  C   UNL     1     -10.478   8.934  69.797  1.00  0.00    -0.212 A  
HETATM   21  H   UNL     1      -9.182   9.825  66.906  1.00  0.00     0.000 HD 
HETATM   22  C   UNL     1     -10.285   9.659  68.613  1.00  0.00    -0.189 A  
HETATM   23  C   UNL     1     -12.028  11.208  69.225  1.00  0.00    -0.421 A  
HETATM   24  C   UNL     1     -11.057  10.780  68.321  1.00  0.00    -0.327 A  
HETATM   25  O   UNL     1      -9.313   9.334  67.709  1.00  0.00    -0.129 OA 
BRANCH  20  26
HETATM   26  N   UNL     1      -9.696   7.791  70.041  1.00  0.00    -0.175 N  
HETATM   27  H   UNL     1      -9.141   7.445  69.258  1.00  0.00     0.000 HD 
HETATM   28  O   UNL     1      -8.890   6.097  71.315  1.00  0.00    -0.135 OA 
HETATM   29  C   UNL     1      -9.595   7.091  71.211  1.00  0.00    -0.164 C  
ENDBRANCH  20  26
ENDBRANCH  15  18
ENDBRANCH  14  15
ENDBRANCH  12  14
ENDBRANCH  10  12
ENDBRANCH   9  10
ENDBRANCH   6   9
ENDBRANCH   2   3
TORSDOF 8
ENDMDL
MODEL      158
REMARK 921   NORMALIZED FREE ENERGY PREDICTED BY IDOCK:   -4.61 KCAL/MOL
REMARK 922        TOTAL FREE ENERGY PREDICTED BY IDOCK:   -8.42 KCAL/MOL
REMARK 923 INTER-LIGAND FREE ENERGY PREDICTED BY IDOCK:   -5.80 KCAL/MOL
REMARK 924 INTRA-LIGAND FREE ENERGY PREDICTED BY IDOCK:   -2.63 KCAL/MOL
REMARK 927      BINDING AFFINITY PREDICTED BY RF-SCORE:    0.00 PKD
ROOT
HETATM    1  C   UNL     1      -7.815   7.505  69.410  1.00  0.00    -0.121 C  
HETATM    2  O   UNL     1      -6.842   8.076  68.545  1.00  0.00    -0.064 OA 
ENDROOT
BRANCH   2   3
HETATM    3  C   UNL     1      -7.055   9.368  68.151  1.00  0.00    -0.076 A  
HETATM    4  C   UNL     1      -6.710   9.917  66.917  1.00  0.00    -0.078 A  
HETATM    5  C   UNL     1      -6.930  11.275  66.663  1.00  0.00    -0.129 A  
HETATM    6  C   UNL     1      -7.512  12.098  67.637  1.00  0.00    -0.129 A  
HETATM    7  C   UNL     1      -7.664  10.178  69.110  1.00  0.00    -0.112 A  
HETATM    8  C   UNL     1      -7.890  11.531  68.859  1.00  0.00    -0.071 A  
BRANCH   6   9
HETATM    9  C   UNL     1      -7.604  13.593  67.447  1.00  0.00    -0.144 C  
BRANCH   9  10
HETATM   10  C   UNL     1      -8.680  14.334  68.276  1.00  0.00    -0.179 C  
HETATM   11  C   UNL     1      -8.031  15.231  69.338  1.00  0.00    -0.223 C  
BRANCH  10  12
HETATM   12  N   UNL     1      -9.539  15.198  67.442  1.00  0.00    -0.207 NA 
HETATM   13  H   UNL     1      -9.149  16.138  67.376  1.00  0.00     0.000 HD 
BRANCH  12  14
HETATM   14  C   UNL     1      -9.800  14.646  66.102  1.00  0.00    -0.312 C  
BRANCH  14  15
HETATM   15  C   UNL     1     -11.109  13.827  66.010  1.00  0.00    -0.291 C  
HETATM   16  H   UNL     1     -12.919  13.926  66.780  1.00  0.00     0.000 HD 
HETATM   17  O   UNL     1     -12.115  14.429  66.836  1.00  0.00    -0.425 OA 
BRANCH  15  18
HETATM   18  C   UNL     1     -10.949  12.351  66.313  1.00  0.00    -0.323 A  
HETATM   19  C   UNL     1     -11.412  11.846  67.541  1.00  0.00    -0.396 A  
HETATM   20  C   UNL     1     -11.261  10.494  67.871  1.00  0.00    -0.289 A  
HETATM   21  H   UNL     1     -10.013   7.743  66.565  1.00  0.00     0.000 HD 
HETATM   22  C   UNL     1     -10.655   9.643  66.938  1.00  0.00    -0.171 A  
HETATM   23  C   UNL     1     -10.364  11.470  65.393  1.00  0.00    -0.322 A  
HETATM   24  C   UNL     1     -10.218  10.120  65.705  1.00  0.00    -0.283 A  
HETATM   25  O   UNL     1     -10.424   8.321  67.198  1.00  0.00    -0.293 OA 
BRANCH  20  26
HETATM   26  N   UNL     1     -11.714   9.966  69.094  1.00  0.00    -0.462 N  
HETATM   27  H   UNL     1     -12.432   9.244  69.038  1.00  0.00     0.000 HD 
HETATM   28  O   UNL     1     -11.768   9.797  71.354  1.00  0.00    -0.365 OA 
HETATM   29  C   UNL     1     -11.299  10.313  70.349  1.00  0.00    -0.332 C  
ENDBRANCH  20  26
ENDBRANCH  15  18
ENDBRANCH  14  15
ENDBRANCH  12  14
ENDBRANCH  10  12
ENDBRANCH   9  10
ENDBRANCH   6   9
ENDBRANCH   2   3
TORSDOF 8
ENDMDL
MODEL      159
REMARK 921   NORMALIZED FREE ENERGY PREDICTED BY IDOCK:   -4.61 KCAL/MOL
REMARK 922        TOTAL FREE ENERGY PREDICTED BY IDOCK:   -8.42 KCAL/MOL
REMARK 923 INTER-LIGAND FREE ENERGY PREDICTED BY IDOCK:   -6.75 KCAL/MOL
REMARK 924 INTRA-LIGAND FREE ENERGY PREDICTED BY IDOCK:   -1.67 KCAL/MOL
REMARK 927      BINDING AFFINITY PREDICTED BY RF-SCORE:    0.00 PKD
ROOT
HETATM    1  C   UNL     1     -13.693   9.086  71.672  1.00  0.00    -0.387 C  
HETATM    2  O   UNL     1     -13.217  10.355  72.103  1.00  0.00    -0.452 OA 
ENDROOT
BRANCH   2   3
HETATM    3  C   UNL     1     -12.758  11.200  71.130  1.00  0.00    -0.408 A  
HETATM    4  C   UNL     1     -12.844  12.591  71.145  1.00  0.00    -0.303 A  
HETATM    5  C   UNL     1     -12.388  13.338  70.053  1.00  0.00    -0.269 A  
HETATM    6  C   UNL     1     -11.826  12.700  68.938  1.00  0.00    -0.345 A  
HETATM    7  C   UNL     1     -12.170  10.566  70.036  1.00  0.00    -0.323 A  
HETATM    8  C   UNL     1     -11.709  11.306  68.947  1.00  0.00    -0.409 A  
BRANCH   6   9
HETATM    9  C   UNL     1     -11.483  13.470  67.685  1.00  0.00    -0.351 C  
BRANCH   9  10
HETATM   10  C   UNL     1     -12.300  13.133  66.416  1.00  0.00    -0.231 C  
HETATM   11  C   UNL     1     -12.407  14.353  65.493  1.00  0.00    -0.352 C  
BRANCH  10  12
HETATM   12  N   UNL     1     -11.692  12.043  65.627  1.00  0.00    -0.404 NA 
HETATM   13  H   UNL     1     -12.290  11.789  64.841  1.00  0.00     0.000 HD 
BRANCH  12  14
HETATM   14  C   UNL     1     -10.326  12.344  65.168  1.00  0.00    -0.287 C  
BRANCH  14  15
HETATM   15  C   UNL     1      -9.352  11.147  65.280  1.00  0.00    -0.219 C  
HETATM   16  H   UNL     1      -9.362   9.241  64.787  1.00  0.00     0.000 HD 
HETATM   17  O   UNL     1      -9.959   9.976  64.718  1.00  0.00    -0.321 OA 
BRANCH  15  18
HETATM   18  C   UNL     1      -8.833  10.889  66.679  1.00  0.00    -0.164 A  
HETATM   19  C   UNL     1      -8.144  11.912  67.357  1.00  0.00    -0.165 A  
HETATM   20  C   UNL     1      -7.627  11.707  68.641  1.00  0.00    -0.133 A  
HETATM   21  H   UNL     1      -7.450   9.318  70.897  1.00  0.00     0.000 HD 
HETATM   22  C   UNL     1      -7.827  10.462  69.252  1.00  0.00    -0.147 A  
HETATM   23  C   UNL     1      -9.034   9.662  67.325  1.00  0.00    -0.146 A  
HETATM   24  C   UNL     1      -8.533   9.450  68.608  1.00  0.00    -0.119 A  
HETATM   25  O   UNL     1      -7.314  10.162  70.483  1.00  0.00    -0.292 OA 
BRANCH  20  26
HETATM   26  N   UNL     1      -6.932  12.713  69.338  1.00  0.00    -0.315 N  
HETATM   27  H   UNL     1      -6.582  12.465  70.263  1.00  0.00     0.000 HD 
HETATM   28  O   UNL     1      -6.067  14.792  69.606  1.00  0.00    -0.104 OA 
HETATM   29  C   UNL     1      -6.674  13.987  68.914  1.00  0.00    -0.105 C  
ENDBRANCH  20  26
ENDBRANCH  15  18
ENDBRANCH  14  15
ENDBRANCH  12  14
ENDBRANCH  10  12
ENDBRANCH   9  10
ENDBRANCH   6   9
ENDBRANCH   2   3
TORSDOF 8
ENDMDL
MODEL      160
REMARK 921   NORMALIZED FREE ENERGY PREDICTED BY IDOCK:   -4.60 KCAL/MOL
REMARK 922        TOTAL FREE ENERGY PREDICTED BY IDOCK:   -8.41 KCAL/MOL
REMARK 923 INTER-LIGAND FREE ENERGY PREDICTED BY IDOCK:   -7.25 KCAL/MOL
REMARK 924 INTRA-LIGAND FREE ENERGY PREDICTED BY IDOCK:   -1.16 KCAL/MOL
REMARK 927      BINDING AFFINITY PREDICTED BY RF-SCORE:    0.00 PKD
ROOT
HETATM    1  C   UNL     1     -12.023   8.680  72.251  1.00  0.00    -0.368 C  
HETATM    2  O   UNL     1     -12.382   9.218  70.985  1.00  0.00    -0.291 OA 
ENDROOT
BRANCH   2   3
HETATM    3  C   UNL     1     -12.440  10.581  70.892  1.00  0.00    -0.390 A  
HETATM    4  C   UNL     1     -13.006  11.444  71.830  1.00  0.00    -0.519 A  
HETATM    5  C   UNL     1     -13.055  12.820  71.583  1.00  0.00    -0.428 A  
HETATM    6  C   UNL     1     -12.524  13.351  70.400  1.00  0.00    -0.322 A  
HETATM    7  C   UNL     1     -11.881  11.111  69.729  1.00  0.00    -0.422 A  
HETATM    8  C   UNL     1     -11.923  12.484  69.482  1.00  0.00    -0.329 A  
BRANCH   6   9
HETATM    9  C   UNL     1     -12.714  14.805  70.039  1.00  0.00    -0.199 C  
BRANCH   9  10
HETATM   10  C   UNL     1     -11.621  15.789  70.519  1.00  0.00    -0.375 C  
HETATM   11  C   UNL     1     -11.769  16.083  72.017  1.00  0.00    -0.588 C  
BRANCH  10  12
HETATM   12  N   UNL     1     -10.257  15.262  70.312  1.00  0.00    -0.499 NA 
HETATM   13  H   UNL     1     -10.289  14.300  69.974  1.00  0.00     0.000 HD 
BRANCH  12  14
HETATM   14  C   UNL     1      -9.434  16.100  69.424  1.00  0.00    -0.198 C  
BRANCH  14  15
HETATM   15  C   UNL     1      -9.589  15.757  67.924  1.00  0.00    -0.214 C  
HETATM   16  H   UNL     1     -10.950  16.020  66.526  1.00  0.00     0.000 HD 
HETATM   17  O   UNL     1     -10.855  16.230  67.447  1.00  0.00    -0.313 OA 
BRANCH  15  18
HETATM   18  C   UNL     1      -9.380  14.294  67.590  1.00  0.00    -0.201 A  
HETATM   19  C   UNL     1      -8.608  13.494  68.452  1.00  0.00    -0.142 A  
HETATM   20  C   UNL     1      -8.369  12.145  68.168  1.00  0.00    -0.170 A  
HETATM   21  H   UNL     1      -9.098   9.928  65.847  1.00  0.00     0.000 HD 
HETATM   22  C   UNL     1      -8.936  11.595  67.010  1.00  0.00    -0.182 A  
HETATM   23  C   UNL     1      -9.949  13.709  66.450  1.00  0.00    -0.299 A  
HETATM   24  C   UNL     1      -9.727  12.365  66.162  1.00  0.00    -0.254 A  
HETATM   25  O   UNL     1      -8.714  10.301  66.632  1.00  0.00    -0.126 OA 
BRANCH  20  26
HETATM   26  N   UNL     1      -7.598  11.326  69.014  1.00  0.00    -0.212 N  
HETATM   27  H   UNL     1      -7.904  10.358  69.109  1.00  0.00     0.000 HD 
HETATM   28  O   UNL     1      -5.891  10.892  70.442  1.00  0.00    -0.101 OA 
HETATM   29  C   UNL     1      -6.485  11.683  69.722  1.00  0.00    -0.111 C  
ENDBRANCH  20  26
ENDBRANCH  15  18
ENDBRANCH  14  15
ENDBRANCH  12  14
ENDBRANCH  10  12
ENDBRANCH   9  10
ENDBRANCH   6   9
ENDBRANCH   2   3
TORSDOF 8
ENDMDL
MODEL      161
REMARK 921   NORMALIZED FREE ENERGY PREDICTED BY IDOCK:   -4.60 KCAL/MOL
REMARK 922        TOTAL FREE ENERGY PREDICTED BY IDOCK:   -8.41 KCAL/MOL
REMARK 923 INTER-LIGAND FREE ENERGY PREDICTED BY IDOCK:   -7.71 KCAL/MOL
REMARK 924 INTRA-LIGAND FREE ENERGY PREDICTED BY IDOCK:   -0.70 KCAL/MOL
REMARK 927      BINDING AFFINITY PREDICTED BY RF-SCORE:    0.00 PKD
ROOT
HETATM    1  C   UNL     1      -8.782  17.675  68.211  1.00  0.00    -0.276 C  
HETATM    2  O   UNL     1     -10.171  17.389  68.309  1.00  0.00    -0.319 OA 
ENDROOT
BRANCH   2   3
HETATM    3  C   UNL     1     -10.579  16.168  67.846  1.00  0.00    -0.309 A  
HETATM    4  C   UNL     1     -11.652  15.423  68.333  1.00  0.00    -0.368 A  
HETATM    5  C   UNL     1     -11.927  14.156  67.808  1.00  0.00    -0.389 A  
HETATM    6  C   UNL     1     -11.138  13.624  66.778  1.00  0.00    -0.315 A  
HETATM    7  C   UNL     1      -9.813  15.655  66.799  1.00  0.00    -0.255 A  
HETATM    8  C   UNL     1     -10.087  14.394  66.269  1.00  0.00    -0.308 A  
BRANCH   6   9
HETATM    9  C   UNL     1     -11.312  12.197  66.314  1.00  0.00    -0.411 C  
BRANCH   9  10
HETATM   10  C   UNL     1     -11.042  11.090  67.359  1.00  0.00    -0.305 C  
HETATM   11  C   UNL     1      -9.769  11.391  68.160  1.00  0.00    -0.194 C  
BRANCH  10  12
HETATM   12  N   UNL     1     -12.145  10.951  68.332  1.00  0.00    -0.818 NA 
HETATM   13  H   UNL     1     -12.659  10.085  68.174  1.00  0.00     0.000 HD 
BRANCH  12  14
HETATM   14  C   UNL     1     -11.705  11.049  69.734  1.00  0.00    -0.335 C  
BRANCH  14  15
HETATM   15  C   UNL     1     -12.515  10.157  70.704  1.00  0.00    -0.284 C  
HETATM   16  H   UNL     1     -13.522  10.407  72.378  1.00  0.00     0.000 HD 
HETATM   17  O   UNL     1     -13.024  10.954  71.782  1.00  0.00    -0.452 OA 
BRANCH  15  18
HETATM   18  C   UNL     1     -11.766   8.943  71.214  1.00  0.00    -0.370 A  
HETATM   19  C   UNL     1     -10.957   8.210  70.327  1.00  0.00    -0.240 A  
HETATM   20  C   UNL     1     -10.268   7.068  70.751  1.00  0.00    -0.194 A  
HETATM   21  H   UNL     1      -9.862   5.284  73.487  1.00  0.00     0.000 HD 
HETATM   22  C   UNL     1     -10.383   6.678  72.092  1.00  0.00    -0.200 A  
HETATM   23  C   UNL     1     -11.845   8.538  72.554  1.00  0.00    -0.398 A  
HETATM   24  C   UNL     1     -11.155   7.409  72.990  1.00  0.00    -0.390 A  
HETATM   25  O   UNL     1      -9.784   5.549  72.577  1.00  0.00    -0.152 OA 
BRANCH  20  26
HETATM   26  N   UNL     1      -9.455   6.318  69.882  1.00  0.00    -0.149 N  
HETATM   27  H   UNL     1      -8.458   6.533  69.894  1.00  0.00     0.000 HD 
HETATM   28  O   UNL     1      -9.062   4.745  68.296  1.00  0.00    -0.108 OA 
HETATM   29  C   UNL     1      -9.852   5.332  69.022  1.00  0.00    -0.167 C  
ENDBRANCH  20  26
ENDBRANCH  15  18
ENDBRANCH  14  15
ENDBRANCH  12  14
ENDBRANCH  10  12
ENDBRANCH   9  10
ENDBRANCH   6   9
ENDBRANCH   2   3
TORSDOF 8
ENDMDL
MODEL      162
REMARK 921   NORMALIZED FREE ENERGY PREDICTED BY IDOCK:   -4.59 KCAL/MOL
REMARK 922        TOTAL FREE ENERGY PREDICTED BY IDOCK:   -8.39 KCAL/MOL
REMARK 923 INTER-LIGAND FREE ENERGY PREDICTED BY IDOCK:   -6.92 KCAL/MOL
REMARK 924 INTRA-LIGAND FREE ENERGY PREDICTED BY IDOCK:   -1.47 KCAL/MOL
REMARK 927      BINDING AFFINITY PREDICTED BY RF-SCORE:    0.00 PKD
ROOT
HETATM    1  C   UNL     1      -9.804  19.697  67.219  1.00  0.00    -0.371 C  
HETATM    2  O   UNL     1     -10.439  18.432  67.085  1.00  0.00    -0.381 OA 
ENDROOT
BRANCH   2   3
HETATM    3  C   UNL     1      -9.660  17.330  67.303  1.00  0.00    -0.254 A  
HETATM    4  C   UNL     1      -9.266  16.399  66.342  1.00  0.00    -0.335 A  
HETATM    5  C   UNL     1      -8.516  15.278  66.711  1.00  0.00    -0.290 A  
HETATM    6  C   UNL     1      -8.138  15.081  68.046  1.00  0.00    -0.132 A  
HETATM    7  C   UNL     1      -9.256  17.153  68.626  1.00  0.00    -0.263 A  
HETATM    8  C   UNL     1      -8.504  16.038  68.998  1.00  0.00    -0.244 A  
BRANCH   6   9
HETATM    9  C   UNL     1      -7.475  13.799  68.492  1.00  0.00    -0.119 C  
BRANCH   9  10
HETATM   10  C   UNL     1      -7.955  12.496  67.811  1.00  0.00    -0.163 C  
HETATM   11  C   UNL     1      -6.766  11.694  67.266  1.00  0.00    -0.124 C  
BRANCH  10  12
HETATM   12  N   UNL     1      -8.687  11.611  68.739  1.00  0.00    -0.352 NA 
HETATM   13  H   UNL     1      -9.320  12.151  69.329  1.00  0.00     0.000 HD 
BRANCH  12  14
HETATM   14  C   UNL     1      -9.408  10.520  68.062  1.00  0.00    -0.145 C  
BRANCH  14  15
HETATM   15  C   UNL     1     -10.814  10.923  67.556  1.00  0.00    -0.272 C  
HETATM   16  H   UNL     1     -11.736  11.029  65.819  1.00  0.00     0.000 HD 
HETATM   17  O   UNL     1     -10.873  10.781  66.130  1.00  0.00    -0.172 OA 
BRANCH  15  18
HETATM   18  C   UNL     1     -11.270  12.298  67.999  1.00  0.00    -0.321 A  
HETATM   19  C   UNL     1     -11.448  12.555  69.370  1.00  0.00    -0.327 A  
HETATM   20  C   UNL     1     -11.892  13.804  69.821  1.00  0.00    -0.331 A  
HETATM   21  H   UNL     1     -12.787  16.718  68.580  1.00  0.00     0.000 HD 
HETATM   22  C   UNL     1     -12.138  14.807  68.874  1.00  0.00    -0.205 A  
HETATM   23  C   UNL     1     -11.506  13.328  67.078  1.00  0.00    -0.378 A  
HETATM   24  C   UNL     1     -11.938  14.578  67.515  1.00  0.00    -0.358 A  
HETATM   25  O   UNL     1     -12.620  16.037  69.223  1.00  0.00     0.061 OA 
BRANCH  20  26
HETATM   26  N   UNL     1     -12.079  14.084  71.187  1.00  0.00    -0.435 N  
HETATM   27  H   UNL     1     -11.293  14.514  71.673  1.00  0.00     0.000 HD 
HETATM   28  O   UNL     1     -13.255  14.118  73.126  1.00  0.00    -0.613 OA 
HETATM   29  C   UNL     1     -13.198  13.845  71.935  1.00  0.00    -0.397 C  
ENDBRANCH  20  26
ENDBRANCH  15  18
ENDBRANCH  14  15
ENDBRANCH  12  14
ENDBRANCH  10  12
ENDBRANCH   9  10
ENDBRANCH   6   9
ENDBRANCH   2   3
TORSDOF 8
ENDMDL
MODEL      163
REMARK 921   NORMALIZED FREE ENERGY PREDICTED BY IDOCK:   -4.57 KCAL/MOL
REMARK 922        TOTAL FREE ENERGY PREDICTED BY IDOCK:   -8.37 KCAL/MOL
REMARK 923 INTER-LIGAND FREE ENERGY PREDICTED BY IDOCK:   -6.88 KCAL/MOL
REMARK 924 INTRA-LIGAND FREE ENERGY PREDICTED BY IDOCK:   -1.49 KCAL/MOL
REMARK 927      BINDING AFFINITY PREDICTED BY RF-SCORE:    0.00 PKD
ROOT
HETATM    1  C   UNL     1      -6.445   7.935  65.896  1.00  0.00    -0.042 C  
HETATM    2  O   UNL     1      -6.578   9.269  66.368  1.00  0.00    -0.066 OA 
ENDROOT
BRANCH   2   3
HETATM    3  C   UNL     1      -7.586   9.506  67.261  1.00  0.00    -0.091 A  
HETATM    4  C   UNL     1      -7.651  10.566  68.164  1.00  0.00    -0.091 A  
HETATM    5  C   UNL     1      -8.713  10.658  69.069  1.00  0.00    -0.152 A  
HETATM    6  C   UNL     1      -9.733   9.697  69.072  1.00  0.00    -0.169 A  
HETATM    7  C   UNL     1      -8.617   8.566  67.240  1.00  0.00    -0.123 A  
HETATM    8  C   UNL     1      -9.681   8.657  68.138  1.00  0.00    -0.178 A  
BRANCH   6   9
HETATM    9  C   UNL     1     -10.795   9.684  70.146  1.00  0.00    -0.325 C  
BRANCH   9  10
HETATM   10  C   UNL     1     -11.925  10.733  70.018  1.00  0.00    -0.347 C  
HETATM   11  C   UNL     1     -13.124  10.356  70.898  1.00  0.00    -0.412 C  
BRANCH  10  12
HETATM   12  N   UNL     1     -11.490  12.082  70.430  1.00  0.00    -0.424 NA 
HETATM   13  H   UNL     1     -10.480  12.110  70.568  1.00  0.00     0.000 HD 
BRANCH  12  14
HETATM   14  C   UNL     1     -11.920  13.144  69.504  1.00  0.00    -0.294 C  
BRANCH  14  15
HETATM   15  C   UNL     1     -10.886  13.462  68.398  1.00  0.00    -0.264 C  
HETATM   16  H   UNL     1      -9.806  15.015  67.849  1.00  0.00     0.000 HD 
HETATM   17  O   UNL     1     -10.441  14.819  68.528  1.00  0.00    -0.236 OA 
BRANCH  15  18
HETATM   18  C   UNL     1     -11.360  13.164  66.990  1.00  0.00    -0.349 A  
HETATM   19  C   UNL     1     -10.790  12.087  66.286  1.00  0.00    -0.316 A  
HETATM   20  C   UNL     1     -11.181  11.793  64.975  1.00  0.00    -0.257 A  
HETATM   21  H   UNL     1     -13.254  12.930  62.685  1.00  0.00     0.000 HD 
HETATM   22  C   UNL     1     -12.174  12.582  64.380  1.00  0.00    -0.449 A  
HETATM   23  C   UNL     1     -12.365  13.922  66.375  1.00  0.00    -0.468 A  
HETATM   24  C   UNL     1     -12.770  13.632  65.074  1.00  0.00    -0.384 A  
HETATM   25  O   UNL     1     -12.580  12.395  63.089  1.00  0.00    -0.591 OA 
BRANCH  20  26
HETATM   26  N   UNL     1     -10.624  10.723  64.249  1.00  0.00    -0.392 N  
HETATM   27  H   UNL     1     -11.241  10.257  63.584  1.00  0.00     0.000 HD 
HETATM   28  O   UNL     1      -8.966   9.293  63.664  1.00  0.00    -0.180 OA 
HETATM   29  C   UNL     1      -9.349  10.240  64.336  1.00  0.00    -0.277 C  
ENDBRANCH  20  26
ENDBRANCH  15  18
ENDBRANCH  14  15
ENDBRANCH  12  14
ENDBRANCH  10  12
ENDBRANCH   9  10
ENDBRANCH   6   9
ENDBRANCH   2   3
TORSDOF 8
ENDMDL
MODEL      164
REMARK 921   NORMALIZED FREE ENERGY PREDICTED BY IDOCK:   -4.54 KCAL/MOL
REMARK 922        TOTAL FREE ENERGY PREDICTED BY IDOCK:   -8.32 KCAL/MOL
REMARK 923 INTER-LIGAND FREE ENERGY PREDICTED BY IDOCK:   -7.69 KCAL/MOL
REMARK 924 INTRA-LIGAND FREE ENERGY PREDICTED BY IDOCK:   -0.63 KCAL/MOL
REMARK 927      BINDING AFFINITY PREDICTED BY RF-SCORE:    0.00 PKD
ROOT
HETATM    1  C   UNL     1     -10.694   4.515  73.583  1.00  0.00    -0.272 C  
HETATM    2  O   UNL     1     -11.508   5.680  73.563  1.00  0.00    -0.032 OA 
ENDROOT
BRANCH   2   3
HETATM    3  C   UNL     1     -11.215   6.616  72.609  1.00  0.00    -0.249 A  
HETATM    4  C   UNL     1     -10.908   7.956  72.841  1.00  0.00    -0.451 A  
HETATM    5  C   UNL     1     -10.688   8.825  71.768  1.00  0.00    -0.413 A  
HETATM    6  C   UNL     1     -10.758   8.360  70.448  1.00  0.00    -0.244 A  
HETATM    7  C   UNL     1     -11.253   6.144  71.297  1.00  0.00    -0.348 A  
HETATM    8  C   UNL     1     -11.028   7.006  70.224  1.00  0.00    -0.304 A  
BRANCH   6   9
HETATM    9  C   UNL     1     -10.689   9.312  69.276  1.00  0.00    -0.211 C  
BRANCH   9  10
HETATM   10  C   UNL     1      -9.800  10.565  69.451  1.00  0.00    -0.182 C  
HETATM   11  C   UNL     1      -8.318  10.217  69.255  1.00  0.00    -0.160 C  
BRANCH  10  12
HETATM   12  N   UNL     1     -10.128  11.629  68.482  1.00  0.00    -0.205 NA 
HETATM   13  H   UNL     1     -10.037  11.287  67.525  1.00  0.00     0.000 HD 
BRANCH  12  14
HETATM   14  C   UNL     1     -11.456  12.228  68.697  1.00  0.00    -0.307 C  
BRANCH  14  15
HETATM   15  C   UNL     1     -11.429  13.768  68.844  1.00  0.00    -0.304 C  
HETATM   16  H   UNL     1     -12.490  15.138  69.779  1.00  0.00     0.000 HD 
HETATM   17  O   UNL     1     -12.506  14.192  69.689  1.00  0.00    -0.310 OA 
BRANCH  15  18
HETATM   18  C   UNL     1     -11.419  14.523  67.531  1.00  0.00    -0.375 A  
HETATM   19  C   UNL     1     -10.771  15.770  67.459  1.00  0.00    -0.317 A  
HETATM   20  C   UNL     1     -10.760  16.512  66.272  1.00  0.00    -0.146 A  
HETATM   21  H   UNL     1     -11.902  16.292  63.194  1.00  0.00     0.000 HD 
HETATM   22  C   UNL     1     -11.393  15.977  65.143  1.00  0.00    -0.074 A  
HETATM   23  C   UNL     1     -12.027  14.006  66.379  1.00  0.00    -0.462 A  
HETATM   24  C   UNL     1     -12.013  14.731  65.189  1.00  0.00    -0.278 A  
HETATM   25  O   UNL     1     -11.472  16.655  63.960  1.00  0.00    -1.192 OA 
BRANCH  20  26
HETATM   26  N   UNL     1     -10.120  17.762  66.176  1.00  0.00    -0.328 N  
HETATM   27  H   UNL     1     -10.724  18.569  66.018  1.00  0.00     0.000 HD 
HETATM   28  O   UNL     1      -8.324  19.145  66.162  1.00  0.00    -0.358 OA 
HETATM   29  C   UNL     1      -8.781  18.016  66.272  1.00  0.00    -0.168 C  
ENDBRANCH  20  26
ENDBRANCH  15  18
ENDBRANCH  14  15
ENDBRANCH  12  14
ENDBRANCH  10  12
ENDBRANCH   9  10
ENDBRANCH   6   9
ENDBRANCH   2   3
TORSDOF 8
ENDMDL
MODEL      165
REMARK 921   NORMALIZED FREE ENERGY PREDICTED BY IDOCK:   -4.53 KCAL/MOL
REMARK 922        TOTAL FREE ENERGY PREDICTED BY IDOCK:   -8.31 KCAL/MOL
REMARK 923 INTER-LIGAND FREE ENERGY PREDICTED BY IDOCK:   -7.43 KCAL/MOL
REMARK 924 INTRA-LIGAND FREE ENERGY PREDICTED BY IDOCK:   -0.88 KCAL/MOL
REMARK 927      BINDING AFFINITY PREDICTED BY RF-SCORE:    0.00 PKD
ROOT
HETATM    1  C   UNL     1      -9.285   3.606  65.633  1.00  0.00    -0.156 C  
HETATM    2  O   UNL     1     -10.042   4.323  66.599  1.00  0.00    -0.221 OA 
ENDROOT
BRANCH   2   3
HETATM    3  C   UNL     1      -9.964   5.687  66.548  1.00  0.00    -0.176 A  
HETATM    4  C   UNL     1     -10.891   6.583  67.081  1.00  0.00    -0.472 A  
HETATM    5  C   UNL     1     -10.723   7.960  66.905  1.00  0.00    -0.219 A  
HETATM    6  C   UNL     1      -9.616   8.460  66.206  1.00  0.00    -0.286 A  
HETATM    7  C   UNL     1      -8.845   6.184  65.880  1.00  0.00    -0.151 A  
HETATM    8  C   UNL     1      -8.670   7.557  65.708  1.00  0.00    -0.142 A  
BRANCH   6   9
HETATM    9  C   UNL     1      -9.502   9.926  65.862  1.00  0.00    -0.272 C  
BRANCH   9  10
HETATM   10  C   UNL     1      -9.688  10.929  67.025  1.00  0.00    -0.176 C  
HETATM   11  C   UNL     1      -8.788  10.563  68.212  1.00  0.00    -0.139 C  
BRANCH  10  12
HETATM   12  N   UNL     1      -9.353  12.313  66.635  1.00  0.00    -0.224 NA 
HETATM   13  H   UNL     1      -9.779  12.549  65.739  1.00  0.00     0.000 HD 
BRANCH  12  14
HETATM   14  C   UNL     1      -9.703  13.311  67.660  1.00  0.00    -0.219 C  
BRANCH  14  15
HETATM   15  C   UNL     1     -11.206  13.678  67.684  1.00  0.00    -0.279 C  
HETATM   16  H   UNL     1     -12.333  15.153  67.027  1.00  0.00     0.000 HD 
HETATM   17  O   UNL     1     -11.410  14.927  67.012  1.00  0.00    -0.343 OA 
BRANCH  15  18
HETATM   18  C   UNL     1     -11.830  13.679  69.064  1.00  0.00    -0.393 A  
HETATM   19  C   UNL     1     -12.030  12.456  69.730  1.00  0.00    -0.359 A  
HETATM   20  C   UNL     1     -12.626  12.410  70.996  1.00  0.00    -0.254 A  
HETATM   21  H   UNL     1     -13.889  14.478  73.223  1.00  0.00     0.000 HD 
HETATM   22  C   UNL     1     -13.002  13.617  71.601  1.00  0.00    -0.362 A  
HETATM   23  C   UNL     1     -12.199  14.869  69.705  1.00  0.00    -0.299 A  
HETATM   24  C   UNL     1     -12.784  14.838  70.969  1.00  0.00    -0.411 A  
HETATM   25  O   UNL     1     -13.634  13.660  72.812  1.00  0.00    -0.672 OA 
BRANCH  20  26
HETATM   26  N   UNL     1     -12.839  11.200  71.681  1.00  0.00    -0.433 N  
HETATM   27  H   UNL     1     -13.569  11.204  72.393  1.00  0.00     0.000 HD 
HETATM   28  O   UNL     1     -12.434   9.020  72.157  1.00  0.00    -0.364 OA 
HETATM   29  C   UNL     1     -12.178  10.018  71.497  1.00  0.00    -0.405 C  
ENDBRANCH  20  26
ENDBRANCH  15  18
ENDBRANCH  14  15
ENDBRANCH  12  14
ENDBRANCH  10  12
ENDBRANCH   9  10
ENDBRANCH   6   9
ENDBRANCH   2   3
TORSDOF 8
ENDMDL
MODEL      166
REMARK 921   NORMALIZED FREE ENERGY PREDICTED BY IDOCK:   -4.51 KCAL/MOL
REMARK 922        TOTAL FREE ENERGY PREDICTED BY IDOCK:   -8.28 KCAL/MOL
REMARK 923 INTER-LIGAND FREE ENERGY PREDICTED BY IDOCK:   -7.09 KCAL/MOL
REMARK 924 INTRA-LIGAND FREE ENERGY PREDICTED BY IDOCK:   -1.18 KCAL/MOL
REMARK 927      BINDING AFFINITY PREDICTED BY RF-SCORE:    0.00 PKD
ROOT
HETATM    1  C   UNL     1      -9.159   9.638  62.620  1.00  0.00    -0.249 C  
HETATM    2  O   UNL     1      -8.813   9.703  63.997  1.00  0.00    -0.208 OA 
ENDROOT
BRANCH   2   3
HETATM    3  C   UNL     1      -9.360  10.728  64.718  1.00  0.00    -0.226 A  
HETATM    4  C   UNL     1      -8.745  11.416  65.764  1.00  0.00    -0.062 A  
HETATM    5  C   UNL     1      -9.442  12.408  66.462  1.00  0.00    -0.242 A  
HETATM    6  C   UNL     1     -10.759  12.734  66.113  1.00  0.00    -0.297 A  
HETATM    7  C   UNL     1     -10.660  11.074  64.348  1.00  0.00    -0.395 A  
HETATM    8  C   UNL     1     -11.356  12.067  65.038  1.00  0.00    -0.365 A  
BRANCH   6   9
HETATM    9  C   UNL     1     -11.583  13.679  66.955  1.00  0.00    -0.389 C  
BRANCH   9  10
HETATM   10  C   UNL     1     -12.233  13.087  68.228  1.00  0.00     0.009 C  
HETATM   11  C   UNL     1     -11.280  12.109  68.926  1.00  0.00    -0.320 C  
BRANCH  10  12
HETATM   12  N   UNL     1     -12.590  14.126  69.214  1.00  0.00    -0.440 NA 
HETATM   13  H   UNL     1     -13.579  14.073  69.454  1.00  0.00     0.000 HD 
BRANCH  12  14
HETATM   14  C   UNL     1     -11.756  14.092  70.428  1.00  0.00    -0.222 C  
BRANCH  14  15
HETATM   15  C   UNL     1     -10.850  15.334  70.597  1.00  0.00    -0.242 C  
HETATM   16  H   UNL     1     -11.067  17.195  71.203  1.00  0.00     0.000 HD 
HETATM   17  O   UNL     1     -11.623  16.432  71.099  1.00  0.00    -0.400 OA 
BRANCH  15  18
HETATM   18  C   UNL     1     -10.076  15.720  69.354  1.00  0.00    -0.268 A  
HETATM   19  C   UNL     1     -10.579  16.732  68.515  1.00  0.00    -0.354 A  
HETATM   20  C   UNL     1      -9.908  17.102  67.344  1.00  0.00    -0.264 A  
HETATM   21  H   UNL     1      -7.196  16.282  65.670  1.00  0.00     0.000 HD 
HETATM   22  C   UNL     1      -8.705  16.456  67.031  1.00  0.00    -0.199 A  
HETATM   23  C   UNL     1      -8.860  15.107  69.023  1.00  0.00    -0.219 A  
HETATM   24  C   UNL     1      -8.177  15.474  67.865  1.00  0.00    -0.149 A  
HETATM   25  O   UNL     1      -8.012  16.721  65.883  1.00  0.00    -0.378 OA 
BRANCH  20  26
HETATM   26  N   UNL     1     -10.394  18.108  66.488  1.00  0.00    -0.385 N  
HETATM   27  H   UNL     1     -11.117  17.829  65.826  1.00  0.00     0.000 HD 
HETATM   28  O   UNL     1     -10.485  20.213  65.652  1.00  0.00    -0.416 OA 
HETATM   29  C   UNL     1     -10.005  19.418  66.447  1.00  0.00    -0.414 C  
ENDBRANCH  20  26
ENDBRANCH  15  18
ENDBRANCH  14  15
ENDBRANCH  12  14
ENDBRANCH  10  12
ENDBRANCH   9  10
ENDBRANCH   6   9
ENDBRANCH   2   3
TORSDOF 8
ENDMDL
MODEL      167
REMARK 921   NORMALIZED FREE ENERGY PREDICTED BY IDOCK:   -4.50 KCAL/MOL
REMARK 922        TOTAL FREE ENERGY PREDICTED BY IDOCK:   -8.26 KCAL/MOL
REMARK 923 INTER-LIGAND FREE ENERGY PREDICTED BY IDOCK:   -7.64 KCAL/MOL
REMARK 924 INTRA-LIGAND FREE ENERGY PREDICTED BY IDOCK:   -0.62 KCAL/MOL
REMARK 927      BINDING AFFINITY PREDICTED BY RF-SCORE:    0.00 PKD
ROOT
HETATM    1  C   UNL     1      -8.133   8.382  68.004  1.00  0.00    -0.123 C  
HETATM    2  O   UNL     1      -8.921   8.465  66.824  1.00  0.00    -0.134 OA 
ENDROOT
BRANCH   2   3
HETATM    3  C   UNL     1      -9.126   9.716  66.311  1.00  0.00    -0.160 A  
HETATM    4  C   UNL     1      -8.882  10.922  66.967  1.00  0.00    -0.141 A  
HETATM    5  C   UNL     1      -9.195  12.137  66.349  1.00  0.00    -0.207 A  
HETATM    6  C   UNL     1      -9.743  12.161  65.059  1.00  0.00    -0.112 A  
HETATM    7  C   UNL     1      -9.641   9.739  65.015  1.00  0.00    -0.333 A  
HETATM    8  C   UNL     1      -9.949  10.949  64.392  1.00  0.00    -0.381 A  
BRANCH   6   9
HETATM    9  C   UNL     1     -10.241  13.447  64.442  1.00  0.00    -0.262 C  
BRANCH   9  10
HETATM   10  C   UNL     1     -11.685  13.874  64.796  1.00  0.00    -0.386 C  
HETATM   11  C   UNL     1     -12.580  12.647  65.017  1.00  0.00    -0.504 C  
BRANCH  10  12
HETATM   12  N   UNL     1     -11.747  14.684  66.029  1.00  0.00    -0.341 NA 
HETATM   13  H   UNL     1     -11.938  14.096  66.839  1.00  0.00     0.000 HD 
BRANCH  12  14
HETATM   14  C   UNL     1     -10.543  15.504  66.252  1.00  0.00    -0.307 C  
BRANCH  14  15
HETATM   15  C   UNL     1     -10.305  15.870  67.736  1.00  0.00    -0.278 C  
HETATM   16  H   UNL     1      -8.753  16.097  68.925  1.00  0.00     0.000 HD 
HETATM   17  O   UNL     1      -8.899  15.872  68.014  1.00  0.00    -0.175 OA 
BRANCH  15  18
HETATM   18  C   UNL     1     -11.068  15.012  68.724  1.00  0.00    -0.269 A  
HETATM   19  C   UNL     1     -11.895  15.632  69.679  1.00  0.00    -0.377 A  
HETATM   20  C   UNL     1     -12.597  14.877  70.626  1.00  0.00    -0.363 A  
HETATM   21  H   UNL     1     -13.007  11.727  71.485  1.00  0.00     0.000 HD 
HETATM   22  C   UNL     1     -12.477  13.482  70.591  1.00  0.00    -0.333 A  
HETATM   23  C   UNL     1     -10.985  13.613  68.703  1.00  0.00    -0.290 A  
HETATM   24  C   UNL     1     -11.687  12.851  69.634  1.00  0.00    -0.367 A  
HETATM   25  O   UNL     1     -13.089  12.674  71.508  1.00  0.00    -0.373 OA 
BRANCH  20  26
HETATM   26  N   UNL     1     -13.428  15.474  71.593  1.00  0.00    -0.493 N  
HETATM   27  H   UNL     1     -14.414  15.564  71.350  1.00  0.00     0.000 HD 
HETATM   28  O   UNL     1     -13.864  16.461  73.587  1.00  0.00    -0.438 OA 
HETATM   29  C   UNL     1     -13.060  15.947  72.822  1.00  0.00    -0.491 C  
ENDBRANCH  20  26
ENDBRANCH  15  18
ENDBRANCH  14  15
ENDBRANCH  12  14
ENDBRANCH  10  12
ENDBRANCH   9  10
ENDBRANCH   6   9
ENDBRANCH   2   3
TORSDOF 8
ENDMDL
MODEL      168
REMARK 921   NORMALIZED FREE ENERGY PREDICTED BY IDOCK:   -4.49 KCAL/MOL
REMARK 922        TOTAL FREE ENERGY PREDICTED BY IDOCK:   -8.26 KCAL/MOL
REMARK 923 INTER-LIGAND FREE ENERGY PREDICTED BY IDOCK:   -7.06 KCAL/MOL
REMARK 924 INTRA-LIGAND FREE ENERGY PREDICTED BY IDOCK:   -1.19 KCAL/MOL
REMARK 927      BINDING AFFINITY PREDICTED BY RF-SCORE:    0.00 PKD
ROOT
HETATM    1  C   UNL     1     -12.026   6.389  72.102  1.00  0.00    -0.298 C  
HETATM    2  O   UNL     1     -11.632   7.736  72.328  1.00  0.00    -0.298 OA 
ENDROOT
BRANCH   2   3
HETATM    3  C   UNL     1     -11.448   8.515  71.219  1.00  0.00    -0.277 A  
HETATM    4  C   UNL     1     -11.874   9.833  71.063  1.00  0.00    -0.442 A  
HETATM    5  C   UNL     1     -11.675  10.499  69.849  1.00  0.00    -0.372 A  
HETATM    6  C   UNL     1     -11.034   9.859  68.781  1.00  0.00    -0.217 A  
HETATM    7  C   UNL     1     -10.780   7.886  70.168  1.00  0.00    -0.244 A  
HETATM    8  C   UNL     1     -10.575   8.549  68.958  1.00  0.00    -0.173 A  
BRANCH   6   9
HETATM    9  C   UNL     1     -10.958  10.498  67.414  1.00  0.00    -0.352 C  
BRANCH   9  10
HETATM   10  C   UNL     1      -9.902   9.928  66.438  1.00  0.00    -0.227 C  
HETATM   11  C   UNL     1     -10.017  10.590  65.059  1.00  0.00    -0.388 C  
BRANCH  10  12
HETATM   12  N   UNL     1      -8.521  10.147  66.912  1.00  0.00    -0.125 NA 
HETATM   13  H   UNL     1      -7.914   9.380  66.624  1.00  0.00     0.000 HD 
BRANCH  12  14
HETATM   14  C   UNL     1      -7.957  11.443  66.495  1.00  0.00    -0.128 C  
BRANCH  14  15
HETATM   15  C   UNL     1      -7.717  12.423  67.667  1.00  0.00    -0.151 C  
HETATM   16  H   UNL     1      -7.746  12.341  69.634  1.00  0.00     0.000 HD 
HETATM   17  O   UNL     1      -7.894  11.739  68.914  1.00  0.00    -0.105 OA 
BRANCH  15  18
HETATM   18  C   UNL     1      -8.543  13.691  67.604  1.00  0.00    -0.185 A  
HETATM   19  C   UNL     1      -9.512  13.833  66.594  1.00  0.00    -0.289 A  
HETATM   20  C   UNL     1     -10.279  14.998  66.485  1.00  0.00    -0.275 A  
HETATM   21  H   UNL     1     -10.612  17.904  67.994  1.00  0.00     0.000 HD 
HETATM   22  C   UNL     1     -10.078  16.021  67.421  1.00  0.00    -0.258 A  
HETATM   23  C   UNL     1      -8.379  14.724  68.537  1.00  0.00    -0.160 A  
HETATM   24  C   UNL     1      -9.144  15.885  68.445  1.00  0.00    -0.189 A  
HETATM   25  O   UNL     1     -10.748  17.210  67.359  1.00  0.00    -0.323 OA 
BRANCH  20  26
HETATM   26  N   UNL     1     -11.252  15.164  65.481  1.00  0.00    -0.340 N  
HETATM   27  H   UNL     1     -11.657  16.095  65.392  1.00  0.00     0.000 HD 
HETATM   28  O   UNL     1     -12.576  14.461  63.780  1.00  0.00    -0.829 OA 
HETATM   29  C   UNL     1     -11.715  14.215  64.613  1.00  0.00    -0.417 C  
ENDBRANCH  20  26
ENDBRANCH  15  18
ENDBRANCH  14  15
ENDBRANCH  12  14
ENDBRANCH  10  12
ENDBRANCH   9  10
ENDBRANCH   6   9
ENDBRANCH   2   3
TORSDOF 8
ENDMDL
MODEL      169
REMARK 921   NORMALIZED FREE ENERGY PREDICTED BY IDOCK:   -4.49 KCAL/MOL
REMARK 922        TOTAL FREE ENERGY PREDICTED BY IDOCK:   -8.24 KCAL/MOL
REMARK 923 INTER-LIGAND FREE ENERGY PREDICTED BY IDOCK:   -6.88 KCAL/MOL
REMARK 924 INTRA-LIGAND FREE ENERGY PREDICTED BY IDOCK:   -1.37 KCAL/MOL
REMARK 927      BINDING AFFINITY PREDICTED BY RF-SCORE:    0.00 PKD
ROOT
HETATM    1  C   UNL     1      -9.649   3.763  65.556  1.00  0.00    -0.170 C  
HETATM    2  O   UNL     1     -10.277   4.589  66.527  1.00  0.00    -0.243 OA 
ENDROOT
BRANCH   2   3
HETATM    3  C   UNL     1      -9.941   5.914  66.515  1.00  0.00    -0.153 A  
HETATM    4  C   UNL     1      -8.778   6.461  65.972  1.00  0.00    -0.157 A  
HETATM    5  C   UNL     1      -8.526   7.832  66.080  1.00  0.00    -0.143 A  
HETATM    6  C   UNL     1      -9.442   8.677  66.722  1.00  0.00    -0.250 A  
HETATM    7  C   UNL     1     -10.869   6.758  67.125  1.00  0.00    -0.462 A  
HETATM    8  C   UNL     1     -10.623   8.128  67.230  1.00  0.00    -0.344 A  
BRANCH   6   9
HETATM    9  C   UNL     1      -9.113  10.125  66.996  1.00  0.00    -0.155 C  
BRANCH   9  10
HETATM   10  C   UNL     1      -9.926  11.183  66.213  1.00  0.00    -0.219 C  
HETATM   11  C   UNL     1     -10.389  10.626  64.860  1.00  0.00    -0.347 C  
BRANCH  10  12
HETATM   12  N   UNL     1     -11.134  11.618  66.940  1.00  0.00    -0.295 NA 
HETATM   13  H   UNL     1     -11.824  10.867  66.978  1.00  0.00     0.000 HD 
BRANCH  12  14
HETATM   14  C   UNL     1     -10.851  12.134  68.291  1.00  0.00    -0.223 C  
BRANCH  14  15
HETATM   15  C   UNL     1     -12.028  11.967  69.281  1.00  0.00    -0.281 C  
HETATM   16  H   UNL     1     -13.001  13.108  70.557  1.00  0.00     0.000 HD 
HETATM   17  O   UNL     1     -12.278  13.210  69.948  1.00  0.00    -0.291 OA 
BRANCH  15  18
HETATM   18  C   UNL     1     -11.861  10.829  70.267  1.00  0.00    -0.438 A  
HETATM   19  C   UNL     1     -10.629  10.155  70.339  1.00  0.00    -0.287 A  
HETATM   20  C   UNL     1     -10.441   9.082  71.219  1.00  0.00    -0.311 A  
HETATM   21  H   UNL     1     -12.145   7.379  73.460  1.00  0.00     0.000 HD 
HETATM   22  C   UNL     1     -11.505   8.703  72.047  1.00  0.00    -0.367 A  
HETATM   23  C   UNL     1     -12.900  10.438  71.123  1.00  0.00    -0.511 A  
HETATM   24  C   UNL     1     -12.722   9.378  72.009  1.00  0.00    -0.483 A  
HETATM   25  O   UNL     1     -11.423   7.637  72.898  1.00  0.00    -0.354 OA 
BRANCH  20  26
HETATM   26  N   UNL     1      -9.218   8.391  71.307  1.00  0.00    -0.162 N  
HETATM   27  H   UNL     1      -8.693   8.508  72.174  1.00  0.00     0.000 HD 
HETATM   28  O   UNL     1      -7.575   7.033  70.534  1.00  0.00    -0.087 OA 
HETATM   29  C   UNL     1      -8.655   7.581  70.361  1.00  0.00    -0.143 C  
ENDBRANCH  20  26
ENDBRANCH  15  18
ENDBRANCH  14  15
ENDBRANCH  12  14
ENDBRANCH  10  12
ENDBRANCH   9  10
ENDBRANCH   6   9
ENDBRANCH   2   3
TORSDOF 8
ENDMDL
MODEL      170
REMARK 921   NORMALIZED FREE ENERGY PREDICTED BY IDOCK:   -4.48 KCAL/MOL
REMARK 922        TOTAL FREE ENERGY PREDICTED BY IDOCK:   -8.24 KCAL/MOL
REMARK 923 INTER-LIGAND FREE ENERGY PREDICTED BY IDOCK:   -7.77 KCAL/MOL
REMARK 924 INTRA-LIGAND FREE ENERGY PREDICTED BY IDOCK:   -0.47 KCAL/MOL
REMARK 927      BINDING AFFINITY PREDICTED BY RF-SCORE:    0.00 PKD
ROOT
HETATM    1  C   UNL     1      -5.134  20.708  69.579  1.00  0.00    -0.294 C  
HETATM    2  O   UNL     1      -5.817  21.107  68.398  1.00  0.00    -0.330 OA 
ENDROOT
BRANCH   2   3
HETATM    3  C   UNL     1      -6.933  20.391  68.064  1.00  0.00    -0.282 A  
HETATM    4  C   UNL     1      -7.781  20.647  66.987  1.00  0.00    -0.319 A  
HETATM    5  C   UNL     1      -8.928  19.872  66.792  1.00  0.00    -0.444 A  
HETATM    6  C   UNL     1      -9.234  18.819  67.665  1.00  0.00    -0.310 A  
HETATM    7  C   UNL     1      -7.218  19.323  68.915  1.00  0.00    -0.393 A  
HETATM    8  C   UNL     1      -8.358  18.543  68.721  1.00  0.00    -0.274 A  
BRANCH   6   9
HETATM    9  C   UNL     1     -10.548  18.079  67.572  1.00  0.00    -0.402 C  
BRANCH   9  10
HETATM   10  C   UNL     1     -10.542  16.751  66.779  1.00  0.00    -0.203 C  
HETATM   11  C   UNL     1      -9.231  16.584  66.000  1.00  0.00    -0.295 C  
BRANCH  10  12
HETATM   12  N   UNL     1     -10.682  15.571  67.654  1.00  0.00    -0.295 NA 
HETATM   13  H   UNL     1     -11.049  15.839  68.567  1.00  0.00     0.000 HD 
BRANCH  12  14
HETATM   14  C   UNL     1     -11.495  14.495  67.061  1.00  0.00    -0.370 C  
BRANCH  14  15
HETATM   15  C   UNL     1     -12.237  13.627  68.104  1.00  0.00    -0.129 C  
HETATM   16  H   UNL     1     -12.829  13.823  69.972  1.00  0.00     0.000 HD 
HETATM   17  O   UNL     1     -12.373  14.356  69.330  1.00  0.00    -0.294 OA 
BRANCH  15  18
HETATM   18  C   UNL     1     -11.624  12.260  68.334  1.00  0.00    -0.377 A  
HETATM   19  C   UNL     1     -11.757  11.649  69.594  1.00  0.00    -0.418 A  
HETATM   20  C   UNL     1     -11.185  10.399  69.856  1.00  0.00    -0.306 A  
HETATM   21  H   UNL     1      -9.390   8.115  68.309  1.00  0.00     0.000 HD 
HETATM   22  C   UNL     1     -10.491   9.753  68.825  1.00  0.00    -0.218 A  
HETATM   23  C   UNL     1     -10.940  11.579  67.317  1.00  0.00    -0.323 A  
HETATM   24  C   UNL     1     -10.376  10.329  67.563  1.00  0.00    -0.276 A  
HETATM   25  O   UNL     1      -9.861   8.553  69.008  1.00  0.00    -0.174 OA 
BRANCH  20  26
HETATM   26  N   UNL     1     -11.302   9.769  71.109  1.00  0.00    -0.373 N  
HETATM   27  H   UNL     1     -10.437   9.637  71.632  1.00  0.00     0.000 HD 
HETATM   28  O   UNL     1     -12.437   8.767  72.796  1.00  0.00    -0.308 OA 
HETATM   29  C   UNL     1     -12.446   9.313  71.702  1.00  0.00    -0.368 C  
ENDBRANCH  20  26
ENDBRANCH  15  18
ENDBRANCH  14  15
ENDBRANCH  12  14
ENDBRANCH  10  12
ENDBRANCH   9  10
ENDBRANCH   6   9
ENDBRANCH   2   3
TORSDOF 8
ENDMDL
MODEL      171
REMARK 921   NORMALIZED FREE ENERGY PREDICTED BY IDOCK:   -4.47 KCAL/MOL
REMARK 922        TOTAL FREE ENERGY PREDICTED BY IDOCK:   -8.23 KCAL/MOL
REMARK 923 INTER-LIGAND FREE ENERGY PREDICTED BY IDOCK:   -6.05 KCAL/MOL
REMARK 924 INTRA-LIGAND FREE ENERGY PREDICTED BY IDOCK:   -2.18 KCAL/MOL
REMARK 927      BINDING AFFINITY PREDICTED BY RF-SCORE:    0.00 PKD
ROOT
HETATM    1  C   UNL     1      -7.119  12.679  68.583  1.00  0.00    -0.096 C  
HETATM    2  O   UNL     1      -8.308  12.220  67.954  1.00  0.00    -0.143 OA 
ENDROOT
BRANCH   2   3
HETATM    3  C   UNL     1      -9.116  11.402  68.694  1.00  0.00    -0.135 A  
HETATM    4  C   UNL     1     -10.508  11.457  68.752  1.00  0.00    -0.228 A  
HETATM    5  C   UNL     1     -11.214  10.598  69.600  1.00  0.00    -0.351 A  
HETATM    6  C   UNL     1     -10.535   9.661  70.391  1.00  0.00    -0.352 A  
HETATM    7  C   UNL     1      -8.441  10.447  69.455  1.00  0.00    -0.115 A  
HETATM    8  C   UNL     1      -9.142   9.584  70.299  1.00  0.00    -0.296 A  
BRANCH   6   9
HETATM    9  C   UNL     1     -11.260   8.841  71.432  1.00  0.00    -0.362 C  
BRANCH   9  10
HETATM   10  C   UNL     1     -11.427   7.332  71.137  1.00  0.00    -0.283 C  
HETATM   11  C   UNL     1     -12.502   6.713  72.039  1.00  0.00    -0.288 C  
BRANCH  10  12
HETATM   12  N   UNL     1     -11.829   7.072  69.740  1.00  0.00    -0.590 NA 
HETATM   13  H   UNL     1     -11.917   7.946  69.221  1.00  0.00     0.000 HD 
BRANCH  12  14
HETATM   14  C   UNL     1     -10.935   6.136  69.038  1.00  0.00    -0.367 C  
BRANCH  14  15
HETATM   15  C   UNL     1     -10.857   6.375  67.511  1.00  0.00    -0.354 C  
HETATM   16  H   UNL     1     -10.726   5.265  65.891  1.00  0.00     0.000 HD 
HETATM   17  O   UNL     1     -10.774   5.118  66.828  1.00  0.00    -0.256 OA 
BRANCH  15  18
HETATM   18  C   UNL     1      -9.752   7.318  67.080  1.00  0.00    -0.218 A  
HETATM   19  C   UNL     1     -10.084   8.500  66.394  1.00  0.00    -0.271 A  
HETATM   20  C   UNL     1      -9.093   9.386  65.956  1.00  0.00    -0.183 A  
HETATM   21  H   UNL     1      -5.813   9.658  65.991  1.00  0.00     0.000 HD 
HETATM   22  C   UNL     1      -7.754   9.081  66.235  1.00  0.00    -0.095 A  
HETATM   23  C   UNL     1      -8.405   7.051  67.361  1.00  0.00    -0.122 A  
HETATM   24  C   UNL     1      -7.410   7.931  66.939  1.00  0.00    -0.090 A  
HETATM   25  O   UNL     1      -6.722   9.865  65.801  1.00  0.00    -0.087 OA 
BRANCH  20  26
HETATM   26  N   UNL     1      -9.400  10.573  65.266  1.00  0.00    -0.197 N  
HETATM   27  H   UNL     1      -8.675  11.289  65.250  1.00  0.00     0.000 HD 
HETATM   28  O   UNL     1     -10.734  11.945  64.050  1.00  0.00    -0.307 OA 
HETATM   29  C   UNL     1     -10.563  10.873  64.613  1.00  0.00    -0.262 C  
ENDBRANCH  20  26
ENDBRANCH  15  18
ENDBRANCH  14  15
ENDBRANCH  12  14
ENDBRANCH  10  12
ENDBRANCH   9  10
ENDBRANCH   6   9
ENDBRANCH   2   3
TORSDOF 8
ENDMDL
MODEL      172
REMARK 921   NORMALIZED FREE ENERGY PREDICTED BY IDOCK:   -4.46 KCAL/MOL
REMARK 922        TOTAL FREE ENERGY PREDICTED BY IDOCK:   -8.21 KCAL/MOL
REMARK 923 INTER-LIGAND FREE ENERGY PREDICTED BY IDOCK:   -7.20 KCAL/MOL
REMARK 924 INTRA-LIGAND FREE ENERGY PREDICTED BY IDOCK:   -1.01 KCAL/MOL
REMARK 927      BINDING AFFINITY PREDICTED BY RF-SCORE:    0.00 PKD
ROOT
HETATM    1  C   UNL     1     -12.205  15.301  64.240  1.00  0.00    -0.189 C  
HETATM    2  O   UNL     1     -12.429  14.041  63.621  1.00  0.00    -0.803 OA 
ENDROOT
BRANCH   2   3
HETATM    3  C   UNL     1     -11.692  12.989  64.089  1.00  0.00    -0.412 A  
HETATM    4  C   UNL     1     -10.816  12.202  63.341  1.00  0.00    -0.474 A  
HETATM    5  C   UNL     1     -10.167  11.113  63.930  1.00  0.00    -0.420 A  
HETATM    6  C   UNL     1     -10.376  10.804  65.282  1.00  0.00    -0.327 A  
HETATM    7  C   UNL     1     -11.875  12.703  65.442  1.00  0.00    -0.473 A  
HETATM    8  C   UNL     1     -11.226  11.620  66.035  1.00  0.00    -0.299 A  
BRANCH   6   9
HETATM    9  C   UNL     1      -9.819   9.540  65.892  1.00  0.00    -0.360 C  
BRANCH   9  10
HETATM   10  C   UNL     1      -8.532   9.686  66.738  1.00  0.00    -0.127 C  
HETATM   11  C   UNL     1      -7.298   9.824  65.837  1.00  0.00    -0.103 C  
BRANCH  10  12
HETATM   12  N   UNL     1      -8.565  10.873  67.615  1.00  0.00    -0.123 NA 
HETATM   13  H   UNL     1      -8.907  10.626  68.544  1.00  0.00     0.000 HD 
BRANCH  12  14
HETATM   14  C   UNL     1      -7.271  11.571  67.704  1.00  0.00    -0.103 C  
BRANCH  14  15
HETATM   15  C   UNL     1      -7.287  12.991  67.091  1.00  0.00     0.044 C  
HETATM   16  H   UNL     1      -6.097  14.560  67.076  1.00  0.00     0.000 HD 
HETATM   17  O   UNL     1      -6.087  13.688  67.452  1.00  0.00    -0.337 OA 
BRANCH  15  18
HETATM   18  C   UNL     1      -8.523  13.803  67.419  1.00  0.00    -0.209 A  
HETATM   19  C   UNL     1      -9.301  13.451  68.537  1.00  0.00    -0.097 A  
HETATM   20  C   UNL     1     -10.464  14.159  68.861  1.00  0.00    -0.222 A  
HETATM   21  H   UNL     1     -12.223  16.700  67.729  1.00  0.00     0.000 HD 
HETATM   22  C   UNL     1     -10.830  15.247  68.058  1.00  0.00    -0.288 A  
HETATM   23  C   UNL     1      -8.905  14.909  66.647  1.00  0.00    -0.287 A  
HETATM   24  C   UNL     1     -10.055  15.628  66.966  1.00  0.00    -0.253 A  
HETATM   25  O   UNL     1     -11.975  15.961  68.274  1.00  0.00    -0.193 OA 
BRANCH  20  26
HETATM   26  N   UNL     1     -11.260  13.824  69.973  1.00  0.00    -0.479 N  
HETATM   27  H   UNL     1     -11.354  14.538  70.695  1.00  0.00     0.000 HD 
HETATM   28  O   UNL     1     -12.582  12.453  71.203  1.00  0.00    -0.364 OA 
HETATM   29  C   UNL     1     -11.922  12.648  70.192  1.00  0.00    -0.299 C  
ENDBRANCH  20  26
ENDBRANCH  15  18
ENDBRANCH  14  15
ENDBRANCH  12  14
ENDBRANCH  10  12
ENDBRANCH   9  10
ENDBRANCH   6   9
ENDBRANCH   2   3
TORSDOF 8
ENDMDL
MODEL      173
REMARK 921   NORMALIZED FREE ENERGY PREDICTED BY IDOCK:   -4.45 KCAL/MOL
REMARK 922        TOTAL FREE ENERGY PREDICTED BY IDOCK:   -8.20 KCAL/MOL
REMARK 923 INTER-LIGAND FREE ENERGY PREDICTED BY IDOCK:   -7.49 KCAL/MOL
REMARK 924 INTRA-LIGAND FREE ENERGY PREDICTED BY IDOCK:   -0.70 KCAL/MOL
REMARK 927      BINDING AFFINITY PREDICTED BY RF-SCORE:    0.00 PKD
ROOT
HETATM    1  C   UNL     1     -12.225  15.339  64.253  1.00  0.00    -0.189 C  
HETATM    2  O   UNL     1     -12.332  14.086  63.591  1.00  0.00    -0.728 OA 
ENDROOT
BRANCH   2   3
HETATM    3  C   UNL     1     -11.615  13.049  64.121  1.00  0.00    -0.407 A  
HETATM    4  C   UNL     1     -10.583  12.357  63.489  1.00  0.00    -0.451 A  
HETATM    5  C   UNL     1      -9.970  11.271  64.123  1.00  0.00    -0.350 A  
HETATM    6  C   UNL     1     -10.374  10.873  65.405  1.00  0.00    -0.326 A  
HETATM    7  C   UNL     1     -11.996  12.676  65.410  1.00  0.00    -0.496 A  
HETATM    8  C   UNL     1     -11.384  11.596  66.048  1.00  0.00    -0.261 A  
BRANCH   6   9
HETATM    9  C   UNL     1      -9.845   9.607  66.036  1.00  0.00    -0.345 C  
BRANCH   9  10
HETATM   10  C   UNL     1      -8.800   9.777  67.164  1.00  0.00    -0.132 C  
HETATM   11  C   UNL     1      -7.457  10.258  66.598  1.00  0.00    -0.110 C  
BRANCH  10  12
HETATM   12  N   UNL     1      -9.222  10.763  68.179  1.00  0.00    -0.146 NA 
HETATM   13  H   UNL     1      -9.401  10.306  69.073  1.00  0.00     0.000 HD 
BRANCH  12  14
HETATM   14  C   UNL     1      -8.273  11.877  68.343  1.00  0.00    -0.160 C  
BRANCH  14  15
HETATM   15  C   UNL     1      -8.737  13.193  67.674  1.00  0.00    -0.192 C  
HETATM   16  H   UNL     1      -7.886  14.838  67.004  1.00  0.00     0.000 HD 
HETATM   17  O   UNL     1      -7.602  14.029  67.415  1.00  0.00    -0.178 OA 
BRANCH  15  18
HETATM   18  C   UNL     1      -9.816  13.937  68.433  1.00  0.00    -0.229 A  
HETATM   19  C   UNL     1      -9.774  15.342  68.490  1.00  0.00    -0.204 A  
HETATM   20  C   UNL     1     -10.737  16.067  69.201  1.00  0.00    -0.272 A  
HETATM   21  H   UNL     1     -13.414  15.510  71.033  1.00  0.00     0.000 HD 
HETATM   22  C   UNL     1     -11.764  15.363  69.842  1.00  0.00    -0.336 A  
HETATM   23  C   UNL     1     -10.868  13.263  69.069  1.00  0.00    -0.212 A  
HETATM   24  C   UNL     1     -11.838  13.974  69.771  1.00  0.00    -0.385 A  
HETATM   25  O   UNL     1     -12.717  15.988  70.598  1.00  0.00    -0.356 OA 
BRANCH  20  26
HETATM   26  N   UNL     1     -10.715  17.472  69.274  1.00  0.00    -0.335 N  
HETATM   27  H   UNL     1     -11.565  17.922  69.612  1.00  0.00     0.000 HD 
HETATM   28  O   UNL     1      -9.768  19.518  69.032  1.00  0.00    -0.412 OA 
HETATM   29  C   UNL     1      -9.680  18.302  68.942  1.00  0.00    -0.283 C  
ENDBRANCH  20  26
ENDBRANCH  15  18
ENDBRANCH  14  15
ENDBRANCH  12  14
ENDBRANCH  10  12
ENDBRANCH   9  10
ENDBRANCH   6   9
ENDBRANCH   2   3
TORSDOF 8
ENDMDL
MODEL      174
REMARK 921   NORMALIZED FREE ENERGY PREDICTED BY IDOCK:   -4.45 KCAL/MOL
REMARK 922        TOTAL FREE ENERGY PREDICTED BY IDOCK:   -8.20 KCAL/MOL
REMARK 923 INTER-LIGAND FREE ENERGY PREDICTED BY IDOCK:   -7.47 KCAL/MOL
REMARK 924 INTRA-LIGAND FREE ENERGY PREDICTED BY IDOCK:   -0.73 KCAL/MOL
REMARK 927      BINDING AFFINITY PREDICTED BY RF-SCORE:    0.00 PKD
ROOT
HETATM    1  C   UNL     1      -7.722   8.692  63.008  1.00  0.00    -0.126 C  
HETATM    2  O   UNL     1      -8.690   8.903  64.028  1.00  0.00    -0.155 OA 
ENDROOT
BRANCH   2   3
HETATM    3  C   UNL     1      -9.055  10.199  64.267  1.00  0.00    -0.250 A  
HETATM    4  C   UNL     1      -8.945  10.872  65.483  1.00  0.00    -0.213 A  
HETATM    5  C   UNL     1      -9.415  12.184  65.609  1.00  0.00    -0.117 A  
HETATM    6  C   UNL     1      -9.988  12.844  64.513  1.00  0.00    -0.160 A  
HETATM    7  C   UNL     1      -9.595  10.866  63.167  1.00  0.00    -0.384 A  
HETATM    8  C   UNL     1     -10.060  12.176  63.286  1.00  0.00    -0.297 A  
BRANCH   6   9
HETATM    9  C   UNL     1     -10.650  14.192  64.669  1.00  0.00    -0.391 C  
BRANCH   9  10
HETATM   10  C   UNL     1     -12.041  14.209  65.345  1.00  0.00    -0.410 C  
HETATM   11  C   UNL     1     -12.760  12.867  65.153  1.00  0.00    -0.443 C  
BRANCH  10  12
HETATM   12  N   UNL     1     -11.959  14.454  66.798  1.00  0.00    -0.417 NA 
HETATM   13  H   UNL     1     -12.636  15.162  67.084  1.00  0.00     0.000 HD 
BRANCH  12  14
HETATM   14  C   UNL     1     -12.108  13.233  67.607  1.00  0.00    -0.249 C  
BRANCH  14  15
HETATM   15  C   UNL     1     -11.461  13.331  69.009  1.00  0.00    -0.302 C  
HETATM   16  H   UNL     1      -9.636  13.422  69.743  1.00  0.00     0.000 HD 
HETATM   17  O   UNL     1     -10.034  13.362  68.882  1.00  0.00    -0.109 OA 
BRANCH  15  18
HETATM   18  C   UNL     1     -11.911  12.263  69.984  1.00  0.00    -0.379 A  
HETATM   19  C   UNL     1     -11.626  10.913  69.707  1.00  0.00    -0.399 A  
HETATM   20  C   UNL     1     -12.045   9.893  70.569  1.00  0.00    -0.207 A  
HETATM   21  H   UNL     1     -13.700   9.550  73.393  1.00  0.00     0.000 HD 
HETATM   22  C   UNL     1     -12.741  10.245  71.733  1.00  0.00    -0.433 A  
HETATM   23  C   UNL     1     -12.592  12.584  71.167  1.00  0.00    -0.349 A  
HETATM   24  C   UNL     1     -13.005  11.578  72.038  1.00  0.00    -0.373 A  
HETATM   25  O   UNL     1     -13.228   9.311  72.603  1.00  0.00    -0.414 OA 
BRANCH  20  26
HETATM   26  N   UNL     1     -11.774   8.536  70.312  1.00  0.00    -0.471 N  
HETATM   27  H   UNL     1     -12.525   7.998  69.881  1.00  0.00     0.000 HD 
HETATM   28  O   UNL     1     -10.486   6.670  70.321  1.00  0.00    -0.197 OA 
HETATM   29  C   UNL     1     -10.616   7.859  70.575  1.00  0.00    -0.223 C  
ENDBRANCH  20  26
ENDBRANCH  15  18
ENDBRANCH  14  15
ENDBRANCH  12  14
ENDBRANCH  10  12
ENDBRANCH   9  10
ENDBRANCH   6   9
ENDBRANCH   2   3
TORSDOF 8
ENDMDL
MODEL      175
REMARK 921   NORMALIZED FREE ENERGY PREDICTED BY IDOCK:   -4.45 KCAL/MOL
REMARK 922        TOTAL FREE ENERGY PREDICTED BY IDOCK:   -8.19 KCAL/MOL
REMARK 923 INTER-LIGAND FREE ENERGY PREDICTED BY IDOCK:   -7.37 KCAL/MOL
REMARK 924 INTRA-LIGAND FREE ENERGY PREDICTED BY IDOCK:   -0.82 KCAL/MOL
REMARK 927      BINDING AFFINITY PREDICTED BY RF-SCORE:    0.00 PKD
ROOT
HETATM    1  C   UNL     1      -6.873  17.115  68.998  1.00  0.00    -0.231 C  
HETATM    2  O   UNL     1      -7.589  17.143  67.770  1.00  0.00    -0.170 OA 
ENDROOT
BRANCH   2   3
HETATM    3  C   UNL     1      -8.503  16.146  67.571  1.00  0.00    -0.162 A  
HETATM    4  C   UNL     1      -8.813  15.549  66.349  1.00  0.00    -0.359 A  
HETATM    5  C   UNL     1      -9.817  14.578  66.274  1.00  0.00    -0.322 A  
HETATM    6  C   UNL     1     -10.513  14.181  67.423  1.00  0.00    -0.271 A  
HETATM    7  C   UNL     1      -9.172  15.729  68.721  1.00  0.00    -0.216 A  
HETATM    8  C   UNL     1     -10.170  14.757  68.651  1.00  0.00    -0.236 A  
BRANCH   6   9
HETATM    9  C   UNL     1     -11.708  13.261  67.337  1.00  0.00    -0.419 C  
BRANCH   9  10
HETATM   10  C   UNL     1     -11.418  11.742  67.359  1.00  0.00    -0.305 C  
HETATM   11  C   UNL     1      -9.955  11.469  67.729  1.00  0.00    -0.195 C  
BRANCH  10  12
HETATM   12  N   UNL     1     -12.256  11.022  68.338  1.00  0.00    -0.780 NA 
HETATM   13  H   UNL     1     -12.169  10.013  68.215  1.00  0.00     0.000 HD 
BRANCH  12  14
HETATM   14  C   UNL     1     -11.983  11.403  69.735  1.00  0.00    -0.353 C  
BRANCH  14  15
HETATM   15  C   UNL     1     -12.569  10.419  70.775  1.00  0.00    -0.371 C  
HETATM   16  H   UNL     1     -13.633  10.545  72.427  1.00  0.00     0.000 HD 
HETATM   17  O   UNL     1     -13.273  11.149  71.788  1.00  0.00    -0.442 OA 
BRANCH  15  18
HETATM   18  C   UNL     1     -11.558   9.465  71.376  1.00  0.00    -0.451 A  
HETATM   19  C   UNL     1     -10.218   9.524  70.951  1.00  0.00    -0.356 A  
HETATM   20  C   UNL     1      -9.257   8.645  71.463  1.00  0.00    -0.246 A  
HETATM   21  H   UNL     1      -9.060   6.149  73.599  1.00  0.00     0.000 HD 
HETATM   22  C   UNL     1      -9.653   7.710  72.428  1.00  0.00    -0.168 A  
HETATM   23  C   UNL     1     -11.918   8.532  72.358  1.00  0.00    -0.434 A  
HETATM   24  C   UNL     1     -10.969   7.657  72.882  1.00  0.00    -0.456 A  
HETATM   25  O   UNL     1      -8.791   6.783  72.944  1.00  0.00    -0.125 OA 
BRANCH  20  26
HETATM   26  N   UNL     1      -7.912   8.683  71.052  1.00  0.00    -0.118 N  
HETATM   27  H   UNL     1      -7.351   7.858  71.260  1.00  0.00     0.000 HD 
HETATM   28  O   UNL     1      -6.090   9.641  70.100  1.00  0.00    -0.043 OA 
HETATM   29  C   UNL     1      -7.273   9.704  70.405  1.00  0.00    -0.142 C  
ENDBRANCH  20  26
ENDBRANCH  15  18
ENDBRANCH  14  15
ENDBRANCH  12  14
ENDBRANCH  10  12
ENDBRANCH   9  10
ENDBRANCH   6   9
ENDBRANCH   2   3
TORSDOF 8
ENDMDL
MODEL      176
REMARK 921   NORMALIZED FREE ENERGY PREDICTED BY IDOCK:   -4.45 KCAL/MOL
REMARK 922        TOTAL FREE ENERGY PREDICTED BY IDOCK:   -8.19 KCAL/MOL
REMARK 923 INTER-LIGAND FREE ENERGY PREDICTED BY IDOCK:   -7.47 KCAL/MOL
REMARK 924 INTRA-LIGAND FREE ENERGY PREDICTED BY IDOCK:   -0.72 KCAL/MOL
REMARK 927      BINDING AFFINITY PREDICTED BY RF-SCORE:    0.00 PKD
ROOT
HETATM    1  C   UNL     1     -11.755  12.851  63.486  1.00  0.00    -0.512 C  
HETATM    2  O   UNL     1     -12.720  13.022  64.515  1.00  0.00    -0.656 OA 
ENDROOT
BRANCH   2   3
HETATM    3  C   UNL     1     -12.239  13.213  65.781  1.00  0.00    -0.456 A  
HETATM    4  C   UNL     1     -11.921  12.212  66.698  1.00  0.00    -0.186 A  
HETATM    5  C   UNL     1     -11.494  12.547  67.987  1.00  0.00    -0.368 A  
HETATM    6  C   UNL     1     -11.365  13.889  68.370  1.00  0.00    -0.316 A  
HETATM    7  C   UNL     1     -12.079  14.549  66.149  1.00  0.00    -0.300 A  
HETATM    8  C   UNL     1     -11.648  14.887  67.432  1.00  0.00    -0.347 A  
BRANCH   6   9
HETATM    9  C   UNL     1     -11.067  14.272  69.801  1.00  0.00    -0.175 C  
BRANCH   9  10
HETATM   10  C   UNL     1     -12.194  14.029  70.833  1.00  0.00    -0.362 C  
HETATM   11  C   UNL     1     -13.258  15.131  70.751  1.00  0.00    -0.433 C  
BRANCH  10  12
HETATM   12  N   UNL     1     -12.885  12.742  70.621  1.00  0.00    -0.042 NA 
HETATM   13  H   UNL     1     -12.590  12.313  69.744  1.00  0.00     0.000 HD 
BRANCH  12  14
HETATM   14  C   UNL     1     -12.723  11.799  71.742  1.00  0.00    -0.193 C  
BRANCH  14  15
HETATM   15  C   UNL     1     -12.812  10.313  71.323  1.00  0.00    -0.422 C  
HETATM   16  H   UNL     1     -13.909   8.750  71.807  1.00  0.00     0.000 HD 
HETATM   17  O   UNL     1     -13.854   9.664  72.064  1.00  0.00    -0.334 OA 
BRANCH  15  18
HETATM   18  C   UNL     1     -11.504   9.554  71.419  1.00  0.00    -0.462 A  
HETATM   19  C   UNL     1     -10.477   9.833  70.499  1.00  0.00    -0.366 A  
HETATM   20  C   UNL     1      -9.263   9.138  70.536  1.00  0.00    -0.241 A  
HETATM   21  H   UNL     1      -7.822   6.748  72.280  1.00  0.00     0.000 HD 
HETATM   22  C   UNL     1      -9.080   8.166  71.528  1.00  0.00    -0.158 A  
HETATM   23  C   UNL     1     -11.283   8.590  72.411  1.00  0.00    -0.399 A  
HETATM   24  C   UNL     1     -10.074   7.898  72.465  1.00  0.00    -0.325 A  
HETATM   25  O   UNL     1      -7.946   7.407  71.607  1.00  0.00    -0.096 OA 
BRANCH  20  26
HETATM   26  N   UNL     1      -8.223   9.398  69.625  1.00  0.00    -0.123 N  
HETATM   27  H   UNL     1      -7.952   8.627  69.015  1.00  0.00     0.000 HD 
HETATM   28  O   UNL     1      -6.634  10.687  68.647  1.00  0.00    -0.054 OA 
HETATM   29  C   UNL     1      -7.535  10.568  69.466  1.00  0.00    -0.146 C  
ENDBRANCH  20  26
ENDBRANCH  15  18
ENDBRANCH  14  15
ENDBRANCH  12  14
ENDBRANCH  10  12
ENDBRANCH   9  10
ENDBRANCH   6   9
ENDBRANCH   2   3
TORSDOF 8
ENDMDL
MODEL      177
REMARK 921   NORMALIZED FREE ENERGY PREDICTED BY IDOCK:   -4.43 KCAL/MOL
REMARK 922        TOTAL FREE ENERGY PREDICTED BY IDOCK:   -8.16 KCAL/MOL
REMARK 923 INTER-LIGAND FREE ENERGY PREDICTED BY IDOCK:   -7.58 KCAL/MOL
REMARK 924 INTRA-LIGAND FREE ENERGY PREDICTED BY IDOCK:   -0.57 KCAL/MOL
REMARK 927      BINDING AFFINITY PREDICTED BY RF-SCORE:    0.00 PKD
ROOT
HETATM    1  C   UNL     1      -5.804  21.324  67.483  1.00  0.00    -0.359 C  
HETATM    2  O   UNL     1      -7.224  21.374  67.481  1.00  0.00    -0.499 OA 
ENDROOT
BRANCH   2   3
HETATM    3  C   UNL     1      -7.878  20.197  67.238  1.00  0.00    -0.313 A  
HETATM    4  C   UNL     1      -7.302  18.927  67.220  1.00  0.00    -0.234 A  
HETATM    5  C   UNL     1      -8.075  17.807  66.895  1.00  0.00    -0.251 A  
HETATM    6  C   UNL     1      -9.438  17.943  66.599  1.00  0.00    -0.303 A  
HETATM    7  C   UNL     1      -9.241  20.330  66.975  1.00  0.00    -0.503 A  
HETATM    8  C   UNL     1     -10.017  19.215  66.656  1.00  0.00    -0.444 A  
BRANCH   6   9
HETATM    9  C   UNL     1     -10.249  16.777  66.086  1.00  0.00    -0.363 C  
BRANCH   9  10
HETATM   10  C   UNL     1     -10.323  15.528  66.996  1.00  0.00    -0.279 C  
HETATM   11  C   UNL     1     -11.459  15.663  68.018  1.00  0.00    -0.294 C  
BRANCH  10  12
HETATM   12  N   UNL     1     -10.569  14.288  66.233  1.00  0.00    -0.286 NA 
HETATM   13  H   UNL     1     -10.256  14.389  65.268  1.00  0.00     0.000 HD 
BRANCH  12  14
HETATM   14  C   UNL     1      -9.973  13.092  66.852  1.00  0.00    -0.243 C  
BRANCH  14  15
HETATM   15  C   UNL     1     -10.548  11.760  66.314  1.00  0.00    -0.252 C  
HETATM   16  H   UNL     1     -12.241  11.147  65.516  1.00  0.00     0.000 HD 
HETATM   17  O   UNL     1     -11.887  11.965  65.847  1.00  0.00    -0.466 OA 
BRANCH  15  18
HETATM   18  C   UNL     1     -10.469  10.603  67.288  1.00  0.00    -0.293 A  
HETATM   19  C   UNL     1     -10.782   9.306  66.844  1.00  0.00    -0.164 A  
HETATM   20  C   UNL     1     -10.745   8.212  67.717  1.00  0.00    -0.096 A  
HETATM   21  H   UNL     1     -10.095   7.581  70.881  1.00  0.00     0.000 HD 
HETATM   22  C   UNL     1     -10.367   8.433  69.048  1.00  0.00    -0.218 A  
HETATM   23  C   UNL     1     -10.075  10.787  68.621  1.00  0.00    -0.194 A  
HETATM   24  C   UNL     1     -10.025   9.705  69.497  1.00  0.00    -0.223 A  
HETATM   25  O   UNL     1     -10.352   7.431  69.978  1.00  0.00    -0.209 OA 
BRANCH  20  26
HETATM   26  N   UNL     1     -11.057   6.906  67.296  1.00  0.00    -0.587 N  
HETATM   27  H   UNL     1     -12.032   6.622  67.387  1.00  0.00     0.000 HD 
HETATM   28  O   UNL     1     -10.573   4.859  66.452  1.00  0.00    -0.297 OA 
HETATM   29  C   UNL     1     -10.200   5.977  66.778  1.00  0.00    -0.214 C  
ENDBRANCH  20  26
ENDBRANCH  15  18
ENDBRANCH  14  15
ENDBRANCH  12  14
ENDBRANCH  10  12
ENDBRANCH   9  10
ENDBRANCH   6   9
ENDBRANCH   2   3
TORSDOF 8
ENDMDL
MODEL      178
REMARK 921   NORMALIZED FREE ENERGY PREDICTED BY IDOCK:   -4.42 KCAL/MOL
REMARK 922        TOTAL FREE ENERGY PREDICTED BY IDOCK:   -8.15 KCAL/MOL
REMARK 923 INTER-LIGAND FREE ENERGY PREDICTED BY IDOCK:   -7.25 KCAL/MOL
REMARK 924 INTRA-LIGAND FREE ENERGY PREDICTED BY IDOCK:   -0.90 KCAL/MOL
REMARK 927      BINDING AFFINITY PREDICTED BY RF-SCORE:    0.00 PKD
ROOT
HETATM    1  C   UNL     1     -11.188   6.679  70.651  1.00  0.00    -0.317 C  
HETATM    2  O   UNL     1      -9.889   7.176  70.357  1.00  0.00    -0.176 OA 
ENDROOT
BRANCH   2   3
HETATM    3  C   UNL     1      -9.752   7.884  69.195  1.00  0.00    -0.162 A  
HETATM    4  C   UNL     1      -8.974   9.027  69.017  1.00  0.00    -0.140 A  
HETATM    5  C   UNL     1      -8.970   9.693  67.787  1.00  0.00    -0.122 A  
HETATM    6  C   UNL     1      -9.733   9.214  66.714  1.00  0.00    -0.271 A  
HETATM    7  C   UNL     1     -10.486   7.386  68.119  1.00  0.00    -0.241 A  
HETATM    8  C   UNL     1     -10.481   8.044  66.888  1.00  0.00    -0.387 A  
BRANCH   6   9
HETATM    9  C   UNL     1      -9.874  10.006  65.436  1.00  0.00    -0.384 C  
BRANCH   9  10
HETATM   10  C   UNL     1     -10.435  11.441  65.566  1.00  0.00    -0.268 C  
HETATM   11  C   UNL     1     -10.813  12.009  64.192  1.00  0.00    -0.405 C  
BRANCH  10  12
HETATM   12  N   UNL     1     -11.647  11.498  66.408  1.00  0.00    -0.387 NA 
HETATM   13  H   UNL     1     -11.557  10.879  67.213  1.00  0.00     0.000 HD 
BRANCH  12  14
HETATM   14  C   UNL     1     -12.000  12.863  66.835  1.00  0.00    -0.335 C  
BRANCH  14  15
HETATM   15  C   UNL     1     -10.831  13.630  67.497  1.00  0.00    -0.264 C  
HETATM   16  H   UNL     1     -10.241  14.040  69.330  1.00  0.00     0.000 HD 
HETATM   17  O   UNL     1     -10.959  13.569  68.923  1.00  0.00    -0.251 OA 
BRANCH  15  18
HETATM   18  C   UNL     1     -10.662  15.056  67.013  1.00  0.00    -0.304 A  
HETATM   19  C   UNL     1     -10.126  16.020  67.886  1.00  0.00    -0.241 A  
HETATM   20  C   UNL     1      -9.977  17.353  67.487  1.00  0.00    -0.298 A  
HETATM   21  H   UNL     1     -10.543  19.236  64.848  1.00  0.00     0.000 HD 
HETATM   22  C   UNL     1     -10.354  17.708  66.185  1.00  0.00    -0.334 A  
HETATM   23  C   UNL     1     -11.011  15.438  65.710  1.00  0.00    -0.311 A  
HETATM   24  C   UNL     1     -10.857  16.760  65.299  1.00  0.00    -0.148 A  
HETATM   25  O   UNL     1     -10.287  18.995  65.731  1.00  0.00    -0.526 OA 
BRANCH  20  26
HETATM   26  N   UNL     1      -9.446  18.336  68.343  1.00  0.00    -0.311 N  
HETATM   27  H   UNL     1     -10.118  18.865  68.898  1.00  0.00     0.000 HD 
HETATM   28  O   UNL     1      -7.772  19.545  69.280  1.00  0.00    -0.326 OA 
HETATM   29  C   UNL     1      -8.129  18.661  68.514  1.00  0.00    -0.341 C  
ENDBRANCH  20  26
ENDBRANCH  15  18
ENDBRANCH  14  15
ENDBRANCH  12  14
ENDBRANCH  10  12
ENDBRANCH   9  10
ENDBRANCH   6   9
ENDBRANCH   2   3
TORSDOF 8
ENDMDL
MODEL      179
REMARK 921   NORMALIZED FREE ENERGY PREDICTED BY IDOCK:   -4.41 KCAL/MOL
REMARK 922        TOTAL FREE ENERGY PREDICTED BY IDOCK:   -8.14 KCAL/MOL
REMARK 923 INTER-LIGAND FREE ENERGY PREDICTED BY IDOCK:   -7.57 KCAL/MOL
REMARK 924 INTRA-LIGAND FREE ENERGY PREDICTED BY IDOCK:   -0.57 KCAL/MOL
REMARK 927      BINDING AFFINITY PREDICTED BY RF-SCORE:    0.00 PKD
ROOT
HETATM    1  C   UNL     1      -6.463  17.003  69.276  1.00  0.00    -0.231 C  
HETATM    2  O   UNL     1      -7.140  17.607  68.182  1.00  0.00    -0.203 OA 
ENDROOT
BRANCH   2   3
HETATM    3  C   UNL     1      -8.215  16.929  67.677  1.00  0.00    -0.186 A  
HETATM    4  C   UNL     1      -8.942  17.275  66.538  1.00  0.00    -0.294 A  
HETATM    5  C   UNL     1     -10.062  16.527  66.162  1.00  0.00    -0.365 A  
HETATM    6  C   UNL     1     -10.461  15.414  66.914  1.00  0.00    -0.295 A  
HETATM    7  C   UNL     1      -8.590  15.802  68.407  1.00  0.00    -0.171 A  
HETATM    8  C   UNL     1      -9.704  15.050  68.033  1.00  0.00    -0.213 A  
BRANCH   6   9
HETATM    9  C   UNL     1     -11.758  14.696  66.625  1.00  0.00    -0.345 C  
BRANCH   9  10
HETATM   10  C   UNL     1     -11.696  13.532  65.607  1.00  0.00    -0.339 C  
HETATM   11  C   UNL     1     -10.347  13.516  64.877  1.00  0.00    -0.395 C  
BRANCH  10  12
HETATM   12  N   UNL     1     -11.859  12.213  66.249  1.00  0.00    -0.594 NA 
HETATM   13  H   UNL     1     -11.150  11.559  65.916  1.00  0.00     0.000 HD 
BRANCH  12  14
HETATM   14  C   UNL     1     -11.863  12.273  67.720  1.00  0.00    -0.273 C  
BRANCH  14  15
HETATM   15  C   UNL     1     -10.843  11.320  68.386  1.00  0.00    -0.205 C  
HETATM   16  H   UNL     1      -9.751   9.777  67.835  1.00  0.00     0.000 HD 
HETATM   17  O   UNL     1     -10.378  10.363  67.427  1.00  0.00    -0.201 OA 
BRANCH  15  18
HETATM   18  C   UNL     1     -11.343  10.648  69.648  1.00  0.00    -0.360 A  
HETATM   19  C   UNL     1     -10.885   9.356  69.967  1.00  0.00    -0.271 A  
HETATM   20  C   UNL     1     -11.341   8.689  71.110  1.00  0.00    -0.275 A  
HETATM   21  H   UNL     1     -13.403   9.193  73.625  1.00  0.00     0.000 HD 
HETATM   22  C   UNL     1     -12.252   9.345  71.948  1.00  0.00    -0.368 A  
HETATM   23  C   UNL     1     -12.239  11.285  70.517  1.00  0.00    -0.474 A  
HETATM   24  C   UNL     1     -12.692  10.634  71.663  1.00  0.00    -0.531 A  
HETATM   25  O   UNL     1     -12.785   8.748  73.057  1.00  0.00    -0.249 OA 
BRANCH  20  26
HETATM   26  N   UNL     1     -10.900   7.396  71.449  1.00  0.00    -0.228 N  
HETATM   27  H   UNL     1     -10.432   7.298  72.350  1.00  0.00     0.000 HD 
HETATM   28  O   UNL     1     -10.597   5.178  71.089  1.00  0.00    -0.205 OA 
HETATM   29  C   UNL     1     -11.028   6.257  70.705  1.00  0.00    -0.297 C  
ENDBRANCH  20  26
ENDBRANCH  15  18
ENDBRANCH  14  15
ENDBRANCH  12  14
ENDBRANCH  10  12
ENDBRANCH   9  10
ENDBRANCH   6   9
ENDBRANCH   2   3
TORSDOF 8
ENDMDL
MODEL      180
REMARK 921   NORMALIZED FREE ENERGY PREDICTED BY IDOCK:   -4.40 KCAL/MOL
REMARK 922        TOTAL FREE ENERGY PREDICTED BY IDOCK:   -8.11 KCAL/MOL
REMARK 923 INTER-LIGAND FREE ENERGY PREDICTED BY IDOCK:   -7.23 KCAL/MOL
REMARK 924 INTRA-LIGAND FREE ENERGY PREDICTED BY IDOCK:   -0.89 KCAL/MOL
REMARK 927      BINDING AFFINITY PREDICTED BY RF-SCORE:    0.00 PKD
ROOT
HETATM    1  C   UNL     1      -9.015   8.494  68.710  1.00  0.00    -0.139 C  
HETATM    2  O   UNL     1     -10.434   8.567  68.710  1.00  0.00    -0.217 OA 
ENDROOT
BRANCH   2   3
HETATM    3  C   UNL     1     -10.998   9.542  69.486  1.00  0.00    -0.195 A  
HETATM    4  C   UNL     1     -11.318   9.432  70.839  1.00  0.00    -0.386 A  
HETATM    5  C   UNL     1     -11.949  10.489  71.502  1.00  0.00    -0.231 A  
HETATM    6  C   UNL     1     -12.257  11.676  70.823  1.00  0.00    -0.443 A  
HETATM    7  C   UNL     1     -11.273  10.735  68.816  1.00  0.00    -0.331 A  
HETATM    8  C   UNL     1     -11.898  11.793  69.476  1.00  0.00    -0.402 A  
BRANCH   6   9
HETATM    9  C   UNL     1     -13.085  12.760  71.472  1.00  0.00    -0.380 C  
BRANCH   9  10
HETATM   10  C   UNL     1     -13.164  14.113  70.728  1.00  0.00    -0.152 C  
HETATM   11  C   UNL     1     -14.082  15.093  71.470  1.00  0.00    -0.636 C  
BRANCH  10  12
HETATM   12  N   UNL     1     -11.845  14.765  70.601  1.00  0.00    -0.287 NA 
HETATM   13  H   UNL     1     -11.151  14.108  70.245  1.00  0.00     0.000 HD 
BRANCH  12  14
HETATM   14  C   UNL     1     -11.874  15.989  69.782  1.00  0.00    -0.227 C  
BRANCH  14  15
HETATM   15  C   UNL     1     -10.470  16.540  69.436  1.00  0.00    -0.320 C  
HETATM   16  H   UNL     1      -9.736  18.038  68.391  1.00  0.00     0.000 HD 
HETATM   17  O   UNL     1     -10.598  17.700  68.604  1.00  0.00    -0.335 OA 
BRANCH  15  18
HETATM   18  C   UNL     1      -9.527  15.520  68.832  1.00  0.00    -0.223 A  
HETATM   19  C   UNL     1      -9.880  14.886  67.626  1.00  0.00    -0.217 A  
HETATM   20  C   UNL     1      -9.049  13.920  67.047  1.00  0.00    -0.250 A  
HETATM   21  H   UNL     1      -6.173  12.435  67.644  1.00  0.00     0.000 HD 
HETATM   22  C   UNL     1      -7.840  13.610  67.683  1.00  0.00    -0.174 A  
HETATM   23  C   UNL     1      -8.302  15.202  69.433  1.00  0.00    -0.195 A  
HETATM   24  C   UNL     1      -7.461  14.250  68.860  1.00  0.00    -0.123 A  
HETATM   25  O   UNL     1      -6.993  12.646  67.213  1.00  0.00    -0.154 OA 
BRANCH  20  26
HETATM   26  N   UNL     1      -9.381  13.270  65.844  1.00  0.00    -0.481 N  
HETATM   27  H   UNL     1      -8.900  12.391  65.655  1.00  0.00     0.000 HD 
HETATM   28  O   UNL     1     -10.486  13.048  63.876  1.00  0.00    -0.392 OA 
HETATM   29  C   UNL     1     -10.277  13.685  64.899  1.00  0.00    -0.339 C  
ENDBRANCH  20  26
ENDBRANCH  15  18
ENDBRANCH  14  15
ENDBRANCH  12  14
ENDBRANCH  10  12
ENDBRANCH   9  10
ENDBRANCH   6   9
ENDBRANCH   2   3
TORSDOF 8
ENDMDL
MODEL      181
REMARK 921   NORMALIZED FREE ENERGY PREDICTED BY IDOCK:   -4.40 KCAL/MOL
REMARK 922        TOTAL FREE ENERGY PREDICTED BY IDOCK:   -8.11 KCAL/MOL
REMARK 923 INTER-LIGAND FREE ENERGY PREDICTED BY IDOCK:   -6.72 KCAL/MOL
REMARK 924 INTRA-LIGAND FREE ENERGY PREDICTED BY IDOCK:   -1.40 KCAL/MOL
REMARK 927      BINDING AFFINITY PREDICTED BY RF-SCORE:    0.00 PKD
ROOT
HETATM    1  C   UNL     1      -9.549   4.166  65.043  1.00  0.00    -0.180 C  
HETATM    2  O   UNL     1     -10.063   4.623  66.286  1.00  0.00    -0.220 OA 
ENDROOT
BRANCH   2   3
HETATM    3  C   UNL     1      -9.935   5.959  66.548  1.00  0.00    -0.153 A  
HETATM    4  C   UNL     1      -9.016   6.827  65.959  1.00  0.00    -0.129 A  
HETATM    5  C   UNL     1      -8.948   8.164  66.363  1.00  0.00    -0.207 A  
HETATM    6  C   UNL     1      -9.811   8.654  67.353  1.00  0.00    -0.249 A  
HETATM    7  C   UNL     1     -10.816   6.453  67.510  1.00  0.00    -0.438 A  
HETATM    8  C   UNL     1     -10.756   7.788  67.912  1.00  0.00    -0.165 A  
BRANCH   6   9
HETATM    9  C   UNL     1      -9.644  10.044  67.921  1.00  0.00    -0.163 C  
BRANCH   9  10
HETATM   10  C   UNL     1     -10.788  11.048  67.646  1.00  0.00    -0.256 C  
HETATM   11  C   UNL     1     -11.129  11.093  66.151  1.00  0.00    -0.152 C  
BRANCH  10  12
HETATM   12  N   UNL     1     -12.029  10.700  68.365  1.00  0.00    -0.811 NA 
HETATM   13  H   UNL     1     -12.199   9.695  68.326  1.00  0.00     0.000 HD 
BRANCH  12  14
HETATM   14  C   UNL     1     -12.054  11.181  69.757  1.00  0.00    -0.344 C  
BRANCH  14  15
HETATM   15  C   UNL     1     -12.489  10.105  70.780  1.00  0.00    -0.326 C  
HETATM   16  H   UNL     1     -13.280  10.077  72.582  1.00  0.00     0.000 HD 
HETATM   17  O   UNL     1     -13.013  10.737  71.954  1.00  0.00    -0.462 OA 
BRANCH  15  18
HETATM   18  C   UNL     1     -11.413   9.095  71.124  1.00  0.00    -0.388 A  
HETATM   19  C   UNL     1     -11.782   7.770  71.422  1.00  0.00    -0.310 A  
HETATM   20  C   UNL     1     -10.822   6.812  71.769  1.00  0.00    -0.229 A  
HETATM   21  H   UNL     1      -7.565   6.597  72.185  1.00  0.00     0.000 HD 
HETATM   22  C   UNL     1      -9.475   7.195  71.793  1.00  0.00    -0.151 A  
HETATM   23  C   UNL     1     -10.055   9.441  71.138  1.00  0.00    -0.335 A  
HETATM   24  C   UNL     1      -9.090   8.494  71.472  1.00  0.00    -0.281 A  
HETATM   25  O   UNL     1      -8.479   6.337  72.168  1.00  0.00    -0.113 OA 
BRANCH  20  26
HETATM   26  N   UNL     1     -11.167   5.483  72.074  1.00  0.00    -0.203 N  
HETATM   27  H   UNL     1     -11.269   4.848  71.282  1.00  0.00     0.000 HD 
HETATM   28  O   UNL     1     -11.689   3.773  73.468  1.00  0.00    -0.124 OA 
HETATM   29  C   UNL     1     -11.381   4.946  73.312  1.00  0.00    -0.327 C  
ENDBRANCH  20  26
ENDBRANCH  15  18
ENDBRANCH  14  15
ENDBRANCH  12  14
ENDBRANCH  10  12
ENDBRANCH   9  10
ENDBRANCH   6   9
ENDBRANCH   2   3
TORSDOF 8
ENDMDL
MODEL      182
REMARK 921   NORMALIZED FREE ENERGY PREDICTED BY IDOCK:   -4.38 KCAL/MOL
REMARK 922        TOTAL FREE ENERGY PREDICTED BY IDOCK:   -8.09 KCAL/MOL
REMARK 923 INTER-LIGAND FREE ENERGY PREDICTED BY IDOCK:   -7.22 KCAL/MOL
REMARK 924 INTRA-LIGAND FREE ENERGY PREDICTED BY IDOCK:   -0.87 KCAL/MOL
REMARK 927      BINDING AFFINITY PREDICTED BY RF-SCORE:    0.00 PKD
ROOT
HETATM    1  C   UNL     1     -11.647  12.377  63.489  1.00  0.00    -0.497 C  
HETATM    2  O   UNL     1     -12.592  12.515  64.542  1.00  0.00    -0.558 OA 
ENDROOT
BRANCH   2   3
HETATM    3  C   UNL     1     -12.097  12.872  65.766  1.00  0.00    -0.457 A  
HETATM    4  C   UNL     1     -11.239  12.110  66.559  1.00  0.00    -0.378 A  
HETATM    5  C   UNL     1     -10.855  12.568  67.823  1.00  0.00    -0.254 A  
HETATM    6  C   UNL     1     -11.314  13.802  68.305  1.00  0.00    -0.317 A  
HETATM    7  C   UNL     1     -12.528  14.115  66.230  1.00  0.00    -0.395 A  
HETATM    8  C   UNL     1     -12.143  14.577  67.489  1.00  0.00    -0.284 A  
BRANCH   6   9
HETATM    9  C   UNL     1     -11.048  14.236  69.727  1.00  0.00    -0.175 C  
BRANCH   9  10
HETATM   10  C   UNL     1     -12.031  13.723  70.805  1.00  0.00    -0.240 C  
HETATM   11  C   UNL     1     -13.230  14.670  70.948  1.00  0.00    -0.392 C  
BRANCH  10  12
HETATM   12  N   UNL     1     -12.569  12.385  70.488  1.00  0.00    -0.154 NA 
HETATM   13  H   UNL     1     -11.962  11.899  69.829  1.00  0.00     0.000 HD 
BRANCH  12  14
HETATM   14  C   UNL     1     -12.818  11.556  71.679  1.00  0.00    -0.370 C  
BRANCH  14  15
HETATM   15  C   UNL     1     -12.750  10.035  71.405  1.00  0.00    -0.415 C  
HETATM   16  H   UNL     1     -13.100   8.380  72.412  1.00  0.00     0.000 HD 
HETATM   17  O   UNL     1     -13.142   9.314  72.580  1.00  0.00    -0.418 OA 
BRANCH  15  18
HETATM   18  C   UNL     1     -11.416   9.552  70.873  1.00  0.00    -0.405 A  
HETATM   19  C   UNL     1     -10.424   9.136  71.779  1.00  0.00    -0.361 A  
HETATM   20  C   UNL     1      -9.169   8.707  71.332  1.00  0.00    -0.235 A  
HETATM   21  H   UNL     1      -7.549   8.301  68.496  1.00  0.00     0.000 HD 
HETATM   22  C   UNL     1      -8.926   8.679  69.952  1.00  0.00    -0.149 A  
HETATM   23  C   UNL     1     -11.149   9.494  69.499  1.00  0.00    -0.168 A  
HETATM   24  C   UNL     1      -9.907   9.058  69.040  1.00  0.00    -0.178 A  
HETATM   25  O   UNL     1      -7.714   8.320  69.432  1.00  0.00    -0.097 OA 
BRANCH  20  26
HETATM   26  N   UNL     1      -8.160   8.288  72.219  1.00  0.00    -0.142 N  
HETATM   27  H   UNL     1      -7.329   8.877  72.269  1.00  0.00     0.000 HD 
HETATM   28  O   UNL     1      -7.230   6.900  73.751  1.00  0.00    -0.081 OA 
HETATM   29  C   UNL     1      -8.169   7.181  73.020  1.00  0.00    -0.105 C  
ENDBRANCH  20  26
ENDBRANCH  15  18
ENDBRANCH  14  15
ENDBRANCH  12  14
ENDBRANCH  10  12
ENDBRANCH   9  10
ENDBRANCH   6   9
ENDBRANCH   2   3
TORSDOF 8
ENDMDL
MODEL      183
REMARK 921   NORMALIZED FREE ENERGY PREDICTED BY IDOCK:   -4.38 KCAL/MOL
REMARK 922        TOTAL FREE ENERGY PREDICTED BY IDOCK:   -8.08 KCAL/MOL
REMARK 923 INTER-LIGAND FREE ENERGY PREDICTED BY IDOCK:   -7.54 KCAL/MOL
REMARK 924 INTRA-LIGAND FREE ENERGY PREDICTED BY IDOCK:   -0.54 KCAL/MOL
REMARK 927      BINDING AFFINITY PREDICTED BY RF-SCORE:    0.00 PKD
ROOT
HETATM    1  C   UNL     1      -5.153  19.926  72.048  1.00  0.00    -0.213 C  
HETATM    2  O   UNL     1      -5.224  20.992  71.110  1.00  0.00    -0.518 OA 
ENDROOT
BRANCH   2   3
HETATM    3  C   UNL     1      -5.789  20.705  69.899  1.00  0.00    -0.279 A  
HETATM    4  C   UNL     1      -5.355  21.173  68.659  1.00  0.00    -0.316 A  
HETATM    5  C   UNL     1      -6.063  20.852  67.496  1.00  0.00    -0.351 A  
HETATM    6  C   UNL     1      -7.208  20.046  67.558  1.00  0.00    -0.313 A  
HETATM    7  C   UNL     1      -6.909  19.876  69.959  1.00  0.00    -0.144 A  
HETATM    8  C   UNL     1      -7.615  19.549  68.801  1.00  0.00    -0.386 A  
BRANCH   6   9
HETATM    9  C   UNL     1      -8.079  19.826  66.344  1.00  0.00    -0.350 C  
BRANCH   9  10
HETATM   10  C   UNL     1      -7.750  18.594  65.468  1.00  0.00     0.392 C  
HETATM   11  C   UNL     1      -6.244  18.502  65.195  1.00  0.00    -0.247 C  
BRANCH  10  12
HETATM   12  N   UNL     1      -8.156  17.325  66.105  1.00  0.00    -0.471 NA 
HETATM   13  H   UNL     1      -7.512  17.076  66.856  1.00  0.00     0.000 HD 
BRANCH  12  14
HETATM   14  C   UNL     1      -9.547  17.331  66.589  1.00  0.00    -0.276 C  
BRANCH  14  15
HETATM   15  C   UNL     1      -9.743  16.582  67.929  1.00  0.00    -0.236 C  
HETATM   16  H   UNL     1      -8.630  16.105  69.481  1.00  0.00     0.000 HD 
HETATM   17  O   UNL     1      -8.510  16.566  68.659  1.00  0.00    -0.220 OA 
BRANCH  15  18
HETATM   18  C   UNL     1     -10.327  15.191  67.790  1.00  0.00    -0.243 A  
HETATM   19  C   UNL     1     -10.631  14.696  66.508  1.00  0.00    -0.300 A  
HETATM   20  C   UNL     1     -11.194  13.427  66.337  1.00  0.00    -0.304 A  
HETATM   21  H   UNL     1     -12.184  10.880  68.173  1.00  0.00     0.000 HD 
HETATM   22  C   UNL     1     -11.432  12.642  67.474  1.00  0.00    -0.340 A  
HETATM   23  C   UNL     1     -10.557  14.374  68.905  1.00  0.00    -0.250 A  
HETATM   24  C   UNL     1     -11.108  13.104  68.747  1.00  0.00    -0.309 A  
HETATM   25  O   UNL     1     -12.023  11.412  67.402  1.00  0.00    -0.606 OA 
BRANCH  20  26
HETATM   26  N   UNL     1     -11.510  12.912  65.066  1.00  0.00    -0.305 N  
HETATM   27  H   UNL     1     -11.216  11.953  64.880  1.00  0.00     0.000 HD 
HETATM   28  O   UNL     1     -12.382  13.016  62.976  1.00  0.00    -0.553 OA 
HETATM   29  C   UNL     1     -12.167  13.553  64.053  1.00  0.00    -0.402 C  
ENDBRANCH  20  26
ENDBRANCH  15  18
ENDBRANCH  14  15
ENDBRANCH  12  14
ENDBRANCH  10  12
ENDBRANCH   9  10
ENDBRANCH   6   9
ENDBRANCH   2   3
TORSDOF 8
ENDMDL
MODEL      184
REMARK 921   NORMALIZED FREE ENERGY PREDICTED BY IDOCK:   -4.37 KCAL/MOL
REMARK 922        TOTAL FREE ENERGY PREDICTED BY IDOCK:   -8.08 KCAL/MOL
REMARK 923 INTER-LIGAND FREE ENERGY PREDICTED BY IDOCK:   -7.74 KCAL/MOL
REMARK 924 INTRA-LIGAND FREE ENERGY PREDICTED BY IDOCK:   -0.33 KCAL/MOL
REMARK 927      BINDING AFFINITY PREDICTED BY RF-SCORE:    0.00 PKD
ROOT
HETATM    1  C   UNL     1     -10.072   5.569  74.205  1.00  0.00    -0.256 C  
HETATM    2  O   UNL     1     -10.484   6.916  74.014  1.00  0.00    -0.374 OA 
ENDROOT
BRANCH   2   3
HETATM    3  C   UNL     1     -10.366   7.420  72.748  1.00  0.00    -0.258 A  
HETATM    4  C   UNL     1      -9.399   8.325  72.313  1.00  0.00    -0.323 A  
HETATM    5  C   UNL     1      -9.427   8.810  71.001  1.00  0.00    -0.287 A  
HETATM    6  C   UNL     1     -10.415   8.383  70.104  1.00  0.00    -0.230 A  
HETATM    7  C   UNL     1     -11.330   6.968  71.848  1.00  0.00    -0.291 A  
HETATM    8  C   UNL     1     -11.358   7.445  70.537  1.00  0.00    -0.295 A  
BRANCH   6   9
HETATM    9  C   UNL     1     -10.563   9.016  68.741  1.00  0.00    -0.196 C  
BRANCH   9  10
HETATM   10  C   UNL     1      -9.914  10.406  68.546  1.00  0.00    -0.167 C  
HETATM   11  C   UNL     1      -8.784  10.343  67.511  1.00  0.00    -0.125 C  
BRANCH  10  12
HETATM   12  N   UNL     1     -10.880  11.419  68.074  1.00  0.00    -0.203 NA 
HETATM   13  H   UNL     1     -11.389  11.079  67.259  1.00  0.00     0.000 HD 
BRANCH  12  14
HETATM   14  C   UNL     1     -11.812  11.872  69.121  1.00  0.00    -0.311 C  
BRANCH  14  15
HETATM   15  C   UNL     1     -11.544  13.315  69.611  1.00  0.00    -0.261 C  
HETATM   16  H   UNL     1     -12.512  14.678  70.651  1.00  0.00     0.000 HD 
HETATM   17  O   UNL     1     -12.676  13.792  70.350  1.00  0.00    -0.276 OA 
BRANCH  15  18
HETATM   18  C   UNL     1     -11.141  14.284  68.519  1.00  0.00    -0.276 A  
HETATM   19  C   UNL     1     -11.706  14.151  67.237  1.00  0.00    -0.421 A  
HETATM   20  C   UNL     1     -11.343  15.010  66.193  1.00  0.00    -0.270 A  
HETATM   21  H   UNL     1      -9.341  17.567  65.663  1.00  0.00     0.000 HD 
HETATM   22  C   UNL     1     -10.416  16.026  66.457  1.00  0.00    -0.302 A  
HETATM   23  C   UNL     1     -10.231  15.324  68.755  1.00  0.00    -0.227 A  
HETATM   24  C   UNL     1      -9.870  16.192  67.727  1.00  0.00    -0.232 A  
HETATM   25  O   UNL     1      -9.970  16.877  65.484  1.00  0.00    -0.572 OA 
BRANCH  20  26
HETATM   26  N   UNL     1     -11.892  14.894  64.903  1.00  0.00    -0.363 N  
HETATM   27  H   UNL     1     -12.142  15.766  64.437  1.00  0.00     0.000 HD 
HETATM   28  O   UNL     1     -12.622  13.752  63.085  1.00  0.00    -0.793 OA 
HETATM   29  C   UNL     1     -12.127  13.744  64.203  1.00  0.00    -0.433 C  
ENDBRANCH  20  26
ENDBRANCH  15  18
ENDBRANCH  14  15
ENDBRANCH  12  14
ENDBRANCH  10  12
ENDBRANCH   9  10
ENDBRANCH   6   9
ENDBRANCH   2   3
TORSDOF 8
ENDMDL
MODEL      185
REMARK 921   NORMALIZED FREE ENERGY PREDICTED BY IDOCK:   -4.37 KCAL/MOL
REMARK 922        TOTAL FREE ENERGY PREDICTED BY IDOCK:   -8.07 KCAL/MOL
REMARK 923 INTER-LIGAND FREE ENERGY PREDICTED BY IDOCK:   -7.20 KCAL/MOL
REMARK 924 INTRA-LIGAND FREE ENERGY PREDICTED BY IDOCK:   -0.87 KCAL/MOL
REMARK 927      BINDING AFFINITY PREDICTED BY RF-SCORE:    0.00 PKD
ROOT
HETATM    1  C   UNL     1     -12.734  14.111  65.517  1.00  0.00    -0.443 C  
HETATM    2  O   UNL     1     -12.640  12.844  64.879  1.00  0.00    -0.550 OA 
ENDROOT
BRANCH   2   3
HETATM    3  C   UNL     1     -11.588  12.051  65.244  1.00  0.00    -0.279 A  
HETATM    4  C   UNL     1     -11.137  11.834  66.546  1.00  0.00    -0.364 A  
HETATM    5  C   UNL     1     -10.006  11.044  66.778  1.00  0.00    -0.240 A  
HETATM    6  C   UNL     1      -9.320  10.449  65.711  1.00  0.00    -0.230 A  
HETATM    7  C   UNL     1     -10.926  11.433  64.183  1.00  0.00    -0.411 A  
HETATM    8  C   UNL     1      -9.801  10.640  64.411  1.00  0.00    -0.395 A  
BRANCH   6   9
HETATM    9  C   UNL     1      -8.007   9.733  65.923  1.00  0.00    -0.111 C  
BRANCH   9  10
HETATM   10  C   UNL     1      -7.977   8.223  65.591  1.00  0.00    -0.113 C  
HETATM   11  C   UNL     1      -6.708   7.565  66.149  1.00  0.00    -0.053 C  
BRANCH  10  12
HETATM   12  N   UNL     1      -9.129   7.497  66.160  1.00  0.00    -0.271 NA 
HETATM   13  H   UNL     1      -9.767   7.196  65.423  1.00  0.00     0.000 HD 
BRANCH  12  14
HETATM   14  C   UNL     1      -8.742   6.360  67.012  1.00  0.00    -0.115 C  
BRANCH  14  15
HETATM   15  C   UNL     1      -9.933   5.471  67.444  1.00  0.00    -0.162 C  
HETATM   16  H   UNL     1     -11.764   5.122  66.811  1.00  0.00     0.000 HD 
HETATM   17  O   UNL     1     -11.033   5.668  66.546  1.00  0.00    -0.252 OA 
BRANCH  15  18
HETATM   18  C   UNL     1     -10.354   5.644  68.888  1.00  0.00    -0.295 A  
HETATM   19  C   UNL     1     -11.211   6.705  69.234  1.00  0.00    -0.326 A  
HETATM   20  C   UNL     1     -11.605   6.915  70.560  1.00  0.00    -0.346 A  
HETATM   21  H   UNL     1     -11.125   5.589  73.534  1.00  0.00     0.000 HD 
HETATM   22  C   UNL     1     -11.143   6.030  71.543  1.00  0.00    -0.276 A  
HETATM   23  C   UNL     1      -9.925   4.764  69.891  1.00  0.00    -0.306 A  
HETATM   24  C   UNL     1     -10.319   4.957  71.214  1.00  0.00    -0.219 A  
HETATM   25  O   UNL     1     -11.438   6.190  72.867  1.00  0.00    -0.216 OA 
BRANCH  20  26
HETATM   26  N   UNL     1     -12.459   7.971  70.930  1.00  0.00    -0.509 N  
HETATM   27  H   UNL     1     -13.459   7.774  70.908  1.00  0.00     0.000 HD 
HETATM   28  O   UNL     1     -12.924  10.084  71.607  1.00  0.00    -0.379 OA 
HETATM   29  C   UNL     1     -12.097   9.232  71.315  1.00  0.00    -0.337 C  
ENDBRANCH  20  26
ENDBRANCH  15  18
ENDBRANCH  14  15
ENDBRANCH  12  14
ENDBRANCH  10  12
ENDBRANCH   9  10
ENDBRANCH   6   9
ENDBRANCH   2   3
TORSDOF 8
ENDMDL
MODEL      186
REMARK 921   NORMALIZED FREE ENERGY PREDICTED BY IDOCK:   -4.35 KCAL/MOL
REMARK 922        TOTAL FREE ENERGY PREDICTED BY IDOCK:   -8.05 KCAL/MOL
REMARK 923 INTER-LIGAND FREE ENERGY PREDICTED BY IDOCK:   -6.66 KCAL/MOL
REMARK 924 INTRA-LIGAND FREE ENERGY PREDICTED BY IDOCK:   -1.39 KCAL/MOL
REMARK 927      BINDING AFFINITY PREDICTED BY RF-SCORE:    0.00 PKD
ROOT
HETATM    1  C   UNL     1      -6.282   9.872  67.745  1.00  0.00    -0.055 C  
HETATM    2  O   UNL     1      -5.496  10.976  67.317  1.00  0.00    -0.041 OA 
ENDROOT
BRANCH   2   3
HETATM    3  C   UNL     1      -5.924  12.218  67.698  1.00  0.00    -0.119 A  
HETATM    4  C   UNL     1      -5.156  13.190  68.338  1.00  0.00    -0.074 A  
HETATM    5  C   UNL     1      -5.735  14.401  68.729  1.00  0.00    -0.086 A  
HETATM    6  C   UNL     1      -7.088  14.661  68.472  1.00  0.00    -0.112 A  
HETATM    7  C   UNL     1      -7.262  12.487  67.411  1.00  0.00    -0.146 A  
HETATM    8  C   UNL     1      -7.842  13.696  67.795  1.00  0.00    -0.172 A  
BRANCH   6   9
HETATM    9  C   UNL     1      -7.772  15.886  69.031  1.00  0.00    -0.209 C  
BRANCH   9  10
HETATM   10  C   UNL     1      -7.710  17.170  68.171  1.00  0.00    -0.204 C  
HETATM   11  C   UNL     1      -7.353  16.838  66.717  1.00  0.00    -0.275 C  
BRANCH  10  12
HETATM   12  N   UNL     1      -8.995  17.896  68.149  1.00  0.00    -0.262 NA 
HETATM   13  H   UNL     1      -8.885  18.812  67.715  1.00  0.00     0.000 HD 
BRANCH  12  14
HETATM   14  C   UNL     1     -10.083  17.141  67.505  1.00  0.00    -0.301 C  
BRANCH  14  15
HETATM   15  C   UNL     1     -11.100  16.539  68.504  1.00  0.00    -0.335 C  
HETATM   16  H   UNL     1     -11.344  16.510  70.458  1.00  0.00     0.000 HD 
HETATM   17  O   UNL     1     -10.720  16.880  69.844  1.00  0.00    -0.257 OA 
BRANCH  15  18
HETATM   18  C   UNL     1     -11.324  15.049  68.350  1.00  0.00    -0.323 A  
HETATM   19  C   UNL     1     -11.417  14.497  67.060  1.00  0.00    -0.383 A  
HETATM   20  C   UNL     1     -11.648  13.129  66.873  1.00  0.00    -0.368 A  
HETATM   21  H   UNL     1     -12.122  10.420  68.681  1.00  0.00     0.000 HD 
HETATM   22  C   UNL     1     -11.767  12.311  68.004  1.00  0.00    -0.356 A  
HETATM   23  C   UNL     1     -11.427  14.201  69.461  1.00  0.00    -0.334 A  
HETATM   24  C   UNL     1     -11.648  12.836  69.288  1.00  0.00    -0.372 A  
HETATM   25  O   UNL     1     -12.042  10.975  67.913  1.00  0.00    -0.600 OA 
BRANCH  20  26
HETATM   26  N   UNL     1     -11.747  12.554  65.593  1.00  0.00    -0.403 N  
HETATM   27  H   UNL     1     -11.876  11.543  65.559  1.00  0.00     0.000 HD 
HETATM   28  O   UNL     1     -11.776  12.600  63.326  1.00  0.00    -0.495 OA 
HETATM   29  C   UNL     1     -11.690  13.199  64.389  1.00  0.00    -0.380 C  
ENDBRANCH  20  26
ENDBRANCH  15  18
ENDBRANCH  14  15
ENDBRANCH  12  14
ENDBRANCH  10  12
ENDBRANCH   9  10
ENDBRANCH   6   9
ENDBRANCH   2   3
TORSDOF 8
ENDMDL
MODEL      187
REMARK 921   NORMALIZED FREE ENERGY PREDICTED BY IDOCK:   -4.35 KCAL/MOL
REMARK 922        TOTAL FREE ENERGY PREDICTED BY IDOCK:   -8.04 KCAL/MOL
REMARK 923 INTER-LIGAND FREE ENERGY PREDICTED BY IDOCK:   -6.48 KCAL/MOL
REMARK 924 INTRA-LIGAND FREE ENERGY PREDICTED BY IDOCK:   -1.56 KCAL/MOL
REMARK 927      BINDING AFFINITY PREDICTED BY RF-SCORE:    0.00 PKD
ROOT
HETATM    1  C   UNL     1      -8.945   9.762  65.343  1.00  0.00    -0.190 C  
HETATM    2  O   UNL     1      -9.060   8.610  66.168  1.00  0.00    -0.174 OA 
ENDROOT
BRANCH   2   3
HETATM    3  C   UNL     1      -9.322   8.828  67.492  1.00  0.00    -0.136 A  
HETATM    4  C   UNL     1      -8.851   9.894  68.258  1.00  0.00    -0.119 A  
HETATM    5  C   UNL     1      -9.145   9.967  69.623  1.00  0.00    -0.245 A  
HETATM    6  C   UNL     1      -9.929   8.980  70.237  1.00  0.00    -0.229 A  
HETATM    7  C   UNL     1     -10.130   7.863  68.094  1.00  0.00    -0.228 A  
HETATM    8  C   UNL     1     -10.430   7.935  69.455  1.00  0.00    -0.222 A  
BRANCH   6   9
HETATM    9  C   UNL     1     -10.119   8.950  71.735  1.00  0.00    -0.407 C  
BRANCH   9  10
HETATM   10  C   UNL     1     -10.683   7.642  72.337  1.00  0.00    -0.280 C  
HETATM   11  C   UNL     1      -9.992   7.307  73.665  1.00  0.00    -0.377 C  
BRANCH  10  12
HETATM   12  N   UNL     1     -12.132   7.726  72.611  1.00  0.00    -0.588 NA 
HETATM   13  H   UNL     1     -12.396   7.088  73.361  1.00  0.00     0.000 HD 
BRANCH  12  14
HETATM   14  C   UNL     1     -12.594   9.094  72.903  1.00  0.00     0.346 C  
BRANCH  14  15
HETATM   15  C   UNL     1     -13.589   9.652  71.859  1.00  0.00    -0.364 C  
HETATM   16  H   UNL     1     -14.564   8.959  70.295  1.00  0.00     0.000 HD 
HETATM   17  O   UNL     1     -13.953   8.617  70.936  1.00  0.00     0.003 OA 
BRANCH  15  18
HETATM   18  C   UNL     1     -13.112  10.897  71.139  1.00  0.00    -0.351 A  
HETATM   19  C   UNL     1     -13.132  12.132  71.813  1.00  0.00    -0.457 A  
HETATM   20  C   UNL     1     -12.724  13.310  71.177  1.00  0.00    -0.320 A  
HETATM   21  H   UNL     1     -11.593  14.287  68.245  1.00  0.00     0.000 HD 
HETATM   22  C   UNL     1     -12.271  13.232  69.854  1.00  0.00    -0.246 A  
HETATM   23  C   UNL     1     -12.635  10.850  69.822  1.00  0.00    -0.150 A  
HETATM   24  C   UNL     1     -12.216  12.014  69.182  1.00  0.00    -0.106 A  
HETATM   25  O   UNL     1     -11.900  14.339  69.143  1.00  0.00    -0.293 OA 
BRANCH  20  26
HETATM   26  N   UNL     1     -12.738  14.557  71.829  1.00  0.00    -0.329 N  
HETATM   27  H   UNL     1     -11.903  15.133  71.724  1.00  0.00     0.000 HD 
HETATM   28  O   UNL     1     -13.651  16.178  73.124  1.00  0.00    -0.562 OA 
HETATM   29  C   UNL     1     -13.745  15.083  72.588  1.00  0.00    -0.456 C  
ENDBRANCH  20  26
ENDBRANCH  15  18
ENDBRANCH  14  15
ENDBRANCH  12  14
ENDBRANCH  10  12
ENDBRANCH   9  10
ENDBRANCH   6   9
ENDBRANCH   2   3
TORSDOF 8
ENDMDL
MODEL      188
REMARK 921   NORMALIZED FREE ENERGY PREDICTED BY IDOCK:   -4.35 KCAL/MOL
REMARK 922        TOTAL FREE ENERGY PREDICTED BY IDOCK:   -8.04 KCAL/MOL
REMARK 923 INTER-LIGAND FREE ENERGY PREDICTED BY IDOCK:   -6.20 KCAL/MOL
REMARK 924 INTRA-LIGAND FREE ENERGY PREDICTED BY IDOCK:   -1.84 KCAL/MOL
REMARK 927      BINDING AFFINITY PREDICTED BY RF-SCORE:    0.00 PKD
ROOT
HETATM    1  C   UNL     1      -7.202  10.133  69.947  1.00  0.00    -0.154 C  
HETATM    2  O   UNL     1      -6.127  11.055  69.833  1.00  0.00    -0.083 OA 
ENDROOT
BRANCH   2   3
HETATM    3  C   UNL     1      -6.389  12.223  69.170  1.00  0.00    -0.095 A  
HETATM    4  C   UNL     1      -5.731  13.438  69.358  1.00  0.00    -0.087 A  
HETATM    5  C   UNL     1      -6.140  14.577  68.655  1.00  0.00    -0.084 A  
HETATM    6  C   UNL     1      -7.204  14.509  67.745  1.00  0.00    -0.192 A  
HETATM    7  C   UNL     1      -7.426  12.146  68.240  1.00  0.00    -0.107 A  
HETATM    8  C   UNL     1      -7.833  13.278  67.534  1.00  0.00    -0.173 A  
BRANCH   6   9
HETATM    9  C   UNL     1      -7.767  15.756  67.104  1.00  0.00    -0.255 C  
BRANCH   9  10
HETATM   10  C   UNL     1      -8.106  16.931  68.050  1.00  0.00    -0.194 C  
HETATM   11  C   UNL     1      -8.662  18.125  67.263  1.00  0.00    -0.244 C  
BRANCH  10  12
HETATM   12  N   UNL     1      -9.120  16.567  69.061  1.00  0.00    -0.252 NA 
HETATM   13  H   UNL     1      -8.849  16.907  69.983  1.00  0.00     0.000 HD 
BRANCH  12  14
HETATM   14  C   UNL     1     -10.479  17.018  68.716  1.00  0.00    -0.347 C  
BRANCH  14  15
HETATM   15  C   UNL     1     -11.593  16.053  69.186  1.00  0.00    -0.336 C  
HETATM   16  H   UNL     1     -12.266  15.369  70.905  1.00  0.00     0.000 HD 
HETATM   17  O   UNL     1     -11.582  15.962  70.616  1.00  0.00    -0.344 OA 
BRANCH  15  18
HETATM   18  C   UNL     1     -11.551  14.684  68.539  1.00  0.00    -0.346 A  
HETATM   19  C   UNL     1     -11.359  13.547  69.346  1.00  0.00    -0.293 A  
HETATM   20  C   UNL     1     -11.290  12.266  68.786  1.00  0.00    -0.289 A  
HETATM   21  H   UNL     1     -11.435  10.837  65.825  1.00  0.00     0.000 HD 
HETATM   22  C   UNL     1     -11.437  12.134  67.400  1.00  0.00    -0.345 A  
HETATM   23  C   UNL     1     -11.716  14.516  67.158  1.00  0.00    -0.420 A  
HETATM   24  C   UNL     1     -11.658  13.245  66.590  1.00  0.00    -0.408 A  
HETATM   25  O   UNL     1     -11.334  10.927  66.766  1.00  0.00    -0.288 OA 
BRANCH  20  26
HETATM   26  N   UNL     1     -11.095  11.115  69.572  1.00  0.00    -0.299 N  
HETATM   27  H   UNL     1     -10.141  10.760  69.628  1.00  0.00     0.000 HD 
HETATM   28  O   UNL     1     -11.769   9.418  70.916  1.00  0.00    -0.281 OA 
HETATM   29  C   UNL     1     -12.043  10.419  70.269  1.00  0.00    -0.286 C  
ENDBRANCH  20  26
ENDBRANCH  15  18
ENDBRANCH  14  15
ENDBRANCH  12  14
ENDBRANCH  10  12
ENDBRANCH   9  10
ENDBRANCH   6   9
ENDBRANCH   2   3
TORSDOF 8
ENDMDL
MODEL      189
REMARK 921   NORMALIZED FREE ENERGY PREDICTED BY IDOCK:   -4.34 KCAL/MOL
REMARK 922        TOTAL FREE ENERGY PREDICTED BY IDOCK:   -8.03 KCAL/MOL
REMARK 923 INTER-LIGAND FREE ENERGY PREDICTED BY IDOCK:   -6.55 KCAL/MOL
REMARK 924 INTRA-LIGAND FREE ENERGY PREDICTED BY IDOCK:   -1.49 KCAL/MOL
REMARK 927      BINDING AFFINITY PREDICTED BY RF-SCORE:    0.00 PKD
ROOT
HETATM    1  C   UNL     1     -13.211  12.521  71.959  1.00  0.00    -0.419 C  
HETATM    2  O   UNL     1     -13.617  11.178  71.736  1.00  0.00    -0.189 OA 
ENDROOT
BRANCH   2   3
HETATM    3  C   UNL     1     -12.625  10.238  71.687  1.00  0.00    -0.432 A  
HETATM    4  C   UNL     1     -11.446  10.326  70.948  1.00  0.00    -0.425 A  
HETATM    5  C   UNL     1     -10.539   9.262  70.937  1.00  0.00    -0.366 A  
HETATM    6  C   UNL     1     -10.793   8.100  71.679  1.00  0.00    -0.306 A  
HETATM    7  C   UNL     1     -12.865   9.096  72.452  1.00  0.00    -0.438 A  
HETATM    8  C   UNL     1     -11.959   8.034  72.448  1.00  0.00    -0.405 A  
BRANCH   6   9
HETATM    9  C   UNL     1      -9.913   6.880  71.550  1.00  0.00    -0.185 C  
BRANCH   9  10
HETATM   10  C   UNL     1      -9.830   6.228  70.150  1.00  0.00    -0.170 C  
HETATM   11  C   UNL     1     -11.188   6.285  69.438  1.00  0.00    -0.489 C  
BRANCH  10  12
HETATM   12  N   UNL     1      -8.851   6.900  69.272  1.00  0.00    -0.138 NA 
HETATM   13  H   UNL     1      -8.060   6.287  69.078  1.00  0.00     0.000 HD 
BRANCH  12  14
HETATM   14  C   UNL     1      -9.438   7.408  68.021  1.00  0.00    -0.141 C  
BRANCH  14  15
HETATM   15  C   UNL     1      -8.710   8.648  67.450  1.00  0.00    -0.134 C  
HETATM   16  H   UNL     1      -6.969   9.532  67.703  1.00  0.00     0.000 HD 
HETATM   17  O   UNL     1      -7.416   8.770  68.054  1.00  0.00    -0.090 OA 
BRANCH  15  18
HETATM   18  C   UNL     1      -9.496   9.939  67.551  1.00  0.00    -0.173 A  
HETATM   19  C   UNL     1      -8.881  11.079  68.099  1.00  0.00    -0.141 A  
HETATM   20  C   UNL     1      -9.579  12.284  68.233  1.00  0.00    -0.212 A  
HETATM   21  H   UNL     1     -12.576  13.500  67.625  1.00  0.00     0.000 HD 
HETATM   22  C   UNL     1     -10.907  12.341  67.788  1.00  0.00    -0.221 A  
HETATM   23  C   UNL     1     -10.819  10.033  67.097  1.00  0.00    -0.240 A  
HETATM   24  C   UNL     1     -11.521  11.231  67.216  1.00  0.00    -0.265 A  
HETATM   25  O   UNL     1     -11.676  13.462  67.926  1.00  0.00    -0.320 OA 
BRANCH  20  26
HETATM   26  N   UNL     1      -8.986  13.437  68.781  1.00  0.00    -0.388 N  
HETATM   27  H   UNL     1      -9.428  13.821  69.615  1.00  0.00     0.000 HD 
HETATM   28  O   UNL     1      -7.453  15.105  68.865  1.00  0.00    -0.122 OA 
HETATM   29  C   UNL     1      -7.883  14.100  68.318  1.00  0.00    -0.138 C  
ENDBRANCH  20  26
ENDBRANCH  15  18
ENDBRANCH  14  15
ENDBRANCH  12  14
ENDBRANCH  10  12
ENDBRANCH   9  10
ENDBRANCH   6   9
ENDBRANCH   2   3
TORSDOF 8
ENDMDL
MODEL      190
REMARK 921   NORMALIZED FREE ENERGY PREDICTED BY IDOCK:   -4.33 KCAL/MOL
REMARK 922        TOTAL FREE ENERGY PREDICTED BY IDOCK:   -8.01 KCAL/MOL
REMARK 923 INTER-LIGAND FREE ENERGY PREDICTED BY IDOCK:   -6.46 KCAL/MOL
REMARK 924 INTRA-LIGAND FREE ENERGY PREDICTED BY IDOCK:   -1.55 KCAL/MOL
REMARK 927      BINDING AFFINITY PREDICTED BY RF-SCORE:    0.00 PKD
ROOT
HETATM    1  C   UNL     1     -10.005   6.906  72.171  1.00  0.00    -0.162 C  
HETATM    2  O   UNL     1      -9.509   8.218  71.936  1.00  0.00    -0.176 OA 
ENDROOT
BRANCH   2   3
HETATM    3  C   UNL     1      -9.614   8.692  70.658  1.00  0.00    -0.186 A  
HETATM    4  C   UNL     1      -8.957   9.808  70.141  1.00  0.00    -0.235 A  
HETATM    5  C   UNL     1      -9.201  10.224  68.828  1.00  0.00    -0.166 A  
HETATM    6  C   UNL     1     -10.096   9.519  68.011  1.00  0.00    -0.226 A  
HETATM    7  C   UNL     1     -10.479   7.970  69.837  1.00  0.00    -0.233 A  
HETATM    8  C   UNL     1     -10.722   8.379  68.525  1.00  0.00    -0.069 A  
BRANCH   6   9
HETATM    9  C   UNL     1     -10.499  10.045  66.653  1.00  0.00    -0.244 C  
BRANCH   9  10
HETATM   10  C   UNL     1      -9.364  10.587  65.753  1.00  0.00    -0.188 C  
HETATM   11  C   UNL     1      -9.402   9.928  64.368  1.00  0.00    -0.326 C  
BRANCH  10  12
HETATM   12  N   UNL     1      -9.457  12.045  65.544  1.00  0.00    -0.405 NA 
HETATM   13  H   UNL     1      -9.624  12.259  64.561  1.00  0.00     0.000 HD 
BRANCH  12  14
HETATM   14  C   UNL     1     -10.466  12.696  66.398  1.00  0.00    -0.249 C  
BRANCH  14  15
HETATM   15  C   UNL     1      -9.896  13.834  67.277  1.00  0.00    -0.241 C  
HETATM   16  H   UNL     1      -8.144  14.323  68.032  1.00  0.00     0.000 HD 
HETATM   17  O   UNL     1      -8.494  13.624  67.492  1.00  0.00    -0.165 OA 
BRANCH  15  18
HETATM   18  C   UNL     1     -10.634  14.048  68.583  1.00  0.00    -0.263 A  
HETATM   19  C   UNL     1     -11.345  12.978  69.156  1.00  0.00    -0.328 A  
HETATM   20  C   UNL     1     -12.061  13.140  70.348  1.00  0.00    -0.317 A  
HETATM   21  H   UNL     1     -12.732  15.499  72.541  1.00  0.00     0.000 HD 
HETATM   22  C   UNL     1     -12.038  14.392  70.976  1.00  0.00    -0.349 A  
HETATM   23  C   UNL     1     -10.615  15.283  69.246  1.00  0.00    -0.256 A  
HETATM   24  C   UNL     1     -11.315  15.453  70.439  1.00  0.00    -0.350 A  
HETATM   25  O   UNL     1     -12.748  14.650  72.115  1.00  0.00    -0.314 OA 
BRANCH  20  26
HETATM   26  N   UNL     1     -12.781  12.085  70.938  1.00  0.00    -0.256 N  
HETATM   27  H   UNL     1     -13.543  12.350  71.562  1.00  0.00     0.000 HD 
HETATM   28  O   UNL     1     -13.255   9.904  71.340  1.00  0.00    -0.375 OA 
HETATM   29  C   UNL     1     -12.575  10.744  70.768  1.00  0.00    -0.383 C  
ENDBRANCH  20  26
ENDBRANCH  15  18
ENDBRANCH  14  15
ENDBRANCH  12  14
ENDBRANCH  10  12
ENDBRANCH   9  10
ENDBRANCH   6   9
ENDBRANCH   2   3
TORSDOF 8
ENDMDL
MODEL      191
REMARK 921   NORMALIZED FREE ENERGY PREDICTED BY IDOCK:   -4.32 KCAL/MOL
REMARK 922        TOTAL FREE ENERGY PREDICTED BY IDOCK:   -8.00 KCAL/MOL
REMARK 923 INTER-LIGAND FREE ENERGY PREDICTED BY IDOCK:   -6.50 KCAL/MOL
REMARK 924 INTRA-LIGAND FREE ENERGY PREDICTED BY IDOCK:   -1.50 KCAL/MOL
REMARK 927      BINDING AFFINITY PREDICTED BY RF-SCORE:    0.00 PKD
ROOT
HETATM    1  C   UNL     1      -7.312   9.343  65.189  1.00  0.00    -0.104 C  
HETATM    2  O   UNL     1      -8.607   8.878  65.546  1.00  0.00    -0.148 OA 
ENDROOT
BRANCH   2   3
HETATM    3  C   UNL     1      -8.755   8.393  66.816  1.00  0.00    -0.128 A  
HETATM    4  C   UNL     1      -7.930   8.675  67.904  1.00  0.00    -0.107 A  
HETATM    5  C   UNL     1      -8.158   8.062  69.140  1.00  0.00    -0.119 A  
HETATM    6  C   UNL     1      -9.224   7.168  69.307  1.00  0.00    -0.140 A  
HETATM    7  C   UNL     1      -9.837   7.529  66.989  1.00  0.00    -0.280 A  
HETATM    8  C   UNL     1     -10.070   6.919  68.222  1.00  0.00    -0.182 A  
BRANCH   6   9
HETATM    9  C   UNL     1      -9.387   6.371  70.580  1.00  0.00    -0.169 C  
BRANCH   9  10
HETATM   10  C   UNL     1     -10.471   6.857  71.570  1.00  0.00    -0.212 C  
HETATM   11  C   UNL     1     -10.185   6.347  72.989  1.00  0.00    -0.216 C  
BRANCH  10  12
HETATM   12  N   UNL     1     -10.545   8.330  71.646  1.00  0.00    -0.227 NA 
HETATM   13  H   UNL     1      -9.739   8.756  71.191  1.00  0.00     0.000 HD 
BRANCH  12  14
HETATM   14  C   UNL     1     -11.800   8.881  71.106  1.00  0.00    -0.298 C  
BRANCH  14  15
HETATM   15  C   UNL     1     -11.876  10.425  71.159  1.00  0.00    -0.337 C  
HETATM   16  H   UNL     1     -13.116  11.776  71.877  1.00  0.00     0.000 HD 
HETATM   17  O   UNL     1     -13.069  10.827  71.845  1.00  0.00    -0.481 OA 
BRANCH  15  18
HETATM   18  C   UNL     1     -11.751  11.106  69.812  1.00  0.00    -0.419 A  
HETATM   19  C   UNL     1     -11.994  12.489  69.714  1.00  0.00    -0.359 A  
HETATM   20  C   UNL     1     -11.913  13.152  68.485  1.00  0.00    -0.289 A  
HETATM   21  H   UNL     1     -11.269  12.469  65.330  1.00  0.00     0.000 HD 
HETATM   22  C   UNL     1     -11.562  12.413  67.348  1.00  0.00    -0.365 A  
HETATM   23  C   UNL     1     -11.382  10.399  68.660  1.00  0.00    -0.277 A  
HETATM   24  C   UNL     1     -11.288  11.050  67.432  1.00  0.00    -0.306 A  
HETATM   25  O   UNL     1     -11.507  12.971  66.102  1.00  0.00    -0.312 OA 
BRANCH  20  26
HETATM   26  N   UNL     1     -12.154  14.533  68.361  1.00  0.00    -0.578 N  
HETATM   27  H   UNL     1     -13.064  14.802  67.987  1.00  0.00     0.000 HD 
HETATM   28  O   UNL     1     -11.611  16.728  68.529  1.00  0.00    -0.103 OA 
HETATM   29  C   UNL     1     -11.306  15.554  68.687  1.00  0.00    -0.344 C  
ENDBRANCH  20  26
ENDBRANCH  15  18
ENDBRANCH  14  15
ENDBRANCH  12  14
ENDBRANCH  10  12
ENDBRANCH   9  10
ENDBRANCH   6   9
ENDBRANCH   2   3
TORSDOF 8
ENDMDL
MODEL      192
REMARK 921   NORMALIZED FREE ENERGY PREDICTED BY IDOCK:   -4.32 KCAL/MOL
REMARK 922        TOTAL FREE ENERGY PREDICTED BY IDOCK:   -8.00 KCAL/MOL
REMARK 923 INTER-LIGAND FREE ENERGY PREDICTED BY IDOCK:   -6.79 KCAL/MOL
REMARK 924 INTRA-LIGAND FREE ENERGY PREDICTED BY IDOCK:   -1.21 KCAL/MOL
REMARK 927      BINDING AFFINITY PREDICTED BY RF-SCORE:    0.00 PKD
ROOT
HETATM    1  C   UNL     1      -9.201   9.461  62.473  1.00  0.00    -0.031 C  
HETATM    2  O   UNL     1      -9.019   9.419  63.882  1.00  0.00    -0.216 OA 
ENDROOT
BRANCH   2   3
HETATM    3  C   UNL     1      -9.385  10.536  64.581  1.00  0.00    -0.248 A  
HETATM    4  C   UNL     1      -8.672  11.120  65.628  1.00  0.00    -0.126 A  
HETATM    5  C   UNL     1      -9.190  12.230  66.301  1.00  0.00    -0.171 A  
HETATM    6  C   UNL     1     -10.423  12.781  65.925  1.00  0.00    -0.295 A  
HETATM    7  C   UNL     1     -10.596  11.103  64.184  1.00  0.00    -0.436 A  
HETATM    8  C   UNL     1     -11.114  12.214  64.849  1.00  0.00    -0.367 A  
BRANCH   6   9
HETATM    9  C   UNL     1     -11.077  13.870  66.742  1.00  0.00    -0.310 C  
BRANCH   9  10
HETATM   10  C   UNL     1     -12.090  13.418  67.820  1.00  0.00    -0.259 C  
HETATM   11  C   UNL     1     -11.544  12.226  68.617  1.00  0.00    -0.372 C  
BRANCH  10  12
HETATM   12  N   UNL     1     -12.395  14.487  68.791  1.00  0.00    -0.586 NA 
HETATM   13  H   UNL     1     -13.397  14.675  68.819  1.00  0.00     0.000 HD 
BRANCH  12  14
HETATM   14  C   UNL     1     -11.877  14.215  70.143  1.00  0.00    -0.313 C  
BRANCH  14  15
HETATM   15  C   UNL     1     -10.930  15.314  70.680  1.00  0.00    -0.284 C  
HETATM   16  H   UNL     1     -11.105  16.971  71.729  1.00  0.00     0.000 HD 
HETATM   17  O   UNL     1     -11.686  16.296  71.399  1.00  0.00    -0.446 OA 
BRANCH  15  18
HETATM   18  C   UNL     1     -10.048  15.952  69.626  1.00  0.00    -0.271 A  
HETATM   19  C   UNL     1      -8.819  15.350  69.299  1.00  0.00    -0.258 A  
HETATM   20  C   UNL     1      -7.964  15.920  68.350  1.00  0.00    -0.147 A  
HETATM   21  H   UNL     1      -7.845  18.549  66.373  1.00  0.00     0.000 HD 
HETATM   22  C   UNL     1      -8.366  17.099  67.710  1.00  0.00    -0.202 A  
HETATM   23  C   UNL     1     -10.431  17.121  68.954  1.00  0.00    -0.346 A  
HETATM   24  C   UNL     1      -9.592  17.692  68.000  1.00  0.00    -0.289 A  
HETATM   25  O   UNL     1      -7.571  17.748  66.807  1.00  0.00    -0.192 OA 
BRANCH  20  26
HETATM   26  N   UNL     1      -6.729  15.337  68.008  1.00  0.00    -0.130 N  
HETATM   27  H   UNL     1      -5.942  15.976  67.897  1.00  0.00     0.000 HD 
HETATM   28  O   UNL     1      -5.354  13.607  67.502  1.00  0.00    -0.323 OA 
HETATM   29  C   UNL     1      -6.467  14.010  67.808  1.00  0.00    -0.170 C  
ENDBRANCH  20  26
ENDBRANCH  15  18
ENDBRANCH  14  15
ENDBRANCH  12  14
ENDBRANCH  10  12
ENDBRANCH   9  10
ENDBRANCH   6   9
ENDBRANCH   2   3
TORSDOF 8
ENDMDL
MODEL      193
REMARK 921   NORMALIZED FREE ENERGY PREDICTED BY IDOCK:   -4.29 KCAL/MOL
REMARK 922        TOTAL FREE ENERGY PREDICTED BY IDOCK:   -7.95 KCAL/MOL
REMARK 923 INTER-LIGAND FREE ENERGY PREDICTED BY IDOCK:   -7.05 KCAL/MOL
REMARK 924 INTRA-LIGAND FREE ENERGY PREDICTED BY IDOCK:   -0.90 KCAL/MOL
REMARK 927      BINDING AFFINITY PREDICTED BY RF-SCORE:    0.00 PKD
ROOT
HETATM    1  C   UNL     1     -11.904  15.736  72.332  1.00  0.00    -0.501 C  
HETATM    2  O   UNL     1     -12.040  15.935  70.931  1.00  0.00    -0.389 OA 
ENDROOT
BRANCH   2   3
HETATM    3  C   UNL     1     -12.029  14.813  70.150  1.00  0.00    -0.312 A  
HETATM    4  C   UNL     1     -12.164  13.499  70.598  1.00  0.00    -0.434 A  
HETATM    5  C   UNL     1     -12.074  12.433  69.696  1.00  0.00    -0.271 A  
HETATM    6  C   UNL     1     -11.862  12.670  68.331  1.00  0.00    -0.347 A  
HETATM    7  C   UNL     1     -11.851  15.052  68.787  1.00  0.00    -0.331 A  
HETATM    8  C   UNL     1     -11.766  13.992  67.884  1.00  0.00    -0.397 A  
BRANCH   6   9
HETATM    9  C   UNL     1     -11.595  11.535  67.371  1.00  0.00    -0.307 C  
BRANCH   9  10
HETATM   10  C   UNL     1     -10.155  11.414  66.821  1.00  0.00    -0.216 C  
HETATM   11  C   UNL     1      -9.873  12.503  65.778  1.00  0.00    -0.244 C  
BRANCH  10  12
HETATM   12  N   UNL     1      -9.134  11.552  67.879  1.00  0.00    -0.162 NA 
HETATM   13  H   UNL     1      -9.472  12.152  68.631  1.00  0.00     0.000 HD 
BRANCH  12  14
HETATM   14  C   UNL     1      -8.665  10.262  68.413  1.00  0.00    -0.129 C  
BRANCH  14  15
HETATM   15  C   UNL     1      -8.759  10.153  69.953  1.00  0.00    -0.061 C  
HETATM   16  H   UNL     1      -7.522   9.796  71.443  1.00  0.00     0.000 HD 
HETATM   17  O   UNL     1      -7.465   9.863  70.497  1.00  0.00    -0.231 OA 
BRANCH  15  18
HETATM   18  C   UNL     1      -9.804   9.177  70.451  1.00  0.00    -0.263 A  
HETATM   19  C   UNL     1      -9.644   7.804  70.190  1.00  0.00    -0.168 A  
HETATM   20  C   UNL     1     -10.599   6.871  70.611  1.00  0.00    -0.222 A  
HETATM   21  H   UNL     1     -13.475   6.808  72.208  1.00  0.00     0.000 HD 
HETATM   22  C   UNL     1     -11.715   7.331  71.321  1.00  0.00    -0.296 A  
HETATM   23  C   UNL     1     -10.922   9.603  71.181  1.00  0.00    -0.430 A  
HETATM   24  C   UNL     1     -11.874   8.683  71.615  1.00  0.00    -0.389 A  
HETATM   25  O   UNL     1     -12.718   6.495  71.726  1.00  0.00    -0.320 OA 
BRANCH  20  26
HETATM   26  N   UNL     1     -10.462   5.493  70.359  1.00  0.00    -0.276 N  
HETATM   27  H   UNL     1     -10.841   5.154  69.476  1.00  0.00     0.000 HD 
HETATM   28  O   UNL     1      -9.819   3.376  70.858  1.00  0.00    -0.163 OA 
HETATM   29  C   UNL     1      -9.877   4.558  71.167  1.00  0.00    -0.193 C  
ENDBRANCH  20  26
ENDBRANCH  15  18
ENDBRANCH  14  15
ENDBRANCH  12  14
ENDBRANCH  10  12
ENDBRANCH   9  10
ENDBRANCH   6   9
ENDBRANCH   2   3
TORSDOF 8
ENDMDL
MODEL      194
REMARK 921   NORMALIZED FREE ENERGY PREDICTED BY IDOCK:   -4.29 KCAL/MOL
REMARK 922        TOTAL FREE ENERGY PREDICTED BY IDOCK:   -7.95 KCAL/MOL
REMARK 923 INTER-LIGAND FREE ENERGY PREDICTED BY IDOCK:   -6.75 KCAL/MOL
REMARK 924 INTRA-LIGAND FREE ENERGY PREDICTED BY IDOCK:   -1.20 KCAL/MOL
REMARK 927      BINDING AFFINITY PREDICTED BY RF-SCORE:    0.00 PKD
ROOT
HETATM    1  C   UNL     1      -6.920   6.248  65.622  1.00  0.00    -0.057 C  
HETATM    2  O   UNL     1      -7.532   6.887  66.735  1.00  0.00    -0.079 OA 
ENDROOT
BRANCH   2   3
HETATM    3  C   UNL     1      -8.356   7.943  66.458  1.00  0.00    -0.127 A  
HETATM    4  C   UNL     1      -9.663   8.106  66.915  1.00  0.00    -0.291 A  
HETATM    5  C   UNL     1     -10.421   9.208  66.506  1.00  0.00    -0.197 A  
HETATM    6  C   UNL     1      -9.875  10.169  65.645  1.00  0.00    -0.347 A  
HETATM    7  C   UNL     1      -7.800   8.915  65.627  1.00  0.00    -0.096 A  
HETATM    8  C   UNL     1      -8.551  10.018  65.221  1.00  0.00    -0.166 A  
BRANCH   6   9
HETATM    9  C   UNL     1     -10.725  11.272  65.060  1.00  0.00    -0.322 C  
BRANCH   9  10
HETATM   10  C   UNL     1     -10.984  12.502  65.962  1.00  0.00    -0.283 C  
HETATM   11  C   UNL     1     -11.680  13.620  65.176  1.00  0.00    -0.346 C  
BRANCH  10  12
HETATM   12  N   UNL     1     -11.845  12.182  67.118  1.00  0.00    -0.591 NA 
HETATM   13  H   UNL     1     -12.226  11.240  67.035  1.00  0.00     0.000 HD 
BRANCH  12  14
HETATM   14  C   UNL     1     -11.172  12.360  68.416  1.00  0.00    -0.273 C  
BRANCH  14  15
HETATM   15  C   UNL     1     -12.119  12.225  69.632  1.00  0.00    -0.212 C  
HETATM   16  H   UNL     1     -12.579  13.298  71.218  1.00  0.00     0.000 HD 
HETATM   17  O   UNL     1     -11.998  13.381  70.471  1.00  0.00    -0.326 OA 
BRANCH  15  18
HETATM   18  C   UNL     1     -11.947  10.943  70.422  1.00  0.00    -0.453 A  
HETATM   19  C   UNL     1     -10.852  10.104  70.143  1.00  0.00    -0.368 A  
HETATM   20  C   UNL     1     -10.670   8.900  70.832  1.00  0.00    -0.231 A  
HETATM   21  H   UNL     1     -12.143   7.137  73.188  1.00  0.00     0.000 HD 
HETATM   22  C   UNL     1     -11.593   8.553  71.827  1.00  0.00    -0.312 A  
HETATM   23  C   UNL     1     -12.841  10.577  71.437  1.00  0.00    -0.551 A  
HETATM   24  C   UNL     1     -12.664   9.386  72.137  1.00  0.00    -0.460 A  
HETATM   25  O   UNL     1     -11.517   7.373  72.513  1.00  0.00    -0.295 OA 
BRANCH  20  26
HETATM   26  N   UNL     1      -9.585   8.043  70.568  1.00  0.00    -0.170 N  
HETATM   27  H   UNL     1      -9.767   7.043  70.650  1.00  0.00     0.000 HD 
HETATM   28  O   UNL     1      -7.436   7.573  70.018  1.00  0.00    -0.079 OA 
HETATM   29  C   UNL     1      -8.314   8.401  70.215  1.00  0.00    -0.124 C  
ENDBRANCH  20  26
ENDBRANCH  15  18
ENDBRANCH  14  15
ENDBRANCH  12  14
ENDBRANCH  10  12
ENDBRANCH   9  10
ENDBRANCH   6   9
ENDBRANCH   2   3
TORSDOF 8
ENDMDL
MODEL      195
REMARK 921   NORMALIZED FREE ENERGY PREDICTED BY IDOCK:   -4.29 KCAL/MOL
REMARK 922        TOTAL FREE ENERGY PREDICTED BY IDOCK:   -7.95 KCAL/MOL
REMARK 923 INTER-LIGAND FREE ENERGY PREDICTED BY IDOCK:   -6.61 KCAL/MOL
REMARK 924 INTRA-LIGAND FREE ENERGY PREDICTED BY IDOCK:   -1.34 KCAL/MOL
REMARK 927      BINDING AFFINITY PREDICTED BY RF-SCORE:    0.00 PKD
ROOT
HETATM    1  C   UNL     1      -7.033  20.334  65.205  1.00  0.00    -0.242 C  
HETATM    2  O   UNL     1      -7.680  20.385  66.469  1.00  0.00    -0.262 OA 
ENDROOT
BRANCH   2   3
HETATM    3  C   UNL     1      -8.144  19.200  66.968  1.00  0.00    -0.262 A  
HETATM    4  C   UNL     1      -7.471  17.978  66.941  1.00  0.00    -0.235 A  
HETATM    5  C   UNL     1      -8.087  16.823  67.433  1.00  0.00    -0.190 A  
HETATM    6  C   UNL     1      -9.378  16.878  67.974  1.00  0.00    -0.238 A  
HETATM    7  C   UNL     1      -9.417  19.263  67.536  1.00  0.00    -0.379 A  
HETATM    8  C   UNL     1     -10.032  18.113  68.033  1.00  0.00    -0.353 A  
BRANCH   6   9
HETATM    9  C   UNL     1     -10.123  15.620  68.356  1.00  0.00    -0.214 C  
BRANCH   9  10
HETATM   10  C   UNL     1     -11.432  15.327  67.586  1.00  0.00    -0.280 C  
HETATM   11  C   UNL     1     -11.140  14.599  66.268  1.00  0.00    -0.336 C  
BRANCH  10  12
HETATM   12  N   UNL     1     -12.360  14.476  68.356  1.00  0.00    -0.605 NA 
HETATM   13  H   UNL     1     -12.905  13.880  67.733  1.00  0.00     0.000 HD 
BRANCH  12  14
HETATM   14  C   UNL     1     -11.693  13.673  69.395  1.00  0.00    -0.324 C  
BRANCH  14  15
HETATM   15  C   UNL     1     -11.852  12.146  69.200  1.00  0.00    -0.305 C  
HETATM   16  H   UNL     1     -12.008  10.561  70.358  1.00  0.00     0.000 HD 
HETATM   17  O   UNL     1     -11.911  11.499  70.478  1.00  0.00    -0.346 OA 
BRANCH  15  18
HETATM   18  C   UNL     1     -10.806  11.516  68.304  1.00  0.00    -0.257 A  
HETATM   19  C   UNL     1      -9.497  12.030  68.306  1.00  0.00    -0.199 A  
HETATM   20  C   UNL     1      -8.507  11.494  67.475  1.00  0.00    -0.143 A  
HETATM   21  H   UNL     1      -8.177   9.126  65.213  1.00  0.00     0.000 HD 
HETATM   22  C   UNL     1      -8.841  10.412  66.650  1.00  0.00    -0.134 A  
HETATM   23  C   UNL     1     -11.104  10.421  67.481  1.00  0.00    -0.336 A  
HETATM   24  C   UNL     1     -10.124   9.871  66.657  1.00  0.00    -0.297 A  
HETATM   25  O   UNL     1      -7.950   9.860  65.773  1.00  0.00    -0.113 OA 
BRANCH  20  26
HETATM   26  N   UNL     1      -7.191  11.993  67.458  1.00  0.00    -0.117 N  
HETATM   27  H   UNL     1      -6.443  11.300  67.459  1.00  0.00     0.000 HD 
HETATM   28  O   UNL     1      -5.626  13.633  67.438  1.00  0.00    -0.354 OA 
HETATM   29  C   UNL     1      -6.803  13.303  67.440  1.00  0.00    -0.085 C  
ENDBRANCH  20  26
ENDBRANCH  15  18
ENDBRANCH  14  15
ENDBRANCH  12  14
ENDBRANCH  10  12
ENDBRANCH   9  10
ENDBRANCH   6   9
ENDBRANCH   2   3
TORSDOF 8
ENDMDL
MODEL      196
REMARK 921   NORMALIZED FREE ENERGY PREDICTED BY IDOCK:   -4.28 KCAL/MOL
REMARK 922        TOTAL FREE ENERGY PREDICTED BY IDOCK:   -7.94 KCAL/MOL
REMARK 923 INTER-LIGAND FREE ENERGY PREDICTED BY IDOCK:   -7.24 KCAL/MOL
REMARK 924 INTRA-LIGAND FREE ENERGY PREDICTED BY IDOCK:   -0.70 KCAL/MOL
REMARK 927      BINDING AFFINITY PREDICTED BY RF-SCORE:    0.00 PKD
ROOT
HETATM    1  C   UNL     1     -10.596  19.531  66.591  1.00  0.00    -0.478 C  
HETATM    2  O   UNL     1      -9.635  18.791  65.850  1.00  0.00    -0.476 OA 
ENDROOT
BRANCH   2   3
HETATM    3  C   UNL     1      -9.851  17.445  65.739  1.00  0.00    -0.005 A  
HETATM    4  C   UNL     1      -9.029  16.438  66.244  1.00  0.00    -0.368 A  
HETATM    5  C   UNL     1      -9.334  15.094  66.007  1.00  0.00    -0.326 A  
HETATM    6  C   UNL     1     -10.474  14.740  65.272  1.00  0.00    -0.427 A  
HETATM    7  C   UNL     1     -11.003  17.095  65.035  1.00  0.00     0.097 A  
HETATM    8  C   UNL     1     -11.314  15.755  64.801  1.00  0.00    -0.319 A  
BRANCH   6   9
HETATM    9  C   UNL     1     -10.730  13.309  64.863  1.00  0.00    -0.365 C  
BRANCH   9  10
HETATM   10  C   UNL     1     -12.101  12.709  65.255  1.00  0.00    -0.467 C  
HETATM   11  C   UNL     1     -12.720  11.943  64.078  1.00  0.00    -0.350 C  
BRANCH  10  12
HETATM   12  N   UNL     1     -12.002  11.764  66.385  1.00  0.00    -0.441 NA 
HETATM   13  H   UNL     1     -11.551  10.898  66.092  1.00  0.00     0.000 HD 
BRANCH  12  14
HETATM   14  C   UNL     1     -11.326  12.332  67.564  1.00  0.00    -0.325 C  
BRANCH  14  15
HETATM   15  C   UNL     1     -10.130  11.486  68.063  1.00  0.00    -0.186 C  
HETATM   16  H   UNL     1      -8.534  10.650  67.268  1.00  0.00     0.000 HD 
HETATM   17  O   UNL     1      -9.269  11.170  66.962  1.00  0.00    -0.160 OA 
BRANCH  15  18
HETATM   18  C   UNL     1     -10.519  10.246  68.841  1.00  0.00    -0.231 A  
HETATM   19  C   UNL     1     -10.336   8.980  68.256  1.00  0.00    -0.252 A  
HETATM   20  C   UNL     1     -10.705   7.811  68.930  1.00  0.00    -0.085 A  
HETATM   21  H   UNL     1     -12.044   6.914  71.800  1.00  0.00     0.000 HD 
HETATM   22  C   UNL     1     -11.245   7.924  70.218  1.00  0.00    -0.200 A  
HETATM   23  C   UNL     1     -11.044  10.325  70.139  1.00  0.00    -0.385 A  
HETATM   24  C   UNL     1     -11.406   9.167  70.824  1.00  0.00    -0.337 A  
HETATM   25  O   UNL     1     -11.677   6.838  70.926  1.00  0.00    -0.332 OA 
BRANCH  20  26
HETATM   26  N   UNL     1     -10.533   6.534  68.364  1.00  0.00    -0.195 N  
HETATM   27  H   UNL     1     -10.176   5.807  68.984  1.00  0.00     0.000 HD 
HETATM   28  O   UNL     1     -10.597   5.017  66.680  1.00  0.00    -0.274 OA 
HETATM   29  C   UNL     1     -10.793   6.158  67.076  1.00  0.00    -0.356 C  
ENDBRANCH  20  26
ENDBRANCH  15  18
ENDBRANCH  14  15
ENDBRANCH  12  14
ENDBRANCH  10  12
ENDBRANCH   9  10
ENDBRANCH   6   9
ENDBRANCH   2   3
TORSDOF 8
ENDMDL
MODEL      197
REMARK 921   NORMALIZED FREE ENERGY PREDICTED BY IDOCK:   -4.28 KCAL/MOL
REMARK 922        TOTAL FREE ENERGY PREDICTED BY IDOCK:   -7.94 KCAL/MOL
REMARK 923 INTER-LIGAND FREE ENERGY PREDICTED BY IDOCK:   -7.12 KCAL/MOL
REMARK 924 INTRA-LIGAND FREE ENERGY PREDICTED BY IDOCK:   -0.82 KCAL/MOL
REMARK 927      BINDING AFFINITY PREDICTED BY RF-SCORE:    0.00 PKD
ROOT
HETATM    1  C   UNL     1     -10.094   8.059  71.439  1.00  0.00    -0.185 C  
HETATM    2  O   UNL     1     -11.059   9.102  71.478  1.00  0.00    -0.313 OA 
ENDROOT
BRANCH   2   3
HETATM    3  C   UNL     1     -11.165   9.881  70.359  1.00  0.00    -0.313 A  
HETATM    4  C   UNL     1     -11.843  11.096  70.266  1.00  0.00    -0.455 A  
HETATM    5  C   UNL     1     -11.927  11.765  69.040  1.00  0.00    -0.341 A  
HETATM    6  C   UNL     1     -11.321  11.233  67.894  1.00  0.00    -0.367 A  
HETATM    7  C   UNL     1     -10.533   9.366  69.227  1.00  0.00    -0.230 A  
HETATM    8  C   UNL     1     -10.610  10.033  68.004  1.00  0.00    -0.280 A  
BRANCH   6   9
HETATM    9  C   UNL     1     -11.539  11.849  66.533  1.00  0.00    -0.328 C  
BRANCH   9  10
HETATM   10  C   UNL     1     -10.438  11.606  65.475  1.00  0.00    -0.273 C  
HETATM   11  C   UNL     1     -11.052  11.374  64.088  1.00  0.00    -0.382 C  
BRANCH  10  12
HETATM   12  N   UNL     1      -9.511  12.749  65.354  1.00  0.00    -0.456 NA 
HETATM   13  H   UNL     1      -9.523  13.125  64.406  1.00  0.00     0.000 HD 
BRANCH  12  14
HETATM   14  C   UNL     1      -9.761  13.814  66.340  1.00  0.00    -0.294 C  
BRANCH  14  15
HETATM   15  C   UNL     1      -8.540  14.133  67.235  1.00  0.00    -0.218 C  
HETATM   16  H   UNL     1      -7.887  13.598  69.014  1.00  0.00     0.000 HD 
HETATM   17  O   UNL     1      -8.637  13.401  68.464  1.00  0.00    -0.154 OA 
BRANCH  15  18
HETATM   18  C   UNL     1      -8.312  15.610  67.483  1.00  0.00    -0.186 A  
HETATM   19  C   UNL     1      -8.938  16.553  66.646  1.00  0.00    -0.285 A  
HETATM   20  C   UNL     1      -8.735  17.926  66.825  1.00  0.00    -0.254 A  
HETATM   21  H   UNL     1      -7.054  19.953  68.799  1.00  0.00     0.000 HD 
HETATM   22  C   UNL     1      -7.907  18.348  67.873  1.00  0.00    -0.256 A  
HETATM   23  C   UNL     1      -7.506  16.065  68.534  1.00  0.00    -0.156 A  
HETATM   24  C   UNL     1      -7.304  17.430  68.728  1.00  0.00    -0.257 A  
HETATM   25  O   UNL     1      -7.616  19.666  68.087  1.00  0.00    -0.292 OA 
BRANCH  20  26
HETATM   26  N   UNL     1      -9.348  18.887  66.000  1.00  0.00    -0.164 N  
HETATM   27  H   UNL     1      -8.752  19.332  65.302  1.00  0.00     0.000 HD 
HETATM   28  O   UNL     1     -11.085  20.149  65.271  1.00  0.00    -0.221 OA 
HETATM   29  C   UNL     1     -10.653  19.292  66.029  1.00  0.00    -0.461 C  
ENDBRANCH  20  26
ENDBRANCH  15  18
ENDBRANCH  14  15
ENDBRANCH  12  14
ENDBRANCH  10  12
ENDBRANCH   9  10
ENDBRANCH   6   9
ENDBRANCH   2   3
TORSDOF 8
ENDMDL
MODEL      198
REMARK 921   NORMALIZED FREE ENERGY PREDICTED BY IDOCK:   -4.28 KCAL/MOL
REMARK 922        TOTAL FREE ENERGY PREDICTED BY IDOCK:   -7.94 KCAL/MOL
REMARK 923 INTER-LIGAND FREE ENERGY PREDICTED BY IDOCK:   -7.05 KCAL/MOL
REMARK 924 INTRA-LIGAND FREE ENERGY PREDICTED BY IDOCK:   -0.89 KCAL/MOL
REMARK 927      BINDING AFFINITY PREDICTED BY RF-SCORE:    0.00 PKD
ROOT
HETATM    1  C   UNL     1     -10.786   4.491  73.978  1.00  0.00    -0.250 C  
HETATM    2  O   UNL     1     -10.027   5.432  73.229  1.00  0.00    -0.163 OA 
ENDROOT
BRANCH   2   3
HETATM    3  C   UNL     1     -10.232   5.447  71.877  1.00  0.00    -0.203 A  
HETATM    4  C   UNL     1      -9.558   4.668  70.937  1.00  0.00    -0.249 A  
HETATM    5  C   UNL     1      -9.821   4.825  69.572  1.00  0.00    -0.292 A  
HETATM    6  C   UNL     1     -10.774   5.755  69.132  1.00  0.00    -0.370 A  
HETATM    7  C   UNL     1     -11.203   6.348  71.443  1.00  0.00    -0.340 A  
HETATM    8  C   UNL     1     -11.473   6.505  70.084  1.00  0.00    -0.477 A  
BRANCH   6   9
HETATM    9  C   UNL     1     -10.953   6.058  67.663  1.00  0.00    -0.334 C  
BRANCH   9  10
HETATM   10  C   UNL     1      -9.705   5.898  66.764  1.00  0.00    -0.153 C  
HETATM   11  C   UNL     1      -9.975   4.905  65.626  1.00  0.00    -0.150 C  
BRANCH  10  12
HETATM   12  N   UNL     1      -9.291   7.171  66.141  1.00  0.00    -0.360 NA 
HETATM   13  H   UNL     1      -9.189   7.063  65.132  1.00  0.00     0.000 HD 
BRANCH  12  14
HETATM   14  C   UNL     1     -10.187   8.296  66.458  1.00  0.00    -0.193 C  
BRANCH  14  15
HETATM   15  C   UNL     1      -9.478   9.477  67.163  1.00  0.00    -0.149 C  
HETATM   16  H   UNL     1      -8.724   9.839  68.945  1.00  0.00     0.000 HD 
HETATM   17  O   UNL     1      -9.159   9.114  68.512  1.00  0.00    -0.133 OA 
BRANCH  15  18
HETATM   18  C   UNL     1     -10.234  10.789  67.103  1.00  0.00    -0.255 A  
HETATM   19  C   UNL     1     -10.382  11.552  68.275  1.00  0.00    -0.211 A  
HETATM   20  C   UNL     1     -11.093  12.757  68.269  1.00  0.00    -0.257 A  
HETATM   21  H   UNL     1     -12.764  14.645  66.153  1.00  0.00     0.000 HD 
HETATM   22  C   UNL     1     -11.642  13.203  67.059  1.00  0.00    -0.359 A  
HETATM   23  C   UNL     1     -10.777  11.272  65.905  1.00  0.00    -0.291 A  
HETATM   24  C   UNL     1     -11.479  12.475  65.884  1.00  0.00    -0.417 A  
HETATM   25  O   UNL     1     -12.392  14.342  66.974  1.00  0.00    -0.353 OA 
BRANCH  20  26
HETATM   26  N   UNL     1     -11.257  13.537  69.429  1.00  0.00    -0.407 N  
HETATM   27  H   UNL     1     -10.623  14.328  69.536  1.00  0.00     0.000 HD 
HETATM   28  O   UNL     1     -12.223  14.085  71.406  1.00  0.00    -0.342 OA 
HETATM   29  C   UNL     1     -12.171  13.352  70.428  1.00  0.00    -0.345 C  
ENDBRANCH  20  26
ENDBRANCH  15  18
ENDBRANCH  14  15
ENDBRANCH  12  14
ENDBRANCH  10  12
ENDBRANCH   9  10
ENDBRANCH   6   9
ENDBRANCH   2   3
TORSDOF 8
ENDMDL
MODEL      199
REMARK 921   NORMALIZED FREE ENERGY PREDICTED BY IDOCK:   -4.28 KCAL/MOL
REMARK 922        TOTAL FREE ENERGY PREDICTED BY IDOCK:   -7.94 KCAL/MOL
REMARK 923 INTER-LIGAND FREE ENERGY PREDICTED BY IDOCK:   -6.96 KCAL/MOL
REMARK 924 INTRA-LIGAND FREE ENERGY PREDICTED BY IDOCK:   -0.98 KCAL/MOL
REMARK 927      BINDING AFFINITY PREDICTED BY RF-SCORE:    0.00 PKD
ROOT
HETATM    1  C   UNL     1      -8.667  18.706  67.771  1.00  0.00    -0.279 C  
HETATM    2  O   UNL     1      -9.787  18.370  66.963  1.00  0.00    -0.301 OA 
ENDROOT
BRANCH   2   3
HETATM    3  C   UNL     1     -10.209  17.070  67.011  1.00  0.00    -0.303 A  
HETATM    4  C   UNL     1     -10.029  16.112  66.014  1.00  0.00    -0.373 A  
HETATM    5  C   UNL     1     -10.566  14.829  66.163  1.00  0.00    -0.314 A  
HETATM    6  C   UNL     1     -11.278  14.484  67.320  1.00  0.00    -0.341 A  
HETATM    7  C   UNL     1     -10.888  16.719  68.177  1.00  0.00    -0.353 A  
HETATM    8  C   UNL     1     -11.421  15.439  68.333  1.00  0.00    -0.365 A  
BRANCH   6   9
HETATM    9  C   UNL     1     -12.005  13.165  67.430  1.00  0.00    -0.379 C  
BRANCH   9  10
HETATM   10  C   UNL     1     -11.234  11.999  68.093  1.00  0.00    -0.260 C  
HETATM   11  C   UNL     1     -11.571  11.900  69.586  1.00  0.00    -0.387 C  
BRANCH  10  12
HETATM   12  N   UNL     1     -11.557  10.693  67.486  1.00  0.00    -0.567 NA 
HETATM   13  H   UNL     1     -12.430  10.743  66.961  1.00  0.00     0.000 HD 
BRANCH  12  14
HETATM   14  C   UNL     1     -10.474  10.153  66.647  1.00  0.00    -0.185 C  
BRANCH  14  15
HETATM   15  C   UNL     1      -9.950   8.775  67.115  1.00  0.00    -0.230 C  
HETATM   16  H   UNL     1     -10.547   6.902  67.005  1.00  0.00     0.000 HD 
HETATM   17  O   UNL     1     -10.869   7.749  66.717  1.00  0.00    -0.254 OA 
BRANCH  15  18
HETATM   18  C   UNL     1      -9.630   8.694  68.593  1.00  0.00    -0.159 A  
HETATM   19  C   UNL     1     -10.277   7.729  69.386  1.00  0.00    -0.208 A  
HETATM   20  C   UNL     1     -10.029   7.637  70.761  1.00  0.00    -0.181 A  
HETATM   21  H   UNL     1      -8.205   9.124  73.061  1.00  0.00     0.000 HD 
HETATM   22  C   UNL     1      -9.100   8.516  71.332  1.00  0.00    -0.206 A  
HETATM   23  C   UNL     1      -8.692   9.546  69.192  1.00  0.00    -0.146 A  
HETATM   24  C   UNL     1      -8.428   9.457  70.557  1.00  0.00    -0.251 A  
HETATM   25  O   UNL     1      -8.835   8.527  72.673  1.00  0.00    -0.293 OA 
BRANCH  20  26
HETATM   26  N   UNL     1     -10.666   6.682  71.575  1.00  0.00    -0.226 N  
HETATM   27  H   UNL     1     -10.079   5.933  71.940  1.00  0.00     0.000 HD 
HETATM   28  O   UNL     1     -12.444   5.761  72.639  1.00  0.00    -0.053 OA 
HETATM   29  C   UNL     1     -11.985   6.646  71.931  1.00  0.00    -0.341 C  
ENDBRANCH  20  26
ENDBRANCH  15  18
ENDBRANCH  14  15
ENDBRANCH  12  14
ENDBRANCH  10  12
ENDBRANCH   9  10
ENDBRANCH   6   9
ENDBRANCH   2   3
TORSDOF 8
ENDMDL
MODEL      200
REMARK 921   NORMALIZED FREE ENERGY PREDICTED BY IDOCK:   -4.27 KCAL/MOL
REMARK 922        TOTAL FREE ENERGY PREDICTED BY IDOCK:   -7.93 KCAL/MOL
REMARK 923 INTER-LIGAND FREE ENERGY PREDICTED BY IDOCK:   -6.99 KCAL/MOL
REMARK 924 INTRA-LIGAND FREE ENERGY PREDICTED BY IDOCK:   -0.95 KCAL/MOL
REMARK 927      BINDING AFFINITY PREDICTED BY RF-SCORE:    0.00 PKD
ROOT
HETATM    1  C   UNL     1      -5.942   9.722  67.371  1.00  0.00    -0.055 C  
HETATM    2  O   UNL     1      -5.660  11.115  67.347  1.00  0.00    -0.044 OA 
ENDROOT
BRANCH   2   3
HETATM    3  C   UNL     1      -6.734  11.955  67.249  1.00  0.00    -0.138 A  
HETATM    4  C   UNL     1      -7.993  11.624  66.750  1.00  0.00    -0.140 A  
HETATM    5  C   UNL     1      -8.991  12.599  66.647  1.00  0.00    -0.164 A  
HETATM    6  C   UNL     1      -8.744  13.917  67.055  1.00  0.00    -0.215 A  
HETATM    7  C   UNL     1      -6.497  13.259  67.686  1.00  0.00    -0.167 A  
HETATM    8  C   UNL     1      -7.491  14.233  67.590  1.00  0.00    -0.194 A  
BRANCH   6   9
HETATM    9  C   UNL     1      -9.746  15.018  66.799  1.00  0.00    -0.253 C  
BRANCH   9  10
HETATM   10  C   UNL     1     -10.454  15.615  68.037  1.00  0.00    -0.263 C  
HETATM   11  C   UNL     1     -10.558  17.142  67.925  1.00  0.00    -0.376 C  
BRANCH  10  12
HETATM   12  N   UNL     1     -11.826  15.097  68.208  1.00  0.00    -0.498 NA 
HETATM   13  H   UNL     1     -12.161  14.672  67.344  1.00  0.00     0.000 HD 
BRANCH  12  14
HETATM   14  C   UNL     1     -11.962  14.162  69.338  1.00  0.00    -0.337 C  
BRANCH  14  15
HETATM   15  C   UNL     1     -11.628  12.695  68.976  1.00  0.00    -0.317 C  
HETATM   16  H   UNL     1     -11.951  11.484  67.458  1.00  0.00     0.000 HD 
HETATM   17  O   UNL     1     -12.157  12.384  67.680  1.00  0.00    -0.470 OA 
BRANCH  15  18
HETATM   18  C   UNL     1     -12.059  11.679  70.013  1.00  0.00    -0.395 A  
HETATM   19  C   UNL     1     -11.695  10.330  69.848  1.00  0.00    -0.298 A  
HETATM   20  C   UNL     1     -12.094   9.355  70.769  1.00  0.00    -0.203 A  
HETATM   21  H   UNL     1     -13.836   9.132  73.553  1.00  0.00     0.000 HD 
HETATM   22  C   UNL     1     -12.851   9.754  71.879  1.00  0.00    -0.427 A  
HETATM   23  C   UNL     1     -12.799  12.049  71.144  1.00  0.00    -0.331 A  
HETATM   24  C   UNL     1     -13.194  11.089  72.073  1.00  0.00    -0.447 A  
HETATM   25  O   UNL     1     -13.323   8.861  72.800  1.00  0.00    -0.405 OA 
BRANCH  20  26
HETATM   26  N   UNL     1     -11.745   7.999  70.624  1.00  0.00    -0.444 N  
HETATM   27  H   UNL     1     -12.508   7.354  70.422  1.00  0.00     0.000 HD 
HETATM   28  O   UNL     1     -10.302   6.251  70.590  1.00  0.00    -0.191 OA 
HETATM   29  C   UNL     1     -10.497   7.451  70.723  1.00  0.00    -0.212 C  
ENDBRANCH  20  26
ENDBRANCH  15  18
ENDBRANCH  14  15
ENDBRANCH  12  14
ENDBRANCH  10  12
ENDBRANCH   9  10
ENDBRANCH   6   9
ENDBRANCH   2   3
TORSDOF 8
ENDMDL
MODEL      201
REMARK 921   NORMALIZED FREE ENERGY PREDICTED BY IDOCK:   -4.27 KCAL/MOL
REMARK 922        TOTAL FREE ENERGY PREDICTED BY IDOCK:   -7.92 KCAL/MOL
REMARK 923 INTER-LIGAND FREE ENERGY PREDICTED BY IDOCK:   -6.50 KCAL/MOL
REMARK 924 INTRA-LIGAND FREE ENERGY PREDICTED BY IDOCK:   -1.42 KCAL/MOL
REMARK 927      BINDING AFFINITY PREDICTED BY RF-SCORE:    0.00 PKD
ROOT
HETATM    1  C   UNL     1     -10.575   4.980  66.132  1.00  0.00    -0.265 C  
HETATM    2  O   UNL     1     -10.680   5.955  67.161  1.00  0.00    -0.262 OA 
ENDROOT
BRANCH   2   3
HETATM    3  C   UNL     1      -9.640   6.835  67.280  1.00  0.00    -0.137 A  
HETATM    4  C   UNL     1      -9.132   7.647  66.267  1.00  0.00    -0.204 A  
HETATM    5  C   UNL     1      -8.020   8.461  66.506  1.00  0.00    -0.096 A  
HETATM    6  C   UNL     1      -7.411   8.483  67.768  1.00  0.00    -0.097 A  
HETATM    7  C   UNL     1      -9.056   6.881  68.546  1.00  0.00    -0.127 A  
HETATM    8  C   UNL     1      -7.950   7.695  68.790  1.00  0.00    -0.126 A  
BRANCH   6   9
HETATM    9  C   UNL     1      -6.116   9.224  68.000  1.00  0.00    -0.049 C  
BRANCH   9  10
HETATM   10  C   UNL     1      -6.212  10.759  68.165  1.00  0.00    -0.057 C  
HETATM   11  C   UNL     1      -6.366  11.447  66.802  1.00  0.00    -0.142 C  
BRANCH  10  12
HETATM   12  N   UNL     1      -7.367  11.165  68.990  1.00  0.00    -0.113 NA 
HETATM   13  H   UNL     1      -7.072  11.382  69.942  1.00  0.00     0.000 HD 
BRANCH  12  14
HETATM   14  C   UNL     1      -8.134  12.283  68.414  1.00  0.00    -0.151 C  
BRANCH  14  15
HETATM   15  C   UNL     1      -9.642  11.982  68.246  1.00  0.00    -0.204 C  
HETATM   16  H   UNL     1     -10.863  10.495  68.665  1.00  0.00     0.000 HD 
HETATM   17  O   UNL     1      -9.937  10.681  68.769  1.00  0.00    -0.176 OA 
BRANCH  15  18
HETATM   18  C   UNL     1     -10.161  12.145  66.832  1.00  0.00    -0.222 A  
HETATM   19  C   UNL     1     -10.396  13.438  66.329  1.00  0.00    -0.291 A  
HETATM   20  C   UNL     1     -10.898  13.632  65.037  1.00  0.00    -0.352 A  
HETATM   21  H   UNL     1     -11.847  11.840  62.445  1.00  0.00     0.000 HD 
HETATM   22  C   UNL     1     -11.144  12.507  64.240  1.00  0.00    -0.356 A  
HETATM   23  C   UNL     1     -10.399  11.041  66.002  1.00  0.00    -0.311 A  
HETATM   24  C   UNL     1     -10.889  11.222  64.711  1.00  0.00    -0.314 A  
HETATM   25  O   UNL     1     -11.680  12.603  62.986  1.00  0.00    -0.352 OA 
BRANCH  20  26
HETATM   26  N   UNL     1     -11.143  14.915  64.513  1.00  0.00    -0.629 N  
HETATM   27  H   UNL     1     -11.550  14.953  63.579  1.00  0.00     0.000 HD 
HETATM   28  O   UNL     1     -11.138  17.182  64.567  1.00  0.00    -1.105 OA 
HETATM   29  C   UNL     1     -10.897  16.116  65.117  1.00  0.00    -0.361 C  
ENDBRANCH  20  26
ENDBRANCH  15  18
ENDBRANCH  14  15
ENDBRANCH  12  14
ENDBRANCH  10  12
ENDBRANCH   9  10
ENDBRANCH   6   9
ENDBRANCH   2   3
TORSDOF 8
ENDMDL
MODEL      202
REMARK 921   NORMALIZED FREE ENERGY PREDICTED BY IDOCK:   -4.27 KCAL/MOL
REMARK 922        TOTAL FREE ENERGY PREDICTED BY IDOCK:   -7.92 KCAL/MOL
REMARK 923 INTER-LIGAND FREE ENERGY PREDICTED BY IDOCK:   -7.63 KCAL/MOL
REMARK 924 INTRA-LIGAND FREE ENERGY PREDICTED BY IDOCK:   -0.29 KCAL/MOL
REMARK 927      BINDING AFFINITY PREDICTED BY RF-SCORE:    0.00 PKD
ROOT
HETATM    1  C   UNL     1      -6.682   6.028  66.533  1.00  0.00    -0.060 C  
HETATM    2  O   UNL     1      -7.825   6.331  67.320  1.00  0.00    -0.105 OA 
ENDROOT
BRANCH   2   3
HETATM    3  C   UNL     1      -8.487   7.489  67.019  1.00  0.00    -0.122 A  
HETATM    4  C   UNL     1      -9.869   7.641  66.912  1.00  0.00    -0.304 A  
HETATM    5  C   UNL     1     -10.416   8.872  66.536  1.00  0.00    -0.175 A  
HETATM    6  C   UNL     1      -9.587   9.972  66.276  1.00  0.00    -0.256 A  
HETATM    7  C   UNL     1      -7.662   8.591  66.793  1.00  0.00    -0.091 A  
HETATM    8  C   UNL     1      -8.204   9.822  66.423  1.00  0.00    -0.120 A  
BRANCH   6   9
HETATM    9  C   UNL     1     -10.143  11.257  65.709  1.00  0.00    -0.294 C  
BRANCH   9  10
HETATM   10  C   UNL     1     -10.945  12.154  66.680  1.00  0.00    -0.282 C  
HETATM   11  C   UNL     1     -12.019  12.951  65.929  1.00  0.00    -0.504 C  
BRANCH  10  12
HETATM   12  N   UNL     1     -11.636  11.376  67.728  1.00  0.00    -0.520 NA 
HETATM   13  H   UNL     1     -11.761  10.407  67.434  1.00  0.00     0.000 HD 
BRANCH  12  14
HETATM   14  C   UNL     1     -10.971  11.441  69.040  1.00  0.00    -0.236 C  
BRANCH  14  15
HETATM   15  C   UNL     1     -11.927  11.215  70.235  1.00  0.00    -0.373 C  
HETATM   16  H   UNL     1     -13.596  10.225  70.568  1.00  0.00     0.000 HD 
HETATM   17  O   UNL     1     -13.009  10.364  69.834  1.00  0.00    -0.059 OA 
BRANCH  15  18
HETATM   18  C   UNL     1     -12.431  12.487  70.886  1.00  0.00    -0.361 A  
HETATM   19  C   UNL     1     -11.947  13.729  70.435  1.00  0.00    -0.385 A  
HETATM   20  C   UNL     1     -12.367  14.927  71.025  1.00  0.00    -0.324 A  
HETATM   21  H   UNL     1     -14.363  15.942  73.437  1.00  0.00     0.000 HD 
HETATM   22  C   UNL     1     -13.302  14.866  72.067  1.00  0.00    -0.367 A  
HETATM   23  C   UNL     1     -13.380  12.462  71.916  1.00  0.00    -0.450 A  
HETATM   24  C   UNL     1     -13.814  13.648  72.505  1.00  0.00    -0.620 A  
HETATM   25  O   UNL     1     -13.729  15.982  72.730  1.00  0.00    -0.529 OA 
BRANCH  20  26
HETATM   26  N   UNL     1     -11.896  16.180  70.594  1.00  0.00    -0.494 N  
HETATM   27  H   UNL     1     -12.281  16.997  71.068  1.00  0.00     0.000 HD 
HETATM   28  O   UNL     1     -10.644  17.561  69.303  1.00  0.00    -0.268 OA 
HETATM   29  C   UNL     1     -10.979  16.426  69.610  1.00  0.00    -0.329 C  
ENDBRANCH  20  26
ENDBRANCH  15  18
ENDBRANCH  14  15
ENDBRANCH  12  14
ENDBRANCH  10  12
ENDBRANCH   9  10
ENDBRANCH   6   9
ENDBRANCH   2   3
TORSDOF 8
ENDMDL
MODEL      203
REMARK 921   NORMALIZED FREE ENERGY PREDICTED BY IDOCK:   -4.26 KCAL/MOL
REMARK 922        TOTAL FREE ENERGY PREDICTED BY IDOCK:   -7.91 KCAL/MOL
REMARK 923 INTER-LIGAND FREE ENERGY PREDICTED BY IDOCK:   -7.04 KCAL/MOL
REMARK 924 INTRA-LIGAND FREE ENERGY PREDICTED BY IDOCK:   -0.87 KCAL/MOL
REMARK 927      BINDING AFFINITY PREDICTED BY RF-SCORE:    0.00 PKD
ROOT
HETATM    1  C   UNL     1      -6.759   7.797  74.331  1.00  0.00    -0.104 C  
HETATM    2  O   UNL     1      -7.588   6.643  74.344  1.00  0.00    -0.098 OA 
ENDROOT
BRANCH   2   3
HETATM    3  C   UNL     1      -8.298   6.385  73.204  1.00  0.00    -0.115 A  
HETATM    4  C   UNL     1      -7.783   5.877  72.013  1.00  0.00    -0.102 A  
HETATM    5  C   UNL     1      -8.611   5.718  70.897  1.00  0.00    -0.130 A  
HETATM    6  C   UNL     1      -9.970   6.051  70.964  1.00  0.00    -0.230 A  
HETATM    7  C   UNL     1      -9.658   6.687  73.283  1.00  0.00    -0.175 A  
HETATM    8  C   UNL     1     -10.489   6.524  72.174  1.00  0.00    -0.229 A  
BRANCH   6   9
HETATM    9  C   UNL     1     -10.841   6.045  69.730  1.00  0.00    -0.433 C  
BRANCH   9  10
HETATM   10  C   UNL     1     -10.499   7.080  68.633  1.00  0.00    -0.204 C  
HETATM   11  C   UNL     1     -11.126   6.682  67.291  1.00  0.00    -0.418 C  
BRANCH  10  12
HETATM   12  N   UNL     1     -10.994   8.432  68.960  1.00  0.00    -0.429 NA 
HETATM   13  H   UNL     1     -11.754   8.385  69.638  1.00  0.00     0.000 HD 
BRANCH  12  14
HETATM   14  C   UNL     1      -9.936   9.346  69.425  1.00  0.00    -0.183 C  
BRANCH  14  15
HETATM   15  C   UNL     1     -10.065  10.783  68.866  1.00  0.00    -0.205 C  
HETATM   16  H   UNL     1     -11.256  12.327  69.141  1.00  0.00     0.000 HD 
HETATM   17  O   UNL     1     -11.176  11.445  69.485  1.00  0.00    -0.254 OA 
BRANCH  15  18
HETATM   18  C   UNL     1     -10.139  10.865  67.355  1.00  0.00    -0.223 A  
HETATM   19  C   UNL     1     -11.038  11.767  66.757  1.00  0.00    -0.360 A  
HETATM   20  C   UNL     1     -11.155  11.857  65.365  1.00  0.00    -0.306 A  
HETATM   21  H   UNL     1      -9.870  10.474  62.670  1.00  0.00     0.000 HD 
HETATM   22  C   UNL     1     -10.339  11.040  64.572  1.00  0.00    -0.354 A  
HETATM   23  C   UNL     1      -9.323  10.075  66.534  1.00  0.00    -0.201 A  
HETATM   24  C   UNL     1      -9.423  10.163  65.147  1.00  0.00    -0.319 A  
HETATM   25  O   UNL     1     -10.423  11.028  63.208  1.00  0.00    -0.337 OA 
BRANCH  20  26
HETATM   26  N   UNL     1     -12.048  12.750  64.745  1.00  0.00    -0.406 N  
HETATM   27  H   UNL     1     -12.940  12.360  64.441  1.00  0.00     0.000 HD 
HETATM   28  O   UNL     1     -12.695  14.769  63.943  1.00  0.00    -0.794 OA 
HETATM   29  C   UNL     1     -11.854  14.081  64.503  1.00  0.00    -0.434 C  
ENDBRANCH  20  26
ENDBRANCH  15  18
ENDBRANCH  14  15
ENDBRANCH  12  14
ENDBRANCH  10  12
ENDBRANCH   9  10
ENDBRANCH   6   9
ENDBRANCH   2   3
TORSDOF 8
ENDMDL
MODEL      204
REMARK 921   NORMALIZED FREE ENERGY PREDICTED BY IDOCK:   -4.25 KCAL/MOL
REMARK 922        TOTAL FREE ENERGY PREDICTED BY IDOCK:   -7.90 KCAL/MOL
REMARK 923 INTER-LIGAND FREE ENERGY PREDICTED BY IDOCK:   -6.90 KCAL/MOL
REMARK 924 INTRA-LIGAND FREE ENERGY PREDICTED BY IDOCK:   -1.00 KCAL/MOL
REMARK 927      BINDING AFFINITY PREDICTED BY RF-SCORE:    0.00 PKD
ROOT
HETATM    1  C   UNL     1      -5.907  13.619  67.718  1.00  0.00    -0.106 C  
HETATM    2  O   UNL     1      -5.155  14.804  67.491  1.00  0.00    -0.327 OA 
ENDROOT
BRANCH   2   3
HETATM    3  C   UNL     1      -5.761  15.986  67.816  1.00  0.00    -0.142 A  
HETATM    4  C   UNL     1      -5.937  16.491  69.104  1.00  0.00    -0.155 A  
HETATM    5  C   UNL     1      -6.632  17.689  69.303  1.00  0.00    -0.233 A  
HETATM    6  C   UNL     1      -7.147  18.404  68.214  1.00  0.00    -0.269 A  
HETATM    7  C   UNL     1      -6.245  16.713  66.729  1.00  0.00    -0.134 A  
HETATM    8  C   UNL     1      -6.934  17.911  66.923  1.00  0.00    -0.211 A  
BRANCH   6   9
HETATM    9  C   UNL     1      -8.040  19.606  68.416  1.00  0.00    -0.352 C  
BRANCH   9  10
HETATM   10  C   UNL     1      -9.565  19.353  68.372  1.00  0.00    -0.388 C  
HETATM   11  C   UNL     1     -10.177  19.919  67.084  1.00  0.00    -0.579 C  
BRANCH  10  12
HETATM   12  N   UNL     1      -9.900  17.916  68.418  1.00  0.00    -0.335 NA 
HETATM   13  H   UNL     1     -10.207  17.646  69.352  1.00  0.00     0.000 HD 
BRANCH  12  14
HETATM   14  C   UNL     1     -10.891  17.513  67.405  1.00  0.00    -0.170 C  
BRANCH  14  15
HETATM   15  C   UNL     1     -10.345  16.508  66.364  1.00  0.00    -0.311 C  
HETATM   16  H   UNL     1     -10.395  16.302  64.407  1.00  0.00     0.000 HD 
HETATM   17  O   UNL     1     -10.730  16.920  65.046  1.00  0.00    -0.700 OA 
BRANCH  15  18
HETATM   18  C   UNL     1     -10.721  15.064  66.629  1.00  0.00    -0.312 A  
HETATM   19  C   UNL     1      -9.704  14.099  66.749  1.00  0.00    -0.283 A  
HETATM   20  C   UNL     1     -10.009  12.751  66.969  1.00  0.00    -0.231 A  
HETATM   21  H   UNL     1     -12.655  10.829  67.336  1.00  0.00     0.000 HD 
HETATM   22  C   UNL     1     -11.355  12.381  67.089  1.00  0.00    -0.329 A  
HETATM   23  C   UNL     1     -12.057  14.665  66.773  1.00  0.00    -0.223 A  
HETATM   24  C   UNL     1     -12.372  13.327  67.002  1.00  0.00    -0.190 A  
HETATM   25  O   UNL     1     -11.742  11.080  67.255  1.00  0.00    -0.504 OA 
BRANCH  20  26
HETATM   26  N   UNL     1      -9.010  11.767  67.090  1.00  0.00    -0.171 N  
HETATM   27  H   UNL     1      -8.654  11.373  66.219  1.00  0.00     0.000 HD 
HETATM   28  O   UNL     1      -7.602  10.412  68.240  1.00  0.00    -0.091 OA 
HETATM   29  C   UNL     1      -8.462  11.281  68.244  1.00  0.00    -0.152 C  
ENDBRANCH  20  26
ENDBRANCH  15  18
ENDBRANCH  14  15
ENDBRANCH  12  14
ENDBRANCH  10  12
ENDBRANCH   9  10
ENDBRANCH   6   9
ENDBRANCH   2   3
TORSDOF 8
ENDMDL
MODEL      205
REMARK 921   NORMALIZED FREE ENERGY PREDICTED BY IDOCK:   -4.25 KCAL/MOL
REMARK 922        TOTAL FREE ENERGY PREDICTED BY IDOCK:   -7.90 KCAL/MOL
REMARK 923 INTER-LIGAND FREE ENERGY PREDICTED BY IDOCK:   -6.80 KCAL/MOL
REMARK 924 INTRA-LIGAND FREE ENERGY PREDICTED BY IDOCK:   -1.10 KCAL/MOL
REMARK 927      BINDING AFFINITY PREDICTED BY RF-SCORE:    0.00 PKD
ROOT
HETATM    1  C   UNL     1     -13.846   9.387  72.025  1.00  0.00    -0.340 C  
HETATM    2  O   UNL     1     -12.904   8.803  72.914  1.00  0.00    -0.313 OA 
ENDROOT
BRANCH   2   3
HETATM    3  C   UNL     1     -11.964   7.980  72.356  1.00  0.00    -0.350 A  
HETATM    4  C   UNL     1     -10.652   7.815  72.798  1.00  0.00    -0.401 A  
HETATM    5  C   UNL     1      -9.770   6.985  72.098  1.00  0.00    -0.161 A  
HETATM    6  C   UNL     1     -10.196   6.298  70.953  1.00  0.00    -0.236 A  
HETATM    7  C   UNL     1     -12.399   7.272  71.236  1.00  0.00    -0.401 A  
HETATM    8  C   UNL     1     -11.525   6.439  70.538  1.00  0.00    -0.444 A  
BRANCH   6   9
HETATM    9  C   UNL     1      -9.221   5.532  70.090  1.00  0.00    -0.173 C  
BRANCH   9  10
HETATM   10  C   UNL     1      -8.257   6.372  69.220  1.00  0.00    -0.115 C  
HETATM   11  C   UNL     1      -6.816   6.258  69.734  1.00  0.00    -0.065 C  
BRANCH  10  12
HETATM   12  N   UNL     1      -8.250   5.939  67.808  1.00  0.00    -0.105 NA 
HETATM   13  H   UNL     1      -8.856   5.129  67.675  1.00  0.00     0.000 HD 
BRANCH  12  14
HETATM   14  C   UNL     1      -8.601   7.014  66.864  1.00  0.00    -0.120 C  
BRANCH  14  15
HETATM   15  C   UNL     1      -9.943   7.713  67.188  1.00  0.00    -0.229 C  
HETATM   16  H   UNL     1     -11.857   7.337  66.921  1.00  0.00     0.000 HD 
HETATM   17  O   UNL     1     -11.033   6.908  66.722  1.00  0.00    -0.329 OA 
BRANCH  15  18
HETATM   18  C   UNL     1     -10.046   9.137  66.683  1.00  0.00    -0.343 A  
HETATM   19  C   UNL     1     -10.741  10.091  67.449  1.00  0.00    -0.336 A  
HETATM   20  C   UNL     1     -10.881  11.412  67.007  1.00  0.00    -0.282 A  
HETATM   21  H   UNL     1     -10.025  13.274  64.433  1.00  0.00     0.000 HD 
HETATM   22  C   UNL     1     -10.294  11.774  65.788  1.00  0.00    -0.253 A  
HETATM   23  C   UNL     1      -9.453   9.537  65.478  1.00  0.00    -0.334 A  
HETATM   24  C   UNL     1      -9.577  10.851  65.032  1.00  0.00    -0.299 A  
HETATM   25  O   UNL     1     -10.424  13.028  65.260  1.00  0.00    -0.291 OA 
BRANCH  20  26
HETATM   26  N   UNL     1     -11.574  12.382  67.755  1.00  0.00    -0.333 N  
HETATM   27  H   UNL     1     -12.544  12.552  67.489  1.00  0.00     0.000 HD 
HETATM   28  O   UNL     1     -11.779  13.954  69.376  1.00  0.00    -0.273 OA 
HETATM   29  C   UNL     1     -11.093  13.123  68.797  1.00  0.00    -0.269 C  
ENDBRANCH  20  26
ENDBRANCH  15  18
ENDBRANCH  14  15
ENDBRANCH  12  14
ENDBRANCH  10  12
ENDBRANCH   9  10
ENDBRANCH   6   9
ENDBRANCH   2   3
TORSDOF 8
ENDMDL
MODEL      206
REMARK 921   NORMALIZED FREE ENERGY PREDICTED BY IDOCK:   -4.25 KCAL/MOL
REMARK 922        TOTAL FREE ENERGY PREDICTED BY IDOCK:   -7.89 KCAL/MOL
REMARK 923 INTER-LIGAND FREE ENERGY PREDICTED BY IDOCK:   -7.01 KCAL/MOL
REMARK 924 INTRA-LIGAND FREE ENERGY PREDICTED BY IDOCK:   -0.88 KCAL/MOL
REMARK 927      BINDING AFFINITY PREDICTED BY RF-SCORE:    0.00 PKD
ROOT
HETATM    1  C   UNL     1      -5.925   8.779  65.847  1.00  0.00    -0.051 C  
HETATM    2  O   UNL     1      -6.016   7.934  66.986  1.00  0.00    -0.048 OA 
ENDROOT
BRANCH   2   3
HETATM    3  C   UNL     1      -6.986   8.240  67.900  1.00  0.00    -0.078 A  
HETATM    4  C   UNL     1      -7.162   9.471  68.530  1.00  0.00    -0.071 A  
HETATM    5  C   UNL     1      -8.161   9.634  69.495  1.00  0.00    -0.129 A  
HETATM    6  C   UNL     1      -9.007   8.569  69.832  1.00  0.00    -0.145 A  
HETATM    7  C   UNL     1      -7.849   7.188  68.210  1.00  0.00    -0.122 A  
HETATM    8  C   UNL     1      -8.850   7.347  69.168  1.00  0.00    -0.136 A  
BRANCH   6   9
HETATM    9  C   UNL     1      -9.978   8.673  70.984  1.00  0.00    -0.272 C  
BRANCH   9  10
HETATM   10  C   UNL     1     -11.424   8.190  70.720  1.00  0.00    -0.261 C  
HETATM   11  C   UNL     1     -11.790   7.024  71.647  1.00  0.00    -0.348 C  
BRANCH  10  12
HETATM   12  N   UNL     1     -12.423   9.254  70.945  1.00  0.00    -0.475 NA 
HETATM   13  H   UNL     1     -12.911   9.110  71.829  1.00  0.00     0.000 HD 
BRANCH  12  14
HETATM   14  C   UNL     1     -11.859  10.612  70.874  1.00  0.00    -0.331 C  
BRANCH  14  15
HETATM   15  C   UNL     1     -12.246  11.382  69.590  1.00  0.00    -0.249 C  
HETATM   16  H   UNL     1     -11.964  11.173  67.652  1.00  0.00     0.000 HD 
HETATM   17  O   UNL     1     -11.726  10.700  68.441  1.00  0.00    -0.406 OA 
BRANCH  15  18
HETATM   18  C   UNL     1     -11.856  12.846  69.593  1.00  0.00    -0.387 A  
HETATM   19  C   UNL     1     -12.330  13.682  70.621  1.00  0.00    -0.440 A  
HETATM   20  C   UNL     1     -12.013  15.045  70.648  1.00  0.00    -0.318 A  
HETATM   21  H   UNL     1     -10.318  17.238  68.873  1.00  0.00     0.000 HD 
HETATM   22  C   UNL     1     -11.192  15.561  69.636  1.00  0.00    -0.300 A  
HETATM   23  C   UNL     1     -11.021  13.388  68.607  1.00  0.00    -0.288 A  
HETATM   24  C   UNL     1     -10.691  14.741  68.629  1.00  0.00    -0.253 A  
HETATM   25  O   UNL     1     -10.875  16.888  69.559  1.00  0.00    -0.303 OA 
BRANCH  20  26
HETATM   26  N   UNL     1     -12.477  15.902  71.663  1.00  0.00    -0.477 N  
HETATM   27  H   UNL     1     -12.533  16.893  71.429  1.00  0.00     0.000 HD 
HETATM   28  O   UNL     1     -13.240  16.383  73.743  1.00  0.00    -0.662 OA 
HETATM   29  C   UNL     1     -12.860  15.554  72.928  1.00  0.00    -0.457 C  
ENDBRANCH  20  26
ENDBRANCH  15  18
ENDBRANCH  14  15
ENDBRANCH  12  14
ENDBRANCH  10  12
ENDBRANCH   9  10
ENDBRANCH   6   9
ENDBRANCH   2   3
TORSDOF 8
ENDMDL
MODEL      207
REMARK 921   NORMALIZED FREE ENERGY PREDICTED BY IDOCK:   -4.24 KCAL/MOL
REMARK 922        TOTAL FREE ENERGY PREDICTED BY IDOCK:   -7.89 KCAL/MOL
REMARK 923 INTER-LIGAND FREE ENERGY PREDICTED BY IDOCK:   -6.73 KCAL/MOL
REMARK 924 INTRA-LIGAND FREE ENERGY PREDICTED BY IDOCK:   -1.16 KCAL/MOL
REMARK 927      BINDING AFFINITY PREDICTED BY RF-SCORE:    0.00 PKD
ROOT
HETATM    1  C   UNL     1     -11.298   5.917  72.396  1.00  0.00    -0.307 C  
HETATM    2  O   UNL     1     -11.918   6.807  71.477  1.00  0.00    -0.314 OA 
ENDROOT
BRANCH   2   3
HETATM    3  C   UNL     1     -11.191   7.150  70.371  1.00  0.00    -0.287 A  
HETATM    4  C   UNL     1     -10.328   8.240  70.261  1.00  0.00    -0.211 A  
HETATM    5  C   UNL     1      -9.689   8.514  69.047  1.00  0.00    -0.170 A  
HETATM    6  C   UNL     1      -9.895   7.692  67.931  1.00  0.00    -0.190 A  
HETATM    7  C   UNL     1     -11.371   6.312  69.271  1.00  0.00    -0.411 A  
HETATM    8  C   UNL     1     -10.732   6.579  68.060  1.00  0.00    -0.351 A  
BRANCH   6   9
HETATM    9  C   UNL     1      -9.351   8.063  66.572  1.00  0.00    -0.261 C  
BRANCH   9  10
HETATM   10  C   UNL     1      -8.191   9.087  66.545  1.00  0.00    -0.114 C  
HETATM   11  C   UNL     1      -7.172   8.730  65.455  1.00  0.00    -0.084 C  
BRANCH  10  12
HETATM   12  N   UNL     1      -8.658  10.460  66.270  1.00  0.00    -0.138 NA 
HETATM   13  H   UNL     1      -7.883  11.121  66.317  1.00  0.00     0.000 HD 
BRANCH  12  14
HETATM   14  C   UNL     1      -9.378  10.590  64.992  1.00  0.00    -0.222 C  
BRANCH  14  15
HETATM   15  C   UNL     1     -10.635  11.487  65.074  1.00  0.00    -0.297 C  
HETATM   16  H   UNL     1     -11.276  13.139  64.214  1.00  0.00     0.000 HD 
HETATM   17  O   UNL     1     -10.504  12.587  64.164  1.00  0.00    -0.351 OA 
BRANCH  15  18
HETATM   18  C   UNL     1     -10.981  11.958  66.471  1.00  0.00    -0.337 A  
HETATM   19  C   UNL     1     -10.760  13.304  66.819  1.00  0.00    -0.279 A  
HETATM   20  C   UNL     1     -11.042  13.774  68.107  1.00  0.00    -0.259 A  
HETATM   21  H   UNL     1     -12.190  12.633  70.973  1.00  0.00     0.000 HD 
HETATM   22  C   UNL     1     -11.572  12.878  69.044  1.00  0.00    -0.322 A  
HETATM   23  C   UNL     1     -11.531  11.092  67.426  1.00  0.00    -0.217 A  
HETATM   24  C   UNL     1     -11.825  11.551  68.708  1.00  0.00    -0.394 A  
HETATM   25  O   UNL     1     -11.830  13.241  70.336  1.00  0.00    -0.293 OA 
BRANCH  20  26
HETATM   26  N   UNL     1     -10.828  15.114  68.479  1.00  0.00    -0.239 N  
HETATM   27  H   UNL     1     -10.696  15.292  69.474  1.00  0.00     0.000 HD 
HETATM   28  O   UNL     1     -10.594  17.334  68.084  1.00  0.00    -0.363 OA 
HETATM   29  C   UNL     1     -10.776  16.203  67.655  1.00  0.00    -0.318 C  
ENDBRANCH  20  26
ENDBRANCH  15  18
ENDBRANCH  14  15
ENDBRANCH  12  14
ENDBRANCH  10  12
ENDBRANCH   9  10
ENDBRANCH   6   9
ENDBRANCH   2   3
TORSDOF 8
ENDMDL
MODEL      208
REMARK 921   NORMALIZED FREE ENERGY PREDICTED BY IDOCK:   -4.24 KCAL/MOL
REMARK 922        TOTAL FREE ENERGY PREDICTED BY IDOCK:   -7.89 KCAL/MOL
REMARK 923 INTER-LIGAND FREE ENERGY PREDICTED BY IDOCK:   -6.72 KCAL/MOL
REMARK 924 INTRA-LIGAND FREE ENERGY PREDICTED BY IDOCK:   -1.17 KCAL/MOL
REMARK 927      BINDING AFFINITY PREDICTED BY RF-SCORE:    0.00 PKD
ROOT
HETATM    1  C   UNL     1     -13.353   9.915  72.002  1.00  0.00    -0.432 C  
HETATM    2  O   UNL     1     -13.058  11.293  72.191  1.00  0.00    -0.458 OA 
ENDROOT
BRANCH   2   3
HETATM    3  C   UNL     1     -12.681  11.997  71.080  1.00  0.00    -0.266 A  
HETATM    4  C   UNL     1     -12.558  13.383  70.990  1.00  0.00    -0.425 A  
HETATM    5  C   UNL     1     -12.221  13.983  69.772  1.00  0.00    -0.396 A  
HETATM    6  C   UNL     1     -11.990  13.201  68.632  1.00  0.00    -0.319 A  
HETATM    7  C   UNL     1     -12.419  11.215  69.955  1.00  0.00    -0.292 A  
HETATM    8  C   UNL     1     -12.078  11.809  68.740  1.00  0.00    -0.204 A  
BRANCH   6   9
HETATM    9  C   UNL     1     -11.791  13.834  67.275  1.00  0.00    -0.436 C  
BRANCH   9  10
HETATM   10  C   UNL     1     -11.978  12.914  66.045  1.00  0.00    -0.446 C  
HETATM   11  C   UNL     1     -12.105  13.739  64.758  1.00  0.00    -0.438 C  
BRANCH  10  12
HETATM   12  N   UNL     1     -10.844  11.987  65.857  1.00  0.00    -0.278 NA 
HETATM   13  H   UNL     1     -10.999  11.386  65.048  1.00  0.00     0.000 HD 
BRANCH  12  14
HETATM   14  C   UNL     1      -9.541  12.668  65.759  1.00  0.00    -0.110 C  
BRANCH  14  15
HETATM   15  C   UNL     1      -8.470  12.105  66.723  1.00  0.00    -0.138 C  
HETATM   16  H   UNL     1      -8.350  10.641  68.035  1.00  0.00     0.000 HD 
HETATM   17  O   UNL     1      -9.007  10.987  67.443  1.00  0.00    -0.140 OA 
BRANCH  15  18
HETATM   18  C   UNL     1      -7.866  13.131  67.658  1.00  0.00    -0.169 A  
HETATM   19  C   UNL     1      -8.462  14.402  67.765  1.00  0.00    -0.175 A  
HETATM   20  C   UNL     1      -7.921  15.387  68.598  1.00  0.00    -0.149 A  
HETATM   21  H   UNL     1      -5.382  15.783  70.654  1.00  0.00     0.000 HD 
HETATM   22  C   UNL     1      -6.778  15.076  69.346  1.00  0.00    -0.158 A  
HETATM   23  C   UNL     1      -6.735  12.845  68.435  1.00  0.00    -0.092 A  
HETATM   24  C   UNL     1      -6.193  13.815  69.276  1.00  0.00    -0.105 A  
HETATM   25  O   UNL     1      -6.157  15.994  70.146  1.00  0.00    -0.175 OA 
BRANCH  20  26
HETATM   26  N   UNL     1      -8.497  16.666  68.718  1.00  0.00    -0.249 N  
HETATM   27  H   UNL     1      -7.850  17.446  68.830  1.00  0.00     0.000 HD 
HETATM   28  O   UNL     1     -10.226  18.128  68.827  1.00  0.00    -0.378 OA 
HETATM   29  C   UNL     1      -9.827  16.978  68.702  1.00  0.00    -0.290 C  
ENDBRANCH  20  26
ENDBRANCH  15  18
ENDBRANCH  14  15
ENDBRANCH  12  14
ENDBRANCH  10  12
ENDBRANCH   9  10
ENDBRANCH   6   9
ENDBRANCH   2   3
TORSDOF 8
ENDMDL
MODEL      209
REMARK 921   NORMALIZED FREE ENERGY PREDICTED BY IDOCK:   -4.24 KCAL/MOL
REMARK 922        TOTAL FREE ENERGY PREDICTED BY IDOCK:   -7.88 KCAL/MOL
REMARK 923 INTER-LIGAND FREE ENERGY PREDICTED BY IDOCK:   -5.79 KCAL/MOL
REMARK 924 INTRA-LIGAND FREE ENERGY PREDICTED BY IDOCK:   -2.08 KCAL/MOL
REMARK 927      BINDING AFFINITY PREDICTED BY RF-SCORE:    0.00 PKD
ROOT
HETATM    1  C   UNL     1     -10.276   4.498  72.016  1.00  0.00    -0.181 C  
HETATM    2  O   UNL     1      -9.125   4.908  71.289  1.00  0.00    -0.136 OA 
ENDROOT
BRANCH   2   3
HETATM    3  C   UNL     1      -9.347   5.520  70.086  1.00  0.00    -0.146 A  
HETATM    4  C   UNL     1     -10.592   5.834  69.542  1.00  0.00    -0.390 A  
HETATM    5  C   UNL     1     -10.681   6.408  68.270  1.00  0.00    -0.351 A  
HETATM    6  C   UNL     1      -9.524   6.688  67.531  1.00  0.00    -0.135 A  
HETATM    7  C   UNL     1      -8.193   5.828  69.366  1.00  0.00    -0.108 A  
HETATM    8  C   UNL     1      -8.277   6.405  68.099  1.00  0.00    -0.116 A  
BRANCH   6   9
HETATM    9  C   UNL     1      -9.603   7.150  66.095  1.00  0.00    -0.013 C  
BRANCH   9  10
HETATM   10  C   UNL     1      -8.914   8.493  65.758  1.00  0.00    -0.182 C  
HETATM   11  C   UNL     1      -7.898   8.317  64.622  1.00  0.00    -0.132 C  
BRANCH  10  12
HETATM   12  N   UNL     1      -9.875   9.527  65.326  1.00  0.00    -0.441 NA 
HETATM   13  H   UNL     1     -10.770   9.107  65.077  1.00  0.00     0.000 HD 
BRANCH  12  14
HETATM   14  C   UNL     1     -10.060  10.604  66.314  1.00  0.00    -0.235 C  
BRANCH  14  15
HETATM   15  C   UNL     1     -11.232  10.355  67.293  1.00  0.00    -0.075 C  
HETATM   16  H   UNL     1     -12.831  11.334  67.894  1.00  0.00     0.000 HD 
HETATM   17  O   UNL     1     -12.111  11.487  67.292  1.00  0.00    -0.548 OA 
BRANCH  15  18
HETATM   18  C   UNL     1     -10.806   9.981  68.698  1.00  0.00    -0.265 A  
HETATM   19  C   UNL     1     -11.785   9.833  69.698  1.00  0.00     0.049 A  
HETATM   20  C   UNL     1     -11.433   9.512  71.014  1.00  0.00    -0.349 A  
HETATM   21  H   UNL     1      -8.725   8.922  72.788  1.00  0.00     0.000 HD 
HETATM   22  C   UNL     1     -10.079   9.320  71.315  1.00  0.00    -0.291 A  
HETATM   23  C   UNL     1      -9.462   9.762  69.027  1.00  0.00    -0.173 A  
HETATM   24  C   UNL     1      -9.100   9.433  70.332  1.00  0.00    -0.302 A  
HETATM   25  O   UNL     1      -9.644   9.053  72.583  1.00  0.00    -0.103 OA 
BRANCH  20  26
HETATM   26  N   UNL     1     -12.394   9.362  72.031  1.00  0.00    -0.363 N  
HETATM   27  H   UNL     1     -12.229   9.883  72.891  1.00  0.00     0.000 HD 
HETATM   28  O   UNL     1     -14.293   8.523  72.943  1.00  0.00    -0.404 OA 
HETATM   29  C   UNL     1     -13.525   8.594  71.994  1.00  0.00    -0.403 C  
ENDBRANCH  20  26
ENDBRANCH  15  18
ENDBRANCH  14  15
ENDBRANCH  12  14
ENDBRANCH  10  12
ENDBRANCH   9  10
ENDBRANCH   6   9
ENDBRANCH   2   3
TORSDOF 8
ENDMDL
MODEL      210
REMARK 921   NORMALIZED FREE ENERGY PREDICTED BY IDOCK:   -4.23 KCAL/MOL
REMARK 922        TOTAL FREE ENERGY PREDICTED BY IDOCK:   -7.87 KCAL/MOL
REMARK 923 INTER-LIGAND FREE ENERGY PREDICTED BY IDOCK:   -6.89 KCAL/MOL
REMARK 924 INTRA-LIGAND FREE ENERGY PREDICTED BY IDOCK:   -0.98 KCAL/MOL
REMARK 927      BINDING AFFINITY PREDICTED BY RF-SCORE:    0.00 PKD
ROOT
HETATM    1  C   UNL     1      -8.150  16.265  67.301  1.00  0.00    -0.176 C  
HETATM    2  O   UNL     1      -7.567  14.985  67.096  1.00  0.00    -0.202 OA 
ENDROOT
BRANCH   2   3
HETATM    3  C   UNL     1      -8.370  13.902  67.325  1.00  0.00    -0.185 A  
HETATM    4  C   UNL     1      -8.075  12.823  68.158  1.00  0.00    -0.158 A  
HETATM    5  C   UNL     1      -8.961  11.745  68.257  1.00  0.00    -0.180 A  
HETATM    6  C   UNL     1     -10.162  11.741  67.534  1.00  0.00    -0.214 A  
HETATM    7  C   UNL     1      -9.579  13.914  66.630  1.00  0.00    -0.297 A  
HETATM    8  C   UNL     1     -10.469  12.844  66.730  1.00  0.00    -0.262 A  
BRANCH   6   9
HETATM    9  C   UNL     1     -11.050  10.520  67.496  1.00  0.00    -0.358 C  
BRANCH   9  10
HETATM   10  C   UNL     1     -10.527   9.305  66.694  1.00  0.00    -0.167 C  
HETATM   11  C   UNL     1      -9.798   9.761  65.423  1.00  0.00    -0.365 C  
BRANCH  10  12
HETATM   12  N   UNL     1      -9.576   8.484  67.470  1.00  0.00    -0.149 NA 
HETATM   13  H   UNL     1      -9.149   9.033  68.215  1.00  0.00     0.000 HD 
BRANCH  12  14
HETATM   14  C   UNL     1     -10.172   7.249  68.007  1.00  0.00    -0.185 C  
BRANCH  14  15
HETATM   15  C   UNL     1      -9.988   7.082  69.534  1.00  0.00    -0.162 C  
HETATM   16  H   UNL     1      -9.548   5.617  70.774  1.00  0.00     0.000 HD 
HETATM   17  O   UNL     1      -9.661   5.720  69.836  1.00  0.00    -0.153 OA 
BRANCH  15  18
HETATM   18  C   UNL     1     -11.157   7.571  70.364  1.00  0.00    -0.277 A  
HETATM   19  C   UNL     1     -11.287   8.947  70.628  1.00  0.00    -0.299 A  
HETATM   20  C   UNL     1     -12.338   9.438  71.411  1.00  0.00    -0.357 A  
HETATM   21  H   UNL     1     -14.944   8.301  73.067  1.00  0.00     0.000 HD 
HETATM   22  C   UNL     1     -13.278   8.529  71.913  1.00  0.00    -0.369 A  
HETATM   23  C   UNL     1     -12.126   6.690  70.865  1.00  0.00    -0.379 A  
HETATM   24  C   UNL     1     -13.182   7.168  71.637  1.00  0.00    -0.403 A  
HETATM   25  O   UNL     1     -14.306   8.917  72.726  1.00  0.00    -0.600 OA 
BRANCH  20  26
HETATM   26  N   UNL     1     -12.486  10.810  71.691  1.00  0.00    -0.330 N  
HETATM   27  H   UNL     1     -12.581  11.064  72.673  1.00  0.00     0.000 HD 
HETATM   28  O   UNL     1     -12.663  13.002  71.141  1.00  0.00    -0.354 OA 
HETATM   29  C   UNL     1     -12.517  11.839  70.792  1.00  0.00    -0.312 C  
ENDBRANCH  20  26
ENDBRANCH  15  18
ENDBRANCH  14  15
ENDBRANCH  12  14
ENDBRANCH  10  12
ENDBRANCH   9  10
ENDBRANCH   6   9
ENDBRANCH   2   3
TORSDOF 8
ENDMDL
MODEL      211
REMARK 921   NORMALIZED FREE ENERGY PREDICTED BY IDOCK:   -4.22 KCAL/MOL
REMARK 922        TOTAL FREE ENERGY PREDICTED BY IDOCK:   -7.86 KCAL/MOL
REMARK 923 INTER-LIGAND FREE ENERGY PREDICTED BY IDOCK:   -7.13 KCAL/MOL
REMARK 924 INTRA-LIGAND FREE ENERGY PREDICTED BY IDOCK:   -0.73 KCAL/MOL
REMARK 927      BINDING AFFINITY PREDICTED BY RF-SCORE:    0.00 PKD
ROOT
HETATM    1  C   UNL     1     -10.400  18.318  66.562  1.00  0.00    -0.392 C  
HETATM    2  O   UNL     1     -10.509  17.157  67.375  1.00  0.00    -0.335 OA 
ENDROOT
BRANCH   2   3
HETATM    3  C   UNL     1     -10.978  16.025  66.768  1.00  0.00    -0.112 A  
HETATM    4  C   UNL     1     -11.761  15.037  67.364  1.00  0.00    -0.255 A  
HETATM    5  C   UNL     1     -12.124  13.894  66.644  1.00  0.00    -0.485 A  
HETATM    6  C   UNL     1     -11.719  13.733  65.312  1.00  0.00    -0.349 A  
HETATM    7  C   UNL     1     -10.603  15.881  65.432  1.00  0.00    -0.439 A  
HETATM    8  C   UNL     1     -10.967  14.746  64.709  1.00  0.00    -0.393 A  
BRANCH   6   9
HETATM    9  C   UNL     1     -11.957  12.437  64.572  1.00  0.00    -0.474 C  
BRANCH   9  10
HETATM   10  C   UNL     1     -10.777  11.439  64.524  1.00  0.00    -0.327 C  
HETATM   11  C   UNL     1     -10.298  11.227  63.081  1.00  0.00    -0.338 C  
BRANCH  10  12
HETATM   12  N   UNL     1      -9.613  11.903  65.304  1.00  0.00    -0.381 NA 
HETATM   13  H   UNL     1      -9.705  12.891  65.537  1.00  0.00     0.000 HD 
BRANCH  12  14
HETATM   14  C   UNL     1      -9.363  11.102  66.515  1.00  0.00    -0.180 C  
BRANCH  14  15
HETATM   15  C   UNL     1      -9.678  11.850  67.832  1.00  0.00    -0.192 C  
HETATM   16  H   UNL     1      -8.826  13.249  68.926  1.00  0.00     0.000 HD 
HETATM   17  O   UNL     1      -8.633  12.789  68.117  1.00  0.00    -0.174 OA 
BRANCH  15  18
HETATM   18  C   UNL     1      -9.954  10.947  69.017  1.00  0.00    -0.206 A  
HETATM   19  C   UNL     1      -8.898  10.206  69.578  1.00  0.00    -0.198 A  
HETATM   20  C   UNL     1      -9.114   9.341  70.657  1.00  0.00    -0.253 A  
HETATM   21  H   UNL     1     -11.594   8.319  72.564  1.00  0.00     0.000 HD 
HETATM   22  C   UNL     1     -10.408   9.242  71.185  1.00  0.00    -0.322 A  
HETATM   23  C   UNL     1     -11.232  10.841  69.581  1.00  0.00    -0.355 A  
HETATM   24  C   UNL     1     -11.458   9.991  70.661  1.00  0.00    -0.425 A  
HETATM   25  O   UNL     1     -10.716   8.386  72.205  1.00  0.00    -0.303 OA 
BRANCH  20  26
HETATM   26  N   UNL     1      -8.074   8.588  71.233  1.00  0.00    -0.123 N  
HETATM   27  H   UNL     1      -8.345   7.715  71.687  1.00  0.00     0.000 HD 
HETATM   28  O   UNL     1      -5.917   8.173  71.794  1.00  0.00    -0.035 OA 
HETATM   29  C   UNL     1      -6.743   8.895  71.253  1.00  0.00    -0.083 C  
ENDBRANCH  20  26
ENDBRANCH  15  18
ENDBRANCH  14  15
ENDBRANCH  12  14
ENDBRANCH  10  12
ENDBRANCH   9  10
ENDBRANCH   6   9
ENDBRANCH   2   3
TORSDOF 8
ENDMDL
MODEL      212
REMARK 921   NORMALIZED FREE ENERGY PREDICTED BY IDOCK:   -4.21 KCAL/MOL
REMARK 922        TOTAL FREE ENERGY PREDICTED BY IDOCK:   -7.84 KCAL/MOL
REMARK 923 INTER-LIGAND FREE ENERGY PREDICTED BY IDOCK:   -7.69 KCAL/MOL
REMARK 924 INTRA-LIGAND FREE ENERGY PREDICTED BY IDOCK:   -0.15 KCAL/MOL
REMARK 927      BINDING AFFINITY PREDICTED BY RF-SCORE:    0.00 PKD
ROOT
HETATM    1  C   UNL     1      -5.211  19.971  72.201  1.00  0.00    -0.054 C  
HETATM    2  O   UNL     1      -5.378  20.984  71.217  1.00  0.00    -0.536 OA 
ENDROOT
BRANCH   2   3
HETATM    3  C   UNL     1      -5.858  20.584  70.001  1.00  0.00    -0.313 A  
HETATM    4  C   UNL     1      -5.400  21.014  68.756  1.00  0.00    -0.367 A  
HETATM    5  C   UNL     1      -6.021  20.571  67.584  1.00  0.00    -0.279 A  
HETATM    6  C   UNL     1      -7.102  19.679  67.643  1.00  0.00    -0.275 A  
HETATM    7  C   UNL     1      -6.911  19.671  70.060  1.00  0.00    -0.114 A  
HETATM    8  C   UNL     1      -7.531  19.223  68.894  1.00  0.00    -0.397 A  
BRANCH   6   9
HETATM    9  C   UNL     1      -7.891  19.321  66.406  1.00  0.00    -0.303 C  
BRANCH   9  10
HETATM   10  C   UNL     1      -7.390  18.105  65.591  1.00  0.00    -0.025 C  
HETATM   11  C   UNL     1      -6.170  18.481  64.741  1.00  0.00     0.044 C  
BRANCH  10  12
HETATM   12  N   UNL     1      -6.988  16.976  66.453  1.00  0.00    -0.253 NA 
HETATM   13  H   UNL     1      -6.469  17.308  67.265  1.00  0.00     0.000 HD 
BRANCH  12  14
HETATM   14  C   UNL     1      -8.117  16.125  66.867  1.00  0.00    -0.240 C  
BRANCH  14  15
HETATM   15  C   UNL     1      -9.496  16.651  66.404  1.00  0.00    -0.280 C  
HETATM   16  H   UNL     1     -10.943  17.747  67.167  1.00  0.00     0.000 HD 
HETATM   17  O   UNL     1     -10.096  17.424  67.451  1.00  0.00    -0.299 OA 
BRANCH  15  18
HETATM   18  C   UNL     1     -10.438  15.579  65.893  1.00  0.00    -0.356 A  
HETATM   19  C   UNL     1     -10.564  14.375  66.610  1.00  0.00    -0.282 A  
HETATM   20  C   UNL     1     -11.403  13.349  66.161  1.00  0.00    -0.303 A  
HETATM   21  H   UNL     1     -13.441  12.727  63.653  1.00  0.00     0.000 HD 
HETATM   22  C   UNL     1     -12.138  13.554  64.985  1.00  0.00    -0.397 A  
HETATM   23  C   UNL     1     -11.201  15.761  64.732  1.00  0.00    -0.375 A  
HETATM   24  C   UNL     1     -12.048  14.751  64.280  1.00  0.00    -0.415 A  
HETATM   25  O   UNL     1     -12.942  12.588  64.450  1.00  0.00    -0.748 OA 
BRANCH  20  26
HETATM   26  N   UNL     1     -11.543  12.135  66.859  1.00  0.00    -0.354 N  
HETATM   27  H   UNL     1     -11.370  11.283  66.326  1.00  0.00     0.000 HD 
HETATM   28  O   UNL     1     -11.991  10.864  68.682  1.00  0.00    -0.484 OA 
HETATM   29  C   UNL     1     -11.885  11.971  68.172  1.00  0.00    -0.286 C  
ENDBRANCH  20  26
ENDBRANCH  15  18
ENDBRANCH  14  15
ENDBRANCH  12  14
ENDBRANCH  10  12
ENDBRANCH   9  10
ENDBRANCH   6   9
ENDBRANCH   2   3
TORSDOF 8
ENDMDL
MODEL      213
REMARK 921   NORMALIZED FREE ENERGY PREDICTED BY IDOCK:   -4.21 KCAL/MOL
REMARK 922        TOTAL FREE ENERGY PREDICTED BY IDOCK:   -7.84 KCAL/MOL
REMARK 923 INTER-LIGAND FREE ENERGY PREDICTED BY IDOCK:   -7.00 KCAL/MOL
REMARK 924 INTRA-LIGAND FREE ENERGY PREDICTED BY IDOCK:   -0.83 KCAL/MOL
REMARK 927      BINDING AFFINITY PREDICTED BY RF-SCORE:    0.00 PKD
ROOT
HETATM    1  C   UNL     1     -11.090  16.237  64.803  1.00  0.00    -0.281 C  
HETATM    2  O   UNL     1     -11.579  14.902  64.800  1.00  0.00    -0.396 OA 
ENDROOT
BRANCH   2   3
HETATM    3  C   UNL     1     -11.699  14.291  66.018  1.00  0.00    -0.379 A  
HETATM    4  C   UNL     1     -11.719  14.929  67.258  1.00  0.00    -0.308 A  
HETATM    5  C   UNL     1     -11.784  14.179  68.436  1.00  0.00    -0.380 A  
HETATM    6  C   UNL     1     -11.846  12.780  68.388  1.00  0.00    -0.353 A  
HETATM    7  C   UNL     1     -11.793  12.901  65.967  1.00  0.00    -0.485 A  
HETATM    8  C   UNL     1     -11.864  12.149  67.140  1.00  0.00    -0.292 A  
BRANCH   6   9
HETATM    9  C   UNL     1     -11.749  11.947  69.645  1.00  0.00    -0.413 C  
BRANCH   9  10
HETATM   10  C   UNL     1     -11.513  10.430  69.456  1.00  0.00    -0.246 C  
HETATM   11  C   UNL     1     -10.027  10.083  69.617  1.00  0.00    -0.263 C  
BRANCH  10  12
HETATM   12  N   UNL     1     -12.257   9.617  70.438  1.00  0.00    -0.475 NA 
HETATM   13  H   UNL     1     -12.966   9.050  69.974  1.00  0.00     0.000 HD 
BRANCH  12  14
HETATM   14  C   UNL     1     -11.389   8.779  71.282  1.00  0.00    -0.291 C  
BRANCH  14  15
HETATM   15  C   UNL     1     -11.861   7.310  71.396  1.00  0.00    -0.305 C  
HETATM   16  H   UNL     1     -12.178   6.013  72.843  1.00  0.00     0.000 HD 
HETATM   17  O   UNL     1     -11.889   6.915  72.773  1.00  0.00    -0.100 OA 
BRANCH  15  18
HETATM   18  C   UNL     1     -11.073   6.330  70.551  1.00  0.00    -0.399 A  
HETATM   19  C   UNL     1     -10.387   5.275  71.180  1.00  0.00    -0.291 A  
HETATM   20  C   UNL     1      -9.627   4.362  70.439  1.00  0.00    -0.196 A  
HETATM   21  H   UNL     1      -8.788   3.791  67.309  1.00  0.00     0.000 HD 
HETATM   22  C   UNL     1      -9.578   4.509  69.047  1.00  0.00    -0.175 A  
HETATM   23  C   UNL     1     -11.020   6.437  69.155  1.00  0.00    -0.416 A  
HETATM   24  C   UNL     1     -10.275   5.529  68.406  1.00  0.00    -0.242 A  
HETATM   25  O   UNL     1      -8.821   3.693  68.254  1.00  0.00    -0.098 OA 
BRANCH  20  26
HETATM   26  N   UNL     1      -8.930   3.301  71.046  1.00  0.00    -0.088 N  
HETATM   27  H   UNL     1      -8.686   2.516  70.443  1.00  0.00     0.000 HD 
HETATM   28  O   UNL     1      -7.949   2.227  72.786  1.00  0.00    -0.052 OA 
HETATM   29  C   UNL     1      -8.544   3.204  72.354  1.00  0.00    -0.079 C  
ENDBRANCH  20  26
ENDBRANCH  15  18
ENDBRANCH  14  15
ENDBRANCH  12  14
ENDBRANCH  10  12
ENDBRANCH   9  10
ENDBRANCH   6   9
ENDBRANCH   2   3
TORSDOF 8
ENDMDL
MODEL      214
REMARK 921   NORMALIZED FREE ENERGY PREDICTED BY IDOCK:   -4.21 KCAL/MOL
REMARK 922        TOTAL FREE ENERGY PREDICTED BY IDOCK:   -7.83 KCAL/MOL
REMARK 923 INTER-LIGAND FREE ENERGY PREDICTED BY IDOCK:   -6.61 KCAL/MOL
REMARK 924 INTRA-LIGAND FREE ENERGY PREDICTED BY IDOCK:   -1.22 KCAL/MOL
REMARK 927      BINDING AFFINITY PREDICTED BY RF-SCORE:    0.00 PKD
ROOT
HETATM    1  C   UNL     1     -12.821  13.027  71.485  1.00  0.00    -0.290 C  
HETATM    2  O   UNL     1     -12.722  12.083  70.427  1.00  0.00    -0.078 OA 
ENDROOT
BRANCH   2   3
HETATM    3  C   UNL     1     -11.942  10.984  70.657  1.00  0.00    -0.365 A  
HETATM    4  C   UNL     1     -10.706  10.716  70.068  1.00  0.00    -0.215 A  
HETATM    5  C   UNL     1     -10.037   9.520  70.346  1.00  0.00    -0.329 A  
HETATM    6  C   UNL     1     -10.589   8.582  71.228  1.00  0.00    -0.296 A  
HETATM    7  C   UNL     1     -12.477  10.066  71.561  1.00  0.00    -0.516 A  
HETATM    8  C   UNL     1     -11.810   8.874  71.844  1.00  0.00    -0.440 A  
BRANCH   6   9
HETATM    9  C   UNL     1      -9.967   7.218  71.412  1.00  0.00    -0.193 C  
BRANCH   9  10
HETATM   10  C   UNL     1     -10.015   6.263  70.196  1.00  0.00    -0.172 C  
HETATM   11  C   UNL     1     -11.396   6.296  69.528  1.00  0.00    -0.475 C  
BRANCH  10  12
HETATM   12  N   UNL     1      -9.023   6.618  69.162  1.00  0.00    -0.132 NA 
HETATM   13  H   UNL     1      -8.321   5.884  69.067  1.00  0.00     0.000 HD 
BRANCH  12  14
HETATM   14  C   UNL     1      -9.626   6.934  67.856  1.00  0.00    -0.118 C  
BRANCH  14  15
HETATM   15  C   UNL     1      -8.610   7.448  66.809  1.00  0.00    -0.127 C  
HETATM   16  H   UNL     1      -6.722   8.005  66.796  1.00  0.00     0.000 HD 
HETATM   17  O   UNL     1      -7.346   7.689  67.439  1.00  0.00    -0.087 OA 
BRANCH  15  18
HETATM   18  C   UNL     1      -9.078   8.654  66.020  1.00  0.00    -0.255 A  
HETATM   19  C   UNL     1      -9.967   9.566  66.618  1.00  0.00    -0.314 A  
HETATM   20  C   UNL     1     -10.443  10.679  65.916  1.00  0.00    -0.174 A  
HETATM   21  H   UNL     1     -10.148  12.052  62.940  1.00  0.00     0.000 HD 
HETATM   22  C   UNL     1      -9.998  10.882  64.603  1.00  0.00    -0.310 A  
HETATM   23  C   UNL     1      -8.636   8.896  64.712  1.00  0.00    -0.184 A  
HETATM   24  C   UNL     1      -9.095  10.006  64.006  1.00  0.00    -0.296 A  
HETATM   25  O   UNL     1     -10.450  11.915  63.830  1.00  0.00    -0.320 OA 
BRANCH  20  26
HETATM   26  N   UNL     1     -11.334  11.604  66.492  1.00  0.00    -0.313 N  
HETATM   27  H   UNL     1     -12.322  11.354  66.472  1.00  0.00     0.000 HD 
HETATM   28  O   UNL     1     -11.880  13.539  67.541  1.00  0.00    -0.343 OA 
HETATM   29  C   UNL     1     -11.023  12.799  67.077  1.00  0.00    -0.263 C  
ENDBRANCH  20  26
ENDBRANCH  15  18
ENDBRANCH  14  15
ENDBRANCH  12  14
ENDBRANCH  10  12
ENDBRANCH   9  10
ENDBRANCH   6   9
ENDBRANCH   2   3
TORSDOF 8
ENDMDL
MODEL      215
REMARK 921   NORMALIZED FREE ENERGY PREDICTED BY IDOCK:   -4.20 KCAL/MOL
REMARK 922        TOTAL FREE ENERGY PREDICTED BY IDOCK:   -7.83 KCAL/MOL
REMARK 923 INTER-LIGAND FREE ENERGY PREDICTED BY IDOCK:   -6.70 KCAL/MOL
REMARK 924 INTRA-LIGAND FREE ENERGY PREDICTED BY IDOCK:   -1.13 KCAL/MOL
REMARK 927      BINDING AFFINITY PREDICTED BY RF-SCORE:    0.00 PKD
ROOT
HETATM    1  C   UNL     1     -12.049  13.160  63.543  1.00  0.00    -0.514 C  
HETATM    2  O   UNL     1     -10.714  12.695  63.394  1.00  0.00    -0.384 OA 
ENDROOT
BRANCH   2   3
HETATM    3  C   UNL     1     -10.267  11.805  64.331  1.00  0.00    -0.289 A  
HETATM    4  C   UNL     1      -9.917  10.475  64.098  1.00  0.00    -0.385 A  
HETATM    5  C   UNL     1      -9.532   9.651  65.161  1.00  0.00    -0.332 A  
HETATM    6  C   UNL     1      -9.479  10.152  66.469  1.00  0.00    -0.214 A  
HETATM    7  C   UNL     1     -10.183  12.314  65.627  1.00  0.00    -0.287 A  
HETATM    8  C   UNL     1      -9.795  11.496  66.689  1.00  0.00    -0.228 A  
BRANCH   6   9
HETATM    9  C   UNL     1      -9.229   9.240  67.647  1.00  0.00    -0.139 C  
BRANCH   9  10
HETATM   10  C   UNL     1      -7.976   8.337  67.573  1.00  0.00    -0.110 C  
HETATM   11  C   UNL     1      -6.699   9.179  67.462  1.00  0.00    -0.069 C  
BRANCH  10  12
HETATM   12  N   UNL     1      -7.828   7.478  68.765  1.00  0.00    -0.118 NA 
HETATM   13  H   UNL     1      -6.930   6.996  68.754  1.00  0.00     0.000 HD 
BRANCH  12  14
HETATM   14  C   UNL     1      -8.017   8.202  70.035  1.00  0.00    -0.105 C  
BRANCH  14  15
HETATM   15  C   UNL     1      -8.822   7.408  71.090  1.00  0.00    -0.142 C  
HETATM   16  H   UNL     1      -9.303   5.525  71.408  1.00  0.00     0.000 HD 
HETATM   17  O   UNL     1      -8.808   6.013  70.760  1.00  0.00    -0.136 OA 
BRANCH  15  18
HETATM   18  C   UNL     1     -10.233   7.913  71.314  1.00  0.00    -0.218 A  
HETATM   19  C   UNL     1     -10.543   9.249  71.000  1.00  0.00    -0.386 A  
HETATM   20  C   UNL     1     -11.827   9.763  71.215  1.00  0.00    -0.399 A  
HETATM   21  H   UNL     1     -14.742   8.764  72.370  1.00  0.00     0.000 HD 
HETATM   22  C   UNL     1     -12.810   8.910  71.733  1.00  0.00    -0.365 A  
HETATM   23  C   UNL     1     -11.244   7.080  71.813  1.00  0.00    -0.278 A  
HETATM   24  C   UNL     1     -12.528   7.578  72.021  1.00  0.00    -0.289 A  
HETATM   25  O   UNL     1     -14.075   9.343  72.019  1.00  0.00    -0.298 OA 
BRANCH  20  26
HETATM   26  N   UNL     1     -12.161  11.096  70.911  1.00  0.00    -0.369 N  
HETATM   27  H   UNL     1     -12.748  11.582  71.589  1.00  0.00     0.000 HD 
HETATM   28  O   UNL     1     -12.143  12.969  69.633  1.00  0.00    -0.297 OA 
HETATM   29  C   UNL     1     -11.787  11.812  69.808  1.00  0.00    -0.349 C  
ENDBRANCH  20  26
ENDBRANCH  15  18
ENDBRANCH  14  15
ENDBRANCH  12  14
ENDBRANCH  10  12
ENDBRANCH   9  10
ENDBRANCH   6   9
ENDBRANCH   2   3
TORSDOF 8
ENDMDL
MODEL      216
REMARK 921   NORMALIZED FREE ENERGY PREDICTED BY IDOCK:   -4.20 KCAL/MOL
REMARK 922        TOTAL FREE ENERGY PREDICTED BY IDOCK:   -7.82 KCAL/MOL
REMARK 923 INTER-LIGAND FREE ENERGY PREDICTED BY IDOCK:   -6.26 KCAL/MOL
REMARK 924 INTRA-LIGAND FREE ENERGY PREDICTED BY IDOCK:   -1.56 KCAL/MOL
REMARK 927      BINDING AFFINITY PREDICTED BY RF-SCORE:    0.00 PKD
ROOT
HETATM    1  C   UNL     1      -8.488   5.393  66.114  1.00  0.00    -0.120 C  
HETATM    2  O   UNL     1      -9.423   6.350  66.594  1.00  0.00    -0.154 OA 
ENDROOT
BRANCH   2   3
HETATM    3  C   UNL     1      -8.996   7.648  66.654  1.00  0.00    -0.156 A  
HETATM    4  C   UNL     1      -9.453   8.700  65.861  1.00  0.00    -0.243 A  
HETATM    5  C   UNL     1      -8.885   9.973  65.983  1.00  0.00    -0.164 A  
HETATM    6  C   UNL     1      -7.863  10.212  66.910  1.00  0.00    -0.107 A  
HETATM    7  C   UNL     1      -8.001   7.892  67.601  1.00  0.00    -0.124 A  
HETATM    8  C   UNL     1      -7.436   9.161  67.729  1.00  0.00    -0.085 A  
BRANCH   6   9
HETATM    9  C   UNL     1      -7.125  11.530  66.942  1.00  0.00    -0.135 C  
BRANCH   9  10
HETATM   10  C   UNL     1      -7.488  12.502  68.088  1.00  0.00    -0.117 C  
HETATM   11  C   UNL     1      -7.698  13.925  67.553  1.00  0.00    -0.192 C  
BRANCH  10  12
HETATM   12  N   UNL     1      -8.730  12.113  68.785  1.00  0.00    -0.372 NA 
HETATM   13  H   UNL     1      -8.649  12.280  69.788  1.00  0.00     0.000 HD 
BRANCH  12  14
HETATM   14  C   UNL     1      -9.935  12.765  68.243  1.00  0.00    -0.230 C  
BRANCH  14  15
HETATM   15  C   UNL     1     -11.126  11.800  68.037  1.00  0.00    -0.242 C  
HETATM   16  H   UNL     1     -13.013  11.947  67.494  1.00  0.00     0.000 HD 
HETATM   17  O   UNL     1     -12.281  12.540  67.621  1.00  0.00    -0.401 OA 
BRANCH  15  18
HETATM   18  C   UNL     1     -11.430  10.914  69.227  1.00  0.00    -0.372 A  
HETATM   19  C   UNL     1     -10.907   9.609  69.267  1.00  0.00    -0.227 A  
HETATM   20  C   UNL     1     -11.184   8.750  70.336  1.00  0.00    -0.223 A  
HETATM   21  H   UNL     1     -12.880   8.760  73.156  1.00  0.00     0.000 HD 
HETATM   22  C   UNL     1     -11.981   9.225  71.386  1.00  0.00    -0.351 A  
HETATM   23  C   UNL     1     -12.208  11.366  70.303  1.00  0.00    -0.433 A  
HETATM   24  C   UNL     1     -12.482  10.524  71.378  1.00  0.00    -0.516 A  
HETATM   25  O   UNL     1     -12.340   8.438  72.444  1.00  0.00    -0.366 OA 
BRANCH  20  26
HETATM   26  N   UNL     1     -10.674   7.440  70.396  1.00  0.00    -0.232 N  
HETATM   27  H   UNL     1      -9.880   7.290  71.018  1.00  0.00     0.000 HD 
HETATM   28  O   UNL     1     -10.600   5.246  69.829  1.00  0.00    -0.307 OA 
HETATM   29  C   UNL     1     -11.124   6.344  69.713  1.00  0.00    -0.396 C  
ENDBRANCH  20  26
ENDBRANCH  15  18
ENDBRANCH  14  15
ENDBRANCH  12  14
ENDBRANCH  10  12
ENDBRANCH   9  10
ENDBRANCH   6   9
ENDBRANCH   2   3
TORSDOF 8
ENDMDL
MODEL      217
REMARK 921   NORMALIZED FREE ENERGY PREDICTED BY IDOCK:   -4.20 KCAL/MOL
REMARK 922        TOTAL FREE ENERGY PREDICTED BY IDOCK:   -7.82 KCAL/MOL
REMARK 923 INTER-LIGAND FREE ENERGY PREDICTED BY IDOCK:   -6.94 KCAL/MOL
REMARK 924 INTRA-LIGAND FREE ENERGY PREDICTED BY IDOCK:   -0.88 KCAL/MOL
REMARK 927      BINDING AFFINITY PREDICTED BY RF-SCORE:    0.00 PKD
ROOT
HETATM    1  C   UNL     1     -10.788   4.492  73.981  1.00  0.00    -0.250 C  
HETATM    2  O   UNL     1     -10.028   5.455  73.263  1.00  0.00    -0.163 OA 
ENDROOT
BRANCH   2   3
HETATM    3  C   UNL     1     -10.233   5.513  71.912  1.00  0.00    -0.199 A  
HETATM    4  C   UNL     1      -9.599   4.727  70.951  1.00  0.00    -0.245 A  
HETATM    5  C   UNL     1      -9.856   4.931  69.591  1.00  0.00    -0.288 A  
HETATM    6  C   UNL     1     -10.763   5.916  69.177  1.00  0.00    -0.394 A  
HETATM    7  C   UNL     1     -11.161   6.472  71.503  1.00  0.00    -0.310 A  
HETATM    8  C   UNL     1     -11.424   6.675  70.148  1.00  0.00    -0.444 A  
BRANCH   6   9
HETATM    9  C   UNL     1     -10.928   6.264  67.716  1.00  0.00    -0.427 C  
BRANCH   9  10
HETATM   10  C   UNL     1      -9.690   6.068  66.810  1.00  0.00    -0.153 C  
HETATM   11  C   UNL     1     -10.015   5.139  65.634  1.00  0.00    -0.033 C  
BRANCH  10  12
HETATM   12  N   UNL     1      -9.202   7.339  66.239  1.00  0.00    -0.268 NA 
HETATM   13  H   UNL     1      -9.111   7.268  65.226  1.00  0.00     0.000 HD 
BRANCH  12  14
HETATM   14  C   UNL     1     -10.026   8.502  66.609  1.00  0.00    -0.293 C  
BRANCH  14  15
HETATM   15  C   UNL     1      -9.248   9.598  67.376  1.00  0.00    -0.130 C  
HETATM   16  H   UNL     1      -8.482   9.818  69.176  1.00  0.00     0.000 HD 
HETATM   17  O   UNL     1      -8.959   9.145  68.705  1.00  0.00    -0.135 OA 
BRANCH  15  18
HETATM   18  C   UNL     1      -9.920  10.955  67.384  1.00  0.00    -0.215 A  
HETATM   19  C   UNL     1     -10.846  11.271  66.373  1.00  0.00    -0.306 A  
HETATM   20  C   UNL     1     -11.470  12.523  66.329  1.00  0.00    -0.370 A  
HETATM   21  H   UNL     1     -11.491  15.350  68.014  1.00  0.00     0.000 HD 
HETATM   22  C   UNL     1     -11.169  13.456  67.330  1.00  0.00    -0.295 A  
HETATM   23  C   UNL     1      -9.655  11.903  68.382  1.00  0.00    -0.196 A  
HETATM   24  C   UNL     1     -10.278  13.149  68.354  1.00  0.00    -0.247 A  
HETATM   25  O   UNL     1     -11.695  14.717  67.335  1.00  0.00    -0.373 OA 
BRANCH  20  26
HETATM   26  N   UNL     1     -12.397  12.863  65.326  1.00  0.00    -0.474 N  
HETATM   27  H   UNL     1     -13.383  12.780  65.574  1.00  0.00     0.000 HD 
HETATM   28  O   UNL     1     -13.010  13.552  63.255  1.00  0.00    -0.284 OA 
HETATM   29  C   UNL     1     -12.125  13.292  64.058  1.00  0.00    -0.447 C  
ENDBRANCH  20  26
ENDBRANCH  15  18
ENDBRANCH  14  15
ENDBRANCH  12  14
ENDBRANCH  10  12
ENDBRANCH   9  10
ENDBRANCH   6   9
ENDBRANCH   2   3
TORSDOF 8
ENDMDL
MODEL      218
REMARK 921   NORMALIZED FREE ENERGY PREDICTED BY IDOCK:   -4.19 KCAL/MOL
REMARK 922        TOTAL FREE ENERGY PREDICTED BY IDOCK:   -7.82 KCAL/MOL
REMARK 923 INTER-LIGAND FREE ENERGY PREDICTED BY IDOCK:   -5.47 KCAL/MOL
REMARK 924 INTRA-LIGAND FREE ENERGY PREDICTED BY IDOCK:   -2.35 KCAL/MOL
REMARK 927      BINDING AFFINITY PREDICTED BY RF-SCORE:    0.00 PKD
ROOT
HETATM    1  C   UNL     1      -6.595  14.705  68.695  1.00  0.00    -0.085 C  
HETATM    2  O   UNL     1      -7.505  14.279  67.689  1.00  0.00    -0.149 OA 
ENDROOT
BRANCH   2   3
HETATM    3  C   UNL     1      -7.794  12.942  67.651  1.00  0.00    -0.168 A  
HETATM    4  C   UNL     1      -8.156  12.213  66.519  1.00  0.00     0.102 A  
HETATM    5  C   UNL     1      -8.486  10.858  66.628  1.00  0.00    -0.151 A  
HETATM    6  C   UNL     1      -8.444  10.212  67.871  1.00  0.00    -0.118 A  
HETATM    7  C   UNL     1      -7.720  12.293  68.883  1.00  0.00     0.059 A  
HETATM    8  C   UNL     1      -8.043  10.941  68.996  1.00  0.00    -0.126 A  
BRANCH   6   9
HETATM    9  C   UNL     1      -8.955   8.801  68.039  1.00  0.00    -0.141 C  
BRANCH   9  10
HETATM   10  C   UNL     1     -10.487   8.628  68.169  1.00  0.00    -0.187 C  
HETATM   11  C   UNL     1     -10.888   7.157  67.999  1.00  0.00    -0.193 C  
BRANCH  10  12
HETATM   12  N   UNL     1     -10.994   9.067  69.484  1.00  0.00    -0.400 NA 
HETATM   13  H   UNL     1     -10.226   9.355  70.090  1.00  0.00     0.000 HD 
BRANCH  12  14
HETATM   14  C   UNL     1     -12.013  10.128  69.395  1.00  0.00     0.114 C  
BRANCH  14  15
HETATM   15  C   UNL     1     -11.469  11.542  69.707  1.00  0.00    -0.286 C  
HETATM   16  H   UNL     1     -11.850  12.969  71.009  1.00  0.00     0.000 HD 
HETATM   17  O   UNL     1     -12.183  12.100  70.817  1.00  0.00    -0.377 OA 
BRANCH  15  18
HETATM   18  C   UNL     1     -11.454  12.485  68.522  1.00  0.00    -0.346 A  
HETATM   19  C   UNL     1     -11.167  13.847  68.729  1.00  0.00    -0.302 A  
HETATM   20  C   UNL     1     -11.168  14.757  67.666  1.00  0.00    -0.323 A  
HETATM   21  H   UNL     1     -11.697  14.781  64.417  1.00  0.00     0.000 HD 
HETATM   22  C   UNL     1     -11.442  14.278  66.378  1.00  0.00    -0.355 A  
HETATM   23  C   UNL     1     -11.705  12.035  67.219  1.00  0.00    -0.339 A  
HETATM   24  C   UNL     1     -11.699  12.929  66.150  1.00  0.00    -0.451 A  
HETATM   25  O   UNL     1     -11.511  15.105  65.291  1.00  0.00    -0.334 OA 
BRANCH  20  26
HETATM   26  N   UNL     1     -10.886  16.123  67.848  1.00  0.00    -0.330 N  
HETATM   27  H   UNL     1     -11.483  16.780  67.347  1.00  0.00     0.000 HD 
HETATM   28  O   UNL     1      -9.733  17.877  68.705  1.00  0.00    -0.329 OA 
HETATM   29  C   UNL     1      -9.901  16.669  68.623  1.00  0.00    -0.252 C  
ENDBRANCH  20  26
ENDBRANCH  15  18
ENDBRANCH  14  15
ENDBRANCH  12  14
ENDBRANCH  10  12
ENDBRANCH   9  10
ENDBRANCH   6   9
ENDBRANCH   2   3
TORSDOF 8
ENDMDL
MODEL      219
REMARK 921   NORMALIZED FREE ENERGY PREDICTED BY IDOCK:   -4.19 KCAL/MOL
REMARK 922        TOTAL FREE ENERGY PREDICTED BY IDOCK:   -7.81 KCAL/MOL
REMARK 923 INTER-LIGAND FREE ENERGY PREDICTED BY IDOCK:   -7.00 KCAL/MOL
REMARK 924 INTRA-LIGAND FREE ENERGY PREDICTED BY IDOCK:   -0.81 KCAL/MOL
REMARK 927      BINDING AFFINITY PREDICTED BY RF-SCORE:    0.00 PKD
ROOT
HETATM    1  C   UNL     1     -12.941  15.071  73.514  1.00  0.00    -0.433 C  
HETATM    2  O   UNL     1     -12.648  15.927  72.417  1.00  0.00    -0.412 OA 
ENDROOT
BRANCH   2   3
HETATM    3  C   UNL     1     -12.351  15.320  71.229  1.00  0.00    -0.361 A  
HETATM    4  C   UNL     1     -12.563  13.977  70.917  1.00  0.00    -0.431 A  
HETATM    5  C   UNL     1     -12.155  13.467  69.680  1.00  0.00    -0.349 A  
HETATM    6  C   UNL     1     -11.543  14.298  68.733  1.00  0.00    -0.357 A  
HETATM    7  C   UNL     1     -11.772  16.156  70.274  1.00  0.00    -0.211 A  
HETATM    8  C   UNL     1     -11.369  15.652  69.037  1.00  0.00    -0.332 A  
BRANCH   6   9
HETATM    9  C   UNL     1     -10.947  13.735  67.464  1.00  0.00    -0.285 C  
BRANCH   9  10
HETATM   10  C   UNL     1     -11.927  13.062  66.475  1.00  0.00    -0.391 C  
HETATM   11  C   UNL     1     -11.877  13.746  65.103  1.00  0.00    -0.365 C  
BRANCH  10  12
HETATM   12  N   UNL     1     -11.620  11.634  66.261  1.00  0.00    -0.414 NA 
HETATM   13  H   UNL     1     -10.930  11.520  65.519  1.00  0.00     0.000 HD 
BRANCH  12  14
HETATM   14  C   UNL     1     -11.190  10.937  67.486  1.00  0.00    -0.293 C  
BRANCH  14  15
HETATM   15  C   UNL     1     -10.080   9.887  67.247  1.00  0.00    -0.211 C  
HETATM   16  H   UNL     1      -9.991   7.969  66.812  1.00  0.00     0.000 HD 
HETATM   17  O   UNL     1     -10.673   8.614  66.958  1.00  0.00    -0.271 OA 
BRANCH  15  18
HETATM   18  C   UNL     1      -9.061   9.786  68.364  1.00  0.00    -0.123 A  
HETATM   19  C   UNL     1      -9.472   9.341  69.633  1.00  0.00    -0.188 A  
HETATM   20  C   UNL     1      -8.569   9.257  70.699  1.00  0.00    -0.225 A  
HETATM   21  H   UNL     1      -5.387   9.838  71.310  1.00  0.00     0.000 HD 
HETATM   22  C   UNL     1      -7.231   9.607  70.470  1.00  0.00    -0.136 A  
HETATM   23  C   UNL     1      -7.712  10.110  68.162  1.00  0.00    -0.088 A  
HETATM   24  C   UNL     1      -6.801  10.021  69.212  1.00  0.00    -0.059 A  
HETATM   25  O   UNL     1      -6.295   9.601  71.465  1.00  0.00    -0.273 OA 
BRANCH  20  26
HETATM   26  N   UNL     1      -8.957   8.818  71.978  1.00  0.00    -0.214 N  
HETATM   27  H   UNL     1      -8.345   9.077  72.751  1.00  0.00     0.000 HD 
HETATM   28  O   UNL     1     -10.304   7.740  73.449  1.00  0.00    -0.332 OA 
HETATM   29  C   UNL     1     -10.063   8.082  72.300  1.00  0.00    -0.246 C  
ENDBRANCH  20  26
ENDBRANCH  15  18
ENDBRANCH  14  15
ENDBRANCH  12  14
ENDBRANCH  10  12
ENDBRANCH   9  10
ENDBRANCH   6   9
ENDBRANCH   2   3
TORSDOF 8
ENDMDL
MODEL      220
REMARK 921   NORMALIZED FREE ENERGY PREDICTED BY IDOCK:   -4.19 KCAL/MOL
REMARK 922        TOTAL FREE ENERGY PREDICTED BY IDOCK:   -7.80 KCAL/MOL
REMARK 923 INTER-LIGAND FREE ENERGY PREDICTED BY IDOCK:   -5.26 KCAL/MOL
REMARK 924 INTRA-LIGAND FREE ENERGY PREDICTED BY IDOCK:   -2.55 KCAL/MOL
REMARK 927      BINDING AFFINITY PREDICTED BY RF-SCORE:    0.00 PKD
ROOT
HETATM    1  C   UNL     1      -6.483  11.699  67.475  1.00  0.00    -0.087 C  
HETATM    2  O   UNL     1      -6.777  10.338  67.194  1.00  0.00    -0.075 OA 
ENDROOT
BRANCH   2   3
HETATM    3  C   UNL     1      -7.109   9.549  68.261  1.00  0.00    -0.075 A  
HETATM    4  C   UNL     1      -7.273   8.165  68.239  1.00  0.00    -0.093 A  
HETATM    5  C   UNL     1      -7.675   7.484  69.392  1.00  0.00    -0.111 A  
HETATM    6  C   UNL     1      -7.903   8.179  70.588  1.00  0.00    -0.091 A  
HETATM    7  C   UNL     1      -7.303  10.239  69.458  1.00  0.00    -0.132 A  
HETATM    8  C   UNL     1      -7.699   9.562  70.612  1.00  0.00    -0.151 A  
BRANCH   6   9
HETATM    9  C   UNL     1      -8.496   7.490  71.794  1.00  0.00    -0.118 C  
BRANCH   9  10
HETATM   10  C   UNL     1     -10.024   7.252  71.777  1.00  0.00    -0.171 C  
HETATM   11  C   UNL     1     -10.396   6.026  72.622  1.00  0.00    -0.222 C  
BRANCH  10  12
HETATM   12  N   UNL     1     -10.780   8.399  72.318  1.00  0.00    -0.327 NA 
HETATM   13  H   UNL     1     -10.146   9.137  72.624  1.00  0.00     0.000 HD 
BRANCH  12  14
HETATM   14  C   UNL     1     -11.787   8.929  71.384  1.00  0.00    -0.317 C  
BRANCH  14  15
HETATM   15  C   UNL     1     -11.412  10.301  70.776  1.00  0.00    -0.351 C  
HETATM   16  H   UNL     1     -12.242  12.081  70.631  1.00  0.00     0.000 HD 
HETATM   17  O   UNL     1     -12.472  11.238  71.004  1.00  0.00    -0.382 OA 
BRANCH  15  18
HETATM   18  C   UNL     1     -11.016  10.253  69.314  1.00  0.00    -0.284 A  
HETATM   19  C   UNL     1     -11.014   9.017  68.642  1.00  0.00     0.034 A  
HETATM   20  C   UNL     1     -10.631   8.925  67.299  1.00  0.00    -0.234 A  
HETATM   21  H   UNL     1      -9.587  10.887  64.872  1.00  0.00     0.000 HD 
HETATM   22  C   UNL     1     -10.267  10.098  66.626  1.00  0.00    -0.224 A  
HETATM   23  C   UNL     1     -10.665  11.411  68.607  1.00  0.00    -0.241 A  
HETATM   24  C   UNL     1     -10.292  11.333  67.267  1.00  0.00    -0.236 A  
HETATM   25  O   UNL     1      -9.834  10.091  65.329  1.00  0.00    -0.291 OA 
BRANCH  20  26
HETATM   26  N   UNL     1     -10.619   7.700  66.606  1.00  0.00    -0.478 N  
HETATM   27  H   UNL     1     -10.654   7.754  65.588  1.00  0.00     0.000 HD 
HETATM   28  O   UNL     1     -10.569   5.438  66.450  1.00  0.00    -0.280 OA 
HETATM   29  C   UNL     1     -10.564   6.445  67.144  1.00  0.00    -0.321 C  
ENDBRANCH  20  26
ENDBRANCH  15  18
ENDBRANCH  14  15
ENDBRANCH  12  14
ENDBRANCH  10  12
ENDBRANCH   9  10
ENDBRANCH   6   9
ENDBRANCH   2   3
TORSDOF 8
ENDMDL
MODEL      221
REMARK 921   NORMALIZED FREE ENERGY PREDICTED BY IDOCK:   -4.18 KCAL/MOL
REMARK 922        TOTAL FREE ENERGY PREDICTED BY IDOCK:   -7.80 KCAL/MOL
REMARK 923 INTER-LIGAND FREE ENERGY PREDICTED BY IDOCK:   -7.14 KCAL/MOL
REMARK 924 INTRA-LIGAND FREE ENERGY PREDICTED BY IDOCK:   -0.65 KCAL/MOL
REMARK 927      BINDING AFFINITY PREDICTED BY RF-SCORE:    0.00 PKD
ROOT
HETATM    1  C   UNL     1     -11.022  16.017  65.130  1.00  0.00    -0.348 C  
HETATM    2  O   UNL     1     -11.392  14.655  64.961  1.00  0.00    -0.355 OA 
ENDROOT
BRANCH   2   3
HETATM    3  C   UNL     1     -11.551  13.918  66.101  1.00  0.00    -0.359 A  
HETATM    4  C   UNL     1     -11.787  14.423  67.379  1.00  0.00    -0.430 A  
HETATM    5  C   UNL     1     -11.871  13.558  68.475  1.00  0.00    -0.398 A  
HETATM    6  C   UNL     1     -11.733  12.173  68.303  1.00  0.00    -0.401 A  
HETATM    7  C   UNL     1     -11.447  12.538  65.923  1.00  0.00    -0.417 A  
HETATM    8  C   UNL     1     -11.534  11.671  67.013  1.00  0.00    -0.336 A  
BRANCH   6   9
HETATM    9  C   UNL     1     -11.652  11.240  69.488  1.00  0.00    -0.398 C  
BRANCH   9  10
HETATM   10  C   UNL     1     -10.895   9.909  69.274  1.00  0.00    -0.227 C  
HETATM   11  C   UNL     1      -9.494   9.970  69.896  1.00  0.00    -0.221 C  
BRANCH  10  12
HETATM   12  N   UNL     1     -11.592   8.759  69.883  1.00  0.00    -0.433 NA 
HETATM   13  H   UNL     1     -12.043   8.189  69.168  1.00  0.00     0.000 HD 
BRANCH  12  14
HETATM   14  C   UNL     1     -10.722   7.932  70.737  1.00  0.00    -0.223 C  
BRANCH  14  15
HETATM   15  C   UNL     1     -11.488   7.129  71.815  1.00  0.00    -0.267 C  
HETATM   16  H   UNL     1     -11.950   7.359  73.715  1.00  0.00     0.000 HD 
HETATM   17  O   UNL     1     -11.480   7.852  73.053  1.00  0.00    -0.383 OA 
BRANCH  15  18
HETATM   18  C   UNL     1     -11.006   5.705  71.998  1.00  0.00    -0.302 A  
HETATM   19  C   UNL     1     -10.150   5.139  71.035  1.00  0.00    -0.297 A  
HETATM   20  C   UNL     1      -9.701   3.819  71.153  1.00  0.00    -0.175 A  
HETATM   21  H   UNL     1     -10.029   1.255  73.191  1.00  0.00     0.000 HD 
HETATM   22  C   UNL     1     -10.106   3.072  72.267  1.00  0.00    -0.148 A  
HETATM   23  C   UNL     1     -11.377   4.939  73.111  1.00  0.00    -0.395 A  
HETATM   24  C   UNL     1     -10.928   3.626  73.244  1.00  0.00    -0.276 A  
HETATM   25  O   UNL     1      -9.754   1.762  72.435  1.00  0.00    -0.085 OA 
BRANCH  20  26
HETATM   26  N   UNL     1      -8.847   3.230  70.202  1.00  0.00    -0.077 N  
HETATM   27  H   UNL     1      -8.087   2.658  70.568  1.00  0.00     0.000 HD 
HETATM   28  O   UNL     1      -8.119   2.792  68.100  1.00  0.00    -0.061 OA 
HETATM   29  C   UNL     1      -8.923   3.339  68.842  1.00  0.00    -0.130 C  
ENDBRANCH  20  26
ENDBRANCH  15  18
ENDBRANCH  14  15
ENDBRANCH  12  14
ENDBRANCH  10  12
ENDBRANCH   9  10
ENDBRANCH   6   9
ENDBRANCH   2   3
TORSDOF 8
ENDMDL
MODEL      222
REMARK 921   NORMALIZED FREE ENERGY PREDICTED BY IDOCK:   -4.17 KCAL/MOL
REMARK 922        TOTAL FREE ENERGY PREDICTED BY IDOCK:   -7.78 KCAL/MOL
REMARK 923 INTER-LIGAND FREE ENERGY PREDICTED BY IDOCK:   -6.98 KCAL/MOL
REMARK 924 INTRA-LIGAND FREE ENERGY PREDICTED BY IDOCK:   -0.80 KCAL/MOL
REMARK 927      BINDING AFFINITY PREDICTED BY RF-SCORE:    0.00 PKD
ROOT
HETATM    1  C   UNL     1      -7.906  16.942  66.301  1.00  0.00    -0.311 C  
HETATM    2  O   UNL     1      -8.997  16.032  66.242  1.00  0.00    -0.288 OA 
ENDROOT
BRANCH   2   3
HETATM    3  C   UNL     1      -9.700  15.843  67.400  1.00  0.00    -0.227 A  
HETATM    4  C   UNL     1     -11.084  15.933  67.543  1.00  0.00    -0.235 A  
HETATM    5  C   UNL     1     -11.675  15.777  68.801  1.00  0.00    -0.387 A  
HETATM    6  C   UNL     1     -10.888  15.515  69.931  1.00  0.00    -0.311 A  
HETATM    7  C   UNL     1      -8.918  15.550  68.517  1.00  0.00    -0.191 A  
HETATM    8  C   UNL     1      -9.504  15.389  69.773  1.00  0.00    -0.156 A  
BRANCH   6   9
HETATM    9  C   UNL     1     -11.485  15.510  71.318  1.00  0.00    -0.462 C  
BRANCH   9  10
HETATM   10  C   UNL     1     -12.486  14.375  71.639  1.00  0.00    -0.352 C  
HETATM   11  C   UNL     1     -13.926  14.817  71.353  1.00  0.00    -0.512 C  
BRANCH  10  12
HETATM   12  N   UNL     1     -12.237  13.160  70.838  1.00  0.00    -0.459 NA 
HETATM   13  H   UNL     1     -11.244  13.065  70.625  1.00  0.00     0.000 HD 
BRANCH  12  14
HETATM   14  C   UNL     1     -12.757  11.931  71.460  1.00  0.00    -0.274 C  
BRANCH  14  15
HETATM   15  C   UNL     1     -12.559  10.663  70.596  1.00  0.00    -0.365 C  
HETATM   16  H   UNL     1     -13.433   8.910  70.401  1.00  0.00     0.000 HD 
HETATM   17  O   UNL     1     -13.555   9.688  70.931  1.00  0.00    -0.253 OA 
BRANCH  15  18
HETATM   18  C   UNL     1     -11.163  10.076  70.654  1.00  0.00    -0.425 A  
HETATM   19  C   UNL     1     -10.213  10.463  69.692  1.00  0.00    -0.245 A  
HETATM   20  C   UNL     1      -8.920   9.926  69.695  1.00  0.00    -0.216 A  
HETATM   21  H   UNL     1      -7.129   7.772  71.421  1.00  0.00     0.000 HD 
HETATM   22  C   UNL     1      -8.581   9.005  70.695  1.00  0.00    -0.210 A  
HETATM   23  C   UNL     1     -10.787   9.168  71.653  1.00  0.00    -0.442 A  
HETATM   24  C   UNL     1      -9.500   8.634  71.673  1.00  0.00    -0.339 A  
HETATM   25  O   UNL     1      -7.359   8.396  70.743  1.00  0.00    -0.052 OA 
BRANCH  20  26
HETATM   26  N   UNL     1      -7.953  10.295  68.741  1.00  0.00    -0.105 N  
HETATM   27  H   UNL     1      -7.756   9.614  68.009  1.00  0.00     0.000 HD 
HETATM   28  O   UNL     1      -6.418  11.684  67.817  1.00  0.00    -0.058 OA 
HETATM   29  C   UNL     1      -7.249  11.465  68.687  1.00  0.00    -0.100 C  
ENDBRANCH  20  26
ENDBRANCH  15  18
ENDBRANCH  14  15
ENDBRANCH  12  14
ENDBRANCH  10  12
ENDBRANCH   9  10
ENDBRANCH   6   9
ENDBRANCH   2   3
TORSDOF 8
ENDMDL
MODEL      223
REMARK 921   NORMALIZED FREE ENERGY PREDICTED BY IDOCK:   -4.16 KCAL/MOL
REMARK 922        TOTAL FREE ENERGY PREDICTED BY IDOCK:   -7.77 KCAL/MOL
REMARK 923 INTER-LIGAND FREE ENERGY PREDICTED BY IDOCK:   -6.49 KCAL/MOL
REMARK 924 INTRA-LIGAND FREE ENERGY PREDICTED BY IDOCK:   -1.29 KCAL/MOL
REMARK 927      BINDING AFFINITY PREDICTED BY RF-SCORE:    0.00 PKD
ROOT
HETATM    1  C   UNL     1      -7.672   5.305  67.312  1.00  0.00    -0.096 C  
HETATM    2  O   UNL     1      -8.152   6.056  66.205  1.00  0.00    -0.104 OA 
ENDROOT
BRANCH   2   3
HETATM    3  C   UNL     1      -8.071   7.417  66.306  1.00  0.00    -0.117 A  
HETATM    4  C   UNL     1      -8.543   8.339  65.372  1.00  0.00    -0.176 A  
HETATM    5  C   UNL     1      -8.341   9.709  65.570  1.00  0.00    -0.143 A  
HETATM    6  C   UNL     1      -7.676  10.175  66.712  1.00  0.00    -0.105 A  
HETATM    7  C   UNL     1      -7.438   7.880  67.459  1.00  0.00    -0.093 A  
HETATM    8  C   UNL     1      -7.239   9.246  67.663  1.00  0.00    -0.083 A  
BRANCH   6   9
HETATM    9  C   UNL     1      -7.300  11.630  66.863  1.00  0.00    -0.125 C  
BRANCH   9  10
HETATM   10  C   UNL     1      -7.479  12.252  68.268  1.00  0.00    -0.119 C  
HETATM   11  C   UNL     1      -6.635  13.525  68.414  1.00  0.00    -0.095 C  
BRANCH  10  12
HETATM   12  N   UNL     1      -8.880  12.624  68.546  1.00  0.00    -0.359 NA 
HETATM   13  H   UNL     1      -8.923  13.473  69.109  1.00  0.00     0.000 HD 
BRANCH  12  14
HETATM   14  C   UNL     1      -9.702  12.760  67.332  1.00  0.00    -0.197 C  
BRANCH  14  15
HETATM   15  C   UNL     1     -10.877  11.756  67.259  1.00  0.00    -0.253 C  
HETATM   16  H   UNL     1     -12.774  11.805  66.734  1.00  0.00     0.000 HD 
HETATM   17  O   UNL     1     -12.052  12.422  66.779  1.00  0.00    -0.578 OA 
BRANCH  15  18
HETATM   18  C   UNL     1     -11.146  11.011  68.550  1.00  0.00    -0.297 A  
HETATM   19  C   UNL     1     -11.932  11.620  69.546  1.00  0.00    -0.383 A  
HETATM   20  C   UNL     1     -12.184  10.976  70.763  1.00  0.00    -0.380 A  
HETATM   21  H   UNL     1     -11.450   8.148  72.277  1.00  0.00     0.000 HD 
HETATM   22  C   UNL     1     -11.654   9.696  70.964  1.00  0.00    -0.359 A  
HETATM   23  C   UNL     1     -10.646   9.721  68.774  1.00  0.00    -0.244 A  
HETATM   24  C   UNL     1     -10.900   9.066  69.977  1.00  0.00    -0.247 A  
HETATM   25  O   UNL     1     -11.810   9.017  72.140  1.00  0.00    -0.358 OA 
BRANCH  20  26
HETATM   26  N   UNL     1     -12.965  11.566  71.774  1.00  0.00    -0.438 N  
HETATM   27  H   UNL     1     -13.285  10.947  72.519  1.00  0.00     0.000 HD 
HETATM   28  O   UNL     1     -14.035  13.287  72.791  1.00  0.00    -0.701 OA 
HETATM   29  C   UNL     1     -13.342  12.876  71.871  1.00  0.00    -0.435 C  
ENDBRANCH  20  26
ENDBRANCH  15  18
ENDBRANCH  14  15
ENDBRANCH  12  14
ENDBRANCH  10  12
ENDBRANCH   9  10
ENDBRANCH   6   9
ENDBRANCH   2   3
TORSDOF 8
ENDMDL
MODEL      224
REMARK 921   NORMALIZED FREE ENERGY PREDICTED BY IDOCK:   -4.16 KCAL/MOL
REMARK 922        TOTAL FREE ENERGY PREDICTED BY IDOCK:   -7.77 KCAL/MOL
REMARK 923 INTER-LIGAND FREE ENERGY PREDICTED BY IDOCK:   -6.63 KCAL/MOL
REMARK 924 INTRA-LIGAND FREE ENERGY PREDICTED BY IDOCK:   -1.14 KCAL/MOL
REMARK 927      BINDING AFFINITY PREDICTED BY RF-SCORE:    0.00 PKD
ROOT
HETATM    1  C   UNL     1      -7.643   8.127  69.094  1.00  0.00    -0.096 C  
HETATM    2  O   UNL     1      -8.676   7.970  68.130  1.00  0.00    -0.126 OA 
ENDROOT
BRANCH   2   3
HETATM    3  C   UNL     1      -8.998   9.075  67.391  1.00  0.00    -0.124 A  
HETATM    4  C   UNL     1      -8.708  10.398  67.725  1.00  0.00    -0.122 A  
HETATM    5  C   UNL     1      -9.150  11.444  66.908  1.00  0.00    -0.178 A  
HETATM    6  C   UNL     1      -9.874  11.178  65.738  1.00  0.00    -0.279 A  
HETATM    7  C   UNL     1      -9.690   8.807  66.211  1.00  0.00    -0.342 A  
HETATM    8  C   UNL     1     -10.128   9.848  65.390  1.00  0.00    -0.270 A  
BRANCH   6   9
HETATM    9  C   UNL     1     -10.501  12.293  64.934  1.00  0.00    -0.321 C  
BRANCH   9  10
HETATM   10  C   UNL     1     -11.997  12.584  65.199  1.00  0.00    -0.434 C  
HETATM   11  C   UNL     1     -12.270  12.720  66.703  1.00  0.00    -0.162 C  
BRANCH  10  12
HETATM   12  N   UNL     1     -12.449  13.836  64.561  1.00  0.00    -0.623 NA 
HETATM   13  H   UNL     1     -13.113  14.328  65.159  1.00  0.00     0.000 HD 
BRANCH  12  14
HETATM   14  C   UNL     1     -11.343  14.726  64.167  1.00  0.00     0.087 C  
BRANCH  14  15
HETATM   15  C   UNL     1     -11.317  16.066  64.939  1.00  0.00    -0.229 C  
HETATM   16  H   UNL     1     -11.332  17.982  64.487  1.00  0.00     0.000 HD 
HETATM   17  O   UNL     1     -11.348  17.159  64.013  1.00  0.00    -0.797 OA 
BRANCH  15  18
HETATM   18  C   UNL     1     -10.172  16.201  65.922  1.00  0.00    -0.381 A  
HETATM   19  C   UNL     1      -9.842  17.473  66.424  1.00  0.00    -0.316 A  
HETATM   20  C   UNL     1      -8.776  17.646  67.314  1.00  0.00    -0.235 A  
HETATM   21  H   UNL     1      -6.474  15.835  68.815  1.00  0.00     0.000 HD 
HETATM   22  C   UNL     1      -8.051  16.516  67.716  1.00  0.00    -0.161 A  
HETATM   23  C   UNL     1      -9.439  15.088  66.358  1.00  0.00    -0.325 A  
HETATM   24  C   UNL     1      -8.382  15.246  67.252  1.00  0.00    -0.225 A  
HETATM   25  O   UNL     1      -6.966  16.601  68.542  1.00  0.00    -0.147 OA 
BRANCH  20  26
HETATM   26  N   UNL     1      -8.425  18.909  67.828  1.00  0.00    -0.279 N  
HETATM   27  H   UNL     1      -8.450  19.008  68.842  1.00  0.00     0.000 HD 
HETATM   28  O   UNL     1      -7.779  21.076  67.665  1.00  0.00    -0.221 OA 
HETATM   29  C   UNL     1      -8.055  20.017  67.119  1.00  0.00    -0.320 C  
ENDBRANCH  20  26
ENDBRANCH  15  18
ENDBRANCH  14  15
ENDBRANCH  12  14
ENDBRANCH  10  12
ENDBRANCH   9  10
ENDBRANCH   6   9
ENDBRANCH   2   3
TORSDOF 8
ENDMDL
MODEL      225
REMARK 921   NORMALIZED FREE ENERGY PREDICTED BY IDOCK:   -4.16 KCAL/MOL
REMARK 922        TOTAL FREE ENERGY PREDICTED BY IDOCK:   -7.76 KCAL/MOL
REMARK 923 INTER-LIGAND FREE ENERGY PREDICTED BY IDOCK:   -6.54 KCAL/MOL
REMARK 924 INTRA-LIGAND FREE ENERGY PREDICTED BY IDOCK:   -1.22 KCAL/MOL
REMARK 927      BINDING AFFINITY PREDICTED BY RF-SCORE:    0.00 PKD
ROOT
HETATM    1  C   UNL     1      -9.468   7.552  73.494  1.00  0.00    -0.273 C  
HETATM    2  O   UNL     1     -10.128   8.596  72.791  1.00  0.00    -0.199 OA 
ENDROOT
BRANCH   2   3
HETATM    3  C   UNL     1      -9.743   8.802  71.495  1.00  0.00    -0.291 A  
HETATM    4  C   UNL     1      -8.529   8.415  70.929  1.00  0.00    -0.158 A  
HETATM    5  C   UNL     1      -8.234   8.742  69.601  1.00  0.00    -0.113 A  
HETATM    6  C   UNL     1      -9.158   9.448  68.819  1.00  0.00    -0.132 A  
HETATM    7  C   UNL     1     -10.677   9.476  70.708  1.00  0.00    -0.391 A  
HETATM    8  C   UNL     1     -10.389   9.799  69.382  1.00  0.00    -0.232 A  
BRANCH   6   9
HETATM    9  C   UNL     1      -8.794   9.955  67.443  1.00  0.00    -0.137 C  
BRANCH   9  10
HETATM   10  C   UNL     1      -9.001   8.974  66.264  1.00  0.00    -0.162 C  
HETATM   11  C   UNL     1      -9.441   7.594  66.771  1.00  0.00    -0.244 C  
BRANCH  10  12
HETATM   12  N   UNL     1     -10.036   9.440  65.319  1.00  0.00    -0.382 NA 
HETATM   13  H   UNL     1     -10.943   9.506  65.780  1.00  0.00     0.000 HD 
BRANCH  12  14
HETATM   14  C   UNL     1      -9.693  10.709  64.654  1.00  0.00    -0.302 C  
BRANCH  14  15
HETATM   15  C   UNL     1     -10.828  11.760  64.697  1.00  0.00    -0.307 C  
HETATM   16  H   UNL     1     -11.471  13.222  63.545  1.00  0.00     0.000 HD 
HETATM   17  O   UNL     1     -10.774  12.576  63.520  1.00  0.00    -0.435 OA 
BRANCH  15  18
HETATM   18  C   UNL     1     -10.859  12.600  65.957  1.00  0.00    -0.306 A  
HETATM   19  C   UNL     1      -9.900  13.615  66.132  1.00  0.00    -0.304 A  
HETATM   20  C   UNL     1      -9.878  14.397  67.292  1.00  0.00    -0.247 A  
HETATM   21  H   UNL     1     -11.529  14.688  70.124  1.00  0.00     0.000 HD 
HETATM   22  C   UNL     1     -10.849  14.163  68.274  1.00  0.00    -0.247 A  
HETATM   23  C   UNL     1     -11.829  12.404  66.949  1.00  0.00    -0.377 A  
HETATM   24  C   UNL     1     -11.823  13.183  68.104  1.00  0.00    -0.386 A  
HETATM   25  O   UNL     1     -10.870  14.847  69.458  1.00  0.00    -0.249 OA 
BRANCH  20  26
HETATM   26  N   UNL     1      -8.928  15.416  67.491  1.00  0.00    -0.180 N  
HETATM   27  H   UNL     1      -8.719  15.659  68.459  1.00  0.00     0.000 HD 
HETATM   28  O   UNL     1      -7.450  16.996  66.811  1.00  0.00    -0.181 OA 
HETATM   29  C   UNL     1      -8.252  16.116  66.531  1.00  0.00    -0.308 C  
ENDBRANCH  20  26
ENDBRANCH  15  18
ENDBRANCH  14  15
ENDBRANCH  12  14
ENDBRANCH  10  12
ENDBRANCH   9  10
ENDBRANCH   6   9
ENDBRANCH   2   3
TORSDOF 8
ENDMDL
MODEL      226
REMARK 921   NORMALIZED FREE ENERGY PREDICTED BY IDOCK:   -4.15 KCAL/MOL
REMARK 922        TOTAL FREE ENERGY PREDICTED BY IDOCK:   -7.76 KCAL/MOL
REMARK 923 INTER-LIGAND FREE ENERGY PREDICTED BY IDOCK:   -6.72 KCAL/MOL
REMARK 924 INTRA-LIGAND FREE ENERGY PREDICTED BY IDOCK:   -1.04 KCAL/MOL
REMARK 927      BINDING AFFINITY PREDICTED BY RF-SCORE:    0.00 PKD
ROOT
HETATM    1  C   UNL     1     -12.506  14.435  64.553  1.00  0.00    -0.339 C  
HETATM    2  O   UNL     1     -12.481  13.090  64.092  1.00  0.00    -0.566 OA 
ENDROOT
BRANCH   2   3
HETATM    3  C   UNL     1     -11.572  12.257  64.683  1.00  0.00    -0.344 A  
HETATM    4  C   UNL     1     -11.421  12.044  66.052  1.00  0.00    -0.399 A  
HETATM    5  C   UNL     1     -10.407  11.208  66.529  1.00  0.00    -0.290 A  
HETATM    6  C   UNL     1      -9.538  10.562  65.639  1.00  0.00    -0.278 A  
HETATM    7  C   UNL     1     -10.729  11.589  63.794  1.00  0.00    -0.474 A  
HETATM    8  C   UNL     1      -9.719  10.750  64.265  1.00  0.00    -0.357 A  
BRANCH   6   9
HETATM    9  C   UNL     1      -8.337   9.792  66.136  1.00  0.00    -0.122 C  
BRANCH   9  10
HETATM   10  C   UNL     1      -8.011   8.467  65.407  1.00  0.00    -0.113 C  
HETATM   11  C   UNL     1      -6.659   7.907  65.868  1.00  0.00    -0.049 C  
BRANCH  10  12
HETATM   12  N   UNL     1      -9.023   7.422  65.659  1.00  0.00    -0.373 NA 
HETATM   13  H   UNL     1      -9.245   6.920  64.800  1.00  0.00     0.000 HD 
BRANCH  12  14
HETATM   14  C   UNL     1      -8.643   6.484  66.729  1.00  0.00    -0.117 C  
BRANCH  14  15
HETATM   15  C   UNL     1      -9.850   5.852  67.462  1.00  0.00    -0.125 C  
HETATM   16  H   UNL     1     -11.733   5.455  67.044  1.00  0.00     0.000 HD 
HETATM   17  O   UNL     1     -10.991   5.843  66.594  1.00  0.00    -0.287 OA 
BRANCH  15  18
HETATM   18  C   UNL     1     -10.172   6.483  68.801  1.00  0.00    -0.194 A  
HETATM   19  C   UNL     1      -9.269   7.403  69.364  1.00  0.00    -0.145 A  
HETATM   20  C   UNL     1      -9.516   7.990  70.610  1.00  0.00    -0.162 A  
HETATM   21  H   UNL     1     -11.800   7.921  72.979  1.00  0.00     0.000 HD 
HETATM   22  C   UNL     1     -10.700   7.657  71.282  1.00  0.00    -0.228 A  
HETATM   23  C   UNL     1     -11.357   6.186  69.489  1.00  0.00    -0.426 A  
HETATM   24  C   UNL     1     -11.619   6.772  70.725  1.00  0.00    -0.418 A  
HETATM   25  O   UNL     1     -10.996   8.146  72.523  1.00  0.00    -0.324 OA 
BRANCH  20  26
HETATM   26  N   UNL     1      -8.627   8.910  71.195  1.00  0.00    -0.197 N  
HETATM   27  H   UNL     1      -9.004   9.833  71.406  1.00  0.00     0.000 HD 
HETATM   28  O   UNL     1      -6.620   9.580  72.009  1.00  0.00    -0.295 OA 
HETATM   29  C   UNL     1      -7.313   8.705  71.511  1.00  0.00    -0.100 C  
ENDBRANCH  20  26
ENDBRANCH  15  18
ENDBRANCH  14  15
ENDBRANCH  12  14
ENDBRANCH  10  12
ENDBRANCH   9  10
ENDBRANCH   6   9
ENDBRANCH   2   3
TORSDOF 8
ENDMDL
MODEL      227
REMARK 921   NORMALIZED FREE ENERGY PREDICTED BY IDOCK:   -4.14 KCAL/MOL
REMARK 922        TOTAL FREE ENERGY PREDICTED BY IDOCK:   -7.74 KCAL/MOL
REMARK 923 INTER-LIGAND FREE ENERGY PREDICTED BY IDOCK:   -6.89 KCAL/MOL
REMARK 924 INTRA-LIGAND FREE ENERGY PREDICTED BY IDOCK:   -0.85 KCAL/MOL
REMARK 927      BINDING AFFINITY PREDICTED BY RF-SCORE:    0.00 PKD
ROOT
HETATM    1  C   UNL     1      -7.624   4.140  64.959  1.00  0.00    -0.077 C  
HETATM    2  O   UNL     1      -8.825   4.675  65.499  1.00  0.00    -0.125 OA 
ENDROOT
BRANCH   2   3
HETATM    3  C   UNL     1      -8.845   6.022  65.736  1.00  0.00    -0.135 A  
HETATM    4  C   UNL     1      -9.630   6.677  66.684  1.00  0.00    -0.207 A  
HETATM    5  C   UNL     1      -9.599   8.072  66.782  1.00  0.00    -0.281 A  
HETATM    6  C   UNL     1      -8.770   8.828  65.943  1.00  0.00    -0.198 A  
HETATM    7  C   UNL     1      -7.995   6.770  64.922  1.00  0.00    -0.124 A  
HETATM    8  C   UNL     1      -7.957   8.161  65.021  1.00  0.00    -0.139 A  
BRANCH   6   9
HETATM    9  C   UNL     1      -8.845  10.336  65.918  1.00  0.00    -0.176 C  
BRANCH   9  10
HETATM   10  C   UNL     1     -10.220  10.969  66.240  1.00  0.00    -0.245 C  
HETATM   11  C   UNL     1     -10.201  11.648  67.615  1.00  0.00    -0.206 C  
BRANCH  10  12
HETATM   12  N   UNL     1     -10.613  11.994  65.253  1.00  0.00    -0.276 NA 
HETATM   13  H   UNL     1     -10.198  11.798  64.343  1.00  0.00     0.000 HD 
BRANCH  12  14
HETATM   14  C   UNL     1     -12.071  12.165  65.136  1.00  0.00    -0.218 C  
BRANCH  14  15
HETATM   15  C   UNL     1     -12.513  13.635  64.941  1.00  0.00    -0.384 C  
HETATM   16  H   UNL     1     -12.727  14.879  63.430  1.00  0.00     0.000 HD 
HETATM   17  O   UNL     1     -12.456  13.976  63.550  1.00  0.00    -0.826 OA 
BRANCH  15  18
HETATM   18  C   UNL     1     -11.757  14.635  65.792  1.00  0.00    -0.302 A  
HETATM   19  C   UNL     1     -12.016  14.699  67.173  1.00  0.00    -0.310 A  
HETATM   20  C   UNL     1     -11.359  15.625  67.991  1.00  0.00    -0.324 A  
HETATM   21  H   UNL     1      -9.123  18.026  67.726  1.00  0.00     0.000 HD 
HETATM   22  C   UNL     1     -10.415  16.480  67.407  1.00  0.00    -0.310 A  
HETATM   23  C   UNL     1     -10.793  15.491  65.242  1.00  0.00    -0.425 A  
HETATM   24  C   UNL     1     -10.124  16.410  66.047  1.00  0.00    -0.373 A  
HETATM   25  O   UNL     1      -9.764  17.446  68.122  1.00  0.00    -0.269 OA 
BRANCH  20  26
HETATM   26  N   UNL     1     -11.603  15.709  69.374  1.00  0.00    -0.345 N  
HETATM   27  H   UNL     1     -11.626  16.647  69.774  1.00  0.00     0.000 HD 
HETATM   28  O   UNL     1     -12.006  14.857  71.436  1.00  0.00    -0.310 OA 
HETATM   29  C   UNL     1     -11.813  14.675  70.242  1.00  0.00    -0.303 C  
ENDBRANCH  20  26
ENDBRANCH  15  18
ENDBRANCH  14  15
ENDBRANCH  12  14
ENDBRANCH  10  12
ENDBRANCH   9  10
ENDBRANCH   6   9
ENDBRANCH   2   3
TORSDOF 8
ENDMDL
MODEL      228
REMARK 921   NORMALIZED FREE ENERGY PREDICTED BY IDOCK:   -4.14 KCAL/MOL
REMARK 922        TOTAL FREE ENERGY PREDICTED BY IDOCK:   -7.74 KCAL/MOL
REMARK 923 INTER-LIGAND FREE ENERGY PREDICTED BY IDOCK:   -7.07 KCAL/MOL
REMARK 924 INTRA-LIGAND FREE ENERGY PREDICTED BY IDOCK:   -0.66 KCAL/MOL
REMARK 927      BINDING AFFINITY PREDICTED BY RF-SCORE:    0.00 PKD
ROOT
HETATM    1  C   UNL     1      -7.167  15.545  68.003  1.00  0.00    -0.121 C  
HETATM    2  O   UNL     1      -6.868  14.173  68.222  1.00  0.00    -0.085 OA 
ENDROOT
BRANCH   2   3
HETATM    3  C   UNL     1      -7.783  13.266  67.765  1.00  0.00    -0.159 A  
HETATM    4  C   UNL     1      -9.167  13.436  67.746  1.00  0.00    -0.211 A  
HETATM    5  C   UNL     1      -9.999  12.400  67.307  1.00  0.00    -0.209 A  
HETATM    6  C   UNL     1      -9.454  11.186  66.868  1.00  0.00    -0.203 A  
HETATM    7  C   UNL     1      -7.238  12.071  67.298  1.00  0.00    -0.150 A  
HETATM    8  C   UNL     1      -8.063  11.037  66.854  1.00  0.00    -0.142 A  
BRANCH   6   9
HETATM    9  C   UNL     1     -10.335  10.001  66.549  1.00  0.00    -0.268 C  
BRANCH   9  10
HETATM   10  C   UNL     1     -10.426   8.894  67.626  1.00  0.00    -0.255 C  
HETATM   11  C   UNL     1      -9.205   7.967  67.563  1.00  0.00    -0.153 C  
BRANCH  10  12
HETATM   12  N   UNL     1     -10.485   9.443  68.995  1.00  0.00    -0.213 NA 
HETATM   13  H   UNL     1      -9.622   9.935  69.225  1.00  0.00     0.000 HD 
BRANCH  12  14
HETATM   14  C   UNL     1     -11.656  10.305  69.231  1.00  0.00    -0.119 C  
BRANCH  14  15
HETATM   15  C   UNL     1     -11.982  10.518  70.728  1.00  0.00    -0.370 C  
HETATM   16  H   UNL     1     -13.084   9.628  72.096  1.00  0.00     0.000 HD 
HETATM   17  O   UNL     1     -12.883   9.497  71.176  1.00  0.00    -0.321 OA 
BRANCH  15  18
HETATM   18  C   UNL     1     -12.493  11.902  71.068  1.00  0.00    -0.390 A  
HETATM   19  C   UNL     1     -12.054  13.004  70.311  1.00  0.00    -0.388 A  
HETATM   20  C   UNL     1     -12.483  14.303  70.608  1.00  0.00    -0.358 A  
HETATM   21  H   UNL     1     -14.420  15.846  72.775  1.00  0.00     0.000 HD 
HETATM   22  C   UNL     1     -13.380  14.485  71.668  1.00  0.00    -0.363 A  
HETATM   23  C   UNL     1     -13.406  12.115  72.110  1.00  0.00    -0.438 A  
HETATM   24  C   UNL     1     -13.848  13.402  72.408  1.00  0.00    -0.665 A  
HETATM   25  O   UNL     1     -13.811  15.722  72.056  1.00  0.00    -0.448 OA 
BRANCH  20  26
HETATM   26  N   UNL     1     -12.056  15.420  69.866  1.00  0.00    -0.364 N  
HETATM   27  H   UNL     1     -12.700  15.766  69.156  1.00  0.00     0.000 HD 
HETATM   28  O   UNL     1     -10.593  17.053  69.286  1.00  0.00    -0.331 OA 
HETATM   29  C   UNL     1     -10.873  16.094  69.992  1.00  0.00    -0.349 C  
ENDBRANCH  20  26
ENDBRANCH  15  18
ENDBRANCH  14  15
ENDBRANCH  12  14
ENDBRANCH  10  12
ENDBRANCH   9  10
ENDBRANCH   6   9
ENDBRANCH   2   3
TORSDOF 8
ENDMDL
MODEL      229
REMARK 921   NORMALIZED FREE ENERGY PREDICTED BY IDOCK:   -4.14 KCAL/MOL
REMARK 922        TOTAL FREE ENERGY PREDICTED BY IDOCK:   -7.74 KCAL/MOL
REMARK 923 INTER-LIGAND FREE ENERGY PREDICTED BY IDOCK:   -6.86 KCAL/MOL
REMARK 924 INTRA-LIGAND FREE ENERGY PREDICTED BY IDOCK:   -0.87 KCAL/MOL
REMARK 927      BINDING AFFINITY PREDICTED BY RF-SCORE:    0.00 PKD
ROOT
HETATM    1  C   UNL     1     -13.552  13.973  72.561  1.00  0.00    -0.566 C  
HETATM    2  O   UNL     1     -12.757  12.942  71.991  1.00  0.00    -0.172 OA 
ENDROOT
BRANCH   2   3
HETATM    3  C   UNL     1     -12.416  13.089  70.675  1.00  0.00    -0.268 A  
HETATM    4  C   UNL     1     -12.421  14.282  69.953  1.00  0.00    -0.315 A  
HETATM    5  C   UNL     1     -12.108  14.283  68.590  1.00  0.00    -0.295 A  
HETATM    6  C   UNL     1     -11.771  13.091  67.935  1.00  0.00    -0.402 A  
HETATM    7  C   UNL     1     -12.049  11.906  70.032  1.00  0.00    -0.366 A  
HETATM    8  C   UNL     1     -11.730  11.904  68.674  1.00  0.00    -0.380 A  
BRANCH   6   9
HETATM    9  C   UNL     1     -11.593  13.044  66.435  1.00  0.00    -0.413 C  
BRANCH   9  10
HETATM   10  C   UNL     1     -10.196  13.419  65.889  1.00  0.00    -0.299 C  
HETATM   11  C   UNL     1      -9.265  13.863  67.025  1.00  0.00    -0.257 C  
BRANCH  10  12
HETATM   12  N   UNL     1      -9.536  12.290  65.203  1.00  0.00    -0.454 NA 
HETATM   13  H   UNL     1      -8.920  12.626  64.464  1.00  0.00     0.000 HD 
BRANCH  12  14
HETATM   14  C   UNL     1      -8.813  11.391  66.118  1.00  0.00    -0.184 C  
BRANCH  14  15
HETATM   15  C   UNL     1      -8.749   9.924  65.630  1.00  0.00    -0.151 C  
HETATM   16  H   UNL     1      -9.253   8.931  64.007  1.00  0.00     0.000 HD 
HETATM   17  O   UNL     1      -9.292   9.831  64.307  1.00  0.00    -0.261 OA 
BRANCH  15  18
HETATM   18  C   UNL     1      -9.391   8.922  66.568  1.00  0.00    -0.252 A  
HETATM   19  C   UNL     1      -9.440   7.566  66.197  1.00  0.00    -0.095 A  
HETATM   20  C   UNL     1     -10.045   6.612  67.023  1.00  0.00    -0.187 A  
HETATM   21  H   UNL     1     -11.607   6.461  69.916  1.00  0.00     0.000 HD 
HETATM   22  C   UNL     1     -10.587   7.032  68.244  1.00  0.00    -0.196 A  
HETATM   23  C   UNL     1      -9.924   9.308  67.805  1.00  0.00    -0.235 A  
HETATM   24  C   UNL     1     -10.521   8.365  68.640  1.00  0.00    -0.197 A  
HETATM   25  O   UNL     1     -11.239   6.176  69.087  1.00  0.00    -0.386 OA 
BRANCH  20  26
HETATM   26  N   UNL     1     -10.109   5.250  66.672  1.00  0.00    -0.202 N  
HETATM   27  H   UNL     1     -10.723   4.665  67.238  1.00  0.00     0.000 HD 
HETATM   28  O   UNL     1      -9.556   3.426  65.444  1.00  0.00    -0.158 OA 
HETATM   29  C   UNL     1      -9.439   4.624  65.659  1.00  0.00    -0.174 C  
ENDBRANCH  20  26
ENDBRANCH  15  18
ENDBRANCH  14  15
ENDBRANCH  12  14
ENDBRANCH  10  12
ENDBRANCH   9  10
ENDBRANCH   6   9
ENDBRANCH   2   3
TORSDOF 8
ENDMDL
MODEL      230
REMARK 921   NORMALIZED FREE ENERGY PREDICTED BY IDOCK:   -4.13 KCAL/MOL
REMARK 922        TOTAL FREE ENERGY PREDICTED BY IDOCK:   -7.72 KCAL/MOL
REMARK 923 INTER-LIGAND FREE ENERGY PREDICTED BY IDOCK:   -6.61 KCAL/MOL
REMARK 924 INTRA-LIGAND FREE ENERGY PREDICTED BY IDOCK:   -1.11 KCAL/MOL
REMARK 927      BINDING AFFINITY PREDICTED BY RF-SCORE:    0.00 PKD
ROOT
HETATM    1  C   UNL     1     -13.930   7.285  71.752  1.00  0.00    -0.321 C  
HETATM    2  O   UNL     1     -13.060   8.268  72.297  1.00  0.00    -0.303 OA 
ENDROOT
BRANCH   2   3
HETATM    3  C   UNL     1     -12.564   9.197  71.425  1.00  0.00    -0.323 A  
HETATM    4  C   UNL     1     -11.649   8.957  70.401  1.00  0.00    -0.123 A  
HETATM    5  C   UNL     1     -11.175  10.013  69.616  1.00  0.00    -0.285 A  
HETATM    6  C   UNL     1     -11.622  11.322  69.837  1.00  0.00    -0.413 A  
HETATM    7  C   UNL     1     -13.036  10.495  71.625  1.00  0.00    -0.581 A  
HETATM    8  C   UNL     1     -12.569  11.550  70.841  1.00  0.00    -0.438 A  
BRANCH   6   9
HETATM    9  C   UNL     1     -11.001  12.495  69.116  1.00  0.00    -0.198 C  
BRANCH   9  10
HETATM   10  C   UNL     1     -11.459  12.737  67.659  1.00  0.00    -0.334 C  
HETATM   11  C   UNL     1     -11.978  14.170  67.479  1.00  0.00    -0.419 C  
BRANCH  10  12
HETATM   12  N   UNL     1     -10.367  12.545  66.685  1.00  0.00    -0.226 NA 
HETATM   13  H   UNL     1     -10.209  13.396  66.146  1.00  0.00     0.000 HD 
BRANCH  12  14
HETATM   14  C   UNL     1      -9.112  12.075  67.297  1.00  0.00    -0.178 C  
BRANCH  14  15
HETATM   15  C   UNL     1      -7.906  13.010  67.042  1.00  0.00     0.028 C  
HETATM   16  H   UNL     1      -5.980  13.010  67.450  1.00  0.00     0.000 HD 
HETATM   17  O   UNL     1      -6.721  12.435  67.606  1.00  0.00    -0.101 OA 
BRANCH  15  18
HETATM   18  C   UNL     1      -8.110  14.437  67.508  1.00  0.00    -0.204 A  
HETATM   19  C   UNL     1      -7.918  15.493  66.597  1.00  0.00    -0.134 A  
HETATM   20  C   UNL     1      -8.072  16.827  66.993  1.00  0.00    -0.194 A  
HETATM   21  H   UNL     1      -8.818  18.546  69.698  1.00  0.00     0.000 HD 
HETATM   22  C   UNL     1      -8.442  17.092  68.317  1.00  0.00    -0.236 A  
HETATM   23  C   UNL     1      -8.500  14.736  68.820  1.00  0.00    -0.170 A  
HETATM   24  C   UNL     1      -8.665  16.059  69.223  1.00  0.00    -0.224 A  
HETATM   25  O   UNL     1      -8.566  18.366  68.799  1.00  0.00    -0.302 OA 
BRANCH  20  26
HETATM   26  N   UNL     1      -7.883  17.899  66.101  1.00  0.00    -0.250 N  
HETATM   27  H   UNL     1      -8.727  18.330  65.725  1.00  0.00     0.000 HD 
HETATM   28  O   UNL     1      -6.640  19.359  64.891  1.00  0.00    -0.412 OA 
HETATM   29  C   UNL     1      -6.694  18.428  65.682  1.00  0.00    -0.269 C  
ENDBRANCH  20  26
ENDBRANCH  15  18
ENDBRANCH  14  15
ENDBRANCH  12  14
ENDBRANCH  10  12
ENDBRANCH   9  10
ENDBRANCH   6   9
ENDBRANCH   2   3
TORSDOF 8
ENDMDL
MODEL      231
REMARK 921   NORMALIZED FREE ENERGY PREDICTED BY IDOCK:   -4.12 KCAL/MOL
REMARK 922        TOTAL FREE ENERGY PREDICTED BY IDOCK:   -7.71 KCAL/MOL
REMARK 923 INTER-LIGAND FREE ENERGY PREDICTED BY IDOCK:   -6.78 KCAL/MOL
REMARK 924 INTRA-LIGAND FREE ENERGY PREDICTED BY IDOCK:   -0.94 KCAL/MOL
REMARK 927      BINDING AFFINITY PREDICTED BY RF-SCORE:    0.00 PKD
ROOT
HETATM    1  C   UNL     1      -9.840  16.645  65.831  1.00  0.00    -0.273 C  
HETATM    2  O   UNL     1      -8.452  16.554  66.121  1.00  0.00    -0.311 OA 
ENDROOT
BRANCH   2   3
HETATM    3  C   UNL     1      -8.064  15.532  66.943  1.00  0.00    -0.249 A  
HETATM    4  C   UNL     1      -6.929  15.516  67.753  1.00  0.00    -0.185 A  
HETATM    5  C   UNL     1      -6.613  14.379  68.503  1.00  0.00    -0.094 A  
HETATM    6  C   UNL     1      -7.439  13.247  68.463  1.00  0.00    -0.115 A  
HETATM    7  C   UNL     1      -8.904  14.419  66.928  1.00  0.00    -0.246 A  
HETATM    8  C   UNL     1      -8.596  13.284  67.678  1.00  0.00    -0.196 A  
BRANCH   6   9
HETATM    9  C   UNL     1      -7.030  11.954  69.130  1.00  0.00    -0.079 C  
BRANCH   9  10
HETATM   10  C   UNL     1      -7.947  10.731  68.895  1.00  0.00    -0.143 C  
HETATM   11  C   UNL     1      -7.148   9.548  68.333  1.00  0.00    -0.071 C  
BRANCH  10  12
HETATM   12  N   UNL     1      -8.597  10.266  70.136  1.00  0.00    -0.317 NA 
HETATM   13  H   UNL     1      -9.238  10.973  70.495  1.00  0.00     0.000 HD 
BRANCH  12  14
HETATM   14  C   UNL     1      -9.279   8.969  69.990  1.00  0.00    -0.180 C  
BRANCH  14  15
HETATM   15  C   UNL     1     -10.751   9.088  69.529  1.00  0.00    -0.206 C  
HETATM   16  H   UNL     1     -11.702   9.391  67.832  1.00  0.00     0.000 HD 
HETATM   17  O   UNL     1     -10.798   9.317  68.115  1.00  0.00    -0.188 OA 
BRANCH  15  18
HETATM   18  C   UNL     1     -11.565  10.116  70.288  1.00  0.00    -0.379 A  
HETATM   19  C   UNL     1     -11.521  11.463  69.884  1.00  0.00    -0.353 A  
HETATM   20  C   UNL     1     -12.238  12.449  70.572  1.00  0.00    -0.295 A  
HETATM   21  H   UNL     1     -14.248  12.704  73.165  1.00  0.00     0.000 HD 
HETATM   22  C   UNL     1     -13.023  12.063  71.666  1.00  0.00    -0.334 A  
HETATM   23  C   UNL     1     -12.375   9.759  71.374  1.00  0.00    -0.480 A  
HETATM   24  C   UNL     1     -13.102  10.730  72.061  1.00  0.00    -0.476 A  
HETATM   25  O   UNL     1     -13.715  12.966  72.423  1.00  0.00    -0.565 OA 
BRANCH  20  26
HETATM   26  N   UNL     1     -12.208  13.803  70.189  1.00  0.00    -0.350 N  
HETATM   27  H   UNL     1     -12.504  14.479  70.892  1.00  0.00     0.000 HD 
HETATM   28  O   UNL     1     -11.848  15.512  68.743  1.00  0.00    -0.356 OA 
HETATM   29  C   UNL     1     -11.826  14.312  68.979  1.00  0.00    -0.335 C  
ENDBRANCH  20  26
ENDBRANCH  15  18
ENDBRANCH  14  15
ENDBRANCH  12  14
ENDBRANCH  10  12
ENDBRANCH   9  10
ENDBRANCH   6   9
ENDBRANCH   2   3
TORSDOF 8
ENDMDL
MODEL      232
REMARK 921   NORMALIZED FREE ENERGY PREDICTED BY IDOCK:   -4.12 KCAL/MOL
REMARK 922        TOTAL FREE ENERGY PREDICTED BY IDOCK:   -7.70 KCAL/MOL
REMARK 923 INTER-LIGAND FREE ENERGY PREDICTED BY IDOCK:   -6.74 KCAL/MOL
REMARK 924 INTRA-LIGAND FREE ENERGY PREDICTED BY IDOCK:   -0.96 KCAL/MOL
REMARK 927      BINDING AFFINITY PREDICTED BY RF-SCORE:    0.00 PKD
ROOT
HETATM    1  C   UNL     1     -10.473  19.873  67.161  1.00  0.00    -0.433 C  
HETATM    2  O   UNL     1     -10.653  18.702  66.375  1.00  0.00    -0.405 OA 
ENDROOT
BRANCH   2   3
HETATM    3  C   UNL     1      -9.926  17.603  66.737  1.00  0.00    -0.320 A  
HETATM    4  C   UNL     1      -9.731  16.457  65.966  1.00  0.00    -0.356 A  
HETATM    5  C   UNL     1      -9.012  15.374  66.482  1.00  0.00    -0.344 A  
HETATM    6  C   UNL     1      -8.467  15.429  67.772  1.00  0.00    -0.157 A  
HETATM    7  C   UNL     1      -9.356  17.673  68.008  1.00  0.00    -0.274 A  
HETATM    8  C   UNL     1      -8.633  16.596  68.525  1.00  0.00    -0.234 A  
BRANCH   6   9
HETATM    9  C   UNL     1      -7.834  14.214  68.409  1.00  0.00    -0.143 C  
BRANCH   9  10
HETATM   10  C   UNL     1      -7.831  12.914  67.572  1.00  0.00    -0.177 C  
HETATM   11  C   UNL     1      -6.397  12.438  67.304  1.00  0.00    -0.142 C  
BRANCH  10  12
HETATM   12  N   UNL     1      -8.536  11.806  68.248  1.00  0.00    -0.159 NA 
HETATM   13  H   UNL     1      -9.282  12.164  68.844  1.00  0.00     0.000 HD 
BRANCH  12  14
HETATM   14  C   UNL     1      -9.054  10.788  67.318  1.00  0.00    -0.144 C  
BRANCH  14  15
HETATM   15  C   UNL     1     -10.598  10.709  67.277  1.00  0.00    -0.263 C  
HETATM   16  H   UNL     1     -12.051  11.561  66.257  1.00  0.00     0.000 HD 
HETATM   17  O   UNL     1     -11.102  11.609  66.282  1.00  0.00    -0.299 OA 
BRANCH  15  18
HETATM   18  C   UNL     1     -11.273  10.924  68.616  1.00  0.00    -0.326 A  
HETATM   19  C   UNL     1     -11.906  12.153  68.879  1.00  0.00    -0.358 A  
HETATM   20  C   UNL     1     -12.520  12.402  70.112  1.00  0.00    -0.020 A  
HETATM   21  H   UNL     1     -13.038  10.876  72.982  1.00  0.00     0.000 HD 
HETATM   22  C   UNL     1     -12.511  11.388  71.080  1.00  0.00    -0.383 A  
HETATM   23  C   UNL     1     -11.299   9.923  69.597  1.00  0.00    -0.212 A  
HETATM   24  C   UNL     1     -11.916  10.155  70.825  1.00  0.00    -0.442 A  
HETATM   25  O   UNL     1     -13.043  11.564  72.326  1.00  0.00    -0.373 OA 
BRANCH  20  26
HETATM   26  N   UNL     1     -13.156  13.623  70.400  1.00  0.00     0.016 N  
HETATM   27  H   UNL     1     -14.145  13.573  70.643  1.00  0.00     0.000 HD 
HETATM   28  O   UNL     1     -13.244  15.876  70.645  1.00  0.00    -0.447 OA 
HETATM   29  C   UNL     1     -12.596  14.870  70.389  1.00  0.00    -0.343 C  
ENDBRANCH  20  26
ENDBRANCH  15  18
ENDBRANCH  14  15
ENDBRANCH  12  14
ENDBRANCH  10  12
ENDBRANCH   9  10
ENDBRANCH   6   9
ENDBRANCH   2   3
TORSDOF 8
ENDMDL
MODEL      233
REMARK 921   NORMALIZED FREE ENERGY PREDICTED BY IDOCK:   -4.11 KCAL/MOL
REMARK 922        TOTAL FREE ENERGY PREDICTED BY IDOCK:   -7.69 KCAL/MOL
REMARK 923 INTER-LIGAND FREE ENERGY PREDICTED BY IDOCK:   -6.63 KCAL/MOL
REMARK 924 INTRA-LIGAND FREE ENERGY PREDICTED BY IDOCK:   -1.07 KCAL/MOL
REMARK 927      BINDING AFFINITY PREDICTED BY RF-SCORE:    0.00 PKD
ROOT
HETATM    1  C   UNL     1     -11.977  15.931  70.472  1.00  0.00    -0.333 C  
HETATM    2  O   UNL     1     -12.296  14.565  70.245  1.00  0.00    -0.316 OA 
ENDROOT
BRANCH   2   3
HETATM    3  C   UNL     1     -11.918  14.039  69.041  1.00  0.00    -0.357 A  
HETATM    4  C   UNL     1     -11.514  14.763  67.920  1.00  0.00    -0.361 A  
HETATM    5  C   UNL     1     -11.210  14.103  66.725  1.00  0.00    -0.330 A  
HETATM    6  C   UNL     1     -11.294  12.706  66.641  1.00  0.00    -0.379 A  
HETATM    7  C   UNL     1     -11.969  12.647  68.969  1.00  0.00    -0.282 A  
HETATM    8  C   UNL     1     -11.663  11.984  67.781  1.00  0.00    -0.379 A  
BRANCH   6   9
HETATM    9  C   UNL     1     -11.134  11.989  65.321  1.00  0.00    -0.367 C  
BRANCH   9  10
HETATM   10  C   UNL     1      -9.884  11.090  65.166  1.00  0.00    -0.268 C  
HETATM   11  C   UNL     1      -8.831  11.428  66.230  1.00  0.00    -0.196 C  
BRANCH  10  12
HETATM   12  N   UNL     1     -10.200   9.655  65.308  1.00  0.00    -0.231 NA 
HETATM   13  H   UNL     1     -10.596   9.285  64.444  1.00  0.00     0.000 HD 
BRANCH  12  14
HETATM   14  C   UNL     1      -9.053   8.843  65.747  1.00  0.00    -0.221 C  
BRANCH  14  15
HETATM   15  C   UNL     1      -9.412   7.781  66.812  1.00  0.00    -0.197 C  
HETATM   16  H   UNL     1     -11.035   6.835  67.403  1.00  0.00     0.000 HD 
HETATM   17  O   UNL     1     -10.814   7.488  66.749  1.00  0.00    -0.292 OA 
BRANCH  15  18
HETATM   18  C   UNL     1      -8.979   8.132  68.221  1.00  0.00    -0.136 A  
HETATM   19  C   UNL     1      -9.955   8.282  69.224  1.00  0.00    -0.192 A  
HETATM   20  C   UNL     1      -9.600   8.631  70.532  1.00  0.00    -0.181 A  
HETATM   21  H   UNL     1      -6.892   9.317  72.273  1.00  0.00     0.000 HD 
HETATM   22  C   UNL     1      -8.243   8.809  70.831  1.00  0.00    -0.161 A  
HETATM   23  C   UNL     1      -7.629   8.298  68.557  1.00  0.00    -0.100 A  
HETATM   24  C   UNL     1      -7.262   8.635  69.858  1.00  0.00    -0.051 A  
HETATM   25  O   UNL     1      -7.813   9.197  72.069  1.00  0.00    -0.325 OA 
BRANCH  20  26
HETATM   26  N   UNL     1     -10.557   8.788  71.551  1.00  0.00    -0.281 N  
HETATM   27  H   UNL     1     -10.226   8.665  72.507  1.00  0.00     0.000 HD 
HETATM   28  O   UNL     1     -12.636   9.194  72.360  1.00  0.00    -0.368 OA 
HETATM   29  C   UNL     1     -11.882   9.089  71.403  1.00  0.00    -0.325 C  
ENDBRANCH  20  26
ENDBRANCH  15  18
ENDBRANCH  14  15
ENDBRANCH  12  14
ENDBRANCH  10  12
ENDBRANCH   9  10
ENDBRANCH   6   9
ENDBRANCH   2   3
TORSDOF 8
ENDMDL
MODEL      234
REMARK 921   NORMALIZED FREE ENERGY PREDICTED BY IDOCK:   -4.07 KCAL/MOL
REMARK 922        TOTAL FREE ENERGY PREDICTED BY IDOCK:   -7.63 KCAL/MOL
REMARK 923 INTER-LIGAND FREE ENERGY PREDICTED BY IDOCK:   -6.74 KCAL/MOL
REMARK 924 INTRA-LIGAND FREE ENERGY PREDICTED BY IDOCK:   -0.89 KCAL/MOL
REMARK 927      BINDING AFFINITY PREDICTED BY RF-SCORE:    0.00 PKD
ROOT
HETATM    1  C   UNL     1      -5.743  12.048  67.098  1.00  0.00    -0.142 C  
HETATM    2  O   UNL     1      -5.925  13.458  67.116  1.00  0.00    -0.285 OA 
ENDROOT
BRANCH   2   3
HETATM    3  C   UNL     1      -7.071  13.920  67.702  1.00  0.00    -0.177 A  
HETATM    4  C   UNL     1      -8.371  13.706  67.246  1.00  0.00    -0.182 A  
HETATM    5  C   UNL     1      -9.456  14.289  67.908  1.00  0.00    -0.212 A  
HETATM    6  C   UNL     1      -9.255  15.083  69.045  1.00  0.00    -0.205 A  
HETATM    7  C   UNL     1      -6.871  14.683  68.853  1.00  0.00    -0.104 A  
HETATM    8  C   UNL     1      -7.951  15.262  69.519  1.00  0.00    -0.199 A  
BRANCH   6   9
HETATM    9  C   UNL     1     -10.391  15.855  69.673  1.00  0.00    -0.299 C  
BRANCH   9  10
HETATM   10  C   UNL     1     -11.284  15.085  70.673  1.00  0.00    -0.242 C  
HETATM   11  C   UNL     1     -12.045  16.054  71.588  1.00  0.00    -0.537 C  
BRANCH  10  12
HETATM   12  N   UNL     1     -12.292  14.244  69.997  1.00  0.00    -0.346 NA 
HETATM   13  H   UNL     1     -12.149  14.250  68.988  1.00  0.00     0.000 HD 
BRANCH  12  14
HETATM   14  C   UNL     1     -12.343  12.864  70.510  1.00  0.00    -0.283 C  
BRANCH  14  15
HETATM   15  C   UNL     1     -11.566  11.848  69.640  1.00  0.00    -0.317 C  
HETATM   16  H   UNL     1     -11.625  11.215  67.776  1.00  0.00     0.000 HD 
HETATM   17  O   UNL     1     -12.102  11.840  68.311  1.00  0.00    -0.525 OA 
BRANCH  15  18
HETATM   18  C   UNL     1     -11.495  10.451  70.221  1.00  0.00    -0.406 A  
HETATM   19  C   UNL     1     -10.566   9.533  69.696  1.00  0.00    -0.245 A  
HETATM   20  C   UNL     1     -10.484   8.225  70.187  1.00  0.00    -0.225 A  
HETATM   21  H   UNL     1     -11.935   6.325  72.448  1.00  0.00     0.000 HD 
HETATM   22  C   UNL     1     -11.337   7.850  71.233  1.00  0.00    -0.260 A  
HETATM   23  C   UNL     1     -12.320  10.050  71.281  1.00  0.00    -0.496 A  
HETATM   24  C   UNL     1     -12.241   8.753  71.784  1.00  0.00    -0.415 A  
HETATM   25  O   UNL     1     -11.357   6.580  71.738  1.00  0.00    -0.254 OA 
BRANCH  20  26
HETATM   26  N   UNL     1      -9.565   7.290  69.676  1.00  0.00    -0.156 N  
HETATM   27  H   UNL     1      -9.671   6.328  69.999  1.00  0.00     0.000 HD 
HETATM   28  O   UNL     1      -7.794   6.638  68.420  1.00  0.00    -0.103 OA 
HETATM   29  C   UNL     1      -8.548   7.525  68.795  1.00  0.00    -0.129 C  
ENDBRANCH  20  26
ENDBRANCH  15  18
ENDBRANCH  14  15
ENDBRANCH  12  14
ENDBRANCH  10  12
ENDBRANCH   9  10
ENDBRANCH   6   9
ENDBRANCH   2   3
TORSDOF 8
ENDMDL
MODEL      235
REMARK 921   NORMALIZED FREE ENERGY PREDICTED BY IDOCK:   -4.06 KCAL/MOL
REMARK 922        TOTAL FREE ENERGY PREDICTED BY IDOCK:   -7.62 KCAL/MOL
REMARK 923 INTER-LIGAND FREE ENERGY PREDICTED BY IDOCK:   -6.96 KCAL/MOL
REMARK 924 INTRA-LIGAND FREE ENERGY PREDICTED BY IDOCK:   -0.66 KCAL/MOL
REMARK 927      BINDING AFFINITY PREDICTED BY RF-SCORE:    0.00 PKD
ROOT
HETATM    1  C   UNL     1     -10.297   4.638  73.091  1.00  0.00    -0.180 C  
HETATM    2  O   UNL     1     -10.317   4.068  71.789  1.00  0.00    -0.115 OA 
ENDROOT
BRANCH   2   3
HETATM    3  C   UNL     1     -10.410   4.940  70.740  1.00  0.00    -0.158 A  
HETATM    4  C   UNL     1     -11.068   6.169  70.750  1.00  0.00    -0.375 A  
HETATM    5  C   UNL     1     -11.140   6.940  69.585  1.00  0.00    -0.302 A  
HETATM    6  C   UNL     1     -10.542   6.496  68.398  1.00  0.00    -0.296 A  
HETATM    7  C   UNL     1      -9.786   4.512  69.568  1.00  0.00    -0.282 A  
HETATM    8  C   UNL     1      -9.851   5.280  68.406  1.00  0.00    -0.208 A  
BRANCH   6   9
HETATM    9  C   UNL     1     -10.750   7.229  67.094  1.00  0.00    -0.413 C  
BRANCH   9  10
HETATM   10  C   UNL     1      -9.750   8.362  66.767  1.00  0.00    -0.242 C  
HETATM   11  C   UNL     1      -8.697   7.889  65.757  1.00  0.00    -0.163 C  
BRANCH  10  12
HETATM   12  N   UNL     1     -10.411   9.547  66.183  1.00  0.00    -0.187 NA 
HETATM   13  H   UNL     1     -10.580  10.255  66.897  1.00  0.00     0.000 HD 
BRANCH  12  14
HETATM   14  C   UNL     1      -9.680  10.121  65.041  1.00  0.00    -0.318 C  
BRANCH  14  15
HETATM   15  C   UNL     1     -10.418  11.296  64.356  1.00  0.00    -0.345 C  
HETATM   16  H   UNL     1     -10.124  12.459  62.795  1.00  0.00     0.000 HD 
HETATM   17  O   UNL     1      -9.671  11.738  63.216  1.00  0.00    -0.377 OA 
BRANCH  15  18
HETATM   18  C   UNL     1     -10.758  12.447  65.280  1.00  0.00    -0.322 A  
HETATM   19  C   UNL     1      -9.722  13.112  65.962  1.00  0.00    -0.234 A  
HETATM   20  C   UNL     1      -9.994  14.164  66.843  1.00  0.00    -0.261 A  
HETATM   21  H   UNL     1     -12.589  15.814  68.016  1.00  0.00     0.000 HD 
HETATM   22  C   UNL     1     -11.326  14.561  67.019  1.00  0.00    -0.349 A  
HETATM   23  C   UNL     1     -12.078  12.881  65.462  1.00  0.00    -0.507 A  
HETATM   24  C   UNL     1     -12.361  13.934  66.330  1.00  0.00    -0.489 A  
HETATM   25  O   UNL     1     -11.685  15.545  67.897  1.00  0.00    -0.293 OA 
BRANCH  20  26
HETATM   26  N   UNL     1      -8.976  14.842  67.539  1.00  0.00    -0.179 N  
HETATM   27  H   UNL     1      -8.837  14.575  68.513  1.00  0.00     0.000 HD 
HETATM   28  O   UNL     1      -7.300  16.355  67.749  1.00  0.00    -0.128 OA 
HETATM   29  C   UNL     1      -8.151  15.818  67.054  1.00  0.00    -0.236 C  
ENDBRANCH  20  26
ENDBRANCH  15  18
ENDBRANCH  14  15
ENDBRANCH  12  14
ENDBRANCH  10  12
ENDBRANCH   9  10
ENDBRANCH   6   9
ENDBRANCH   2   3
TORSDOF 8
ENDMDL
MODEL      236
REMARK 921   NORMALIZED FREE ENERGY PREDICTED BY IDOCK:   -4.05 KCAL/MOL
REMARK 922        TOTAL FREE ENERGY PREDICTED BY IDOCK:   -7.60 KCAL/MOL
REMARK 923 INTER-LIGAND FREE ENERGY PREDICTED BY IDOCK:   -6.39 KCAL/MOL
REMARK 924 INTRA-LIGAND FREE ENERGY PREDICTED BY IDOCK:   -1.21 KCAL/MOL
REMARK 927      BINDING AFFINITY PREDICTED BY RF-SCORE:    0.00 PKD
ROOT
HETATM    1  C   UNL     1     -10.845   5.303  66.381  1.00  0.00    -0.127 C  
HETATM    2  O   UNL     1     -11.273   6.520  66.978  1.00  0.00    -0.397 OA 
ENDROOT
BRANCH   2   3
HETATM    3  C   UNL     1     -10.294   7.407  67.330  1.00  0.00    -0.270 A  
HETATM    4  C   UNL     1      -9.514   8.160  66.453  1.00  0.00    -0.285 A  
HETATM    5  C   UNL     1      -8.500   8.988  66.944  1.00  0.00    -0.120 A  
HETATM    6  C   UNL     1      -8.262   9.085  68.322  1.00  0.00    -0.116 A  
HETATM    7  C   UNL     1     -10.080   7.527  68.704  1.00  0.00    -0.194 A  
HETATM    8  C   UNL     1      -9.073   8.356  69.198  1.00  0.00    -0.147 A  
BRANCH   6   9
HETATM    9  C   UNL     1      -7.070   9.840  68.861  1.00  0.00    -0.067 C  
BRANCH   9  10
HETATM   10  C   UNL     1      -7.115  11.382  68.747  1.00  0.00    -0.102 C  
HETATM   11  C   UNL     1      -6.714  11.839  67.339  1.00  0.00    -0.120 C  
BRANCH  10  12
HETATM   12  N   UNL     1      -8.461  11.928  69.014  1.00  0.00    -0.358 NA 
HETATM   13  H   UNL     1      -8.442  12.557  69.817  1.00  0.00     0.000 HD 
BRANCH  12  14
HETATM   14  C   UNL     1      -9.067  12.589  67.846  1.00  0.00    -0.199 C  
BRANCH  14  15
HETATM   15  C   UNL     1     -10.577  12.298  67.680  1.00  0.00    -0.215 C  
HETATM   16  H   UNL     1     -12.055  12.980  66.572  1.00  0.00     0.000 HD 
HETATM   17  O   UNL     1     -11.128  13.158  66.674  1.00  0.00    -0.282 OA 
BRANCH  15  18
HETATM   18  C   UNL     1     -11.374  12.363  68.967  1.00  0.00    -0.336 A  
HETATM   19  C   UNL     1     -11.695  11.170  69.639  1.00  0.00    -0.410 A  
HETATM   20  C   UNL     1     -12.451  11.184  70.817  1.00  0.00    -0.384 A  
HETATM   21  H   UNL     1     -13.930  13.360  72.794  1.00  0.00     0.000 HD 
HETATM   22  C   UNL     1     -12.867  12.420  71.330  1.00  0.00    -0.240 A  
HETATM   23  C   UNL     1     -11.788  13.585  69.516  1.00  0.00    -0.392 A  
HETATM   24  C   UNL     1     -12.532  13.612  70.693  1.00  0.00    -0.417 A  
HETATM   25  O   UNL     1     -13.648  12.521  72.447  1.00  0.00    -0.521 OA 
BRANCH  20  26
HETATM   26  N   UNL     1     -12.787  10.004  71.506  1.00  0.00    -0.396 N  
HETATM   27  H   UNL     1     -12.446   9.925  72.464  1.00  0.00     0.000 HD 
HETATM   28  O   UNL     1     -13.746   7.960  71.715  1.00  0.00    -0.350 OA 
HETATM   29  C   UNL     1     -13.519   8.950  71.035  1.00  0.00     0.059 C  
ENDBRANCH  20  26
ENDBRANCH  15  18
ENDBRANCH  14  15
ENDBRANCH  12  14
ENDBRANCH  10  12
ENDBRANCH   9  10
ENDBRANCH   6   9
ENDBRANCH   2   3
TORSDOF 8
ENDMDL
MODEL      237
REMARK 921   NORMALIZED FREE ENERGY PREDICTED BY IDOCK:   -4.04 KCAL/MOL
REMARK 922        TOTAL FREE ENERGY PREDICTED BY IDOCK:   -7.59 KCAL/MOL
REMARK 923 INTER-LIGAND FREE ENERGY PREDICTED BY IDOCK:   -6.57 KCAL/MOL
REMARK 924 INTRA-LIGAND FREE ENERGY PREDICTED BY IDOCK:   -1.02 KCAL/MOL
REMARK 927      BINDING AFFINITY PREDICTED BY RF-SCORE:    0.00 PKD
ROOT
HETATM    1  C   UNL     1     -13.214   9.203  72.035  1.00  0.00    -0.441 C  
HETATM    2  O   UNL     1     -12.683  10.521  72.020  1.00  0.00    -0.384 OA 
ENDROOT
BRANCH   2   3
HETATM    3  C   UNL     1     -12.337  11.028  70.797  1.00  0.00    -0.398 A  
HETATM    4  C   UNL     1     -11.960  10.286  69.678  1.00  0.00    -0.130 A  
HETATM    5  C   UNL     1     -11.569  10.934  68.502  1.00  0.00    -0.360 A  
HETATM    6  C   UNL     1     -11.564  12.333  68.426  1.00  0.00    -0.377 A  
HETATM    7  C   UNL     1     -12.364  12.420  70.713  1.00  0.00    -0.377 A  
HETATM    8  C   UNL     1     -11.980  13.070  69.540  1.00  0.00    -0.350 A  
BRANCH   6   9
HETATM    9  C   UNL     1     -10.989  13.051  67.228  1.00  0.00    -0.288 C  
BRANCH   9  10
HETATM   10  C   UNL     1     -11.711  12.836  65.877  1.00  0.00    -0.414 C  
HETATM   11  C   UNL     1     -12.460  14.104  65.448  1.00  0.00    -0.488 C  
BRANCH  10  12
HETATM   12  N   UNL     1     -10.776  12.494  64.786  1.00  0.00    -0.288 NA 
HETATM   13  H   UNL     1      -9.896  12.999  64.893  1.00  0.00     0.000 HD 
BRANCH  12  14
HETATM   14  C   UNL     1     -10.535  11.047  64.653  1.00  0.00    -0.329 C  
BRANCH  14  15
HETATM   15  C   UNL     1      -9.049  10.682  64.424  1.00  0.00    -0.215 C  
HETATM   16  H   UNL     1      -7.780  10.719  62.919  1.00  0.00     0.000 HD 
HETATM   17  O   UNL     1      -8.692  10.943  63.061  1.00  0.00    -0.198 OA 
BRANCH  15  18
HETATM   18  C   UNL     1      -8.679   9.272  64.837  1.00  0.00    -0.224 A  
HETATM   19  C   UNL     1      -9.058   8.805  66.109  1.00  0.00    -0.251 A  
HETATM   20  C   UNL     1      -8.714   7.518  66.539  1.00  0.00    -0.140 A  
HETATM   21  H   UNL     1      -7.096   4.877  65.428  1.00  0.00     0.000 HD 
HETATM   22  C   UNL     1      -7.999   6.690  65.664  1.00  0.00    -0.115 A  
HETATM   23  C   UNL     1      -7.981   8.412  63.977  1.00  0.00    -0.151 A  
HETATM   24  C   UNL     1      -7.642   7.125  64.391  1.00  0.00    -0.112 A  
HETATM   25  O   UNL     1      -7.581   5.439  66.021  1.00  0.00    -0.085 OA 
BRANCH  20  26
HETATM   26  N   UNL     1      -9.079   7.030  67.807  1.00  0.00    -0.127 N  
HETATM   27  H   UNL     1      -8.936   6.033  67.967  1.00  0.00     0.000 HD 
HETATM   28  O   UNL     1      -9.899   7.217  69.913  1.00  0.00    -0.173 OA 
HETATM   29  C   UNL     1      -9.604   7.742  68.849  1.00  0.00    -0.154 C  
ENDBRANCH  20  26
ENDBRANCH  15  18
ENDBRANCH  14  15
ENDBRANCH  12  14
ENDBRANCH  10  12
ENDBRANCH   9  10
ENDBRANCH   6   9
ENDBRANCH   2   3
TORSDOF 8
ENDMDL
MODEL      238
REMARK 921   NORMALIZED FREE ENERGY PREDICTED BY IDOCK:   -4.04 KCAL/MOL
REMARK 922        TOTAL FREE ENERGY PREDICTED BY IDOCK:   -7.58 KCAL/MOL
REMARK 923 INTER-LIGAND FREE ENERGY PREDICTED BY IDOCK:   -6.13 KCAL/MOL
REMARK 924 INTRA-LIGAND FREE ENERGY PREDICTED BY IDOCK:   -1.45 KCAL/MOL
REMARK 927      BINDING AFFINITY PREDICTED BY RF-SCORE:    0.00 PKD
ROOT
HETATM    1  C   UNL     1      -9.658  18.903  68.714  1.00  0.00    -0.382 C  
HETATM    2  O   UNL     1     -10.699  18.201  68.048  1.00  0.00    -0.374 OA 
ENDROOT
BRANCH   2   3
HETATM    3  C   UNL     1     -10.947  16.925  68.474  1.00  0.00    -0.290 A  
HETATM    4  C   UNL     1     -11.751  15.986  67.829  1.00  0.00     0.144 A  
HETATM    5  C   UNL     1     -11.972  14.732  68.407  1.00  0.00    -0.270 A  
HETATM    6  C   UNL     1     -11.379  14.396  69.631  1.00  0.00    -0.309 A  
HETATM    7  C   UNL     1     -10.330  16.581  69.677  1.00  0.00    -0.221 A  
HETATM    8  C   UNL     1     -10.544  15.329  70.253  1.00  0.00    -0.257 A  
BRANCH   6   9
HETATM    9  C   UNL     1     -11.737  13.116  70.351  1.00  0.00    -0.141 C  
BRANCH   9  10
HETATM   10  C   UNL     1     -11.100  11.815  69.810  1.00  0.00     0.006 C  
HETATM   11  C   UNL     1     -12.073  11.074  68.883  1.00  0.00    -0.239 C  
BRANCH  10  12
HETATM   12  N   UNL     1      -9.869  12.068  69.035  1.00  0.00    -0.410 NA 
HETATM   13  H   UNL     1      -9.232  12.670  69.556  1.00  0.00     0.000 HD 
BRANCH  12  14
HETATM   14  C   UNL     1      -9.187  10.837  68.601  1.00  0.00    -0.184 C  
BRANCH  14  15
HETATM   15  C   UNL     1      -8.828  10.821  67.097  1.00  0.00    -0.134 C  
HETATM   16  H   UNL     1      -7.199  11.025  66.009  1.00  0.00     0.000 HD 
HETATM   17  O   UNL     1      -7.420  11.034  66.933  1.00  0.00    -0.119 OA 
BRANCH  15  18
HETATM   18  C   UNL     1      -9.639  11.779  66.248  1.00  0.00    -0.242 A  
HETATM   19  C   UNL     1      -9.252  13.129  66.173  1.00  0.00    -0.000 A  
HETATM   20  C   UNL     1      -9.987  14.052  65.420  1.00  0.00    -0.263 A  
HETATM   21  H   UNL     1     -12.678  14.131  63.526  1.00  0.00     0.000 HD 
HETATM   22  C   UNL     1     -11.113  13.598  64.720  1.00  0.00    -0.370 A  
HETATM   23  C   UNL     1     -10.757  11.351  65.520  1.00  0.00    -0.313 A  
HETATM   24  C   UNL     1     -11.492  12.259  64.759  1.00  0.00    -0.382 A  
HETATM   25  O   UNL     1     -11.914  14.439  64.002  1.00  0.00    -0.385 OA 
BRANCH  20  26
HETATM   26  N   UNL     1      -9.622  15.408  65.333  1.00  0.00    -0.301 N  
HETATM   27  H   UNL     1     -10.196  15.994  64.726  1.00  0.00     0.000 HD 
HETATM   28  O   UNL     1      -8.344  17.218  65.816  1.00  0.00    -0.535 OA 
HETATM   29  C   UNL     1      -8.584  16.029  65.970  1.00  0.00    -0.157 C  
ENDBRANCH  20  26
ENDBRANCH  15  18
ENDBRANCH  14  15
ENDBRANCH  12  14
ENDBRANCH  10  12
ENDBRANCH   9  10
ENDBRANCH   6   9
ENDBRANCH   2   3
TORSDOF 8
ENDMDL
MODEL      239
REMARK 921   NORMALIZED FREE ENERGY PREDICTED BY IDOCK:   -4.03 KCAL/MOL
REMARK 922        TOTAL FREE ENERGY PREDICTED BY IDOCK:   -7.57 KCAL/MOL
REMARK 923 INTER-LIGAND FREE ENERGY PREDICTED BY IDOCK:   -7.00 KCAL/MOL
REMARK 924 INTRA-LIGAND FREE ENERGY PREDICTED BY IDOCK:   -0.57 KCAL/MOL
REMARK 927      BINDING AFFINITY PREDICTED BY RF-SCORE:    0.00 PKD
ROOT
HETATM    1  C   UNL     1      -8.447  19.394  68.518  1.00  0.00    -0.362 C  
HETATM    2  O   UNL     1      -9.847  19.166  68.437  1.00  0.00    -0.353 OA 
ENDROOT
BRANCH   2   3
HETATM    3  C   UNL     1     -10.248  17.870  68.261  1.00  0.00    -0.388 A  
HETATM    4  C   UNL     1     -10.311  17.188  67.046  1.00  0.00    -0.308 A  
HETATM    5  C   UNL     1     -10.799  15.878  66.997  1.00  0.00    -0.252 A  
HETATM    6  C   UNL     1     -11.216  15.228  68.166  1.00  0.00    -0.328 A  
HETATM    7  C   UNL     1     -10.631  17.213  69.430  1.00  0.00    -0.161 A  
HETATM    8  C   UNL     1     -11.113  15.905  69.386  1.00  0.00    -0.322 A  
BRANCH   6   9
HETATM    9  C   UNL     1     -11.899  13.882  68.114  1.00  0.00    -0.407 C  
BRANCH   9  10
HETATM   10  C   UNL     1     -10.995  12.638  68.280  1.00  0.00    -0.248 C  
HETATM   11  C   UNL     1      -9.513  13.021  68.182  1.00  0.00    -0.218 C  
BRANCH  10  12
HETATM   12  N   UNL     1     -11.186  11.972  69.584  1.00  0.00    -0.473 NA 
HETATM   13  H   UNL     1     -11.580  12.620  70.266  1.00  0.00     0.000 HD 
BRANCH  12  14
HETATM   14  C   UNL     1     -11.995  10.744  69.502  1.00  0.00    -0.292 C  
BRANCH  14  15
HETATM   15  C   UNL     1     -11.221   9.461  69.887  1.00  0.00    -0.155 C  
HETATM   16  H   UNL     1     -10.027   8.891  71.345  1.00  0.00     0.000 HD 
HETATM   17  O   UNL     1     -10.503   9.679  71.108  1.00  0.00    -0.307 OA 
BRANCH  15  18
HETATM   18  C   UNL     1     -10.318   8.922  68.797  1.00  0.00    -0.232 A  
HETATM   19  C   UNL     1     -10.484   9.378  67.477  1.00  0.00    -0.343 A  
HETATM   20  C   UNL     1      -9.687   8.888  66.436  1.00  0.00    -0.262 A  
HETATM   21  H   UNL     1      -7.242   6.732  65.983  1.00  0.00     0.000 HD 
HETATM   22  C   UNL     1      -8.700   7.941  66.739  1.00  0.00    -0.134 A  
HETATM   23  C   UNL     1      -9.309   7.989  69.071  1.00  0.00    -0.147 A  
HETATM   24  C   UNL     1      -8.503   7.500  68.045  1.00  0.00    -0.123 A  
HETATM   25  O   UNL     1      -7.912   7.374  65.777  1.00  0.00    -0.104 OA 
BRANCH  20  26
HETATM   26  N   UNL     1      -9.836   9.327  65.107  1.00  0.00    -0.390 N  
HETATM   27  H   UNL     1      -9.757   8.614  64.383  1.00  0.00     0.000 HD 
HETATM   28  O   UNL     1     -10.176  10.883  63.493  1.00  0.00    -0.339 OA 
HETATM   29  C   UNL     1     -10.074  10.603  64.679  1.00  0.00    -0.349 C  
ENDBRANCH  20  26
ENDBRANCH  15  18
ENDBRANCH  14  15
ENDBRANCH  12  14
ENDBRANCH  10  12
ENDBRANCH   9  10
ENDBRANCH   6   9
ENDBRANCH   2   3
TORSDOF 8
ENDMDL
MODEL      240
REMARK 921   NORMALIZED FREE ENERGY PREDICTED BY IDOCK:   -4.02 KCAL/MOL
REMARK 922        TOTAL FREE ENERGY PREDICTED BY IDOCK:   -7.56 KCAL/MOL
REMARK 923 INTER-LIGAND FREE ENERGY PREDICTED BY IDOCK:   -6.83 KCAL/MOL
REMARK 924 INTRA-LIGAND FREE ENERGY PREDICTED BY IDOCK:   -0.74 KCAL/MOL
REMARK 927      BINDING AFFINITY PREDICTED BY RF-SCORE:    0.00 PKD
ROOT
HETATM    1  C   UNL     1      -8.576  18.727  67.668  1.00  0.00    -0.272 C  
HETATM    2  O   UNL     1      -9.822  18.457  67.039  1.00  0.00    -0.301 OA 
ENDROOT
BRANCH   2   3
HETATM    3  C   UNL     1     -10.357  17.216  67.246  1.00  0.00    -0.320 A  
HETATM    4  C   UNL     1     -10.919  16.751  68.434  1.00  0.00    -0.325 A  
HETATM    5  C   UNL     1     -11.377  15.433  68.530  1.00  0.00    -0.342 A  
HETATM    6  C   UNL     1     -11.291  14.567  67.432  1.00  0.00    -0.370 A  
HETATM    7  C   UNL     1     -10.301  16.365  66.142  1.00  0.00    -0.354 A  
HETATM    8  C   UNL     1     -10.761  15.051  66.232  1.00  0.00    -0.322 A  
BRANCH   6   9
HETATM    9  C   UNL     1     -11.623  13.099  67.563  1.00  0.00    -0.398 C  
BRANCH   9  10
HETATM   10  C   UNL     1     -11.283  12.428  68.914  1.00  0.00    -0.280 C  
HETATM   11  C   UNL     1     -12.223  11.248  69.192  1.00  0.00    -0.251 C  
BRANCH  10  12
HETATM   12  N   UNL     1      -9.903  11.903  68.951  1.00  0.00    -0.414 NA 
HETATM   13  H   UNL     1      -9.426  12.201  69.801  1.00  0.00     0.000 HD 
BRANCH  12  14
HETATM   14  C   UNL     1      -9.830  10.440  68.797  1.00  0.00    -0.185 C  
BRANCH  14  15
HETATM   15  C   UNL     1      -8.941   9.746  69.857  1.00  0.00    -0.229 C  
HETATM   16  H   UNL     1      -7.213   8.804  69.884  1.00  0.00     0.000 HD 
HETATM   17  O   UNL     1      -7.758   9.230  69.234  1.00  0.00    -0.077 OA 
BRANCH  15  18
HETATM   18  C   UNL     1      -9.650   8.684  70.672  1.00  0.00    -0.222 A  
HETATM   19  C   UNL     1      -9.237   7.343  70.564  1.00  0.00    -0.157 A  
HETATM   20  C   UNL     1      -9.881   6.328  71.281  1.00  0.00    -0.175 A  
HETATM   21  H   UNL     1     -12.371   5.980  73.404  1.00  0.00     0.000 HD 
HETATM   22  C   UNL     1     -10.939   6.677  72.130  1.00  0.00    -0.245 A  
HETATM   23  C   UNL     1     -10.699   9.003  71.546  1.00  0.00    -0.421 A  
HETATM   24  C   UNL     1     -11.341   8.002  72.272  1.00  0.00    -0.413 A  
HETATM   25  O   UNL     1     -11.653   5.744  72.828  1.00  0.00    -0.281 OA 
BRANCH  20  26
HETATM   26  N   UNL     1      -9.488   4.980  71.187  1.00  0.00    -0.148 N  
HETATM   27  H   UNL     1      -9.013   4.589  72.001  1.00  0.00     0.000 HD 
HETATM   28  O   UNL     1      -9.278   2.978  70.144  1.00  0.00    -0.116 OA 
HETATM   29  C   UNL     1      -9.671   4.136  70.128  1.00  0.00    -0.208 C  
ENDBRANCH  20  26
ENDBRANCH  15  18
ENDBRANCH  14  15
ENDBRANCH  12  14
ENDBRANCH  10  12
ENDBRANCH   9  10
ENDBRANCH   6   9
ENDBRANCH   2   3
TORSDOF 8
ENDMDL
MODEL      241
REMARK 921   NORMALIZED FREE ENERGY PREDICTED BY IDOCK:   -4.02 KCAL/MOL
REMARK 922        TOTAL FREE ENERGY PREDICTED BY IDOCK:   -7.56 KCAL/MOL
REMARK 923 INTER-LIGAND FREE ENERGY PREDICTED BY IDOCK:   -6.85 KCAL/MOL
REMARK 924 INTRA-LIGAND FREE ENERGY PREDICTED BY IDOCK:   -0.71 KCAL/MOL
REMARK 927      BINDING AFFINITY PREDICTED BY RF-SCORE:    0.00 PKD
ROOT
HETATM    1  C   UNL     1      -8.534   6.125  71.748  1.00  0.00    -0.129 C  
HETATM    2  O   UNL     1      -8.386   5.566  70.449  1.00  0.00    -0.107 OA 
ENDROOT
BRANCH   2   3
HETATM    3  C   UNL     1      -8.695   6.379  69.393  1.00  0.00    -0.129 A  
HETATM    4  C   UNL     1      -7.970   7.495  68.976  1.00  0.00    -0.122 A  
HETATM    5  C   UNL     1      -8.431   8.279  67.914  1.00  0.00    -0.132 A  
HETATM    6  C   UNL     1      -9.618   7.948  67.246  1.00  0.00    -0.205 A  
HETATM    7  C   UNL     1      -9.859   6.029  68.708  1.00  0.00    -0.170 A  
HETATM    8  C   UNL     1     -10.320   6.806  67.645  1.00  0.00    -0.255 A  
BRANCH   6   9
HETATM    9  C   UNL     1     -10.219   8.871  66.212  1.00  0.00    -0.203 C  
BRANCH   9  10
HETATM   10  C   UNL     1      -9.930  10.381  66.377  1.00  0.00    -0.221 C  
HETATM   11  C   UNL     1      -9.062  10.902  65.224  1.00  0.00    -0.217 C  
BRANCH  10  12
HETATM   12  N   UNL     1     -11.163  11.193  66.393  1.00  0.00    -0.211 NA 
HETATM   13  H   UNL     1     -11.980  10.605  66.555  1.00  0.00     0.000 HD 
BRANCH  12  14
HETATM   14  C   UNL     1     -11.120  12.304  67.358  1.00  0.00    -0.282 C  
BRANCH  14  15
HETATM   15  C   UNL     1     -11.460  11.884  68.808  1.00  0.00    -0.290 C  
HETATM   16  H   UNL     1     -12.717  10.647  69.684  1.00  0.00     0.000 HD 
HETATM   17  O   UNL     1     -12.507  10.905  68.794  1.00  0.00    -0.431 OA 
BRANCH  15  18
HETATM   18  C   UNL     1     -11.787  13.036  69.735  1.00  0.00    -0.381 A  
HETATM   19  C   UNL     1     -11.298  14.321  69.436  1.00  0.00    -0.325 A  
HETATM   20  C   UNL     1     -11.556  15.408  70.279  1.00  0.00    -0.320 A  
HETATM   21  H   UNL     1     -13.121  16.046  73.103  1.00  0.00     0.000 HD 
HETATM   22  C   UNL     1     -12.334  15.196  71.424  1.00  0.00    -0.346 A  
HETATM   23  C   UNL     1     -12.580  12.861  70.878  1.00  0.00    -0.355 A  
HETATM   24  C   UNL     1     -12.852  13.937  71.719  1.00  0.00    -0.421 A  
HETATM   25  O   UNL     1     -12.593  16.190  72.326  1.00  0.00    -0.449 OA 
BRANCH  20  26
HETATM   26  N   UNL     1     -11.075  16.701  70.002  1.00  0.00    -0.435 N  
HETATM   27  H   UNL     1     -11.268  17.416  70.703  1.00  0.00     0.000 HD 
HETATM   28  O   UNL     1     -10.012  18.264  68.750  1.00  0.00    -0.363 OA 
HETATM   29  C   UNL     1     -10.377  17.107  68.899  1.00  0.00    -0.348 C  
ENDBRANCH  20  26
ENDBRANCH  15  18
ENDBRANCH  14  15
ENDBRANCH  12  14
ENDBRANCH  10  12
ENDBRANCH   9  10
ENDBRANCH   6   9
ENDBRANCH   2   3
TORSDOF 8
ENDMDL
MODEL      242
REMARK 921   NORMALIZED FREE ENERGY PREDICTED BY IDOCK:   -3.99 KCAL/MOL
REMARK 922        TOTAL FREE ENERGY PREDICTED BY IDOCK:   -7.52 KCAL/MOL
REMARK 923 INTER-LIGAND FREE ENERGY PREDICTED BY IDOCK:   -5.82 KCAL/MOL
REMARK 924 INTRA-LIGAND FREE ENERGY PREDICTED BY IDOCK:   -1.70 KCAL/MOL
REMARK 927      BINDING AFFINITY PREDICTED BY RF-SCORE:    0.00 PKD
ROOT
HETATM    1  C   UNL     1     -11.687  12.094  67.081  1.00  0.00    -0.302 C  
HETATM    2  O   UNL     1     -11.122  11.435  65.956  1.00  0.00    -0.262 OA 
ENDROOT
BRANCH   2   3
HETATM    3  C   UNL     1     -10.161  10.497  66.214  1.00  0.00    -0.232 A  
HETATM    4  C   UNL     1      -9.751  10.067  67.475  1.00  0.00    -0.189 A  
HETATM    5  C   UNL     1      -8.709   9.143  67.602  1.00  0.00    -0.120 A  
HETATM    6  C   UNL     1      -8.074   8.625  66.465  1.00  0.00    -0.103 A  
HETATM    7  C   UNL     1      -9.552   9.958  65.080  1.00  0.00    -0.367 A  
HETATM    8  C   UNL     1      -8.516   9.031  65.202  1.00  0.00    -0.183 A  
BRANCH   6   9
HETATM    9  C   UNL     1      -6.843   7.757  66.582  1.00  0.00    -0.070 C  
BRANCH   9  10
HETATM   10  C   UNL     1      -7.075   6.256  66.871  1.00  0.00    -0.073 C  
HETATM   11  C   UNL     1      -6.968   5.965  68.373  1.00  0.00    -0.072 C  
BRANCH  10  12
HETATM   12  N   UNL     1      -8.409   5.797  66.433  1.00  0.00    -0.111 NA 
HETATM   13  H   UNL     1      -8.347   5.301  65.545  1.00  0.00     0.000 HD 
BRANCH  12  14
HETATM   14  C   UNL     1      -9.107   4.980  67.440  1.00  0.00    -0.115 C  
BRANCH  14  15
HETATM   15  C   UNL     1     -10.526   5.491  67.783  1.00  0.00    -0.180 C  
HETATM   16  H   UNL     1     -11.807   6.781  67.025  1.00  0.00     0.000 HD 
HETATM   17  O   UNL     1     -10.935   6.466  66.815  1.00  0.00    -0.353 OA 
BRANCH  15  18
HETATM   18  C   UNL     1     -10.682   6.010  69.197  1.00  0.00    -0.399 A  
HETATM   19  C   UNL     1     -11.383   7.210  69.417  1.00  0.00    -0.011 A  
HETATM   20  C   UNL     1     -11.528   7.738  70.706  1.00  0.00    -0.272 A  
HETATM   21  H   UNL     1     -10.656   7.021  73.797  1.00  0.00     0.000 HD 
HETATM   22  C   UNL     1     -10.977   7.032  71.783  1.00  0.00    -0.234 A  
HETATM   23  C   UNL     1     -10.159   5.318  70.298  1.00  0.00    -0.329 A  
HETATM   24  C   UNL     1     -10.306   5.828  71.586  1.00  0.00    -0.266 A  
HETATM   25  O   UNL     1     -11.030   7.500  73.066  1.00  0.00    -0.350 OA 
BRANCH  20  26
HETATM   26  N   UNL     1     -12.222   8.937  70.950  1.00  0.00    -0.468 N  
HETATM   27  H   UNL     1     -13.213   8.850  71.174  1.00  0.00     0.000 HD 
HETATM   28  O   UNL     1     -12.412  11.189  71.139  1.00  0.00    -0.382 OA 
HETATM   29  C   UNL     1     -11.717  10.207  70.921  1.00  0.00    -0.378 C  
ENDBRANCH  20  26
ENDBRANCH  15  18
ENDBRANCH  14  15
ENDBRANCH  12  14
ENDBRANCH  10  12
ENDBRANCH   9  10
ENDBRANCH   6   9
ENDBRANCH   2   3
TORSDOF 8
ENDMDL
MODEL      243
REMARK 921   NORMALIZED FREE ENERGY PREDICTED BY IDOCK:   -3.99 KCAL/MOL
REMARK 922        TOTAL FREE ENERGY PREDICTED BY IDOCK:   -7.52 KCAL/MOL
REMARK 923 INTER-LIGAND FREE ENERGY PREDICTED BY IDOCK:   -5.23 KCAL/MOL
REMARK 924 INTRA-LIGAND FREE ENERGY PREDICTED BY IDOCK:   -2.29 KCAL/MOL
REMARK 927      BINDING AFFINITY PREDICTED BY RF-SCORE:    0.00 PKD
ROOT
HETATM    1  C   UNL     1      -7.181   6.720  65.834  1.00  0.00    -0.070 C  
HETATM    2  O   UNL     1      -6.965   7.969  66.479  1.00  0.00    -0.068 OA 
ENDROOT
BRANCH   2   3
HETATM    3  C   UNL     1      -6.947   7.957  67.846  1.00  0.00    -0.077 A  
HETATM    4  C   UNL     1      -6.616   9.031  68.672  1.00  0.00    -0.054 A  
HETATM    5  C   UNL     1      -6.578   8.867  70.061  1.00  0.00    -0.042 A  
HETATM    6  C   UNL     1      -6.885   7.629  70.642  1.00  0.00    -0.046 A  
HETATM    7  C   UNL     1      -7.285   6.733  68.424  1.00  0.00    -0.085 A  
HETATM    8  C   UNL     1      -7.253   6.567  69.809  1.00  0.00    -0.078 A  
BRANCH   6   9
HETATM    9  C   UNL     1      -6.689   7.387  72.119  1.00  0.00    -0.058 C  
BRANCH   9  10
HETATM   10  C   UNL     1      -7.907   7.649  73.035  1.00  0.00    -0.109 C  
HETATM   11  C   UNL     1      -7.459   7.961  74.468  1.00  0.00    -0.220 C  
BRANCH  10  12
HETATM   12  N   UNL     1      -8.721   8.792  72.576  1.00  0.00    -0.396 NA 
HETATM   13  H   UNL     1      -8.310   9.218  71.745  1.00  0.00     0.000 HD 
BRANCH  12  14
HETATM   14  C   UNL     1     -10.134   8.449  72.341  1.00  0.00    -0.316 C  
BRANCH  14  15
HETATM   15  C   UNL     1     -10.733   9.106  71.075  1.00  0.00    -0.293 C  
HETATM   16  H   UNL     1     -12.401  10.035  70.594  1.00  0.00     0.000 HD 
HETATM   17  O   UNL     1     -12.033   9.632  71.372  1.00  0.00    -0.343 OA 
BRANCH  15  18
HETATM   18  C   UNL     1     -10.760   8.208  69.855  1.00  0.00    -0.241 A  
HETATM   19  C   UNL     1     -10.492   8.759  68.588  1.00  0.00    -0.213 A  
HETATM   20  C   UNL     1     -10.531   7.971  67.433  1.00  0.00    -0.287 A  
HETATM   21  H   UNL     1     -11.128   4.850  66.574  1.00  0.00     0.000 HD 
HETATM   22  C   UNL     1     -10.823   6.607  67.564  1.00  0.00    -0.342 A  
HETATM   23  C   UNL     1     -11.030   6.837  69.955  1.00  0.00    -0.340 A  
HETATM   24  C   UNL     1     -11.061   6.039  68.813  1.00  0.00    -0.329 A  
HETATM   25  O   UNL     1     -10.930   5.776  66.485  1.00  0.00    -0.253 OA 
BRANCH  20  26
HETATM   26  N   UNL     1     -10.269   8.500  66.155  1.00  0.00    -0.393 N  
HETATM   27  H   UNL     1     -10.306   7.843  65.377  1.00  0.00     0.000 HD 
HETATM   28  O   UNL     1      -9.748  10.152  64.693  1.00  0.00    -0.297 OA 
HETATM   29  C   UNL     1      -9.971   9.796  65.842  1.00  0.00    -0.275 C  
ENDBRANCH  20  26
ENDBRANCH  15  18
ENDBRANCH  14  15
ENDBRANCH  12  14
ENDBRANCH  10  12
ENDBRANCH   9  10
ENDBRANCH   6   9
ENDBRANCH   2   3
TORSDOF 8
ENDMDL
MODEL      244
REMARK 921   NORMALIZED FREE ENERGY PREDICTED BY IDOCK:   -3.98 KCAL/MOL
REMARK 922        TOTAL FREE ENERGY PREDICTED BY IDOCK:   -7.51 KCAL/MOL
REMARK 923 INTER-LIGAND FREE ENERGY PREDICTED BY IDOCK:   -6.92 KCAL/MOL
REMARK 924 INTRA-LIGAND FREE ENERGY PREDICTED BY IDOCK:   -0.59 KCAL/MOL
REMARK 927      BINDING AFFINITY PREDICTED BY RF-SCORE:    0.00 PKD
ROOT
HETATM    1  C   UNL     1     -14.344   8.517  71.676  1.00  0.00    -0.413 C  
HETATM    2  O   UNL     1     -13.224   9.302  72.062  1.00  0.00    -0.380 OA 
ENDROOT
BRANCH   2   3
HETATM    3  C   UNL     1     -12.421   9.760  71.054  1.00  0.00    -0.323 A  
HETATM    4  C   UNL     1     -11.466   9.015  70.362  1.00  0.00    -0.202 A  
HETATM    5  C   UNL     1     -10.666   9.624  69.390  1.00  0.00    -0.248 A  
HETATM    6  C   UNL     1     -10.820  10.983  69.088  1.00  0.00    -0.283 A  
HETATM    7  C   UNL     1     -12.599  11.105  70.731  1.00  0.00    -0.445 A  
HETATM    8  C   UNL     1     -11.805  11.715  69.759  1.00  0.00    -0.428 A  
BRANCH   6   9
HETATM    9  C   UNL     1      -9.858  11.696  68.167  1.00  0.00    -0.191 C  
BRANCH   9  10
HETATM   10  C   UNL     1     -10.449  12.277  66.861  1.00  0.00    -0.217 C  
HETATM   11  C   UNL     1     -10.861  11.155  65.899  1.00  0.00    -0.223 C  
BRANCH  10  12
HETATM   12  N   UNL     1     -11.648  13.104  67.103  1.00  0.00    -0.340 NA 
HETATM   13  H   UNL     1     -12.151  12.778  67.928  1.00  0.00     0.000 HD 
BRANCH  12  14
HETATM   14  C   UNL     1     -11.355  14.544  67.206  1.00  0.00    -0.350 C  
BRANCH  14  15
HETATM   15  C   UNL     1     -10.956  14.999  68.630  1.00  0.00    -0.257 C  
HETATM   16  H   UNL     1     -11.770  16.055  70.078  1.00  0.00     0.000 HD 
HETATM   17  O   UNL     1     -12.015  15.775  69.204  1.00  0.00    -0.387 OA 
BRANCH  15  18
HETATM   18  C   UNL     1      -9.628  15.723  68.708  1.00  0.00    -0.216 A  
HETATM   19  C   UNL     1      -9.441  16.902  67.963  1.00  0.00    -0.243 A  
HETATM   20  C   UNL     1      -8.222  17.588  67.988  1.00  0.00    -0.239 A  
HETATM   21  H   UNL     1      -5.252  17.327  69.381  1.00  0.00     0.000 HD 
HETATM   22  C   UNL     1      -7.189  17.087  68.791  1.00  0.00    -0.226 A  
HETATM   23  C   UNL     1      -8.582  15.258  69.517  1.00  0.00    -0.184 A  
HETATM   24  C   UNL     1      -7.367  15.938  69.558  1.00  0.00    -0.170 A  
HETATM   25  O   UNL     1      -5.952  17.667  68.836  1.00  0.00    -0.178 OA 
BRANCH  20  26
HETATM   26  N   UNL     1      -8.011  18.768  67.250  1.00  0.00    -0.238 N  
HETATM   27  H   UNL     1      -8.194  19.645  67.736  1.00  0.00     0.000 HD 
HETATM   28  O   UNL     1      -7.446  19.949  65.399  1.00  0.00    -0.361 OA 
HETATM   29  C   UNL     1      -7.588  18.869  65.955  1.00  0.00    -0.178 C  
ENDBRANCH  20  26
ENDBRANCH  15  18
ENDBRANCH  14  15
ENDBRANCH  12  14
ENDBRANCH  10  12
ENDBRANCH   9  10
ENDBRANCH   6   9
ENDBRANCH   2   3
TORSDOF 8
ENDMDL
MODEL      245
REMARK 921   NORMALIZED FREE ENERGY PREDICTED BY IDOCK:   -3.98 KCAL/MOL
REMARK 922        TOTAL FREE ENERGY PREDICTED BY IDOCK:   -7.50 KCAL/MOL
REMARK 923 INTER-LIGAND FREE ENERGY PREDICTED BY IDOCK:   -6.51 KCAL/MOL
REMARK 924 INTRA-LIGAND FREE ENERGY PREDICTED BY IDOCK:   -0.99 KCAL/MOL
REMARK 927      BINDING AFFINITY PREDICTED BY RF-SCORE:    0.00 PKD
ROOT
HETATM    1  C   UNL     1      -8.169   9.039  64.396  1.00  0.00    -0.165 C  
HETATM    2  O   UNL     1      -8.081  10.194  65.220  1.00  0.00    -0.139 OA 
ENDROOT
BRANCH   2   3
HETATM    3  C   UNL     1      -9.024  10.319  66.202  1.00  0.00    -0.154 A  
HETATM    4  C   UNL     1     -10.010   9.384  66.517  1.00  0.00    -0.339 A  
HETATM    5  C   UNL     1     -10.956   9.664  67.509  1.00  0.00    -0.166 A  
HETATM    6  C   UNL     1     -10.918  10.877  68.208  1.00  0.00    -0.293 A  
HETATM    7  C   UNL     1      -8.965  11.513  66.920  1.00  0.00    -0.179 A  
HETATM    8  C   UNL     1      -9.903  11.794  67.914  1.00  0.00    -0.186 A  
BRANCH   6   9
HETATM    9  C   UNL     1     -12.023  11.268  69.161  1.00  0.00    -0.405 C  
BRANCH   9  10
HETATM   10  C   UNL     1     -11.747  11.061  70.669  1.00  0.00    -0.269 C  
HETATM   11  C   UNL     1     -12.915  11.580  71.516  1.00  0.00    -0.485 C  
BRANCH  10  12
HETATM   12  N   UNL     1     -11.556   9.638  71.017  1.00  0.00    -0.329 NA 
HETATM   13  H   UNL     1     -10.696   9.508  71.549  1.00  0.00     0.000 HD 
BRANCH  12  14
HETATM   14  C   UNL     1     -12.704   9.051  71.729  1.00  0.00    -0.366 C  
BRANCH  14  15
HETATM   15  C   UNL     1     -13.104   7.648  71.215  1.00  0.00    -0.233 C  
HETATM   16  H   UNL     1     -14.494   6.314  71.623  1.00  0.00     0.000 HD 
HETATM   17  O   UNL     1     -14.248   7.176  71.939  1.00  0.00    -0.368 OA 
BRANCH  15  18
HETATM   18  C   UNL     1     -11.980   6.632  71.224  1.00  0.00    -0.409 A  
HETATM   19  C   UNL     1     -11.269   6.381  70.036  1.00  0.00    -0.475 A  
HETATM   20  C   UNL     1     -10.241   5.433  69.994  1.00  0.00    -0.279 A  
HETATM   21  H   UNL     1      -8.738   3.308  72.009  1.00  0.00     0.000 HD 
HETATM   22  C   UNL     1      -9.916   4.748  71.173  1.00  0.00    -0.202 A  
HETATM   23  C   UNL     1     -11.618   5.945  72.390  1.00  0.00    -0.341 A  
HETATM   24  C   UNL     1     -10.589   5.006  72.364  1.00  0.00    -0.275 A  
HETATM   25  O   UNL     1      -8.959   3.772  71.209  1.00  0.00    -0.095 OA 
BRANCH  20  26
HETATM   26  N   UNL     1      -9.518   5.163  68.818  1.00  0.00    -0.125 N  
HETATM   27  H   UNL     1      -8.788   4.454  68.887  1.00  0.00     0.000 HD 
HETATM   28  O   UNL     1      -8.990   5.444  66.631  1.00  0.00    -0.114 OA 
HETATM   29  C   UNL     1      -9.684   5.745  67.592  1.00  0.00    -0.119 C  
ENDBRANCH  20  26
ENDBRANCH  15  18
ENDBRANCH  14  15
ENDBRANCH  12  14
ENDBRANCH  10  12
ENDBRANCH   9  10
ENDBRANCH   6   9
ENDBRANCH   2   3
TORSDOF 8
ENDMDL
MODEL      246
REMARK 921   NORMALIZED FREE ENERGY PREDICTED BY IDOCK:   -3.98 KCAL/MOL
REMARK 922        TOTAL FREE ENERGY PREDICTED BY IDOCK:   -7.50 KCAL/MOL
REMARK 923 INTER-LIGAND FREE ENERGY PREDICTED BY IDOCK:   -5.11 KCAL/MOL
REMARK 924 INTRA-LIGAND FREE ENERGY PREDICTED BY IDOCK:   -2.39 KCAL/MOL
REMARK 927      BINDING AFFINITY PREDICTED BY RF-SCORE:    0.00 PKD
ROOT
HETATM    1  C   UNL     1      -6.654   5.612  67.036  1.00  0.00    -0.056 C  
HETATM    2  O   UNL     1      -6.460   6.536  68.099  1.00  0.00    -0.044 OA 
ENDROOT
BRANCH   2   3
HETATM    3  C   UNL     1      -7.151   6.295  69.254  1.00  0.00    -0.073 A  
HETATM    4  C   UNL     1      -7.107   7.069  70.413  1.00  0.00    -0.067 A  
HETATM    5  C   UNL     1      -7.819   6.676  71.551  1.00  0.00    -0.099 A  
HETATM    6  C   UNL     1      -8.596   5.510  71.539  1.00  0.00    -0.132 A  
HETATM    7  C   UNL     1      -7.950   5.152  69.229  1.00  0.00    -0.080 A  
HETATM    8  C   UNL     1      -8.666   4.760  70.360  1.00  0.00    -0.125 A  
BRANCH   6   9
HETATM    9  C   UNL     1      -9.235   4.980  72.800  1.00  0.00    -0.144 C  
BRANCH   9  10
HETATM   10  C   UNL     1     -10.706   4.514  72.691  1.00  0.00    -0.157 C  
HETATM   11  C   UNL     1     -10.939   3.240  73.513  1.00  0.00    -0.324 C  
BRANCH  10  12
HETATM   12  N   UNL     1     -11.657   5.530  73.185  1.00  0.00    -0.531 NA 
HETATM   13  H   UNL     1     -11.231   6.100  73.915  1.00  0.00     0.000 HD 
BRANCH  12  14
HETATM   14  C   UNL     1     -12.214   6.379  72.118  1.00  0.00    -0.229 C  
BRANCH  14  15
HETATM   15  C   UNL     1     -11.700   7.838  72.152  1.00  0.00    -0.320 C  
HETATM   16  H   UNL     1     -12.462   9.618  72.508  1.00  0.00     0.000 HD 
HETATM   17  O   UNL     1     -12.777   8.722  72.488  1.00  0.00    -0.396 OA 
BRANCH  15  18
HETATM   18  C   UNL     1     -10.987   8.282  70.891  1.00  0.00    -0.275 A  
HETATM   19  C   UNL     1     -11.118   7.514  69.719  1.00  0.00    -0.143 A  
HETATM   20  C   UNL     1     -10.457   7.875  68.539  1.00  0.00    -0.167 A  
HETATM   21  H   UNL     1      -8.423  10.221  67.450  1.00  0.00     0.000 HD 
HETATM   22  C   UNL     1      -9.673   9.036  68.541  1.00  0.00    -0.159 A  
HETATM   23  C   UNL     1     -10.211   9.449  70.854  1.00  0.00    -0.373 A  
HETATM   24  C   UNL     1      -9.557   9.824  69.683  1.00  0.00    -0.239 A  
HETATM   25  O   UNL     1      -8.955   9.433  67.448  1.00  0.00    -0.124 OA 
BRANCH  20  26
HETATM   26  N   UNL     1     -10.570   7.121  67.356  1.00  0.00    -0.275 N  
HETATM   27  H   UNL     1     -10.588   7.648  66.484  1.00  0.00     0.000 HD 
HETATM   28  O   UNL     1     -10.766   5.203  66.164  1.00  0.00    -0.296 OA 
HETATM   29  C   UNL     1     -10.659   5.762  67.246  1.00  0.00    -0.279 C  
ENDBRANCH  20  26
ENDBRANCH  15  18
ENDBRANCH  14  15
ENDBRANCH  12  14
ENDBRANCH  10  12
ENDBRANCH   9  10
ENDBRANCH   6   9
ENDBRANCH   2   3
TORSDOF 8
ENDMDL
MODEL      247
REMARK 921   NORMALIZED FREE ENERGY PREDICTED BY IDOCK:   -3.96 KCAL/MOL
REMARK 922        TOTAL FREE ENERGY PREDICTED BY IDOCK:   -7.48 KCAL/MOL
REMARK 923 INTER-LIGAND FREE ENERGY PREDICTED BY IDOCK:   -6.56 KCAL/MOL
REMARK 924 INTRA-LIGAND FREE ENERGY PREDICTED BY IDOCK:   -0.92 KCAL/MOL
REMARK 927      BINDING AFFINITY PREDICTED BY RF-SCORE:    0.00 PKD
ROOT
HETATM    1  C   UNL     1      -9.956  18.348  68.356  1.00  0.00    -0.379 C  
HETATM    2  O   UNL     1     -11.079  17.614  67.887  1.00  0.00    -0.226 OA 
ENDROOT
BRANCH   2   3
HETATM    3  C   UNL     1     -11.112  16.282  68.194  1.00  0.00    -0.329 A  
HETATM    4  C   UNL     1     -11.229  15.232  67.284  1.00  0.00    -0.306 A  
HETATM    5  C   UNL     1     -11.313  13.911  67.737  1.00  0.00    -0.335 A  
HETATM    6  C   UNL     1     -11.266  13.623  69.107  1.00  0.00    -0.309 A  
HETATM    7  C   UNL     1     -11.032  15.995  69.557  1.00  0.00    -0.326 A  
HETATM    8  C   UNL     1     -11.109  14.678  70.013  1.00  0.00    -0.204 A  
BRANCH   6   9
HETATM    9  C   UNL     1     -11.521  12.227  69.625  1.00  0.00    -0.285 C  
BRANCH   9  10
HETATM   10  C   UNL     1     -10.464  11.153  69.277  1.00  0.00    -0.151 C  
HETATM   11  C   UNL     1     -10.970  10.227  68.164  1.00  0.00    -0.328 C  
BRANCH  10  12
HETATM   12  N   UNL     1      -9.194  11.743  68.808  1.00  0.00    -0.389 NA 
HETATM   13  H   UNL     1      -8.809  12.376  69.509  1.00  0.00     0.000 HD 
BRANCH  12  14
HETATM   14  C   UNL     1      -8.195  10.739  68.406  1.00  0.00    -0.129 C  
BRANCH  14  15
HETATM   15  C   UNL     1      -7.382  11.136  67.151  1.00  0.00    -0.121 C  
HETATM   16  H   UNL     1      -6.771  12.808  66.309  1.00  0.00     0.000 HD 
HETATM   17  O   UNL     1      -7.270  12.564  67.080  1.00  0.00    -0.098 OA 
BRANCH  15  18
HETATM   18  C   UNL     1      -7.904  10.553  65.854  1.00  0.00    -0.151 A  
HETATM   19  C   UNL     1      -9.081  11.076  65.288  1.00  0.00    -0.207 A  
HETATM   20  C   UNL     1      -9.611  10.550  64.104  1.00  0.00    -0.313 A  
HETATM   21  H   UNL     1      -8.942   8.179  61.921  1.00  0.00     0.000 HD 
HETATM   22  C   UNL     1      -8.930   9.498  63.477  1.00  0.00    -0.173 A  
HETATM   23  C   UNL     1      -7.236   9.513  65.192  1.00  0.00    -0.108 A  
HETATM   24  C   UNL     1      -7.749   8.988  64.008  1.00  0.00    -0.125 A  
HETATM   25  O   UNL     1      -9.404   8.893  62.347  1.00  0.00     0.142 OA 
BRANCH  20  26
HETATM   26  N   UNL     1     -10.787  11.055  63.520  1.00  0.00    -0.616 N  
HETATM   27  H   UNL     1     -11.023  10.698  62.595  1.00  0.00     0.000 HD 
HETATM   28  O   UNL     1     -12.644  12.354  63.456  1.00  0.00    -0.681 OA 
HETATM   29  C   UNL     1     -11.649  11.971  64.055  1.00  0.00    -0.411 C  
ENDBRANCH  20  26
ENDBRANCH  15  18
ENDBRANCH  14  15
ENDBRANCH  12  14
ENDBRANCH  10  12
ENDBRANCH   9  10
ENDBRANCH   6   9
ENDBRANCH   2   3
TORSDOF 8
ENDMDL
MODEL      248
REMARK 921   NORMALIZED FREE ENERGY PREDICTED BY IDOCK:   -3.96 KCAL/MOL
REMARK 922        TOTAL FREE ENERGY PREDICTED BY IDOCK:   -7.47 KCAL/MOL
REMARK 923 INTER-LIGAND FREE ENERGY PREDICTED BY IDOCK:   -6.51 KCAL/MOL
REMARK 924 INTRA-LIGAND FREE ENERGY PREDICTED BY IDOCK:   -0.96 KCAL/MOL
REMARK 927      BINDING AFFINITY PREDICTED BY RF-SCORE:    0.00 PKD
ROOT
HETATM    1  C   UNL     1      -8.510   8.616  62.702  1.00  0.00    -0.163 C  
HETATM    2  O   UNL     1      -8.970   8.958  64.002  1.00  0.00    -0.041 OA 
ENDROOT
BRANCH   2   3
HETATM    3  C   UNL     1      -9.286  10.271  64.215  1.00  0.00    -0.277 A  
HETATM    4  C   UNL     1      -9.023  11.002  65.373  1.00  0.00    -0.192 A  
HETATM    5  C   UNL     1      -9.457  12.327  65.485  1.00  0.00    -0.029 A  
HETATM    6  C   UNL     1     -10.147  12.943  64.432  1.00  0.00    -0.265 A  
HETATM    7  C   UNL     1      -9.944  10.892  63.153  1.00  0.00    -0.368 A  
HETATM    8  C   UNL     1     -10.373  12.216  63.259  1.00  0.00    -0.352 A  
BRANCH   6   9
HETATM    9  C   UNL     1     -10.767  14.310  64.595  1.00  0.00    -0.384 C  
BRANCH   9  10
HETATM   10  C   UNL     1     -12.162  14.365  65.259  1.00  0.00    -0.377 C  
HETATM   11  C   UNL     1     -12.978  13.110  64.925  1.00  0.00    -0.213 C  
BRANCH  10  12
HETATM   12  N   UNL     1     -12.083  14.453  66.731  1.00  0.00    -0.458 NA 
HETATM   13  H   UNL     1     -12.780  15.102  67.093  1.00  0.00     0.000 HD 
BRANCH  12  14
HETATM   14  C   UNL     1     -12.189  13.145  67.402  1.00  0.00    -0.140 C  
BRANCH  14  15
HETATM   15  C   UNL     1     -11.375  13.051  68.714  1.00  0.00    -0.289 C  
HETATM   16  H   UNL     1      -9.694  13.798  69.416  1.00  0.00     0.000 HD 
HETATM   17  O   UNL     1     -10.194  13.856  68.610  1.00  0.00    -0.231 OA 
BRANCH  15  18
HETATM   18  C   UNL     1     -11.050  11.637  69.150  1.00  0.00    -0.302 A  
HETATM   19  C   UNL     1     -12.029  10.879  69.817  1.00  0.00    -0.423 A  
HETATM   20  C   UNL     1     -11.761   9.578  70.259  1.00  0.00    -0.117 A  
HETATM   21  H   UNL     1      -9.277   7.419  70.267  1.00  0.00     0.000 HD 
HETATM   22  C   UNL     1     -10.496   9.033  70.003  1.00  0.00    -0.214 A  
HETATM   23  C   UNL     1      -9.801  11.056  68.891  1.00  0.00    -0.189 A  
HETATM   24  C   UNL     1      -9.526   9.758  69.317  1.00  0.00    -0.201 A  
HETATM   25  O   UNL     1     -10.135   7.789  70.441  1.00  0.00    -0.192 OA 
BRANCH  20  26
HETATM   26  N   UNL     1     -12.724   8.802  70.931  1.00  0.00    -0.492 N  
HETATM   27  H   UNL     1     -13.103   8.006  70.418  1.00  0.00     0.000 HD 
HETATM   28  O   UNL     1     -14.057   8.264  72.684  1.00  0.00    -0.149 OA 
HETATM   29  C   UNL     1     -13.207   8.995  72.194  1.00  0.00    -0.446 C  
ENDBRANCH  20  26
ENDBRANCH  15  18
ENDBRANCH  14  15
ENDBRANCH  12  14
ENDBRANCH  10  12
ENDBRANCH   9  10
ENDBRANCH   6   9
ENDBRANCH   2   3
TORSDOF 8
ENDMDL
MODEL      249
REMARK 921   NORMALIZED FREE ENERGY PREDICTED BY IDOCK:   -3.94 KCAL/MOL
REMARK 922        TOTAL FREE ENERGY PREDICTED BY IDOCK:   -7.45 KCAL/MOL
REMARK 923 INTER-LIGAND FREE ENERGY PREDICTED BY IDOCK:   -6.50 KCAL/MOL
REMARK 924 INTRA-LIGAND FREE ENERGY PREDICTED BY IDOCK:   -0.94 KCAL/MOL
REMARK 927      BINDING AFFINITY PREDICTED BY RF-SCORE:    0.00 PKD
ROOT
HETATM    1  C   UNL     1     -12.371  15.436  68.951  1.00  0.00     0.040 C  
HETATM    2  O   UNL     1     -12.118  14.350  69.833  1.00  0.00    -0.306 OA 
ENDROOT
BRANCH   2   3
HETATM    3  C   UNL     1     -11.448  13.279  69.310  1.00  0.00    -0.288 A  
HETATM    4  C   UNL     1     -11.966  11.997  69.127  1.00  0.00    -0.326 A  
HETATM    5  C   UNL     1     -11.152  10.971  68.637  1.00  0.00    -0.294 A  
HETATM    6  C   UNL     1      -9.811  11.219  68.309  1.00  0.00    -0.201 A  
HETATM    7  C   UNL     1     -10.124  13.535  68.954  1.00  0.00    -0.029 A  
HETATM    8  C   UNL     1      -9.310  12.516  68.460  1.00  0.00    -0.084 A  
BRANCH   6   9
HETATM    9  C   UNL     1      -8.874  10.094  67.939  1.00  0.00    -0.125 C  
BRANCH   9  10
HETATM   10  C   UNL     1      -9.006   9.522  66.508  1.00  0.00    -0.148 C  
HETATM   11  C   UNL     1     -10.455   9.114  66.213  1.00  0.00    -0.035 C  
BRANCH  10  12
HETATM   12  N   UNL     1      -8.610  10.498  65.472  1.00  0.00    -0.175 NA 
HETATM   13  H   UNL     1      -7.675  10.860  65.657  1.00  0.00     0.000 HD 
BRANCH  12  14
HETATM   14  C   UNL     1      -8.703   9.967  64.102  1.00  0.00    -0.206 C  
BRANCH  14  15
HETATM   15  C   UNL     1      -9.454  10.900  63.122  1.00  0.00    -0.341 C  
HETATM   16  H   UNL     1      -8.968  12.216  61.740  1.00  0.00     0.000 HD 
HETATM   17  O   UNL     1      -8.508  11.643  62.342  1.00  0.00    -0.216 OA 
BRANCH  15  18
HETATM   18  C   UNL     1     -10.471  11.811  63.778  1.00  0.00    -0.466 A  
HETATM   19  C   UNL     1     -10.048  13.035  64.327  1.00  0.00    -0.216 A  
HETATM   20  C   UNL     1     -10.951  13.894  64.964  1.00  0.00    -0.368 A  
HETATM   21  H   UNL     1     -14.154  14.020  65.712  1.00  0.00     0.000 HD 
HETATM   22  C   UNL     1     -12.300  13.519  65.025  1.00  0.00    -0.428 A  
HETATM   23  C   UNL     1     -11.831  11.474  63.838  1.00  0.00    -0.210 A  
HETATM   24  C   UNL     1     -12.741  12.325  64.460  1.00  0.00    -0.336 A  
HETATM   25  O   UNL     1     -13.239  14.274  65.670  1.00  0.00    -0.558 OA 
BRANCH  20  26
HETATM   26  N   UNL     1     -10.551  15.121  65.523  1.00  0.00    -0.338 N  
HETATM   27  H   UNL     1      -9.930  15.070  66.330  1.00  0.00     0.000 HD 
HETATM   28  O   UNL     1     -10.504  17.383  65.672  1.00  0.00    -0.577 OA 
HETATM   29  C   UNL     1     -10.901  16.375  65.105  1.00  0.00    -0.275 C  
ENDBRANCH  20  26
ENDBRANCH  15  18
ENDBRANCH  14  15
ENDBRANCH  12  14
ENDBRANCH  10  12
ENDBRANCH   9  10
ENDBRANCH   6   9
ENDBRANCH   2   3
TORSDOF 8
ENDMDL
MODEL      250
REMARK 921   NORMALIZED FREE ENERGY PREDICTED BY IDOCK:   -3.93 KCAL/MOL
REMARK 922        TOTAL FREE ENERGY PREDICTED BY IDOCK:   -7.43 KCAL/MOL
REMARK 923 INTER-LIGAND FREE ENERGY PREDICTED BY IDOCK:   -7.17 KCAL/MOL
REMARK 924 INTRA-LIGAND FREE ENERGY PREDICTED BY IDOCK:   -0.26 KCAL/MOL
REMARK 927      BINDING AFFINITY PREDICTED BY RF-SCORE:    0.00 PKD
ROOT
HETATM    1  C   UNL     1     -10.459  16.979  65.760  1.00  0.00    -0.251 C  
HETATM    2  O   UNL     1     -10.535  15.916  66.701  1.00  0.00    -0.298 OA 
ENDROOT
BRANCH   2   3
HETATM    3  C   UNL     1     -10.455  14.646  66.200  1.00  0.00    -0.302 A  
HETATM    4  C   UNL     1     -10.596  14.282  64.861  1.00  0.00    -0.452 A  
HETATM    5  C   UNL     1     -10.553  12.935  64.488  1.00  0.00    -0.403 A  
HETATM    6  C   UNL     1     -10.354  11.935  65.450  1.00  0.00    -0.306 A  
HETATM    7  C   UNL     1     -10.225  13.655  67.154  1.00  0.00    -0.244 A  
HETATM    8  C   UNL     1     -10.176  12.311  66.786  1.00  0.00    -0.229 A  
BRANCH   6   9
HETATM    9  C   UNL     1     -10.471  10.471  65.095  1.00  0.00    -0.225 C  
BRANCH   9  10
HETATM   10  C   UNL     1      -9.149   9.676  64.985  1.00  0.00    -0.233 C  
HETATM   11  C   UNL     1      -7.969  10.498  65.518  1.00  0.00    -0.145 C  
BRANCH  10  12
HETATM   12  N   UNL     1      -9.184   8.416  65.754  1.00  0.00    -0.372 NA 
HETATM   13  H   UNL     1      -8.288   8.246  66.210  1.00  0.00     0.000 HD 
BRANCH  12  14
HETATM   14  C   UNL     1     -10.286   8.355  66.729  1.00  0.00    -0.306 C  
BRANCH  14  15
HETATM   15  C   UNL     1      -9.823   8.046  68.173  1.00  0.00    -0.170 C  
HETATM   16  H   UNL     1      -9.459   6.438  69.249  1.00  0.00     0.000 HD 
HETATM   17  O   UNL     1      -9.743   6.628  68.362  1.00  0.00    -0.126 OA 
BRANCH  15  18
HETATM   18  C   UNL     1     -10.655   8.706  69.253  1.00  0.00    -0.204 A  
HETATM   19  C   UNL     1     -10.786  10.107  69.262  1.00  0.00    -0.259 A  
HETATM   20  C   UNL     1     -11.524  10.759  70.256  1.00  0.00    -0.319 A  
HETATM   21  H   UNL     1     -13.282  10.013  72.937  1.00  0.00     0.000 HD 
HETATM   22  C   UNL     1     -12.154   9.982  71.238  1.00  0.00    -0.394 A  
HETATM   23  C   UNL     1     -11.314   7.957  70.237  1.00  0.00    -0.158 A  
HETATM   24  C   UNL     1     -12.061   8.593  71.226  1.00  0.00    -0.333 A  
HETATM   25  O   UNL     1     -12.854  10.539  72.272  1.00  0.00    -0.310 OA 
BRANCH  20  26
HETATM   26  N   UNL     1     -11.666  12.159  70.288  1.00  0.00    -0.534 N  
HETATM   27  H   UNL     1     -10.954  12.698  69.797  1.00  0.00     0.000 HD 
HETATM   28  O   UNL     1     -12.678  14.099  70.881  1.00  0.00    -0.330 OA 
HETATM   29  C   UNL     1     -12.653  12.877  70.904  1.00  0.00    -0.270 C  
ENDBRANCH  20  26
ENDBRANCH  15  18
ENDBRANCH  14  15
ENDBRANCH  12  14
ENDBRANCH  10  12
ENDBRANCH   9  10
ENDBRANCH   6   9
ENDBRANCH   2   3
TORSDOF 8
ENDMDL
MODEL      251
REMARK 921   NORMALIZED FREE ENERGY PREDICTED BY IDOCK:   -3.93 KCAL/MOL
REMARK 922        TOTAL FREE ENERGY PREDICTED BY IDOCK:   -7.43 KCAL/MOL
REMARK 923 INTER-LIGAND FREE ENERGY PREDICTED BY IDOCK:   -7.06 KCAL/MOL
REMARK 924 INTRA-LIGAND FREE ENERGY PREDICTED BY IDOCK:   -0.37 KCAL/MOL
REMARK 927      BINDING AFFINITY PREDICTED BY RF-SCORE:    0.00 PKD
ROOT
HETATM    1  C   UNL     1     -10.322   4.412  66.077  1.00  0.00    -0.178 C  
HETATM    2  O   UNL     1      -9.783   4.967  67.270  1.00  0.00    -0.148 OA 
ENDROOT
BRANCH   2   3
HETATM    3  C   UNL     1      -9.460   6.295  67.236  1.00  0.00    -0.119 A  
HETATM    4  C   UNL     1      -9.779   7.192  66.218  1.00  0.00    -0.059 A  
HETATM    5  C   UNL     1      -9.333   8.516  66.278  1.00  0.00    -0.287 A  
HETATM    6  C   UNL     1      -8.574   8.964  67.368  1.00  0.00    -0.119 A  
HETATM    7  C   UNL     1      -8.732   6.747  68.337  1.00  0.00    -0.123 A  
HETATM    8  C   UNL     1      -8.290   8.068  68.404  1.00  0.00    -0.127 A  
BRANCH   6   9
HETATM    9  C   UNL     1      -7.944  10.337  67.373  1.00  0.00    -0.107 C  
BRANCH   9  10
HETATM   10  C   UNL     1      -8.281  11.251  68.575  1.00  0.00    -0.150 C  
HETATM   11  C   UNL     1      -7.001  11.772  69.242  1.00  0.00    -0.065 C  
BRANCH  10  12
HETATM   12  N   UNL     1      -9.077  12.430  68.180  1.00  0.00    -0.197 NA 
HETATM   13  H   UNL     1      -9.134  12.504  67.165  1.00  0.00     0.000 HD 
BRANCH  12  14
HETATM   14  C   UNL     1     -10.421  12.457  68.783  1.00  0.00    -0.154 C  
BRANCH  14  15
HETATM   15  C   UNL     1     -11.568  12.334  67.752  1.00  0.00    -0.351 C  
HETATM   16  H   UNL     1     -12.281  10.938  66.560  1.00  0.00     0.000 HD 
HETATM   17  O   UNL     1     -11.576  11.014  67.193  1.00  0.00    -0.469 OA 
BRANCH  15  18
HETATM   18  C   UNL     1     -11.557  13.396  66.671  1.00  0.00    -0.399 A  
HETATM   19  C   UNL     1     -10.805  14.569  66.866  1.00  0.00    -0.305 A  
HETATM   20  C   UNL     1     -10.787  15.586  65.904  1.00  0.00    -0.313 A  
HETATM   21  H   UNL     1     -12.098  16.240  62.957  1.00  0.00     0.000 HD 
HETATM   22  C   UNL     1     -11.522  15.403  64.725  1.00  0.00    -0.336 A  
HETATM   23  C   UNL     1     -12.265  13.235  65.473  1.00  0.00    -0.506 A  
HETATM   24  C   UNL     1     -12.247  14.235  64.503  1.00  0.00    -0.476 A  
HETATM   25  O   UNL     1     -11.599  16.364  63.757  1.00  0.00    -1.055 OA 
BRANCH  20  26
HETATM   26  N   UNL     1     -10.045  16.769  66.077  1.00  0.00    -0.338 N  
HETATM   27  H   UNL     1      -9.030  16.675  66.046  1.00  0.00     0.000 HD 
HETATM   28  O   UNL     1      -9.796  18.994  66.434  1.00  0.00    -0.342 OA 
HETATM   29  C   UNL     1     -10.532  18.029  66.283  1.00  0.00    -0.335 C  
ENDBRANCH  20  26
ENDBRANCH  15  18
ENDBRANCH  14  15
ENDBRANCH  12  14
ENDBRANCH  10  12
ENDBRANCH   9  10
ENDBRANCH   6   9
ENDBRANCH   2   3
TORSDOF 8
ENDMDL
MODEL      252
REMARK 921   NORMALIZED FREE ENERGY PREDICTED BY IDOCK:   -3.93 KCAL/MOL
REMARK 922        TOTAL FREE ENERGY PREDICTED BY IDOCK:   -7.43 KCAL/MOL
REMARK 923 INTER-LIGAND FREE ENERGY PREDICTED BY IDOCK:   -6.34 KCAL/MOL
REMARK 924 INTRA-LIGAND FREE ENERGY PREDICTED BY IDOCK:   -1.08 KCAL/MOL
REMARK 927      BINDING AFFINITY PREDICTED BY RF-SCORE:    0.00 PKD
ROOT
HETATM    1  C   UNL     1      -9.981   6.854  71.475  1.00  0.00    -0.177 C  
HETATM    2  O   UNL     1      -8.675   6.741  70.926  1.00  0.00    -0.139 OA 
ENDROOT
BRANCH   2   3
HETATM    3  C   UNL     1      -8.534   7.070  69.606  1.00  0.00    -0.134 A  
HETATM    4  C   UNL     1      -8.893   8.282  69.019  1.00  0.00    -0.143 A  
HETATM    5  C   UNL     1      -8.753   8.468  67.640  1.00  0.00    -0.136 A  
HETATM    6  C   UNL     1      -8.236   7.446  66.832  1.00  0.00    -0.121 A  
HETATM    7  C   UNL     1      -7.989   6.063  68.809  1.00  0.00    -0.104 A  
HETATM    8  C   UNL     1      -7.842   6.246  67.433  1.00  0.00    -0.101 A  
BRANCH   6   9
HETATM    9  C   UNL     1      -8.232   7.563  65.326  1.00  0.00    -0.130 C  
BRANCH   9  10
HETATM   10  C   UNL     1      -8.081   8.987  64.741  1.00  0.00    -0.144 C  
HETATM   11  C   UNL     1      -7.254   8.963  63.449  1.00  0.00    -0.093 C  
BRANCH  10  12
HETATM   12  N   UNL     1      -9.382   9.603  64.413  1.00  0.00    -0.415 NA 
HETATM   13  H   UNL     1     -10.144   9.104  64.873  1.00  0.00     0.000 HD 
BRANCH  12  14
HETATM   14  C   UNL     1      -9.442  11.043  64.717  1.00  0.00    -0.230 C  
BRANCH  14  15
HETATM   15  C   UNL     1     -10.882  11.605  64.785  1.00  0.00    -0.308 C  
HETATM   16  H   UNL     1     -11.996  12.827  63.716  1.00  0.00     0.000 HD 
HETATM   17  O   UNL     1     -11.112  12.481  63.674  1.00  0.00    -0.418 OA 
BRANCH  15  18
HETATM   18  C   UNL     1     -11.234  12.270  66.100  1.00  0.00    -0.372 A  
HETATM   19  C   UNL     1     -11.033  11.567  67.303  1.00  0.00    -0.323 A  
HETATM   20  C   UNL     1     -11.368  12.135  68.537  1.00  0.00    -0.275 A  
HETATM   21  H   UNL     1     -12.646  14.926  69.724  1.00  0.00     0.000 HD 
HETATM   22  C   UNL     1     -11.892  13.434  68.555  1.00  0.00    -0.366 A  
HETATM   23  C   UNL     1     -11.741  13.575  66.154  1.00  0.00    -0.397 A  
HETATM   24  C   UNL     1     -12.069  14.155  67.377  1.00  0.00    -0.379 A  
HETATM   25  O   UNL     1     -12.291  14.044  69.711  1.00  0.00    -0.336 OA 
BRANCH  20  26
HETATM   26  N   UNL     1     -11.179  11.451  69.752  1.00  0.00    -0.432 N  
HETATM   27  H   UNL     1     -10.366  11.723  70.304  1.00  0.00     0.000 HD 
HETATM   28  O   UNL     1     -11.703   9.921  71.342  1.00  0.00    -0.369 OA 
HETATM   29  C   UNL     1     -11.964  10.462  70.276  1.00  0.00    -0.302 C  
ENDBRANCH  20  26
ENDBRANCH  15  18
ENDBRANCH  14  15
ENDBRANCH  12  14
ENDBRANCH  10  12
ENDBRANCH   9  10
ENDBRANCH   6   9
ENDBRANCH   2   3
TORSDOF 8
ENDMDL
MODEL      253
REMARK 921   NORMALIZED FREE ENERGY PREDICTED BY IDOCK:   -3.92 KCAL/MOL
REMARK 922        TOTAL FREE ENERGY PREDICTED BY IDOCK:   -7.41 KCAL/MOL
REMARK 923 INTER-LIGAND FREE ENERGY PREDICTED BY IDOCK:   -6.47 KCAL/MOL
REMARK 924 INTRA-LIGAND FREE ENERGY PREDICTED BY IDOCK:   -0.94 KCAL/MOL
REMARK 927      BINDING AFFINITY PREDICTED BY RF-SCORE:    0.00 PKD
ROOT
HETATM    1  C   UNL     1      -8.529   8.429  62.385  1.00  0.00    -0.151 C  
HETATM    2  O   UNL     1      -8.454   8.802  63.754  1.00  0.00    -0.171 OA 
ENDROOT
BRANCH   2   3
HETATM    3  C   UNL     1      -8.916  10.048  64.076  1.00  0.00    -0.240 A  
HETATM    4  C   UNL     1      -9.021  10.578  65.362  1.00  0.00    -0.207 A  
HETATM    5  C   UNL     1      -9.570  11.849  65.559  1.00  0.00    -0.200 A  
HETATM    6  C   UNL     1     -10.009  12.613  64.468  1.00  0.00    -0.186 A  
HETATM    7  C   UNL     1      -9.322  10.820  62.988  1.00  0.00    -0.344 A  
HETATM    8  C   UNL     1      -9.866  12.090  63.179  1.00  0.00    -0.156 A  
BRANCH   6   9
HETATM    9  C   UNL     1     -10.755  13.911  64.670  1.00  0.00    -0.422 C  
BRANCH   9  10
HETATM   10  C   UNL     1     -12.231  13.801  65.117  1.00  0.00    -0.431 C  
HETATM   11  C   UNL     1     -12.726  12.353  65.022  1.00  0.00    -0.170 C  
BRANCH  10  12
HETATM   12  N   UNL     1     -12.431  14.238  66.514  1.00  0.00    -0.528 NA 
HETATM   13  H   UNL     1     -13.424  14.272  66.743  1.00  0.00     0.000 HD 
BRANCH  12  14
HETATM   14  C   UNL     1     -11.697  13.419  67.494  1.00  0.00    -0.366 C  
BRANCH  14  15
HETATM   15  C   UNL     1     -10.980  14.248  68.586  1.00  0.00    -0.252 C  
HETATM   16  H   UNL     1     -11.445  15.727  69.799  1.00  0.00     0.000 HD 
HETATM   17  O   UNL     1     -11.885  15.218  69.128  1.00  0.00    -0.316 OA 
BRANCH  15  18
HETATM   18  C   UNL     1      -9.681  14.886  68.138  1.00  0.00    -0.214 A  
HETATM   19  C   UNL     1      -9.653  16.263  67.853  1.00  0.00    -0.227 A  
HETATM   20  C   UNL     1      -8.480  16.887  67.413  1.00  0.00    -0.190 A  
HETATM   21  H   UNL     1      -5.359  16.106  66.723  1.00  0.00     0.000 HD 
HETATM   22  C   UNL     1      -7.320  16.113  67.281  1.00  0.00    -0.192 A  
HETATM   23  C   UNL     1      -8.499  14.143  68.016  1.00  0.00    -0.171 A  
HETATM   24  C   UNL     1      -7.323  14.755  67.589  1.00  0.00    -0.206 A  
HETATM   25  O   UNL     1      -6.146  16.631  66.812  1.00  0.00    -0.247 OA 
BRANCH  20  26
HETATM   26  N   UNL     1      -8.429  18.263  67.119  1.00  0.00    -0.246 N  
HETATM   27  H   UNL     1      -8.025  18.518  66.218  1.00  0.00     0.000 HD 
HETATM   28  O   UNL     1      -8.757  20.462  67.559  1.00  0.00    -0.329 OA 
HETATM   29  C   UNL     1      -8.859  19.294  67.906  1.00  0.00    -0.312 C  
ENDBRANCH  20  26
ENDBRANCH  15  18
ENDBRANCH  14  15
ENDBRANCH  12  14
ENDBRANCH  10  12
ENDBRANCH   9  10
ENDBRANCH   6   9
ENDBRANCH   2   3
TORSDOF 8
ENDMDL
MODEL      254
REMARK 921   NORMALIZED FREE ENERGY PREDICTED BY IDOCK:   -3.90 KCAL/MOL
REMARK 922        TOTAL FREE ENERGY PREDICTED BY IDOCK:   -7.39 KCAL/MOL
REMARK 923 INTER-LIGAND FREE ENERGY PREDICTED BY IDOCK:   -6.64 KCAL/MOL
REMARK 924 INTRA-LIGAND FREE ENERGY PREDICTED BY IDOCK:   -0.75 KCAL/MOL
REMARK 927      BINDING AFFINITY PREDICTED BY RF-SCORE:    0.00 PKD
ROOT
HETATM    1  C   UNL     1      -5.399  17.931  70.142  1.00  0.00    -0.236 C  
HETATM    2  O   UNL     1      -6.283  18.518  69.196  1.00  0.00    -0.228 OA 
ENDROOT
BRANCH   2   3
HETATM    3  C   UNL     1      -7.034  17.658  68.444  1.00  0.00    -0.222 A  
HETATM    4  C   UNL     1      -6.609  16.435  67.925  1.00  0.00    -0.148 A  
HETATM    5  C   UNL     1      -7.462  15.677  67.116  1.00  0.00    -0.253 A  
HETATM    6  C   UNL     1      -8.758  16.127  66.829  1.00  0.00    -0.273 A  
HETATM    7  C   UNL     1      -8.335  18.091  68.186  1.00  0.00    -0.273 A  
HETATM    8  C   UNL     1      -9.191  17.335  67.385  1.00  0.00    -0.231 A  
BRANCH   6   9
HETATM    9  C   UNL     1      -9.633  15.410  65.828  1.00  0.00    -0.368 C  
BRANCH   9  10
HETATM   10  C   UNL     1     -10.361  14.139  66.326  1.00  0.00    -0.292 C  
HETATM   11  C   UNL     1      -9.414  12.932  66.333  1.00  0.00    -0.228 C  
BRANCH  10  12
HETATM   12  N   UNL     1     -10.883  14.290  67.699  1.00  0.00    -0.265 NA 
HETATM   13  H   UNL     1     -11.178  15.251  67.870  1.00  0.00     0.000 HD 
BRANCH  12  14
HETATM   14  C   UNL     1     -11.967  13.346  68.020  1.00  0.00    -0.322 C  
BRANCH  14  15
HETATM   15  C   UNL     1     -12.257  13.223  69.535  1.00  0.00    -0.178 C  
HETATM   16  H   UNL     1     -11.733  14.174  71.177  1.00  0.00     0.000 HD 
HETATM   17  O   UNL     1     -11.556  14.250  70.246  1.00  0.00    -0.269 OA 
BRANCH  15  18
HETATM   18  C   UNL     1     -11.980  11.852  70.117  1.00  0.00    -0.413 A  
HETATM   19  C   UNL     1     -10.884  11.110  69.640  1.00  0.00    -0.200 A  
HETATM   20  C   UNL     1     -10.607   9.830  70.133  1.00  0.00    -0.285 A  
HETATM   21  H   UNL     1     -11.827   7.690  72.316  1.00  0.00     0.000 HD 
HETATM   22  C   UNL     1     -11.435   9.306  71.134  1.00  0.00    -0.333 A  
HETATM   23  C   UNL     1     -12.777  11.308  71.133  1.00  0.00    -0.492 A  
HETATM   24  C   UNL     1     -12.505  10.039  71.639  1.00  0.00    -0.513 A  
HETATM   25  O   UNL     1     -11.265   8.046  71.636  1.00  0.00    -0.242 OA 
BRANCH  20  26
HETATM   26  N   UNL     1      -9.518   9.067  69.669  1.00  0.00    -0.166 N  
HETATM   27  H   UNL     1      -9.608   8.055  69.748  1.00  0.00     0.000 HD 
HETATM   28  O   UNL     1      -7.460   8.781  68.762  1.00  0.00    -0.081 OA 
HETATM   29  C   UNL     1      -8.354   9.533  69.126  1.00  0.00    -0.125 C  
ENDBRANCH  20  26
ENDBRANCH  15  18
ENDBRANCH  14  15
ENDBRANCH  12  14
ENDBRANCH  10  12
ENDBRANCH   9  10
ENDBRANCH   6   9
ENDBRANCH   2   3
TORSDOF 8
ENDMDL
MODEL      255
REMARK 921   NORMALIZED FREE ENERGY PREDICTED BY IDOCK:   -3.90 KCAL/MOL
REMARK 922        TOTAL FREE ENERGY PREDICTED BY IDOCK:   -7.38 KCAL/MOL
REMARK 923 INTER-LIGAND FREE ENERGY PREDICTED BY IDOCK:   -6.64 KCAL/MOL
REMARK 924 INTRA-LIGAND FREE ENERGY PREDICTED BY IDOCK:   -0.75 KCAL/MOL
REMARK 927      BINDING AFFINITY PREDICTED BY RF-SCORE:    0.00 PKD
ROOT
HETATM    1  C   UNL     1     -12.174   6.593  71.640  1.00  0.00    -0.352 C  
HETATM    2  O   UNL     1     -10.899   6.374  71.052  1.00  0.00    -0.239 OA 
ENDROOT
BRANCH   2   3
HETATM    3  C   UNL     1     -10.248   7.477  70.573  1.00  0.00    -0.201 A  
HETATM    4  C   UNL     1     -10.396   8.784  71.037  1.00  0.00    -0.297 A  
HETATM    5  C   UNL     1      -9.714   9.835  70.416  1.00  0.00    -0.244 A  
HETATM    6  C   UNL     1      -8.862   9.589  69.331  1.00  0.00    -0.172 A  
HETATM    7  C   UNL     1      -9.375   7.226  69.515  1.00  0.00    -0.152 A  
HETATM    8  C   UNL     1      -8.688   8.271  68.896  1.00  0.00    -0.137 A  
BRANCH   6   9
HETATM    9  C   UNL     1      -8.248  10.722  68.543  1.00  0.00    -0.136 C  
BRANCH   9  10
HETATM   10  C   UNL     1      -7.171  11.566  69.265  1.00  0.00    -0.048 C  
HETATM   11  C   UNL     1      -6.039  10.675  69.790  1.00  0.00    -0.074 C  
BRANCH  10  12
HETATM   12  N   UNL     1      -6.556  12.573  68.377  1.00  0.00    -0.064 NA 
HETATM   13  H   UNL     1      -5.833  12.149  67.796  1.00  0.00     0.000 HD 
BRANCH  12  14
HETATM   14  C   UNL     1      -7.534  13.298  67.547  1.00  0.00    -0.157 C  
BRANCH  14  15
HETATM   15  C   UNL     1      -7.582  14.819  67.826  1.00  0.00    -0.160 C  
HETATM   16  H   UNL     1      -7.812  15.981  69.399  1.00  0.00     0.000 HD 
HETATM   17  O   UNL     1      -7.782  15.047  69.227  1.00  0.00    -0.173 OA 
BRANCH  15  18
HETATM   18  C   UNL     1      -8.588  15.579  66.988  1.00  0.00    -0.262 A  
HETATM   19  C   UNL     1      -9.432  14.870  66.114  1.00  0.00    -0.328 A  
HETATM   20  C   UNL     1     -10.359  15.536  65.303  1.00  0.00    -0.386 A  
HETATM   21  H   UNL     1     -11.346  18.611  64.668  1.00  0.00     0.000 HD 
HETATM   22  C   UNL     1     -10.446  16.931  65.395  1.00  0.00    -0.154 A  
HETATM   23  C   UNL     1      -8.713  16.973  67.070  1.00  0.00    -0.240 A  
HETATM   24  C   UNL     1      -9.639  17.646  66.276  1.00  0.00    -0.259 A  
HETATM   25  O   UNL     1     -11.287  17.664  64.605  1.00  0.00    -0.733 OA 
BRANCH  20  26
HETATM   26  N   UNL     1     -11.212  14.849  64.419  1.00  0.00    -0.646 N  
HETATM   27  H   UNL     1     -11.142  15.102  63.434  1.00  0.00     0.000 HD 
HETATM   28  O   UNL     1     -12.827  13.350  63.887  1.00  0.00    -0.603 OA 
HETATM   29  C   UNL     1     -12.123  13.880  64.734  1.00  0.00    -0.419 C  
ENDBRANCH  20  26
ENDBRANCH  15  18
ENDBRANCH  14  15
ENDBRANCH  12  14
ENDBRANCH  10  12
ENDBRANCH   9  10
ENDBRANCH   6   9
ENDBRANCH   2   3
TORSDOF 8
ENDMDL
MODEL      256
REMARK 921   NORMALIZED FREE ENERGY PREDICTED BY IDOCK:   -3.90 KCAL/MOL
REMARK 922        TOTAL FREE ENERGY PREDICTED BY IDOCK:   -7.38 KCAL/MOL
REMARK 923 INTER-LIGAND FREE ENERGY PREDICTED BY IDOCK:   -6.44 KCAL/MOL
REMARK 924 INTRA-LIGAND FREE ENERGY PREDICTED BY IDOCK:   -0.94 KCAL/MOL
REMARK 927      BINDING AFFINITY PREDICTED BY RF-SCORE:    0.00 PKD
ROOT
HETATM    1  C   UNL     1      -8.667   3.290  64.465  1.00  0.00    -0.099 C  
HETATM    2  O   UNL     1      -9.245   4.105  65.476  1.00  0.00    -0.132 OA 
ENDROOT
BRANCH   2   3
HETATM    3  C   UNL     1      -8.927   5.435  65.447  1.00  0.00    -0.124 A  
HETATM    4  C   UNL     1      -9.323   6.394  66.379  1.00  0.00    -0.176 A  
HETATM    5  C   UNL     1      -8.979   7.737  66.198  1.00  0.00    -0.201 A  
HETATM    6  C   UNL     1      -8.221   8.136  65.088  1.00  0.00    -0.156 A  
HETATM    7  C   UNL     1      -8.145   5.825  64.360  1.00  0.00    -0.133 A  
HETATM    8  C   UNL     1      -7.795   7.163  64.178  1.00  0.00    -0.113 A  
BRANCH   6   9
HETATM    9  C   UNL     1      -7.982   9.597  64.786  1.00  0.00    -0.129 C  
BRANCH   9  10
HETATM   10  C   UNL     1      -8.801  10.619  65.608  1.00  0.00    -0.186 C  
HETATM   11  C   UNL     1      -7.922  11.303  66.663  1.00  0.00    -0.159 C  
BRANCH  10  12
HETATM   12  N   UNL     1      -9.379  11.686  64.766  1.00  0.00    -0.420 NA 
HETATM   13  H   UNL     1      -8.779  11.878  63.964  1.00  0.00     0.000 HD 
BRANCH  12  14
HETATM   14  C   UNL     1     -10.758  11.407  64.331  1.00  0.00    -0.342 C  
BRANCH  14  15
HETATM   15  C   UNL     1     -11.780  12.480  64.775  1.00  0.00    -0.358 C  
HETATM   16  H   UNL     1     -12.248  14.319  64.249  1.00  0.00     0.000 HD 
HETATM   17  O   UNL     1     -11.620  13.659  63.977  1.00  0.00    -0.378 OA 
BRANCH  15  18
HETATM   18  C   UNL     1     -11.751  12.800  66.255  1.00  0.00    -0.460 A  
HETATM   19  C   UNL     1     -11.677  14.143  66.668  1.00  0.00    -0.422 A  
HETATM   20  C   UNL     1     -11.623  14.481  68.025  1.00  0.00    -0.336 A  
HETATM   21  H   UNL     1     -11.600  12.989  70.958  1.00  0.00     0.000 HD 
HETATM   22  C   UNL     1     -11.667  13.451  68.973  1.00  0.00    -0.323 A  
HETATM   23  C   UNL     1     -11.813  11.793  67.228  1.00  0.00    -0.186 A  
HETATM   24  C   UNL     1     -11.771  12.118  68.582  1.00  0.00    -0.382 A  
HETATM   25  O   UNL     1     -11.570  13.689  70.315  1.00  0.00    -0.216 OA 
BRANCH  20  26
HETATM   26  N   UNL     1     -11.546  15.817  68.462  1.00  0.00    -0.377 N  
HETATM   27  H   UNL     1     -12.433  16.288  68.639  1.00  0.00     0.000 HD 
HETATM   28  O   UNL     1     -10.457  17.718  69.046  1.00  0.00    -0.332 OA 
HETATM   29  C   UNL     1     -10.415  16.554  68.674  1.00  0.00    -0.304 C  
ENDBRANCH  20  26
ENDBRANCH  15  18
ENDBRANCH  14  15
ENDBRANCH  12  14
ENDBRANCH  10  12
ENDBRANCH   9  10
ENDBRANCH   6   9
ENDBRANCH   2   3
TORSDOF 8
ENDMDL
MODEL      257
REMARK 921   NORMALIZED FREE ENERGY PREDICTED BY IDOCK:   -3.88 KCAL/MOL
REMARK 922        TOTAL FREE ENERGY PREDICTED BY IDOCK:   -7.35 KCAL/MOL
REMARK 923 INTER-LIGAND FREE ENERGY PREDICTED BY IDOCK:   -6.19 KCAL/MOL
REMARK 924 INTRA-LIGAND FREE ENERGY PREDICTED BY IDOCK:   -1.16 KCAL/MOL
REMARK 927      BINDING AFFINITY PREDICTED BY RF-SCORE:    0.00 PKD
ROOT
HETATM    1  C   UNL     1      -8.590  18.827  66.211  1.00  0.00    -0.234 C  
HETATM    2  O   UNL     1      -9.152  17.523  66.144  1.00  0.00    -0.445 OA 
ENDROOT
BRANCH   2   3
HETATM    3  C   UNL     1      -9.637  17.004  67.312  1.00  0.00    -0.244 A  
HETATM    4  C   UNL     1     -10.159  17.733  68.380  1.00  0.00    -0.376 A  
HETATM    5  C   UNL     1     -10.566  17.080  69.548  1.00  0.00    -0.168 A  
HETATM    6  C   UNL     1     -10.470  15.686  69.656  1.00  0.00    -0.283 A  
HETATM    7  C   UNL     1      -9.571  15.614  67.405  1.00  0.00    -0.217 A  
HETATM    8  C   UNL     1      -9.981  14.958  68.567  1.00  0.00    -0.223 A  
BRANCH   6   9
HETATM    9  C   UNL     1     -10.746  14.980  70.963  1.00  0.00     0.083 C  
BRANCH   9  10
HETATM   10  C   UNL     1     -12.153  14.364  71.136  1.00  0.00    -0.341 C  
HETATM   11  C   UNL     1     -13.245  15.408  70.869  1.00  0.00    -0.512 C  
BRANCH  10  12
HETATM   12  N   UNL     1     -12.394  13.238  70.211  1.00  0.00    -0.298 NA 
HETATM   13  H   UNL     1     -11.837  13.342  69.363  1.00  0.00     0.000 HD 
BRANCH  12  14
HETATM   14  C   UNL     1     -12.169  11.918  70.824  1.00  0.00    -0.303 C  
BRANCH  14  15
HETATM   15  C   UNL     1     -12.030  10.770  69.797  1.00  0.00    -0.325 C  
HETATM   16  H   UNL     1     -11.954   8.803  69.848  1.00  0.00     0.000 HD 
HETATM   17  O   UNL     1     -12.039   9.508  70.478  1.00  0.00    -0.208 OA 
BRANCH  15  18
HETATM   18  C   UNL     1     -10.838  10.895  68.872  1.00  0.00    -0.262 A  
HETATM   19  C   UNL     1     -11.045  11.246  67.525  1.00  0.00    -0.346 A  
HETATM   20  C   UNL     1      -9.973  11.349  66.631  1.00  0.00    -0.208 A  
HETATM   21  H   UNL     1      -6.702  10.987  66.621  1.00  0.00     0.000 HD 
HETATM   22  C   UNL     1      -8.678  11.114  67.111  1.00  0.00    -0.141 A  
HETATM   23  C   UNL     1      -9.528  10.687  69.325  1.00  0.00    -0.152 A  
HETATM   24  C   UNL     1      -8.452  10.796  68.447  1.00  0.00    -0.137 A  
HETATM   25  O   UNL     1      -7.581  11.145  66.296  1.00  0.00    -0.140 OA 
BRANCH  20  26
HETATM   26  N   UNL     1     -10.155  11.696  65.279  1.00  0.00    -0.254 N  
HETATM   27  H   UNL     1      -9.783  12.599  64.989  1.00  0.00     0.000 HD 
HETATM   28  O   UNL     1     -10.892  11.357  63.162  1.00  0.00    -0.284 OA 
HETATM   29  C   UNL     1     -10.776  10.956  64.312  1.00  0.00    -0.171 C  
ENDBRANCH  20  26
ENDBRANCH  15  18
ENDBRANCH  14  15
ENDBRANCH  12  14
ENDBRANCH  10  12
ENDBRANCH   9  10
ENDBRANCH   6   9
ENDBRANCH   2   3
TORSDOF 8
ENDMDL
MODEL      258
REMARK 921   NORMALIZED FREE ENERGY PREDICTED BY IDOCK:   -3.88 KCAL/MOL
REMARK 922        TOTAL FREE ENERGY PREDICTED BY IDOCK:   -7.35 KCAL/MOL
REMARK 923 INTER-LIGAND FREE ENERGY PREDICTED BY IDOCK:   -6.77 KCAL/MOL
REMARK 924 INTRA-LIGAND FREE ENERGY PREDICTED BY IDOCK:   -0.58 KCAL/MOL
REMARK 927      BINDING AFFINITY PREDICTED BY RF-SCORE:    0.00 PKD
ROOT
HETATM    1  C   UNL     1      -6.609   6.969  74.403  1.00  0.00    -0.086 C  
HETATM    2  O   UNL     1      -7.914   6.418  74.522  1.00  0.00    -0.111 OA 
ENDROOT
BRANCH   2   3
HETATM    3  C   UNL     1      -8.639   6.305  73.367  1.00  0.00    -0.122 A  
HETATM    4  C   UNL     1      -8.355   5.453  72.301  1.00  0.00    -0.122 A  
HETATM    5  C   UNL     1      -9.146   5.480  71.147  1.00  0.00    -0.159 A  
HETATM    6  C   UNL     1     -10.240   6.350  71.053  1.00  0.00    -0.227 A  
HETATM    7  C   UNL     1      -9.747   7.148  73.289  1.00  0.00    -0.251 A  
HETATM    8  C   UNL     1     -10.541   7.174  72.142  1.00  0.00    -0.238 A  
BRANCH   6   9
HETATM    9  C   UNL     1     -11.003   6.514  69.759  1.00  0.00    -0.396 C  
BRANCH   9  10
HETATM   10  C   UNL     1     -10.437   7.535  68.744  1.00  0.00    -0.194 C  
HETATM   11  C   UNL     1     -10.372   6.929  67.337  1.00  0.00    -0.297 C  
BRANCH  10  12
HETATM   12  N   UNL     1     -11.262   8.756  68.654  1.00  0.00    -0.276 NA 
HETATM   13  H   UNL     1     -11.763   8.920  69.527  1.00  0.00     0.000 HD 
BRANCH  12  14
HETATM   14  C   UNL     1     -10.497   9.951  68.259  1.00  0.00    -0.210 C  
BRANCH  14  15
HETATM   15  C   UNL     1     -11.141  11.282  68.715  1.00  0.00    -0.233 C  
HETATM   16  H   UNL     1     -12.840  11.845  69.535  1.00  0.00     0.000 HD 
HETATM   17  O   UNL     1     -12.444  11.028  69.255  1.00  0.00    -0.400 OA 
BRANCH  15  18
HETATM   18  C   UNL     1     -11.179  12.358  67.650  1.00  0.00    -0.340 A  
HETATM   19  C   UNL     1     -10.740  13.657  67.967  1.00  0.00    -0.258 A  
HETATM   20  C   UNL     1     -10.782  14.687  67.020  1.00  0.00    -0.290 A  
HETATM   21  H   UNL     1     -11.692  15.149  63.891  1.00  0.00     0.000 HD 
HETATM   22  C   UNL     1     -11.253  14.393  65.734  1.00  0.00    -0.326 A  
HETATM   23  C   UNL     1     -11.626  12.092  66.348  1.00  0.00    -0.429 A  
HETATM   24  C   UNL     1     -11.662  13.106  65.394  1.00  0.00    -0.383 A  
HETATM   25  O   UNL     1     -11.372  15.349  64.764  1.00  0.00    -0.412 OA 
BRANCH  20  26
HETATM   26  N   UNL     1     -10.351  15.993  67.315  1.00  0.00    -0.290 N  
HETATM   27  H   UNL     1      -9.535  16.328  66.803  1.00  0.00     0.000 HD 
HETATM   28  O   UNL     1     -10.442  17.981  68.401  1.00  0.00    -0.366 OA 
HETATM   29  C   UNL     1     -10.904  16.865  68.211  1.00  0.00    -0.357 C  
ENDBRANCH  20  26
ENDBRANCH  15  18
ENDBRANCH  14  15
ENDBRANCH  12  14
ENDBRANCH  10  12
ENDBRANCH   9  10
ENDBRANCH   6   9
ENDBRANCH   2   3
TORSDOF 8
ENDMDL
MODEL      259
REMARK 921   NORMALIZED FREE ENERGY PREDICTED BY IDOCK:   -3.87 KCAL/MOL
REMARK 922        TOTAL FREE ENERGY PREDICTED BY IDOCK:   -7.35 KCAL/MOL
REMARK 923 INTER-LIGAND FREE ENERGY PREDICTED BY IDOCK:   -6.76 KCAL/MOL
REMARK 924 INTRA-LIGAND FREE ENERGY PREDICTED BY IDOCK:   -0.58 KCAL/MOL
REMARK 927      BINDING AFFINITY PREDICTED BY RF-SCORE:    0.00 PKD
ROOT
HETATM    1  C   UNL     1     -11.490   6.449  70.604  1.00  0.00    -0.362 C  
HETATM    2  O   UNL     1     -11.245   6.464  69.203  1.00  0.00    -0.353 OA 
ENDROOT
BRANCH   2   3
HETATM    3  C   UNL     1     -10.606   7.565  68.705  1.00  0.00    -0.142 A  
HETATM    4  C   UNL     1      -9.960   8.548  69.453  1.00  0.00    -0.194 A  
HETATM    5  C   UNL     1      -9.395   9.660  68.819  1.00  0.00    -0.148 A  
HETATM    6  C   UNL     1      -9.458   9.795  67.426  1.00  0.00    -0.178 A  
HETATM    7  C   UNL     1     -10.641   7.681  67.315  1.00  0.00    -0.388 A  
HETATM    8  C   UNL     1     -10.074   8.786  66.678  1.00  0.00    -0.358 A  
BRANCH   6   9
HETATM    9  C   UNL     1      -9.005  11.062  66.739  1.00  0.00    -0.163 C  
BRANCH   9  10
HETATM   10  C   UNL     1     -10.115  12.020  66.248  1.00  0.00    -0.222 C  
HETATM   11  C   UNL     1     -11.285  12.057  67.240  1.00  0.00    -0.371 C  
BRANCH  10  12
HETATM   12  N   UNL     1      -9.634  13.408  66.092  1.00  0.00    -0.425 NA 
HETATM   13  H   UNL     1     -10.391  14.021  65.791  1.00  0.00     0.000 HD 
BRANCH  12  14
HETATM   14  C   UNL     1      -8.981  13.940  67.300  1.00  0.00    -0.221 C  
BRANCH  14  15
HETATM   15  C   UNL     1      -9.452  15.362  67.688  1.00  0.00    -0.205 C  
HETATM   16  H   UNL     1     -10.981  16.530  67.268  1.00  0.00     0.000 HD 
HETATM   17  O   UNL     1     -10.691  15.656  67.031  1.00  0.00    -0.313 OA 
BRANCH  15  18
HETATM   18  C   UNL     1      -8.424  16.449  67.452  1.00  0.00    -0.195 A  
HETATM   19  C   UNL     1      -7.811  17.068  68.557  1.00  0.00    -0.251 A  
HETATM   20  C   UNL     1      -6.874  18.094  68.384  1.00  0.00    -0.230 A  
HETATM   21  H   UNL     1      -5.448  19.770  65.936  1.00  0.00     0.000 HD 
HETATM   22  C   UNL     1      -6.541  18.482  67.079  1.00  0.00    -0.188 A  
HETATM   23  C   UNL     1      -8.054  16.846  66.160  1.00  0.00    -0.295 A  
HETATM   24  C   UNL     1      -7.116  17.859  65.975  1.00  0.00    -0.340 A  
HETATM   25  O   UNL     1      -5.674  19.507  66.821  1.00  0.00    -0.171 OA 
BRANCH  20  26
HETATM   26  N   UNL     1      -6.250  18.730  69.473  1.00  0.00    -0.269 N  
HETATM   27  H   UNL     1      -5.438  18.257  69.869  1.00  0.00     0.000 HD 
HETATM   28  O   UNL     1      -6.003  20.374  71.015  1.00  0.00    -0.514 OA 
HETATM   29  C   UNL     1      -6.610  19.911  70.059  1.00  0.00    -0.266 C  
ENDBRANCH  20  26
ENDBRANCH  15  18
ENDBRANCH  14  15
ENDBRANCH  12  14
ENDBRANCH  10  12
ENDBRANCH   9  10
ENDBRANCH   6   9
ENDBRANCH   2   3
TORSDOF 8
ENDMDL
MODEL      260
REMARK 921   NORMALIZED FREE ENERGY PREDICTED BY IDOCK:   -3.86 KCAL/MOL
REMARK 922        TOTAL FREE ENERGY PREDICTED BY IDOCK:   -7.33 KCAL/MOL
REMARK 923 INTER-LIGAND FREE ENERGY PREDICTED BY IDOCK:   -6.56 KCAL/MOL
REMARK 924 INTRA-LIGAND FREE ENERGY PREDICTED BY IDOCK:   -0.76 KCAL/MOL
REMARK 927      BINDING AFFINITY PREDICTED BY RF-SCORE:    0.00 PKD
ROOT
HETATM    1  C   UNL     1      -7.476  20.286  66.689  1.00  0.00    -0.276 C  
HETATM    2  O   UNL     1      -8.680  19.879  66.051  1.00  0.00    -0.366 OA 
ENDROOT
BRANCH   2   3
HETATM    3  C   UNL     1      -9.180  18.658  66.409  1.00  0.00    -0.291 A  
HETATM    4  C   UNL     1     -10.340  18.431  67.149  1.00  0.00    -0.419 A  
HETATM    5  C   UNL     1     -10.709  17.129  67.501  1.00  0.00    -0.276 A  
HETATM    6  C   UNL     1      -9.929  16.034  67.104  1.00  0.00    -0.249 A  
HETATM    7  C   UNL     1      -8.421  17.567  65.984  1.00  0.00    -0.099 A  
HETATM    8  C   UNL     1      -8.788  16.266  66.329  1.00  0.00    -0.367 A  
BRANCH   6   9
HETATM    9  C   UNL     1     -10.216  14.641  67.612  1.00  0.00    -0.232 C  
BRANCH   9  10
HETATM   10  C   UNL     1     -11.700  14.204  67.639  1.00  0.00    -0.387 C  
HETATM   11  C   UNL     1     -12.251  14.046  66.216  1.00  0.00    -0.493 C  
BRANCH  10  12
HETATM   12  N   UNL     1     -11.894  12.912  68.327  1.00  0.00    -0.342 NA 
HETATM   13  H   UNL     1     -12.843  12.836  68.692  1.00  0.00     0.000 HD 
BRANCH  12  14
HETATM   14  C   UNL     1     -11.563  11.747  67.488  1.00  0.00    -0.291 C  
BRANCH  14  15
HETATM   15  C   UNL     1     -11.198  10.480  68.297  1.00  0.00    -0.291 C  
HETATM   16  H   UNL     1     -10.530  10.077  70.105  1.00  0.00     0.000 HD 
HETATM   17  O   UNL     1     -10.754  10.855  69.608  1.00  0.00    -0.238 OA 
BRANCH  15  18
HETATM   18  C   UNL     1     -10.204   9.563  67.614  1.00  0.00    -0.273 A  
HETATM   19  C   UNL     1      -9.956   9.720  66.238  1.00  0.00    -0.331 A  
HETATM   20  C   UNL     1      -9.065   8.879  65.562  1.00  0.00    -0.190 A  
HETATM   21  H   UNL     1      -7.105   6.312  66.198  1.00  0.00     0.000 HD 
HETATM   22  C   UNL     1      -8.403   7.883  66.292  1.00  0.00    -0.126 A  
HETATM   23  C   UNL     1      -9.512   8.570  68.320  1.00  0.00    -0.143 A  
HETATM   24  C   UNL     1      -8.614   7.733  67.660  1.00  0.00    -0.123 A  
HETATM   25  O   UNL     1      -7.554   6.988  65.703  1.00  0.00    -0.084 OA 
BRANCH  20  26
HETATM   26  N   UNL     1      -8.802   9.015  64.187  1.00  0.00    -0.416 N  
HETATM   27  H   UNL     1      -9.342   8.417  63.561  1.00  0.00     0.000 HD 
HETATM   28  O   UNL     1      -7.745   9.891  62.383  1.00  0.00    -0.114 OA 
HETATM   29  C   UNL     1      -7.905   9.859  63.595  1.00  0.00    -0.145 C  
ENDBRANCH  20  26
ENDBRANCH  15  18
ENDBRANCH  14  15
ENDBRANCH  12  14
ENDBRANCH  10  12
ENDBRANCH   9  10
ENDBRANCH   6   9
ENDBRANCH   2   3
TORSDOF 8
ENDMDL
MODEL      261
REMARK 921   NORMALIZED FREE ENERGY PREDICTED BY IDOCK:   -3.86 KCAL/MOL
REMARK 922        TOTAL FREE ENERGY PREDICTED BY IDOCK:   -7.32 KCAL/MOL
REMARK 923 INTER-LIGAND FREE ENERGY PREDICTED BY IDOCK:   -6.73 KCAL/MOL
REMARK 924 INTRA-LIGAND FREE ENERGY PREDICTED BY IDOCK:   -0.59 KCAL/MOL
REMARK 927      BINDING AFFINITY PREDICTED BY RF-SCORE:    0.00 PKD
ROOT
HETATM    1  C   UNL     1      -9.604   3.505  64.104  1.00  0.00    -0.156 C  
HETATM    2  O   UNL     1      -8.301   4.056  64.241  1.00  0.00    -0.093 OA 
ENDROOT
BRANCH   2   3
HETATM    3  C   UNL     1      -8.227   5.392  64.522  1.00  0.00    -0.133 A  
HETATM    4  C   UNL     1      -8.601   6.000  65.720  1.00  0.00    -0.155 A  
HETATM    5  C   UNL     1      -8.532   7.391  65.856  1.00  0.00    -0.155 A  
HETATM    6  C   UNL     1      -8.074   8.189  64.799  1.00  0.00    -0.152 A  
HETATM    7  C   UNL     1      -7.739   6.182  63.481  1.00  0.00    -0.105 A  
HETATM    8  C   UNL     1      -7.664   7.568  63.615  1.00  0.00    -0.126 A  
BRANCH   6   9
HETATM    9  C   UNL     1      -8.149   9.696  64.865  1.00  0.00    -0.133 C  
BRANCH   9  10
HETATM   10  C   UNL     1      -8.166  10.330  66.276  1.00  0.00    -0.131 C  
HETATM   11  C   UNL     1      -6.813  10.976  66.603  1.00  0.00    -0.137 C  
BRANCH  10  12
HETATM   12  N   UNL     1      -9.194  11.382  66.409  1.00  0.00    -0.192 NA 
HETATM   13  H   UNL     1      -9.624  11.583  65.507  1.00  0.00     0.000 HD 
BRANCH  12  14
HETATM   14  C   UNL     1     -10.220  11.073  67.420  1.00  0.00    -0.195 C  
BRANCH  14  15
HETATM   15  C   UNL     1     -11.125  12.276  67.776  1.00  0.00    -0.255 C  
HETATM   16  H   UNL     1     -12.966  12.544  68.419  1.00  0.00     0.000 HD 
HETATM   17  O   UNL     1     -12.410  11.805  68.200  1.00  0.00    -0.389 OA 
BRANCH  15  18
HETATM   18  C   UNL     1     -11.245  13.317  66.682  1.00  0.00    -0.332 A  
HETATM   19  C   UNL     1     -10.489  14.500  66.770  1.00  0.00    -0.270 A  
HETATM   20  C   UNL     1     -10.589  15.497  65.794  1.00  0.00    -0.356 A  
HETATM   21  H   UNL     1     -12.225  16.083  62.999  1.00  0.00     0.000 HD 
HETATM   22  C   UNL     1     -11.448  15.285  64.708  1.00  0.00    -0.363 A  
HETATM   23  C   UNL     1     -12.080  13.126  65.573  1.00  0.00    -0.490 A  
HETATM   24  C   UNL     1     -12.181  14.107  64.589  1.00  0.00    -0.465 A  
HETATM   25  O   UNL     1     -11.642  16.227  63.736  1.00  0.00    -0.952 OA 
BRANCH  20  26
HETATM   26  N   UNL     1      -9.845  16.690  65.862  1.00  0.00    -0.300 N  
HETATM   27  H   UNL     1      -8.937  16.684  65.398  1.00  0.00     0.000 HD 
HETATM   28  O   UNL     1      -9.473  18.836  66.490  1.00  0.00    -0.318 OA 
HETATM   29  C   UNL     1     -10.203  17.855  66.480  1.00  0.00    -0.379 C  
ENDBRANCH  20  26
ENDBRANCH  15  18
ENDBRANCH  14  15
ENDBRANCH  12  14
ENDBRANCH  10  12
ENDBRANCH   9  10
ENDBRANCH   6   9
ENDBRANCH   2   3
TORSDOF 8
ENDMDL
MODEL      262
REMARK 921   NORMALIZED FREE ENERGY PREDICTED BY IDOCK:   -3.86 KCAL/MOL
REMARK 922        TOTAL FREE ENERGY PREDICTED BY IDOCK:   -7.32 KCAL/MOL
REMARK 923 INTER-LIGAND FREE ENERGY PREDICTED BY IDOCK:   -6.40 KCAL/MOL
REMARK 924 INTRA-LIGAND FREE ENERGY PREDICTED BY IDOCK:   -0.92 KCAL/MOL
REMARK 927      BINDING AFFINITY PREDICTED BY RF-SCORE:    0.00 PKD
ROOT
HETATM    1  C   UNL     1      -5.680  15.155  70.626  1.00  0.00    -0.102 C  
HETATM    2  O   UNL     1      -6.070  16.427  70.124  1.00  0.00    -0.190 OA 
ENDROOT
BRANCH   2   3
HETATM    3  C   UNL     1      -7.121  16.444  69.249  1.00  0.00    -0.222 A  
HETATM    4  C   UNL     1      -7.420  17.465  68.347  1.00  0.00    -0.234 A  
HETATM    5  C   UNL     1      -8.565  17.386  67.547  1.00  0.00    -0.221 A  
HETATM    6  C   UNL     1      -9.417  16.276  67.629  1.00  0.00    -0.221 A  
HETATM    7  C   UNL     1      -7.949  15.324  69.308  1.00  0.00    -0.223 A  
HETATM    8  C   UNL     1      -9.089  15.238  68.508  1.00  0.00    -0.192 A  
BRANCH   6   9
HETATM    9  C   UNL     1     -10.739  16.247  66.900  1.00  0.00    -0.217 C  
BRANCH   9  10
HETATM   10  C   UNL     1     -10.731  15.660  65.469  1.00  0.00    -0.389 C  
HETATM   11  C   UNL     1      -9.495  14.779  65.246  1.00  0.00     0.267 C  
BRANCH  10  12
HETATM   12  N   UNL     1     -11.916  14.823  65.196  1.00  0.00    -0.319 NA 
HETATM   13  H   UNL     1     -11.712  14.131  64.476  1.00  0.00     0.000 HD 
BRANCH  12  14
HETATM   14  C   UNL     1     -12.466  14.175  66.400  1.00  0.00    -0.318 C  
BRANCH  14  15
HETATM   15  C   UNL     1     -11.632  12.969  66.894  1.00  0.00    -0.366 C  
HETATM   16  H   UNL     1     -11.212  11.157  66.249  1.00  0.00     0.000 HD 
HETATM   17  O   UNL     1     -11.724  11.898  65.946  1.00  0.00    -0.424 OA 
BRANCH  15  18
HETATM   18  C   UNL     1     -11.971  12.504  68.295  1.00  0.00    -0.274 A  
HETATM   19  C   UNL     1     -12.210  13.460  69.299  1.00  0.00    -0.222 A  
HETATM   20  C   UNL     1     -12.502  13.074  70.612  1.00  0.00    -0.268 A  
HETATM   21  H   UNL     1     -12.851  10.313  72.370  1.00  0.00     0.000 HD 
HETATM   22  C   UNL     1     -12.572  11.705  70.906  1.00  0.00    -0.313 A  
HETATM   23  C   UNL     1     -12.069  11.143  68.617  1.00  0.00    -0.180 A  
HETATM   24  C   UNL     1     -12.369  10.746  69.918  1.00  0.00    -0.340 A  
HETATM   25  O   UNL     1     -12.803  11.241  72.171  1.00  0.00    -0.292 OA 
BRANCH  20  26
HETATM   26  N   UNL     1     -12.742  14.011  71.634  1.00  0.00    -0.338 N  
HETATM   27  H   UNL     1     -13.589  13.875  72.185  1.00  0.00     0.000 HD 
HETATM   28  O   UNL     1     -12.272  15.850  72.874  1.00  0.00    -0.411 OA 
HETATM   29  C   UNL     1     -11.966  15.085  71.971  1.00  0.00    -0.388 C  
ENDBRANCH  20  26
ENDBRANCH  15  18
ENDBRANCH  14  15
ENDBRANCH  12  14
ENDBRANCH  10  12
ENDBRANCH   9  10
ENDBRANCH   6   9
ENDBRANCH   2   3
TORSDOF 8
ENDMDL
MODEL      263
REMARK 921   NORMALIZED FREE ENERGY PREDICTED BY IDOCK:   -3.85 KCAL/MOL
REMARK 922        TOTAL FREE ENERGY PREDICTED BY IDOCK:   -7.31 KCAL/MOL
REMARK 923 INTER-LIGAND FREE ENERGY PREDICTED BY IDOCK:   -6.50 KCAL/MOL
REMARK 924 INTRA-LIGAND FREE ENERGY PREDICTED BY IDOCK:   -0.81 KCAL/MOL
REMARK 927      BINDING AFFINITY PREDICTED BY RF-SCORE:    0.00 PKD
ROOT
HETATM    1  C   UNL     1     -10.731  16.886  68.183  1.00  0.00    -0.375 C  
HETATM    2  O   UNL     1     -10.902  16.315  66.892  1.00  0.00    -0.271 OA 
ENDROOT
BRANCH   2   3
HETATM    3  C   UNL     1     -10.773  14.957  66.801  1.00  0.00    -0.312 A  
HETATM    4  C   UNL     1      -9.661  14.269  66.317  1.00  0.00    -0.321 A  
HETATM    5  C   UNL     1      -9.682  12.873  66.220  1.00  0.00    -0.268 A  
HETATM    6  C   UNL     1     -10.813  12.148  66.621  1.00  0.00    -0.307 A  
HETATM    7  C   UNL     1     -11.887  14.235  67.231  1.00  0.00    -0.444 A  
HETATM    8  C   UNL     1     -11.910  12.842  67.141  1.00  0.00    -0.424 A  
BRANCH   6   9
HETATM    9  C   UNL     1     -10.920  10.662  66.370  1.00  0.00    -0.056 C  
BRANCH   9  10
HETATM   10  C   UNL     1     -10.783   9.738  67.602  1.00  0.00    -0.274 C  
HETATM   11  C   UNL     1     -10.384   8.318  67.181  1.00  0.00    -0.387 C  
BRANCH  10  12
HETATM   12  N   UNL     1      -9.758  10.214  68.553  1.00  0.00    -0.150 NA 
HETATM   13  H   UNL     1      -9.510  11.184  68.361  1.00  0.00     0.000 HD 
BRANCH  12  14
HETATM   14  C   UNL     1     -10.144  10.043  69.964  1.00  0.00    -0.239 C  
BRANCH  14  15
HETATM   15  C   UNL     1      -9.141   9.202  70.787  1.00  0.00    -0.255 C  
HETATM   16  H   UNL     1      -7.432   8.280  70.456  1.00  0.00     0.000 HD 
HETATM   17  O   UNL     1      -8.049   8.797  69.951  1.00  0.00    -0.100 OA 
BRANCH  15  18
HETATM   18  C   UNL     1      -9.756   8.021  71.510  1.00  0.00    -0.213 A  
HETATM   19  C   UNL     1      -9.559   6.724  71.003  1.00  0.00    -0.175 A  
HETATM   20  C   UNL     1     -10.130   5.608  71.626  1.00  0.00    -0.195 A  
HETATM   21  H   UNL     1     -12.039   4.915  74.215  1.00  0.00     0.000 HD 
HETATM   22  C   UNL     1     -10.890   5.807  72.785  1.00  0.00    -0.255 A  
HETATM   23  C   UNL     1     -10.506   8.185  72.683  1.00  0.00    -0.401 A  
HETATM   24  C   UNL     1     -11.071   7.081  73.318  1.00  0.00    -0.217 A  
HETATM   25  O   UNL     1     -11.524   4.781  73.428  1.00  0.00    -0.338 OA 
BRANCH  20  26
HETATM   26  N   UNL     1      -9.949   4.302  71.136  1.00  0.00    -0.182 N  
HETATM   27  H   UNL     1     -10.117   3.543  71.795  1.00  0.00     0.000 HD 
HETATM   28  O   UNL     1      -9.432   2.765  69.551  1.00  0.00    -0.141 OA 
HETATM   29  C   UNL     1      -9.572   3.936  69.874  1.00  0.00    -0.200 C  
ENDBRANCH  20  26
ENDBRANCH  15  18
ENDBRANCH  14  15
ENDBRANCH  12  14
ENDBRANCH  10  12
ENDBRANCH   9  10
ENDBRANCH   6   9
ENDBRANCH   2   3
TORSDOF 8
ENDMDL
MODEL      264
REMARK 921   NORMALIZED FREE ENERGY PREDICTED BY IDOCK:   -3.84 KCAL/MOL
REMARK 922        TOTAL FREE ENERGY PREDICTED BY IDOCK:   -7.30 KCAL/MOL
REMARK 923 INTER-LIGAND FREE ENERGY PREDICTED BY IDOCK:   -6.22 KCAL/MOL
REMARK 924 INTRA-LIGAND FREE ENERGY PREDICTED BY IDOCK:   -1.08 KCAL/MOL
REMARK 927      BINDING AFFINITY PREDICTED BY RF-SCORE:    0.00 PKD
ROOT
HETATM    1  C   UNL     1      -6.843   9.694  70.557  1.00  0.00    -0.126 C  
HETATM    2  O   UNL     1      -5.767  10.621  70.611  1.00  0.00    -0.093 OA 
ENDROOT
BRANCH   2   3
HETATM    3  C   UNL     1      -6.056  11.916  70.278  1.00  0.00    -0.103 A  
HETATM    4  C   UNL     1      -5.570  13.056  70.917  1.00  0.00    -0.180 A  
HETATM    5  C   UNL     1      -5.995  14.326  70.513  1.00  0.00    -0.183 A  
HETATM    6  C   UNL     1      -6.901  14.471  69.454  1.00  0.00    -0.149 A  
HETATM    7  C   UNL     1      -6.933  12.060  69.203  1.00  0.00    -0.066 A  
HETATM    8  C   UNL     1      -7.355  13.325  68.794  1.00  0.00    -0.070 A  
BRANCH   6   9
HETATM    9  C   UNL     1      -7.499  15.816  69.113  1.00  0.00    -0.207 C  
BRANCH   9  10
HETATM   10  C   UNL     1      -6.525  16.897  68.589  1.00  0.00    -0.169 C  
HETATM   11  C   UNL     1      -5.589  16.318  67.520  1.00  0.00    -0.174 C  
BRANCH  10  12
HETATM   12  N   UNL     1      -7.228  18.041  67.977  1.00  0.00    -0.224 NA 
HETATM   13  H   UNL     1      -6.562  18.728  67.623  1.00  0.00     0.000 HD 
BRANCH  12  14
HETATM   14  C   UNL     1      -8.181  17.649  66.924  1.00  0.00    -0.225 C  
BRANCH  14  15
HETATM   15  C   UNL     1      -9.657  17.944  67.279  1.00  0.00    -0.273 C  
HETATM   16  H   UNL     1     -10.632  19.240  68.396  1.00  0.00     0.000 HD 
HETATM   17  O   UNL     1      -9.725  19.058  68.178  1.00  0.00    -0.317 OA 
BRANCH  15  18
HETATM   18  C   UNL     1     -10.426  16.751  67.811  1.00  0.00    -0.335 A  
HETATM   19  C   UNL     1     -10.757  15.700  66.936  1.00  0.00    -0.307 A  
HETATM   20  C   UNL     1     -11.487  14.592  67.380  1.00  0.00    -0.369 A  
HETATM   21  H   UNL     1     -12.880  13.482  70.148  1.00  0.00     0.000 HD 
HETATM   22  C   UNL     1     -11.867  14.539  68.728  1.00  0.00    -0.315 A  
HETATM   23  C   UNL     1     -10.803  16.659  69.157  1.00  0.00    -0.315 A  
HETATM   24  C   UNL     1     -11.521  15.556  69.614  1.00  0.00    -0.337 A  
HETATM   25  O   UNL     1     -12.622  13.518  69.233  1.00  0.00    -0.044 OA 
BRANCH  20  26
HETATM   26  N   UNL     1     -11.832  13.530  66.524  1.00  0.00    -0.377 N  
HETATM   27  H   UNL     1     -11.331  12.654  66.664  1.00  0.00     0.000 HD 
HETATM   28  O   UNL     1     -12.983  12.562  64.827  1.00  0.00    -0.827 OA 
HETATM   29  C   UNL     1     -12.766  13.542  65.525  1.00  0.00    -0.440 C  
ENDBRANCH  20  26
ENDBRANCH  15  18
ENDBRANCH  14  15
ENDBRANCH  12  14
ENDBRANCH  10  12
ENDBRANCH   9  10
ENDBRANCH   6   9
ENDBRANCH   2   3
TORSDOF 8
ENDMDL
MODEL      265
REMARK 921   NORMALIZED FREE ENERGY PREDICTED BY IDOCK:   -3.83 KCAL/MOL
REMARK 922        TOTAL FREE ENERGY PREDICTED BY IDOCK:   -7.28 KCAL/MOL
REMARK 923 INTER-LIGAND FREE ENERGY PREDICTED BY IDOCK:   -6.55 KCAL/MOL
REMARK 924 INTRA-LIGAND FREE ENERGY PREDICTED BY IDOCK:   -0.74 KCAL/MOL
REMARK 927      BINDING AFFINITY PREDICTED BY RF-SCORE:    0.00 PKD
ROOT
HETATM    1  C   UNL     1      -7.415  17.853  66.223  1.00  0.00    -0.286 C  
HETATM    2  O   UNL     1      -8.358  18.215  67.224  1.00  0.00    -0.235 OA 
ENDROOT
BRANCH   2   3
HETATM    3  C   UNL     1      -9.326  17.294  67.516  1.00  0.00    -0.236 A  
HETATM    4  C   UNL     1     -10.454  17.512  68.305  1.00  0.00    -0.383 A  
HETATM    5  C   UNL     1     -11.339  16.463  68.576  1.00  0.00    -0.289 A  
HETATM    6  C   UNL     1     -11.112  15.185  68.048  1.00  0.00    -0.310 A  
HETATM    7  C   UNL     1      -9.116  16.031  66.962  1.00  0.00    -0.234 A  
HETATM    8  C   UNL     1      -9.999  14.983  67.226  1.00  0.00    -0.233 A  
BRANCH   6   9
HETATM    9  C   UNL     1     -11.958  14.004  68.462  1.00  0.00    -0.383 C  
BRANCH   9  10
HETATM   10  C   UNL     1     -11.344  13.042  69.506  1.00  0.00    -0.155 C  
HETATM   11  C   UNL     1     -12.350  12.731  70.622  1.00  0.00    -0.381 C  
BRANCH  10  12
HETATM   12  N   UNL     1     -10.939  11.752  68.914  1.00  0.00    -0.229 NA 
HETATM   13  H   UNL     1     -11.142  10.982  69.552  1.00  0.00     0.000 HD 
BRANCH  12  14
HETATM   14  C   UNL     1     -11.534  11.502  67.590  1.00  0.00    -0.285 C  
BRANCH  14  15
HETATM   15  C   UNL     1     -10.491  11.251  66.476  1.00  0.00    -0.253 C  
HETATM   16  H   UNL     1     -10.382  11.516  64.528  1.00  0.00     0.000 HD 
HETATM   17  O   UNL     1     -11.022  11.671  65.212  1.00  0.00    -0.298 OA 
BRANCH  15  18
HETATM   18  C   UNL     1      -9.966   9.831  66.416  1.00  0.00    -0.314 A  
HETATM   19  C   UNL     1     -10.464   8.874  67.319  1.00  0.00    -0.348 A  
HETATM   20  C   UNL     1      -9.988   7.558  67.314  1.00  0.00    -0.210 A  
HETATM   21  H   UNL     1      -7.800   5.713  65.690  1.00  0.00     0.000 HD 
HETATM   22  C   UNL     1      -9.015   7.203  66.372  1.00  0.00    -0.155 A  
HETATM   23  C   UNL     1      -9.007   9.440  65.472  1.00  0.00    -0.248 A  
HETATM   24  C   UNL     1      -8.533   8.130  65.451  1.00  0.00    -0.164 A  
HETATM   25  O   UNL     1      -8.461   5.954  66.329  1.00  0.00    -0.120 OA 
BRANCH  20  26
HETATM   26  N   UNL     1     -10.469   6.584  68.209  1.00  0.00    -0.196 N  
HETATM   27  H   UNL     1     -10.557   5.637  67.843  1.00  0.00     0.000 HD 
HETATM   28  O   UNL     1     -11.250   5.850  70.207  1.00  0.00    -0.332 OA 
HETATM   29  C   UNL     1     -10.831   6.767  69.515  1.00  0.00    -0.273 C  
ENDBRANCH  20  26
ENDBRANCH  15  18
ENDBRANCH  14  15
ENDBRANCH  12  14
ENDBRANCH  10  12
ENDBRANCH   9  10
ENDBRANCH   6   9
ENDBRANCH   2   3
TORSDOF 8
ENDMDL
MODEL      266
REMARK 921   NORMALIZED FREE ENERGY PREDICTED BY IDOCK:   -3.83 KCAL/MOL
REMARK 922        TOTAL FREE ENERGY PREDICTED BY IDOCK:   -7.28 KCAL/MOL
REMARK 923 INTER-LIGAND FREE ENERGY PREDICTED BY IDOCK:   -7.05 KCAL/MOL
REMARK 924 INTRA-LIGAND FREE ENERGY PREDICTED BY IDOCK:   -0.22 KCAL/MOL
REMARK 927      BINDING AFFINITY PREDICTED BY RF-SCORE:    0.00 PKD
ROOT
HETATM    1  C   UNL     1      -9.824   4.435  71.857  1.00  0.00    -0.180 C  
HETATM    2  O   UNL     1     -10.096   4.444  70.461  1.00  0.00    -0.213 OA 
ENDROOT
BRANCH   2   3
HETATM    3  C   UNL     1     -10.198   5.670  69.865  1.00  0.00    -0.250 A  
HETATM    4  C   UNL     1     -11.276   6.548  69.971  1.00  0.00    -0.453 A  
HETATM    5  C   UNL     1     -11.279   7.750  69.257  1.00  0.00     0.212 A  
HETATM    6  C   UNL     1     -10.196   8.097  68.438  1.00  0.00    -0.240 A  
HETATM    7  C   UNL     1      -9.104   6.028  69.076  1.00  0.00    -0.122 A  
HETATM    8  C   UNL     1      -9.101   7.229  68.367  1.00  0.00    -0.135 A  
BRANCH   6   9
HETATM    9  C   UNL     1     -10.252   9.305  67.533  1.00  0.00    -0.300 C  
BRANCH   9  10
HETATM   10  C   UNL     1     -10.286  10.689  68.223  1.00  0.00    -0.166 C  
HETATM   11  C   UNL     1     -10.932  10.593  69.610  1.00  0.00    -0.331 C  
BRANCH  10  12
HETATM   12  N   UNL     1      -8.936  11.258  68.410  1.00  0.00    -0.162 NA 
HETATM   13  H   UNL     1      -8.281  10.541  68.719  1.00  0.00     0.000 HD 
BRANCH  12  14
HETATM   14  C   UNL     1      -8.424  11.955  67.218  1.00  0.00    -0.172 C  
BRANCH  14  15
HETATM   15  C   UNL     1      -8.478  13.497  67.326  1.00  0.00    -0.193 C  
HETATM   16  H   UNL     1      -8.668  14.828  68.765  1.00  0.00     0.000 HD 
HETATM   17  O   UNL     1      -8.635  13.880  68.698  1.00  0.00    -0.155 OA 
BRANCH  15  18
HETATM   18  C   UNL     1      -9.520  14.151  66.442  1.00  0.00    -0.289 A  
HETATM   19  C   UNL     1     -10.545  13.364  65.886  1.00  0.00    -0.286 A  
HETATM   20  C   UNL     1     -11.513  13.924  65.045  1.00  0.00    -0.339 A  
HETATM   21  H   UNL     1     -12.288  16.850  63.753  1.00  0.00     0.000 HD 
HETATM   22  C   UNL     1     -11.453  15.299  64.781  1.00  0.00    -0.363 A  
HETATM   23  C   UNL     1      -9.500  15.527  66.174  1.00  0.00    -0.376 A  
HETATM   24  C   UNL     1     -10.464  16.098  65.346  1.00  0.00    -0.396 A  
HETATM   25  O   UNL     1     -12.328  15.918  63.932  1.00  0.00    -0.776 OA 
BRANCH  20  26
HETATM   26  N   UNL     1     -12.545  13.157  64.475  1.00  0.00    -0.647 N  
HETATM   27  H   UNL     1     -13.463  13.236  64.913  1.00  0.00     0.000 HD 
HETATM   28  O   UNL     1     -13.418  11.682  62.990  1.00  0.00    -0.237 OA 
HETATM   29  C   UNL     1     -12.456  12.316  63.401  1.00  0.00    -0.481 C  
ENDBRANCH  20  26
ENDBRANCH  15  18
ENDBRANCH  14  15
ENDBRANCH  12  14
ENDBRANCH  10  12
ENDBRANCH   9  10
ENDBRANCH   6   9
ENDBRANCH   2   3
TORSDOF 8
ENDMDL
MODEL      267
REMARK 921   NORMALIZED FREE ENERGY PREDICTED BY IDOCK:   -3.83 KCAL/MOL
REMARK 922        TOTAL FREE ENERGY PREDICTED BY IDOCK:   -7.28 KCAL/MOL
REMARK 923 INTER-LIGAND FREE ENERGY PREDICTED BY IDOCK:   -6.21 KCAL/MOL
REMARK 924 INTRA-LIGAND FREE ENERGY PREDICTED BY IDOCK:   -1.06 KCAL/MOL
REMARK 927      BINDING AFFINITY PREDICTED BY RF-SCORE:    0.00 PKD
ROOT
HETATM    1  C   UNL     1      -8.778  10.641  62.562  1.00  0.00    -0.264 C  
HETATM    2  O   UNL     1     -10.125  10.616  63.014  1.00  0.00    -0.280 OA 
ENDROOT
BRANCH   2   3
HETATM    3  C   UNL     1     -10.417  11.374  64.114  1.00  0.00    -0.363 A  
HETATM    4  C   UNL     1      -9.560  11.634  65.182  1.00  0.00    -0.206 A  
HETATM    5  C   UNL     1     -10.006  12.378  66.279  1.00  0.00    -0.259 A  
HETATM    6  C   UNL     1     -11.313  12.885  66.314  1.00  0.00    -0.364 A  
HETATM    7  C   UNL     1     -11.707  11.905  64.131  1.00  0.00    -0.428 A  
HETATM    8  C   UNL     1     -12.154  12.652  65.221  1.00  0.00    -0.519 A  
BRANCH   6   9
HETATM    9  C   UNL     1     -11.865  13.544  67.555  1.00  0.00    -0.406 C  
BRANCH   9  10
HETATM   10  C   UNL     1     -11.254  13.105  68.906  1.00  0.00    -0.277 C  
HETATM   11  C   UNL     1     -11.165  14.289  69.878  1.00  0.00    -0.194 C  
BRANCH  10  12
HETATM   12  N   UNL     1     -12.051  12.055  69.572  1.00  0.00    -0.252 NA 
HETATM   13  H   UNL     1     -13.030  12.332  69.637  1.00  0.00     0.000 HD 
BRANCH  12  14
HETATM   14  C   UNL     1     -11.924  10.733  68.936  1.00  0.00    -0.139 C  
BRANCH  14  15
HETATM   15  C   UNL     1     -11.446   9.622  69.901  1.00  0.00    -0.100 C  
HETATM   16  H   UNL     1     -10.086   9.437  71.314  1.00  0.00     0.000 HD 
HETATM   17  O   UNL     1     -10.381  10.119  70.721  1.00  0.00    -0.133 OA 
BRANCH  15  18
HETATM   18  C   UNL     1     -11.065   8.322  69.222  1.00  0.00     0.142 A  
HETATM   19  C   UNL     1     -10.537   8.355  67.919  1.00  0.00    -0.218 A  
HETATM   20  C   UNL     1     -10.196   7.176  67.246  1.00  0.00    -0.245 A  
HETATM   21  H   UNL     1     -10.231   3.925  67.757  1.00  0.00     0.000 HD 
HETATM   22  C   UNL     1     -10.372   5.954  67.908  1.00  0.00    -0.211 A  
HETATM   23  C   UNL     1     -11.211   7.085  69.864  1.00  0.00    -0.286 A  
HETATM   24  C   UNL     1     -10.866   5.905  69.209  1.00  0.00    -0.414 A  
HETATM   25  O   UNL     1     -10.111   4.754  67.308  1.00  0.00    -0.185 OA 
BRANCH  20  26
HETATM   26  N   UNL     1      -9.668   7.183  65.941  1.00  0.00    -0.341 N  
HETATM   27  H   UNL     1     -10.223   6.716  65.225  1.00  0.00     0.000 HD 
HETATM   28  O   UNL     1      -8.119   7.687  64.364  1.00  0.00    -0.138 OA 
HETATM   29  C   UNL     1      -8.494   7.747  65.527  1.00  0.00    -0.133 C  
ENDBRANCH  20  26
ENDBRANCH  15  18
ENDBRANCH  14  15
ENDBRANCH  12  14
ENDBRANCH  10  12
ENDBRANCH   9  10
ENDBRANCH   6   9
ENDBRANCH   2   3
TORSDOF 8
ENDMDL
MODEL      268
REMARK 921   NORMALIZED FREE ENERGY PREDICTED BY IDOCK:   -3.82 KCAL/MOL
REMARK 922        TOTAL FREE ENERGY PREDICTED BY IDOCK:   -7.27 KCAL/MOL
REMARK 923 INTER-LIGAND FREE ENERGY PREDICTED BY IDOCK:   -5.99 KCAL/MOL
REMARK 924 INTRA-LIGAND FREE ENERGY PREDICTED BY IDOCK:   -1.27 KCAL/MOL
REMARK 927      BINDING AFFINITY PREDICTED BY RF-SCORE:    0.00 PKD
ROOT
HETATM    1  C   UNL     1      -6.828   9.671  70.548  1.00  0.00    -0.126 C  
HETATM    2  O   UNL     1      -5.808  10.661  70.584  1.00  0.00    -0.106 OA 
ENDROOT
BRANCH   2   3
HETATM    3  C   UNL     1      -6.178  11.934  70.248  1.00  0.00    -0.026 A  
HETATM    4  C   UNL     1      -5.773  13.104  70.891  1.00  0.00    -0.150 A  
HETATM    5  C   UNL     1      -6.277  14.343  70.483  1.00  0.00    -0.164 A  
HETATM    6  C   UNL     1      -7.181  14.429  69.415  1.00  0.00    -0.086 A  
HETATM    7  C   UNL     1      -7.053  12.021  69.165  1.00  0.00    -0.032 A  
HETATM    8  C   UNL     1      -7.553  13.256  68.751  1.00  0.00    -0.043 A  
BRANCH   6   9
HETATM    9  C   UNL     1      -7.862  15.732  69.068  1.00  0.00    -0.206 C  
BRANCH   9  10
HETATM   10  C   UNL     1      -6.952  16.882  68.577  1.00  0.00    -0.186 C  
HETATM   11  C   UNL     1      -5.955  16.381  67.524  1.00  0.00    -0.183 C  
BRANCH  10  12
HETATM   12  N   UNL     1      -7.718  17.984  67.960  1.00  0.00    -0.243 NA 
HETATM   13  H   UNL     1      -7.099  18.748  67.691  1.00  0.00     0.000 HD 
BRANCH  12  14
HETATM   14  C   UNL     1      -8.544  17.555  66.819  1.00  0.00    -0.253 C  
BRANCH  14  15
HETATM   15  C   UNL     1     -10.056  17.479  67.139  1.00  0.00    -0.321 C  
HETATM   16  H   UNL     1     -11.293  18.309  68.426  1.00  0.00     0.000 HD 
HETATM   17  O   UNL     1     -10.365  18.356  68.229  1.00  0.00    -0.373 OA 
BRANCH  15  18
HETATM   18  C   UNL     1     -10.575  16.077  67.387  1.00  0.00    -0.316 A  
HETATM   19  C   UNL     1     -11.347  15.822  68.535  1.00  0.00    -0.374 A  
HETATM   20  C   UNL     1     -11.825  14.536  68.815  1.00  0.00    -0.315 A  
HETATM   21  H   UNL     1     -11.726  11.513  67.519  1.00  0.00     0.000 HD 
HETATM   22  C   UNL     1     -11.536  13.505  67.911  1.00  0.00    -0.342 A  
HETATM   23  C   UNL     1     -10.321  15.028  66.493  1.00  0.00    -0.287 A  
HETATM   24  C   UNL     1     -10.800  13.747  66.755  1.00  0.00    -0.284 A  
HETATM   25  O   UNL     1     -11.922  12.213  68.132  1.00  0.00    -0.430 OA 
BRANCH  20  26
HETATM   26  N   UNL     1     -12.596  14.256  69.958  1.00  0.00    -0.461 N  
HETATM   27  H   UNL     1     -13.589  14.085  69.804  1.00  0.00     0.000 HD 
HETATM   28  O   UNL     1     -12.922  13.946  72.180  1.00  0.00    -0.348 OA 
HETATM   29  C   UNL     1     -12.162  14.187  71.252  1.00  0.00    -0.339 C  
ENDBRANCH  20  26
ENDBRANCH  15  18
ENDBRANCH  14  15
ENDBRANCH  12  14
ENDBRANCH  10  12
ENDBRANCH   9  10
ENDBRANCH   6   9
ENDBRANCH   2   3
TORSDOF 8
ENDMDL
MODEL      269
REMARK 921   NORMALIZED FREE ENERGY PREDICTED BY IDOCK:   -3.82 KCAL/MOL
REMARK 922        TOTAL FREE ENERGY PREDICTED BY IDOCK:   -7.27 KCAL/MOL
REMARK 923 INTER-LIGAND FREE ENERGY PREDICTED BY IDOCK:   -6.62 KCAL/MOL
REMARK 924 INTRA-LIGAND FREE ENERGY PREDICTED BY IDOCK:   -0.65 KCAL/MOL
REMARK 927      BINDING AFFINITY PREDICTED BY RF-SCORE:    0.00 PKD
ROOT
HETATM    1  C   UNL     1      -9.291   5.486  73.749  1.00  0.00    -0.137 C  
HETATM    2  O   UNL     1      -9.006   4.852  72.509  1.00  0.00    -0.130 OA 
ENDROOT
BRANCH   2   3
HETATM    3  C   UNL     1      -9.442   5.489  71.380  1.00  0.00    -0.148 A  
HETATM    4  C   UNL     1     -10.421   5.025  70.502  1.00  0.00    -0.230 A  
HETATM    5  C   UNL     1     -10.731   5.749  69.346  1.00  0.00    -0.397 A  
HETATM    6  C   UNL     1     -10.074   6.953  69.061  1.00  0.00    -0.175 A  
HETATM    7  C   UNL     1      -8.811   6.704  71.115  1.00  0.00    -0.137 A  
HETATM    8  C   UNL     1      -9.121   7.431  69.966  1.00  0.00    -0.148 A  
BRANCH   6   9
HETATM    9  C   UNL     1     -10.273   7.661  67.741  1.00  0.00    -0.259 C  
BRANCH   9  10
HETATM   10  C   UNL     1     -10.165   9.204  67.758  1.00  0.00    -0.224 C  
HETATM   11  C   UNL     1      -9.188   9.697  66.682  1.00  0.00    -0.187 C  
BRANCH  10  12
HETATM   12  N   UNL     1     -11.462   9.862  67.502  1.00  0.00    -0.374 NA 
HETATM   13  H   UNL     1     -12.157   9.571  68.188  1.00  0.00     0.000 HD 
BRANCH  12  14
HETATM   14  C   UNL     1     -11.371  11.331  67.442  1.00  0.00    -0.276 C  
BRANCH  14  15
HETATM   15  C   UNL     1     -11.219  12.003  68.827  1.00  0.00    -0.263 C  
HETATM   16  H   UNL     1     -12.189  11.991  70.540  1.00  0.00     0.000 HD 
HETATM   17  O   UNL     1     -12.282  11.578  69.689  1.00  0.00    -0.286 OA 
BRANCH  15  18
HETATM   18  C   UNL     1     -11.106  13.513  68.784  1.00  0.00    -0.298 A  
HETATM   19  C   UNL     1     -11.257  14.249  69.973  1.00  0.00    -0.154 A  
HETATM   20  C   UNL     1     -11.184  15.647  69.973  1.00  0.00    -0.325 A  
HETATM   21  H   UNL     1     -10.728  18.111  67.839  1.00  0.00     0.000 HD 
HETATM   22  C   UNL     1     -10.935  16.303  68.760  1.00  0.00    -0.343 A  
HETATM   23  C   UNL     1     -10.838  14.198  67.591  1.00  0.00    -0.266 A  
HETATM   24  C   UNL     1     -10.753  15.588  67.580  1.00  0.00    -0.300 A  
HETATM   25  O   UNL     1     -10.897  17.666  68.662  1.00  0.00    -0.213 OA 
BRANCH  20  26
HETATM   26  N   UNL     1     -11.334  16.405  71.149  1.00  0.00    -0.451 N  
HETATM   27  H   UNL     1     -11.097  17.395  71.084  1.00  0.00     0.000 HD 
HETATM   28  O   UNL     1     -11.848  16.707  73.337  1.00  0.00    -0.417 OA 
HETATM   29  C   UNL     1     -11.763  15.963  72.369  1.00  0.00    -0.477 C  
ENDBRANCH  20  26
ENDBRANCH  15  18
ENDBRANCH  14  15
ENDBRANCH  12  14
ENDBRANCH  10  12
ENDBRANCH   9  10
ENDBRANCH   6   9
ENDBRANCH   2   3
TORSDOF 8
ENDMDL
MODEL      270
REMARK 921   NORMALIZED FREE ENERGY PREDICTED BY IDOCK:   -3.82 KCAL/MOL
REMARK 922        TOTAL FREE ENERGY PREDICTED BY IDOCK:   -7.26 KCAL/MOL
REMARK 923 INTER-LIGAND FREE ENERGY PREDICTED BY IDOCK:   -6.88 KCAL/MOL
REMARK 924 INTRA-LIGAND FREE ENERGY PREDICTED BY IDOCK:   -0.38 KCAL/MOL
REMARK 927      BINDING AFFINITY PREDICTED BY RF-SCORE:    0.00 PKD
ROOT
HETATM    1  C   UNL     1      -8.096  10.589  65.676  1.00  0.00    -0.161 C  
HETATM    2  O   UNL     1      -8.325  10.845  67.055  1.00  0.00    -0.126 OA 
ENDROOT
BRANCH   2   3
HETATM    3  C   UNL     1      -8.098  12.122  67.488  1.00  0.00    -0.163 A  
HETATM    4  C   UNL     1      -7.240  12.498  68.520  1.00  0.00    -0.110 A  
HETATM    5  C   UNL     1      -7.145  13.840  68.905  1.00  0.00    -0.107 A  
HETATM    6  C   UNL     1      -7.898  14.824  68.251  1.00  0.00    -0.125 A  
HETATM    7  C   UNL     1      -8.823  13.104  66.814  1.00  0.00    -0.140 A  
HETATM    8  C   UNL     1      -8.728  14.444  67.191  1.00  0.00    -0.243 A  
BRANCH   6   9
HETATM    9  C   UNL     1      -7.937  16.247  68.757  1.00  0.00    -0.221 C  
BRANCH   9  10
HETATM   10  C   UNL     1      -9.334  16.899  68.888  1.00  0.00    -0.229 C  
HETATM   11  C   UNL     1      -9.602  17.857  67.721  1.00  0.00    -0.277 C  
BRANCH  10  12
HETATM   12  N   UNL     1     -10.423  15.903  68.892  1.00  0.00    -0.221 NA 
HETATM   13  H   UNL     1     -10.174  15.092  68.326  1.00  0.00     0.000 HD 
BRANCH  12  14
HETATM   14  C   UNL     1     -10.834  15.489  70.245  1.00  0.00    -0.339 C  
BRANCH  14  15
HETATM   15  C   UNL     1     -12.311  15.038  70.337  1.00  0.00    -0.348 C  
HETATM   16  H   UNL     1     -13.908  15.562  71.363  1.00  0.00     0.000 HD 
HETATM   17  O   UNL     1     -13.000  15.838  71.306  1.00  0.00    -0.489 OA 
BRANCH  15  18
HETATM   18  C   UNL     1     -12.500  13.558  70.599  1.00  0.00    -0.405 A  
HETATM   19  C   UNL     1     -12.021  12.626  69.661  1.00  0.00    -0.352 A  
HETATM   20  C   UNL     1     -12.197  11.250  69.853  1.00  0.00    -0.288 A  
HETATM   21  H   UNL     1     -13.545   9.200  72.046  1.00  0.00     0.000 HD 
HETATM   22  C   UNL     1     -12.847  10.816  71.015  1.00  0.00    -0.385 A  
HETATM   23  C   UNL     1     -13.129  13.090  71.761  1.00  0.00    -0.469 A  
HETATM   24  C   UNL     1     -13.301  11.724  71.968  1.00  0.00    -0.417 A  
HETATM   25  O   UNL     1     -13.104   9.495  71.258  1.00  0.00    -0.345 OA 
BRANCH  20  26
HETATM   26  N   UNL     1     -11.728  10.299  68.928  1.00  0.00    -0.517 N  
HETATM   27  H   UNL     1     -12.229  10.244  68.042  1.00  0.00     0.000 HD 
HETATM   28  O   UNL     1     -10.356   8.639  68.218  1.00  0.00    -0.206 OA 
HETATM   29  C   UNL     1     -10.677   9.440  69.085  1.00  0.00    -0.197 C  
ENDBRANCH  20  26
ENDBRANCH  15  18
ENDBRANCH  14  15
ENDBRANCH  12  14
ENDBRANCH  10  12
ENDBRANCH   9  10
ENDBRANCH   6   9
ENDBRANCH   2   3
TORSDOF 8
ENDMDL
MODEL      271
REMARK 921   NORMALIZED FREE ENERGY PREDICTED BY IDOCK:   -3.82 KCAL/MOL
REMARK 922        TOTAL FREE ENERGY PREDICTED BY IDOCK:   -7.26 KCAL/MOL
REMARK 923 INTER-LIGAND FREE ENERGY PREDICTED BY IDOCK:   -5.78 KCAL/MOL
REMARK 924 INTRA-LIGAND FREE ENERGY PREDICTED BY IDOCK:   -1.48 KCAL/MOL
REMARK 927      BINDING AFFINITY PREDICTED BY RF-SCORE:    0.00 PKD
ROOT
HETATM    1  C   UNL     1      -5.610  15.273  69.366  1.00  0.00    -0.098 C  
HETATM    2  O   UNL     1      -6.939  14.811  69.164  1.00  0.00    -0.118 OA 
ENDROOT
BRANCH   2   3
HETATM    3  C   UNL     1      -7.079  13.531  68.704  1.00  0.00    -0.106 A  
HETATM    4  C   UNL     1      -8.058  13.079  67.820  1.00  0.00    -0.168 A  
HETATM    5  C   UNL     1      -8.126  11.725  67.475  1.00  0.00    -0.152 A  
HETATM    6  C   UNL     1      -7.206  10.808  68.001  1.00  0.00    -0.086 A  
HETATM    7  C   UNL     1      -6.142  12.625  69.202  1.00  0.00    -0.092 A  
HETATM    8  C   UNL     1      -6.203  11.275  68.857  1.00  0.00    -0.052 A  
BRANCH   6   9
HETATM    9  C   UNL     1      -7.364   9.322  67.776  1.00  0.00    -0.084 C  
BRANCH   9  10
HETATM   10  C   UNL     1      -8.753   8.717  68.083  1.00  0.00    -0.142 C  
HETATM   11  C   UNL     1      -8.722   7.188  67.964  1.00  0.00    -0.127 C  
BRANCH  10  12
HETATM   12  N   UNL     1      -9.219   9.038  69.447  1.00  0.00    -0.147 NA 
HETATM   13  H   UNL     1      -8.733   9.857  69.812  1.00  0.00     0.000 HD 
BRANCH  12  14
HETATM   14  C   UNL     1     -10.679   9.212  69.541  1.00  0.00    -0.215 C  
BRANCH  14  15
HETATM   15  C   UNL     1     -11.106  10.548  70.194  1.00  0.00    -0.298 C  
HETATM   16  H   UNL     1     -12.456  11.139  71.499  1.00  0.00     0.000 HD 
HETATM   17  O   UNL     1     -12.194  10.318  71.098  1.00  0.00    -0.333 OA 
BRANCH  15  18
HETATM   18  C   UNL     1     -11.423  11.654  69.209  1.00  0.00    -0.364 A  
HETATM   19  C   UNL     1     -11.393  11.378  67.830  1.00  0.00    -0.354 A  
HETATM   20  C   UNL     1     -11.655  12.377  66.885  1.00  0.00    -0.370 A  
HETATM   21  H   UNL     1     -12.408  15.580  66.802  1.00  0.00     0.000 HD 
HETATM   22  C   UNL     1     -11.972  13.663  67.344  1.00  0.00    -0.376 A  
HETATM   23  C   UNL     1     -11.762  12.946  69.635  1.00  0.00    -0.367 A  
HETATM   24  C   UNL     1     -12.035  13.946  68.705  1.00  0.00    -0.393 A  
HETATM   25  O   UNL     1     -12.193  14.708  66.491  1.00  0.00    -0.313 OA 
BRANCH  20  26
HETATM   26  N   UNL     1     -11.628  12.126  65.501  1.00  0.00    -0.360 N  
HETATM   27  H   UNL     1     -12.366  12.561  64.947  1.00  0.00     0.000 HD 
HETATM   28  O   UNL     1     -10.798  11.199  63.606  1.00  0.00    -0.367 OA 
HETATM   29  C   UNL     1     -10.724  11.364  64.816  1.00  0.00    -0.298 C  
ENDBRANCH  20  26
ENDBRANCH  15  18
ENDBRANCH  14  15
ENDBRANCH  12  14
ENDBRANCH  10  12
ENDBRANCH   9  10
ENDBRANCH   6   9
ENDBRANCH   2   3
TORSDOF 8
ENDMDL
MODEL      272
REMARK 921   NORMALIZED FREE ENERGY PREDICTED BY IDOCK:   -3.81 KCAL/MOL
REMARK 922        TOTAL FREE ENERGY PREDICTED BY IDOCK:   -7.25 KCAL/MOL
REMARK 923 INTER-LIGAND FREE ENERGY PREDICTED BY IDOCK:   -6.05 KCAL/MOL
REMARK 924 INTRA-LIGAND FREE ENERGY PREDICTED BY IDOCK:   -1.20 KCAL/MOL
REMARK 927      BINDING AFFINITY PREDICTED BY RF-SCORE:    0.00 PKD
ROOT
HETATM    1  C   UNL     1      -8.797  10.671  62.554  1.00  0.00    -0.275 C  
HETATM    2  O   UNL     1     -10.159  10.658  62.962  1.00  0.00    -0.280 OA 
ENDROOT
BRANCH   2   3
HETATM    3  C   UNL     1     -10.495  11.477  64.005  1.00  0.00    -0.370 A  
HETATM    4  C   UNL     1      -9.669  11.826  65.073  1.00  0.00    -0.212 A  
HETATM    5  C   UNL     1     -10.158  12.626  66.110  1.00  0.00    -0.268 A  
HETATM    6  C   UNL     1     -11.476  13.100  66.084  1.00  0.00    -0.366 A  
HETATM    7  C   UNL     1     -11.797  11.974  63.961  1.00  0.00    -0.500 A  
HETATM    8  C   UNL     1     -12.287  12.777  64.991  1.00  0.00    -0.559 A  
BRANCH   6   9
HETATM    9  C   UNL     1     -12.073  13.823  67.269  1.00  0.00    -0.393 C  
BRANCH   9  10
HETATM   10  C   UNL     1     -11.451  13.520  68.652  1.00  0.00    -0.308 C  
HETATM   11  C   UNL     1     -11.483  14.764  69.550  1.00  0.00    -0.331 C  
BRANCH  10  12
HETATM   12  N   UNL     1     -12.167  12.447  69.370  1.00  0.00    -0.146 NA 
HETATM   13  H   UNL     1     -13.166  12.648  69.417  1.00  0.00     0.000 HD 
BRANCH  12  14
HETATM   14  C   UNL     1     -11.930  11.107  68.807  1.00  0.00    -0.268 C  
BRANCH  14  15
HETATM   15  C   UNL     1     -11.286  10.117  69.807  1.00  0.00    -0.272 C  
HETATM   16  H   UNL     1     -11.039  10.005  71.757  1.00  0.00     0.000 HD 
HETATM   17  O   UNL     1     -11.435  10.613  71.143  1.00  0.00    -0.196 OA 
BRANCH  15  18
HETATM   18  C   UNL     1      -9.844   9.765  69.501  1.00  0.00    -0.230 A  
HETATM   19  C   UNL     1      -9.037  10.697  68.822  1.00  0.00    -0.170 A  
HETATM   20  C   UNL     1      -7.708  10.402  68.498  1.00  0.00    -0.101 A  
HETATM   21  H   UNL     1      -5.560   7.930  68.826  1.00  0.00     0.000 HD 
HETATM   22  C   UNL     1      -7.186   9.160  68.883  1.00  0.00    -0.073 A  
HETATM   23  C   UNL     1      -9.287   8.540  69.890  1.00  0.00    -0.159 A  
HETATM   24  C   UNL     1      -7.961   8.239  69.582  1.00  0.00    -0.111 A  
HETATM   25  O   UNL     1      -5.915   8.772  68.565  1.00  0.00    -0.044 OA 
BRANCH  20  26
HETATM   26  N   UNL     1      -6.882  11.316  67.818  1.00  0.00    -0.071 N  
HETATM   27  H   UNL     1      -6.533  11.020  66.907  1.00  0.00     0.000 HD 
HETATM   28  O   UNL     1      -5.762  13.272  67.575  1.00  0.00    -0.279 OA 
HETATM   29  C   UNL     1      -6.496  12.557  68.242  1.00  0.00    -0.067 C  
ENDBRANCH  20  26
ENDBRANCH  15  18
ENDBRANCH  14  15
ENDBRANCH  12  14
ENDBRANCH  10  12
ENDBRANCH   9  10
ENDBRANCH   6   9
ENDBRANCH   2   3
TORSDOF 8
ENDMDL
MODEL      273
REMARK 921   NORMALIZED FREE ENERGY PREDICTED BY IDOCK:   -3.80 KCAL/MOL
REMARK 922        TOTAL FREE ENERGY PREDICTED BY IDOCK:   -7.24 KCAL/MOL
REMARK 923 INTER-LIGAND FREE ENERGY PREDICTED BY IDOCK:   -6.44 KCAL/MOL
REMARK 924 INTRA-LIGAND FREE ENERGY PREDICTED BY IDOCK:   -0.80 KCAL/MOL
REMARK 927      BINDING AFFINITY PREDICTED BY RF-SCORE:    0.00 PKD
ROOT
HETATM    1  C   UNL     1      -7.643   8.129  69.095  1.00  0.00    -0.096 C  
HETATM    2  O   UNL     1      -8.674   8.003  68.124  1.00  0.00    -0.126 OA 
ENDROOT
BRANCH   2   3
HETATM    3  C   UNL     1      -8.985   9.128  67.412  1.00  0.00    -0.117 A  
HETATM    4  C   UNL     1      -8.696  10.441  67.784  1.00  0.00    -0.122 A  
HETATM    5  C   UNL     1      -9.127  11.510  66.991  1.00  0.00    -0.175 A  
HETATM    6  C   UNL     1      -9.841  11.277  65.808  1.00  0.00    -0.273 A  
HETATM    7  C   UNL     1      -9.667   8.894  66.218  1.00  0.00    -0.345 A  
HETATM    8  C   UNL     1     -10.094   9.957  65.422  1.00  0.00    -0.270 A  
BRANCH   6   9
HETATM    9  C   UNL     1     -10.457  12.415  65.028  1.00  0.00    -0.324 C  
BRANCH   9  10
HETATM   10  C   UNL     1     -11.958  12.695  65.277  1.00  0.00    -0.439 C  
HETATM   11  C   UNL     1     -12.259  12.766  66.780  1.00  0.00    -0.134 C  
BRANCH  10  12
HETATM   12  N   UNL     1     -12.399  13.973  64.684  1.00  0.00    -0.573 NA 
HETATM   13  H   UNL     1     -13.081  14.434  65.286  1.00  0.00     0.000 HD 
BRANCH  12  14
HETATM   14  C   UNL     1     -11.287  14.884  64.363  1.00  0.00    -0.201 C  
BRANCH  14  15
HETATM   15  C   UNL     1     -11.288  16.187  65.197  1.00  0.00    -0.030 C  
HETATM   16  H   UNL     1     -11.293  18.122  64.833  1.00  0.00     0.000 HD 
HETATM   17  O   UNL     1     -11.293  17.322  64.321  1.00  0.00    -1.027 OA 
BRANCH  15  18
HETATM   18  C   UNL     1     -10.175  16.278  66.220  1.00  0.00    -0.339 A  
HETATM   19  C   UNL     1      -9.145  15.320  66.204  1.00  0.00    -0.314 A  
HETATM   20  C   UNL     1      -8.111  15.353  67.147  1.00  0.00    -0.217 A  
HETATM   21  H   UNL     1      -7.165  17.153  69.735  1.00  0.00     0.000 HD 
HETATM   22  C   UNL     1      -8.110  16.378  68.102  1.00  0.00    -0.165 A  
HETATM   23  C   UNL     1     -10.134  17.303  67.176  1.00  0.00    -0.297 A  
HETATM   24  C   UNL     1      -9.104  17.352  68.113  1.00  0.00    -0.267 A  
HETATM   25  O   UNL     1      -7.166  16.457  69.088  1.00  0.00    -0.205 OA 
BRANCH  20  26
HETATM   26  N   UNL     1      -7.071  14.404  67.153  1.00  0.00    -0.198 N  
HETATM   27  H   UNL     1      -6.735  14.095  66.241  1.00  0.00     0.000 HD 
HETATM   28  O   UNL     1      -5.570  13.020  68.139  1.00  0.00    -0.075 OA 
HETATM   29  C   UNL     1      -6.462  13.850  68.244  1.00  0.00    -0.111 C  
ENDBRANCH  20  26
ENDBRANCH  15  18
ENDBRANCH  14  15
ENDBRANCH  12  14
ENDBRANCH  10  12
ENDBRANCH   9  10
ENDBRANCH   6   9
ENDBRANCH   2   3
TORSDOF 8
ENDMDL
MODEL      274
REMARK 921   NORMALIZED FREE ENERGY PREDICTED BY IDOCK:   -3.80 KCAL/MOL
REMARK 922        TOTAL FREE ENERGY PREDICTED BY IDOCK:   -7.24 KCAL/MOL
REMARK 923 INTER-LIGAND FREE ENERGY PREDICTED BY IDOCK:   -7.03 KCAL/MOL
REMARK 924 INTRA-LIGAND FREE ENERGY PREDICTED BY IDOCK:   -0.20 KCAL/MOL
REMARK 927      BINDING AFFINITY PREDICTED BY RF-SCORE:    0.00 PKD
ROOT
HETATM    1  C   UNL     1      -9.471  10.015  70.157  1.00  0.00    -0.071 C  
HETATM    2  O   UNL     1     -10.594   9.852  69.302  1.00  0.00    -0.202 OA 
ENDROOT
BRANCH   2   3
HETATM    3  C   UNL     1     -10.513  10.432  68.066  1.00  0.00    -0.196 A  
HETATM    4  C   UNL     1      -9.448  10.316  67.173  1.00  0.00    -0.184 A  
HETATM    5  C   UNL     1      -9.464  11.014  65.961  1.00  0.00    -0.235 A  
HETATM    6  C   UNL     1     -10.555  11.825  65.620  1.00  0.00    -0.314 A  
HETATM    7  C   UNL     1     -11.614  11.212  67.714  1.00  0.00    -0.303 A  
HETATM    8  C   UNL     1     -11.637  11.906  66.503  1.00  0.00    -0.328 A  
BRANCH   6   9
HETATM    9  C   UNL     1     -10.520  12.714  64.399  1.00  0.00    -0.398 C  
BRANCH   9  10
HETATM   10  C   UNL     1     -10.817  14.215  64.624  1.00  0.00    -0.386 C  
HETATM   11  C   UNL     1     -12.279  14.540  64.291  1.00  0.00    -0.441 C  
BRANCH  10  12
HETATM   12  N   UNL     1     -10.586  14.632  66.022  1.00  0.00    -0.298 NA 
HETATM   13  H   UNL     1     -11.005  13.967  66.671  1.00  0.00     0.000 HD 
BRANCH  12  14
HETATM   14  C   UNL     1      -9.165  14.849  66.341  1.00  0.00    -0.284 C  
BRANCH  14  15
HETATM   15  C   UNL     1      -8.934  15.661  67.638  1.00  0.00    -0.180 C  
HETATM   16  H   UNL     1      -9.519  15.561  69.515  1.00  0.00     0.000 HD 
HETATM   17  O   UNL     1      -9.660  15.062  68.719  1.00  0.00    -0.206 OA 
BRANCH  15  18
HETATM   18  C   UNL     1      -9.238  17.140  67.514  1.00  0.00    -0.233 A  
HETATM   19  C   UNL     1      -8.344  17.971  66.815  1.00  0.00    -0.271 A  
HETATM   20  C   UNL     1      -8.574  19.346  66.698  1.00  0.00    -0.329 A  
HETATM   21  H   UNL     1     -10.794  21.583  67.647  1.00  0.00     0.000 HD 
HETATM   22  C   UNL     1      -9.731  19.882  67.278  1.00  0.00    -0.387 A  
HETATM   23  C   UNL     1     -10.397  17.703  68.066  1.00  0.00    -0.375 A  
HETATM   24  C   UNL     1     -10.642  19.069  67.947  1.00  0.00    -0.441 A  
HETATM   25  O   UNL     1     -10.008  21.220  67.254  1.00  0.00    -0.076 OA 
BRANCH  20  26
HETATM   26  N   UNL     1      -7.692  20.198  66.006  1.00  0.00    -0.477 N  
HETATM   27  H   UNL     1      -7.657  21.167  66.321  1.00  0.00     0.000 HD 
HETATM   28  O   UNL     1      -6.153  20.693  64.417  1.00  0.00    -0.259 OA 
HETATM   29  C   UNL     1      -6.877  19.870  64.959  1.00  0.00    -0.159 C  
ENDBRANCH  20  26
ENDBRANCH  15  18
ENDBRANCH  14  15
ENDBRANCH  12  14
ENDBRANCH  10  12
ENDBRANCH   9  10
ENDBRANCH   6   9
ENDBRANCH   2   3
TORSDOF 8
ENDMDL
MODEL      275
REMARK 921   NORMALIZED FREE ENERGY PREDICTED BY IDOCK:   -3.80 KCAL/MOL
REMARK 922        TOTAL FREE ENERGY PREDICTED BY IDOCK:   -7.24 KCAL/MOL
REMARK 923 INTER-LIGAND FREE ENERGY PREDICTED BY IDOCK:   -6.30 KCAL/MOL
REMARK 924 INTRA-LIGAND FREE ENERGY PREDICTED BY IDOCK:   -0.94 KCAL/MOL
REMARK 927      BINDING AFFINITY PREDICTED BY RF-SCORE:    0.00 PKD
ROOT
HETATM    1  C   UNL     1     -12.940  15.071  73.514  1.00  0.00    -0.433 C  
HETATM    2  O   UNL     1     -12.660  15.930  72.417  1.00  0.00    -0.412 OA 
ENDROOT
BRANCH   2   3
HETATM    3  C   UNL     1     -12.371  15.326  71.224  1.00  0.00    -0.361 A  
HETATM    4  C   UNL     1     -12.576  13.983  70.914  1.00  0.00    -0.431 A  
HETATM    5  C   UNL     1     -12.178  13.477  69.672  1.00  0.00    -0.304 A  
HETATM    6  C   UNL     1     -11.583  14.314  68.719  1.00  0.00    -0.357 A  
HETATM    7  C   UNL     1     -11.809  16.168  70.265  1.00  0.00    -0.148 A  
HETATM    8  C   UNL     1     -11.415  15.669  69.023  1.00  0.00    -0.369 A  
BRANCH   6   9
HETATM    9  C   UNL     1     -10.996  13.757  67.443  1.00  0.00    -0.296 C  
BRANCH   9  10
HETATM   10  C   UNL     1     -11.981  13.071  66.468  1.00  0.00    -0.391 C  
HETATM   11  C   UNL     1     -11.960  13.757  65.095  1.00  0.00    -0.393 C  
BRANCH  10  12
HETATM   12  N   UNL     1     -11.657  11.648  66.247  1.00  0.00    -0.414 NA 
HETATM   13  H   UNL     1     -10.980  11.544  65.491  1.00  0.00     0.000 HD 
BRANCH  12  14
HETATM   14  C   UNL     1     -11.191  10.958  67.462  1.00  0.00    -0.293 C  
BRANCH  14  15
HETATM   15  C   UNL     1     -10.072   9.923  67.201  1.00  0.00    -0.215 C  
HETATM   16  H   UNL     1      -9.964   8.005  66.770  1.00  0.00     0.000 HD 
HETATM   17  O   UNL     1     -10.652   8.641  66.930  1.00  0.00    -0.287 OA 
BRANCH  15  18
HETATM   18  C   UNL     1      -9.025   9.841  68.294  1.00  0.00    -0.119 A  
HETATM   19  C   UNL     1      -8.267  10.984  68.608  1.00  0.00    -0.151 A  
HETATM   20  C   UNL     1      -7.273  10.945  69.593  1.00  0.00    -0.095 A  
HETATM   21  H   UNL     1      -5.935   8.788  71.688  1.00  0.00     0.000 HD 
HETATM   22  C   UNL     1      -7.061   9.743  70.280  1.00  0.00    -0.143 A  
HETATM   23  C   UNL     1      -8.802   8.659  69.013  1.00  0.00    -0.138 A  
HETATM   24  C   UNL     1      -7.823   8.611  70.003  1.00  0.00    -0.103 A  
HETATM   25  O   UNL     1      -6.079   9.604  71.221  1.00  0.00    -0.121 OA 
BRANCH  20  26
HETATM   26  N   UNL     1      -6.500  12.074  69.922  1.00  0.00    -0.328 N  
HETATM   27  H   UNL     1      -5.617  11.894  70.400  1.00  0.00     0.000 HD 
HETATM   28  O   UNL     1      -6.060  14.296  70.013  1.00  0.00    -0.128 OA 
HETATM   29  C   UNL     1      -6.800  13.383  69.673  1.00  0.00     0.132 C  
ENDBRANCH  20  26
ENDBRANCH  15  18
ENDBRANCH  14  15
ENDBRANCH  12  14
ENDBRANCH  10  12
ENDBRANCH   9  10
ENDBRANCH   6   9
ENDBRANCH   2   3
TORSDOF 8
ENDMDL
MODEL      276
REMARK 921   NORMALIZED FREE ENERGY PREDICTED BY IDOCK:   -3.80 KCAL/MOL
REMARK 922        TOTAL FREE ENERGY PREDICTED BY IDOCK:   -7.23 KCAL/MOL
REMARK 923 INTER-LIGAND FREE ENERGY PREDICTED BY IDOCK:   -6.43 KCAL/MOL
REMARK 924 INTRA-LIGAND FREE ENERGY PREDICTED BY IDOCK:   -0.80 KCAL/MOL
REMARK 927      BINDING AFFINITY PREDICTED BY RF-SCORE:    0.00 PKD
ROOT
HETATM    1  C   UNL     1      -8.724   4.823  74.032  1.00  0.00    -0.108 C  
HETATM    2  O   UNL     1      -7.979   4.516  72.861  1.00  0.00    -0.089 OA 
ENDROOT
BRANCH   2   3
HETATM    3  C   UNL     1      -8.419   5.073  71.692  1.00  0.00    -0.124 A  
HETATM    4  C   UNL     1      -9.501   4.633  70.929  1.00  0.00    -0.233 A  
HETATM    5  C   UNL     1      -9.808   5.257  69.716  1.00  0.00    -0.282 A  
HETATM    6  C   UNL     1      -9.046   6.340  69.257  1.00  0.00    -0.134 A  
HETATM    7  C   UNL     1      -7.679   6.171  71.253  1.00  0.00    -0.106 A  
HETATM    8  C   UNL     1      -7.986   6.800  70.046  1.00  0.00    -0.116 A  
BRANCH   6   9
HETATM    9  C   UNL     1      -9.256   6.919  67.878  1.00  0.00    -0.124 C  
BRANCH   9  10
HETATM   10  C   UNL     1      -9.564   8.432  67.799  1.00  0.00    -0.156 C  
HETATM   11  C   UNL     1      -9.881   8.852  66.358  1.00  0.00    -0.353 C  
BRANCH  10  12
HETATM   12  N   UNL     1     -10.723   8.815  68.629  1.00  0.00    -0.411 NA 
HETATM   13  H   UNL     1     -11.177   7.990  69.019  1.00  0.00     0.000 HD 
BRANCH  12  14
HETATM   14  C   UNL     1     -10.390   9.779  69.692  1.00  0.00    -0.238 C  
BRANCH  14  15
HETATM   15  C   UNL     1     -11.231  11.076  69.642  1.00  0.00    -0.278 C  
HETATM   16  H   UNL     1     -13.136  11.545  69.482  1.00  0.00     0.000 HD 
HETATM   17  O   UNL     1     -12.620  10.748  69.513  1.00  0.00    -0.293 OA 
BRANCH  15  18
HETATM   18  C   UNL     1     -10.792  12.069  68.586  1.00  0.00    -0.273 A  
HETATM   19  C   UNL     1     -11.657  12.364  67.516  1.00  0.00    -0.431 A  
HETATM   20  C   UNL     1     -11.280  13.256  66.505  1.00  0.00    -0.304 A  
HETATM   21  H   UNL     1      -8.706  15.134  65.681  1.00  0.00     0.000 HD 
HETATM   22  C   UNL     1     -10.025  13.871  66.591  1.00  0.00    -0.279 A  
HETATM   23  C   UNL     1      -9.550  12.716  68.653  1.00  0.00    -0.028 A  
HETATM   24  C   UNL     1      -9.168  13.614  67.658  1.00  0.00    -0.213 A  
HETATM   25  O   UNL     1      -9.558  14.716  65.623  1.00  0.00    -0.298 OA 
BRANCH  20  26
HETATM   26  N   UNL     1     -12.127  13.564  65.425  1.00  0.00    -0.389 N  
HETATM   27  H   UNL     1     -12.989  14.060  65.651  1.00  0.00     0.000 HD 
HETATM   28  O   UNL     1     -12.733  13.578  63.240  1.00  0.00    -0.726 OA 
HETATM   29  C   UNL     1     -11.924  13.274  64.105  1.00  0.00    -0.447 C  
ENDBRANCH  20  26
ENDBRANCH  15  18
ENDBRANCH  14  15
ENDBRANCH  12  14
ENDBRANCH  10  12
ENDBRANCH   9  10
ENDBRANCH   6   9
ENDBRANCH   2   3
TORSDOF 8
ENDMDL
MODEL      277
REMARK 921   NORMALIZED FREE ENERGY PREDICTED BY IDOCK:   -3.80 KCAL/MOL
REMARK 922        TOTAL FREE ENERGY PREDICTED BY IDOCK:   -7.23 KCAL/MOL
REMARK 923 INTER-LIGAND FREE ENERGY PREDICTED BY IDOCK:   -5.79 KCAL/MOL
REMARK 924 INTRA-LIGAND FREE ENERGY PREDICTED BY IDOCK:   -1.44 KCAL/MOL
REMARK 927      BINDING AFFINITY PREDICTED BY RF-SCORE:    0.00 PKD
ROOT
HETATM    1  C   UNL     1      -5.713  15.226  69.418  1.00  0.00    -0.100 C  
HETATM    2  O   UNL     1      -6.959  14.621  69.098  1.00  0.00    -0.117 OA 
ENDROOT
BRANCH   2   3
HETATM    3  C   UNL     1      -6.919  13.323  68.671  1.00  0.00    -0.101 A  
HETATM    4  C   UNL     1      -7.613  12.794  67.583  1.00  0.00    -0.152 A  
HETATM    5  C   UNL     1      -7.531  11.429  67.290  1.00  0.00    -0.134 A  
HETATM    6  C   UNL     1      -6.740  10.578  68.073  1.00  0.00    -0.065 A  
HETATM    7  C   UNL     1      -6.105  12.483  69.431  1.00  0.00    -0.108 A  
HETATM    8  C   UNL     1      -6.016  11.122  69.139  1.00  0.00    -0.044 A  
BRANCH   6   9
HETATM    9  C   UNL     1      -6.768   9.080  67.877  1.00  0.00    -0.068 C  
BRANCH   9  10
HETATM   10  C   UNL     1      -8.156   8.400  67.924  1.00  0.00    -0.123 C  
HETATM   11  C   UNL     1      -8.037   6.894  67.659  1.00  0.00    -0.113 C  
BRANCH  10  12
HETATM   12  N   UNL     1      -8.818   8.559  69.234  1.00  0.00    -0.141 NA 
HETATM   13  H   UNL     1      -8.540   9.436  69.675  1.00  0.00     0.000 HD 
BRANCH  12  14
HETATM   14  C   UNL     1     -10.286   8.452  69.166  1.00  0.00    -0.211 C  
BRANCH  14  15
HETATM   15  C   UNL     1     -11.028   9.587  69.910  1.00  0.00    -0.238 C  
HETATM   16  H   UNL     1     -12.694   9.773  70.944  1.00  0.00     0.000 HD 
HETATM   17  O   UNL     1     -12.237   9.077  70.487  1.00  0.00    -0.068 OA 
BRANCH  15  18
HETATM   18  C   UNL     1     -11.288  10.822  69.073  1.00  0.00    -0.349 A  
HETATM   19  C   UNL     1     -11.718  12.004  69.703  1.00  0.00    -0.405 A  
HETATM   20  C   UNL     1     -11.993  13.160  68.964  1.00  0.00    -0.285 A  
HETATM   21  H   UNL     1     -11.978  14.168  65.831  1.00  0.00     0.000 HD 
HETATM   22  C   UNL     1     -11.810  13.124  67.576  1.00  0.00    -0.360 A  
HETATM   23  C   UNL     1     -11.096  10.825  67.684  1.00  0.00    -0.384 A  
HETATM   24  C   UNL     1     -11.357  11.972  66.939  1.00  0.00    -0.400 A  
HETATM   25  O   UNL     1     -12.102  14.192  66.773  1.00  0.00    -0.429 OA 
BRANCH  20  26
HETATM   26  N   UNL     1     -12.426  14.353  69.572  1.00  0.00    -0.540 N  
HETATM   27  H   UNL     1     -12.369  15.198  69.004  1.00  0.00     0.000 HD 
HETATM   28  O   UNL     1     -13.255  15.596  71.278  1.00  0.00    -0.494 OA 
HETATM   29  C   UNL     1     -12.914  14.506  70.840  1.00  0.00    -0.361 C  
ENDBRANCH  20  26
ENDBRANCH  15  18
ENDBRANCH  14  15
ENDBRANCH  12  14
ENDBRANCH  10  12
ENDBRANCH   9  10
ENDBRANCH   6   9
ENDBRANCH   2   3
TORSDOF 8
ENDMDL
MODEL      278
REMARK 921   NORMALIZED FREE ENERGY PREDICTED BY IDOCK:   -3.79 KCAL/MOL
REMARK 922        TOTAL FREE ENERGY PREDICTED BY IDOCK:   -7.22 KCAL/MOL
REMARK 923 INTER-LIGAND FREE ENERGY PREDICTED BY IDOCK:   -6.59 KCAL/MOL
REMARK 924 INTRA-LIGAND FREE ENERGY PREDICTED BY IDOCK:   -0.64 KCAL/MOL
REMARK 927      BINDING AFFINITY PREDICTED BY RF-SCORE:    0.00 PKD
ROOT
HETATM    1  C   UNL     1      -7.274  19.676  66.229  1.00  0.00    -0.263 C  
HETATM    2  O   UNL     1      -8.687  19.672  66.383  1.00  0.00    -0.340 OA 
ENDROOT
BRANCH   2   3
HETATM    3  C   UNL     1      -9.266  18.470  66.684  1.00  0.00    -0.306 A  
HETATM    4  C   UNL     1     -10.445  18.286  67.407  1.00  0.00    -0.430 A  
HETATM    5  C   UNL     1     -10.898  16.996  67.699  1.00  0.00    -0.244 A  
HETATM    6  C   UNL     1     -10.185  15.872  67.260  1.00  0.00    -0.278 A  
HETATM    7  C   UNL     1      -8.573  17.354  66.218  1.00  0.00    -0.246 A  
HETATM    8  C   UNL     1      -9.025  16.065  66.503  1.00  0.00    -0.327 A  
BRANCH   6   9
HETATM    9  C   UNL     1     -10.564  14.479  67.705  1.00  0.00    -0.251 C  
BRANCH   9  10
HETATM   10  C   UNL     1     -11.024  13.499  66.601  1.00  0.00    -0.288 C  
HETATM   11  C   UNL     1     -12.042  14.165  65.667  1.00  0.00    -0.425 C  
BRANCH  10  12
HETATM   12  N   UNL     1      -9.904  13.030  65.760  1.00  0.00    -0.403 NA 
HETATM   13  H   UNL     1      -9.387  13.820  65.375  1.00  0.00     0.000 HD 
BRANCH  12  14
HETATM   14  C   UNL     1      -8.998  12.102  66.457  1.00  0.00    -0.179 C  
BRANCH  14  15
HETATM   15  C   UNL     1      -9.444  10.622  66.382  1.00  0.00    -0.171 C  
HETATM   16  H   UNL     1     -10.650   9.543  65.261  1.00  0.00     0.000 HD 
HETATM   17  O   UNL     1     -10.376  10.452  65.307  1.00  0.00    -0.284 OA 
BRANCH  15  18
HETATM   18  C   UNL     1      -9.985  10.064  67.682  1.00  0.00    -0.214 A  
HETATM   19  C   UNL     1      -9.904   8.680  67.924  1.00  0.00    -0.211 A  
HETATM   20  C   UNL     1     -10.414   8.119  69.100  1.00  0.00    -0.206 A  
HETATM   21  H   UNL     1     -11.949   9.081  71.848  1.00  0.00     0.000 HD 
HETATM   22  C   UNL     1     -10.991   8.972  70.050  1.00  0.00    -0.214 A  
HETATM   23  C   UNL     1     -10.551  10.892  68.661  1.00  0.00    -0.224 A  
HETATM   24  C   UNL     1     -11.052  10.347  69.841  1.00  0.00    -0.367 A  
HETATM   25  O   UNL     1     -11.557   8.503  71.203  1.00  0.00    -0.271 OA 
BRANCH  20  26
HETATM   26  N   UNL     1     -10.347   6.739  69.363  1.00  0.00    -0.190 N  
HETATM   27  H   UNL     1     -11.009   6.375  70.048  1.00  0.00     0.000 HD 
HETATM   28  O   UNL     1      -9.510   4.647  69.111  1.00  0.00    -0.130 OA 
HETATM   29  C   UNL     1      -9.493   5.830  68.803  1.00  0.00    -0.124 C  
ENDBRANCH  20  26
ENDBRANCH  15  18
ENDBRANCH  14  15
ENDBRANCH  12  14
ENDBRANCH  10  12
ENDBRANCH   9  10
ENDBRANCH   6   9
ENDBRANCH   2   3
TORSDOF 8
ENDMDL
MODEL      279
REMARK 921   NORMALIZED FREE ENERGY PREDICTED BY IDOCK:   -3.77 KCAL/MOL
REMARK 922        TOTAL FREE ENERGY PREDICTED BY IDOCK:   -7.19 KCAL/MOL
REMARK 923 INTER-LIGAND FREE ENERGY PREDICTED BY IDOCK:   -5.83 KCAL/MOL
REMARK 924 INTRA-LIGAND FREE ENERGY PREDICTED BY IDOCK:   -1.36 KCAL/MOL
REMARK 927      BINDING AFFINITY PREDICTED BY RF-SCORE:    0.00 PKD
ROOT
HETATM    1  C   UNL     1      -7.603   9.412  65.344  1.00  0.00    -0.100 C  
HETATM    2  O   UNL     1      -7.418  10.560  66.163  1.00  0.00    -0.125 OA 
ENDROOT
BRANCH   2   3
HETATM    3  C   UNL     1      -8.527  11.040  66.803  1.00  0.00    -0.148 A  
HETATM    4  C   UNL     1      -8.661  12.306  67.372  1.00  0.00    -0.180 A  
HETATM    5  C   UNL     1      -9.833  12.652  68.054  1.00  0.00    -0.218 A  
HETATM    6  C   UNL     1     -10.890  11.739  68.163  1.00  0.00    -0.258 A  
HETATM    7  C   UNL     1      -9.591  10.142  66.882  1.00  0.00    -0.219 A  
HETATM    8  C   UNL     1     -10.763  10.485  67.557  1.00  0.00    -0.326 A  
BRANCH   6   9
HETATM    9  C   UNL     1     -12.090  12.030  69.033  1.00  0.00    -0.223 C  
BRANCH   9  10
HETATM   10  C   UNL     1     -12.137  11.325  70.409  1.00  0.00    -0.384 C  
HETATM   11  C   UNL     1     -12.730  12.252  71.478  1.00  0.00    -0.339 C  
BRANCH  10  12
HETATM   12  N   UNL     1     -12.963  10.101  70.388  1.00  0.00    -0.585 NA 
HETATM   13  H   UNL     1     -12.976   9.690  69.455  1.00  0.00     0.000 HD 
BRANCH  12  14
HETATM   14  C   UNL     1     -12.556   9.104  71.393  1.00  0.00    -0.323 C  
BRANCH  14  15
HETATM   15  C   UNL     1     -12.443   7.666  70.833  1.00  0.00    -0.094 C  
HETATM   16  H   UNL     1     -12.886   5.849  71.448  1.00  0.00     0.000 HD 
HETATM   17  O   UNL     1     -12.956   6.732  71.792  1.00  0.00    -0.349 OA 
BRANCH  15  18
HETATM   18  C   UNL     1     -11.054   7.281  70.367  1.00  0.00    -0.291 A  
HETATM   19  C   UNL     1      -9.962   8.098  70.710  1.00  0.00    -0.209 A  
HETATM   20  C   UNL     1      -8.666   7.792  70.280  1.00  0.00    -0.143 A  
HETATM   21  H   UNL     1      -7.117   5.506  68.489  1.00  0.00     0.000 HD 
HETATM   22  C   UNL     1      -8.472   6.636  69.512  1.00  0.00    -0.132 A  
HETATM   23  C   UNL     1     -10.824   6.121  69.615  1.00  0.00    -0.424 A  
HETATM   24  C   UNL     1      -9.537   5.800  69.189  1.00  0.00    -0.171 A  
HETATM   25  O   UNL     1      -7.249   6.290  69.010  1.00  0.00    -0.078 OA 
BRANCH  20  26
HETATM   26  N   UNL     1      -7.558   8.596  70.608  1.00  0.00    -0.071 N  
HETATM   27  H   UNL     1      -6.770   8.123  71.049  1.00  0.00     0.000 HD 
HETATM   28  O   UNL     1      -6.414  10.549  70.735  1.00  0.00    -0.323 OA 
HETATM   29  C   UNL     1      -7.420   9.940  70.401  1.00  0.00    -0.122 C  
ENDBRANCH  20  26
ENDBRANCH  15  18
ENDBRANCH  14  15
ENDBRANCH  12  14
ENDBRANCH  10  12
ENDBRANCH   9  10
ENDBRANCH   6   9
ENDBRANCH   2   3
TORSDOF 8
ENDMDL
MODEL      280
REMARK 921   NORMALIZED FREE ENERGY PREDICTED BY IDOCK:   -3.76 KCAL/MOL
REMARK 922        TOTAL FREE ENERGY PREDICTED BY IDOCK:   -7.18 KCAL/MOL
REMARK 923 INTER-LIGAND FREE ENERGY PREDICTED BY IDOCK:   -5.01 KCAL/MOL
REMARK 924 INTRA-LIGAND FREE ENERGY PREDICTED BY IDOCK:   -2.17 KCAL/MOL
REMARK 927      BINDING AFFINITY PREDICTED BY RF-SCORE:    0.00 PKD
ROOT
HETATM    1  C   UNL     1      -6.768   6.321  66.731  1.00  0.00    -0.061 C  
HETATM    2  O   UNL     1      -6.479   7.313  67.708  1.00  0.00    -0.048 OA 
ENDROOT
BRANCH   2   3
HETATM    3  C   UNL     1      -7.111   7.187  68.914  1.00  0.00    -0.084 A  
HETATM    4  C   UNL     1      -7.250   8.187  69.876  1.00  0.00    -0.060 A  
HETATM    5  C   UNL     1      -7.869   7.908  71.099  1.00  0.00    -0.086 A  
HETATM    6  C   UNL     1      -8.370   6.627  71.369  1.00  0.00    -0.120 A  
HETATM    7  C   UNL     1      -7.639   5.921  69.168  1.00  0.00    -0.090 A  
HETATM    8  C   UNL     1      -8.262   5.640  70.384  1.00  0.00    -0.105 A  
BRANCH   6   9
HETATM    9  C   UNL     1      -8.890   6.261  72.739  1.00  0.00    -0.125 C  
BRANCH   9  10
HETATM   10  C   UNL     1     -10.424   6.133  72.889  1.00  0.00    -0.217 C  
HETATM   11  C   UNL     1     -10.785   5.037  73.901  1.00  0.00    -0.356 C  
BRANCH  10  12
HETATM   12  N   UNL     1     -11.051   7.383  73.360  1.00  0.00    -0.569 NA 
HETATM   13  H   UNL     1     -10.341   8.072  73.608  1.00  0.00     0.000 HD 
BRANCH  12  14
HETATM   14  C   UNL     1     -12.017   7.950  72.404  1.00  0.00    -0.320 C  
BRANCH  14  15
HETATM   15  C   UNL     1     -11.573   9.303  71.798  1.00  0.00    -0.388 C  
HETATM   16  H   UNL     1     -12.340  11.105  71.597  1.00  0.00     0.000 HD 
HETATM   17  O   UNL     1     -12.613  10.274  71.970  1.00  0.00    -0.371 OA 
BRANCH  15  18
HETATM   18  C   UNL     1     -11.116   9.224  70.356  1.00  0.00    -0.300 A  
HETATM   19  C   UNL     1     -10.628  10.383  69.724  1.00  0.00    -0.302 A  
HETATM   20  C   UNL     1     -10.219  10.360  68.386  1.00  0.00    -0.165 A  
HETATM   21  H   UNL     1      -9.997   8.224  65.892  1.00  0.00     0.000 HD 
HETATM   22  C   UNL     1     -10.285   9.147  67.688  1.00  0.00    -0.236 A  
HETATM   23  C   UNL     1     -11.151   8.022  69.636  1.00  0.00    -0.021 A  
HETATM   24  C   UNL     1     -10.737   7.985  68.306  1.00  0.00    -0.081 A  
HETATM   25  O   UNL     1      -9.953   9.047  66.366  1.00  0.00    -0.273 OA 
BRANCH  20  26
HETATM   26  N   UNL     1      -9.731  11.506  67.732  1.00  0.00    -0.171 N  
HETATM   27  H   UNL     1      -8.822  11.417  67.279  1.00  0.00     0.000 HD 
HETATM   28  O   UNL     1      -9.821  13.667  67.049  1.00  0.00    -0.239 OA 
HETATM   29  C   UNL     1     -10.340  12.726  67.635  1.00  0.00    -0.221 C  
ENDBRANCH  20  26
ENDBRANCH  15  18
ENDBRANCH  14  15
ENDBRANCH  12  14
ENDBRANCH  10  12
ENDBRANCH   9  10
ENDBRANCH   6   9
ENDBRANCH   2   3
TORSDOF 8
ENDMDL
MODEL      281
REMARK 921   NORMALIZED FREE ENERGY PREDICTED BY IDOCK:   -3.75 KCAL/MOL
REMARK 922        TOTAL FREE ENERGY PREDICTED BY IDOCK:   -7.17 KCAL/MOL
REMARK 923 INTER-LIGAND FREE ENERGY PREDICTED BY IDOCK:   -5.96 KCAL/MOL
REMARK 924 INTRA-LIGAND FREE ENERGY PREDICTED BY IDOCK:   -1.21 KCAL/MOL
REMARK 927      BINDING AFFINITY PREDICTED BY RF-SCORE:    0.00 PKD
ROOT
HETATM    1  C   UNL     1      -5.410  12.707  67.281  1.00  0.00     0.007 C  
HETATM    2  O   UNL     1      -5.699  14.068  67.573  1.00  0.00    -0.341 OA 
ENDROOT
BRANCH   2   3
HETATM    3  C   UNL     1      -6.978  14.353  67.963  1.00  0.00    -0.143 A  
HETATM    4  C   UNL     1      -8.115  14.289  67.158  1.00  0.00    -0.154 A  
HETATM    5  C   UNL     1      -9.361  14.668  67.667  1.00  0.00    -0.200 A  
HETATM    6  C   UNL     1      -9.488  15.101  68.994  1.00  0.00    -0.221 A  
HETATM    7  C   UNL     1      -7.108  14.753  69.293  1.00  0.00    -0.154 A  
HETATM    8  C   UNL     1      -8.350  15.126  69.806  1.00  0.00     0.041 A  
BRANCH   6   9
HETATM    9  C   UNL     1     -10.788  15.671  69.512  1.00  0.00    -0.271 C  
BRANCH   9  10
HETATM   10  C   UNL     1     -11.740  14.686  70.231  1.00  0.00    -0.297 C  
HETATM   11  C   UNL     1     -12.998  15.408  70.730  1.00  0.00    -0.510 C  
BRANCH  10  12
HETATM   12  N   UNL     1     -12.188  13.590  69.349  1.00  0.00    -0.278 NA 
HETATM   13  H   UNL     1     -12.132  13.868  68.369  1.00  0.00     0.000 HD 
BRANCH  12  14
HETATM   14  C   UNL     1     -11.468  12.325  69.575  1.00  0.00    -0.249 C  
BRANCH  14  15
HETATM   15  C   UNL     1     -11.782  11.233  68.525  1.00  0.00    -0.308 C  
HETATM   16  H   UNL     1     -11.449   9.304  68.319  1.00  0.00     0.000 HD 
HETATM   17  O   UNL     1     -11.256   9.974  68.964  1.00  0.00    -0.207 OA 
BRANCH  15  18
HETATM   18  C   UNL     1     -11.328  11.567  67.119  1.00  0.00    -0.354 A  
HETATM   19  C   UNL     1     -10.085  11.089  66.665  1.00  0.00    -0.262 A  
HETATM   20  C   UNL     1      -9.617  11.394  65.382  1.00  0.00    -0.228 A  
HETATM   21  H   UNL     1     -10.574  13.086  62.725  1.00  0.00     0.000 HD 
HETATM   22  C   UNL     1     -10.426  12.173  64.543  1.00  0.00    -0.303 A  
HETATM   23  C   UNL     1     -12.123  12.326  66.249  1.00  0.00    -0.154 A  
HETATM   24  C   UNL     1     -11.672  12.628  64.965  1.00  0.00    -0.401 A  
HETATM   25  O   UNL     1     -10.025  12.558  63.294  1.00  0.00    -0.348 OA 
BRANCH  20  26
HETATM   26  N   UNL     1      -8.376  10.931  64.907  1.00  0.00    -0.370 N  
HETATM   27  H   UNL     1      -7.547  11.306  65.366  1.00  0.00     0.000 HD 
HETATM   28  O   UNL     1      -7.033   9.704  63.554  1.00  0.00    -0.101 OA 
HETATM   29  C   UNL     1      -8.159  10.034  63.899  1.00  0.00    -0.152 C  
ENDBRANCH  20  26
ENDBRANCH  15  18
ENDBRANCH  14  15
ENDBRANCH  12  14
ENDBRANCH  10  12
ENDBRANCH   9  10
ENDBRANCH   6   9
ENDBRANCH   2   3
TORSDOF 8
ENDMDL
MODEL      282
REMARK 921   NORMALIZED FREE ENERGY PREDICTED BY IDOCK:   -3.75 KCAL/MOL
REMARK 922        TOTAL FREE ENERGY PREDICTED BY IDOCK:   -7.17 KCAL/MOL
REMARK 923 INTER-LIGAND FREE ENERGY PREDICTED BY IDOCK:   -4.71 KCAL/MOL
REMARK 924 INTRA-LIGAND FREE ENERGY PREDICTED BY IDOCK:   -2.46 KCAL/MOL
REMARK 927      BINDING AFFINITY PREDICTED BY RF-SCORE:    0.00 PKD
ROOT
HETATM    1  C   UNL     1      -6.769   9.834  66.666  1.00  0.00    -0.079 C  
HETATM    2  O   UNL     1      -6.383   8.689  67.415  1.00  0.00    -0.055 OA 
ENDROOT
BRANCH   2   3
HETATM    3  C   UNL     1      -6.863   8.602  68.692  1.00  0.00    -0.063 A  
HETATM    4  C   UNL     1      -7.237   9.673  69.503  1.00  0.00    -0.080 A  
HETATM    5  C   UNL     1      -7.656   9.449  70.819  1.00  0.00    -0.138 A  
HETATM    6  C   UNL     1      -7.721   8.147  71.334  1.00  0.00    -0.098 A  
HETATM    7  C   UNL     1      -6.958   7.304  69.193  1.00  0.00    -0.074 A  
HETATM    8  C   UNL     1      -7.381   7.075  70.503  1.00  0.00    -0.076 A  
BRANCH   6   9
HETATM    9  C   UNL     1      -8.008   7.896  72.796  1.00  0.00    -0.175 C  
BRANCH   9  10
HETATM   10  C   UNL     1      -8.408   6.454  73.187  1.00  0.00    -0.115 C  
HETATM   11  C   UNL     1      -7.559   5.950  74.361  1.00  0.00    -0.090 C  
BRANCH  10  12
HETATM   12  N   UNL     1      -9.822   6.353  73.599  1.00  0.00    -0.180 NA 
HETATM   13  H   UNL     1      -9.895   6.098  74.584  1.00  0.00     0.000 HD 
BRANCH  12  14
HETATM   14  C   UNL     1     -10.603   7.569  73.316  1.00  0.00    -0.384 C  
BRANCH  14  15
HETATM   15  C   UNL     1     -11.695   7.372  72.238  1.00  0.00    -0.286 C  
HETATM   16  H   UNL     1     -12.771   5.876  71.545  1.00  0.00     0.000 HD 
HETATM   17  O   UNL     1     -12.101   5.998  72.207  1.00  0.00    -0.301 OA 
BRANCH  15  18
HETATM   18  C   UNL     1     -11.314   7.871  70.860  1.00  0.00    -0.290 A  
HETATM   19  C   UNL     1     -11.309   9.255  70.606  1.00  0.00    -0.330 A  
HETATM   20  C   UNL     1     -10.987   9.758  69.340  1.00  0.00    -0.212 A  
HETATM   21  H   UNL     1     -10.136   8.637  66.365  1.00  0.00     0.000 HD 
HETATM   22  C   UNL     1     -10.646   8.851  68.328  1.00  0.00    -0.152 A  
HETATM   23  C   UNL     1     -10.949   6.991  69.832  1.00  0.00    -0.296 A  
HETATM   24  C   UNL     1     -10.617   7.480  68.570  1.00  0.00    -0.172 A  
HETATM   25  O   UNL     1     -10.367   9.252  67.051  1.00  0.00    -0.243 OA 
BRANCH  20  26
HETATM   26  N   UNL     1     -10.978  11.137  69.061  1.00  0.00    -0.219 N  
HETATM   27  H   UNL     1     -10.317  11.451  68.350  1.00  0.00     0.000 HD 
HETATM   28  O   UNL     1     -11.660  13.283  69.329  1.00  0.00    -0.279 OA 
HETATM   29  C   UNL     1     -11.755  12.103  69.637  1.00  0.00    -0.325 C  
ENDBRANCH  20  26
ENDBRANCH  15  18
ENDBRANCH  14  15
ENDBRANCH  12  14
ENDBRANCH  10  12
ENDBRANCH   9  10
ENDBRANCH   6   9
ENDBRANCH   2   3
TORSDOF 8
ENDMDL
MODEL      283
REMARK 921   NORMALIZED FREE ENERGY PREDICTED BY IDOCK:   -3.75 KCAL/MOL
REMARK 922        TOTAL FREE ENERGY PREDICTED BY IDOCK:   -7.17 KCAL/MOL
REMARK 923 INTER-LIGAND FREE ENERGY PREDICTED BY IDOCK:   -6.69 KCAL/MOL
REMARK 924 INTRA-LIGAND FREE ENERGY PREDICTED BY IDOCK:   -0.48 KCAL/MOL
REMARK 927      BINDING AFFINITY PREDICTED BY RF-SCORE:    0.00 PKD
ROOT
HETATM    1  C   UNL     1     -10.555   7.589  73.287  1.00  0.00    -0.384 C  
HETATM    2  O   UNL     1     -10.865   7.301  71.930  1.00  0.00    -0.222 OA 
ENDROOT
BRANCH   2   3
HETATM    3  C   UNL     1     -10.090   7.910  70.982  1.00  0.00    -0.192 A  
HETATM    4  C   UNL     1      -9.941   9.285  70.804  1.00  0.00    -0.357 A  
HETATM    5  C   UNL     1      -9.163   9.780  69.752  1.00  0.00    -0.248 A  
HETATM    6  C   UNL     1      -8.512   8.903  68.874  1.00  0.00    -0.131 A  
HETATM    7  C   UNL     1      -9.416   7.036  70.129  1.00  0.00    -0.162 A  
HETATM    8  C   UNL     1      -8.634   7.526  69.082  1.00  0.00    -0.136 A  
BRANCH   6   9
HETATM    9  C   UNL     1      -7.807   9.412  67.638  1.00  0.00    -0.095 C  
BRANCH   9  10
HETATM   10  C   UNL     1      -8.691   9.698  66.402  1.00  0.00    -0.134 C  
HETATM   11  C   UNL     1      -9.954   8.827  66.419  1.00  0.00    -0.346 C  
BRANCH  10  12
HETATM   12  N   UNL     1      -9.134  11.105  66.339  1.00  0.00    -0.181 NA 
HETATM   13  H   UNL     1      -8.935  11.506  65.423  1.00  0.00     0.000 HD 
BRANCH  12  14
HETATM   14  C   UNL     1     -10.552  11.289  66.693  1.00  0.00    -0.262 C  
BRANCH  14  15
HETATM   15  C   UNL     1     -11.372  12.033  65.612  1.00  0.00    -0.329 C  
HETATM   16  H   UNL     1     -11.684  11.857  63.676  1.00  0.00     0.000 HD 
HETATM   17  O   UNL     1     -11.181  11.400  64.340  1.00  0.00    -0.304 OA 
BRANCH  15  18
HETATM   18  C   UNL     1     -11.109  13.523  65.539  1.00  0.00    -0.303 A  
HETATM   19  C   UNL     1     -10.331  14.134  66.539  1.00  0.00    -0.284 A  
HETATM   20  C   UNL     1     -10.084  15.512  66.523  1.00  0.00    -0.279 A  
HETATM   21  H   UNL     1     -10.821  18.146  64.693  1.00  0.00     0.000 HD 
HETATM   22  C   UNL     1     -10.613  16.273  65.472  1.00  0.00    -0.353 A  
HETATM   23  C   UNL     1     -11.607  14.308  64.491  1.00  0.00    -0.397 A  
HETATM   24  C   UNL     1     -11.359  15.679  64.458  1.00  0.00    -0.327 A  
HETATM   25  O   UNL     1     -10.462  17.630  65.406  1.00  0.00    -0.648 OA 
BRANCH  20  26
HETATM   26  N   UNL     1      -9.312  16.147  67.513  1.00  0.00    -0.216 N  
HETATM   27  H   UNL     1      -9.236  17.161  67.448  1.00  0.00     0.000 HD 
HETATM   28  O   UNL     1      -7.995  16.200  69.358  1.00  0.00    -0.227 OA 
HETATM   29  C   UNL     1      -8.652  15.555  68.554  1.00  0.00    -0.176 C  
ENDBRANCH  20  26
ENDBRANCH  15  18
ENDBRANCH  14  15
ENDBRANCH  12  14
ENDBRANCH  10  12
ENDBRANCH   9  10
ENDBRANCH   6   9
ENDBRANCH   2   3
TORSDOF 8
ENDMDL
MODEL      284
REMARK 921   NORMALIZED FREE ENERGY PREDICTED BY IDOCK:   -3.75 KCAL/MOL
REMARK 922        TOTAL FREE ENERGY PREDICTED BY IDOCK:   -7.17 KCAL/MOL
REMARK 923 INTER-LIGAND FREE ENERGY PREDICTED BY IDOCK:   -5.47 KCAL/MOL
REMARK 924 INTRA-LIGAND FREE ENERGY PREDICTED BY IDOCK:   -1.70 KCAL/MOL
REMARK 927      BINDING AFFINITY PREDICTED BY RF-SCORE:    0.00 PKD
ROOT
HETATM    1  C   UNL     1      -8.843   4.657  66.354  1.00  0.00    -0.112 C  
HETATM    2  O   UNL     1      -8.079   5.542  67.163  1.00  0.00    -0.101 OA 
ENDROOT
BRANCH   2   3
HETATM    3  C   UNL     1      -8.541   6.824  67.274  1.00  0.00    -0.120 A  
HETATM    4  C   UNL     1      -9.767   7.298  66.808  1.00  0.00    -0.260 A  
HETATM    5  C   UNL     1     -10.092   8.653  66.932  1.00  0.00    -0.355 A  
HETATM    6  C   UNL     1      -9.201   9.548  67.538  1.00  0.00    -0.142 A  
HETATM    7  C   UNL     1      -7.666   7.707  67.907  1.00  0.00    -0.115 A  
HETATM    8  C   UNL     1      -7.990   9.058  68.038  1.00  0.00    -0.101 A  
BRANCH   6   9
HETATM    9  C   UNL     1      -9.459  11.036  67.532  1.00  0.00    -0.175 C  
BRANCH   9  10
HETATM   10  C   UNL     1     -10.420  11.579  68.616  1.00  0.00    -0.202 C  
HETATM   11  C   UNL     1     -11.857  11.653  68.085  1.00  0.00    -0.315 C  
BRANCH  10  12
HETATM   12  N   UNL     1     -10.446  10.729  69.823  1.00  0.00    -0.436 NA 
HETATM   13  H   UNL     1      -9.747  11.039  70.498  1.00  0.00     0.000 HD 
BRANCH  12  14
HETATM   14  C   UNL     1     -11.776  10.644  70.451  1.00  0.00    -0.353 C  
BRANCH  14  15
HETATM   15  C   UNL     1     -12.115   9.240  71.003  1.00  0.00    -0.280 C  
HETATM   16  H   UNL     1     -13.129   8.503  72.522  1.00  0.00     0.000 HD 
HETATM   17  O   UNL     1     -12.920   9.366  72.182  1.00  0.00    -0.390 OA 
BRANCH  15  18
HETATM   18  C   UNL     1     -10.911   8.352  71.243  1.00  0.00    -0.293 A  
HETATM   19  C   UNL     1     -10.755   7.181  70.479  1.00  0.00    -0.259 A  
HETATM   20  C   UNL     1      -9.671   6.321  70.685  1.00  0.00    -0.176 A  
HETATM   21  H   UNL     1      -7.021   6.084  72.622  1.00  0.00     0.000 HD 
HETATM   22  C   UNL     1      -8.725   6.661  71.661  1.00  0.00    -0.130 A  
HETATM   23  C   UNL     1      -9.936   8.674  72.198  1.00  0.00    -0.386 A  
HETATM   24  C   UNL     1      -8.847   7.831  72.405  1.00  0.00    -0.192 A  
HETATM   25  O   UNL     1      -7.663   5.854  71.960  1.00  0.00    -0.099 OA 
BRANCH  20  26
HETATM   26  N   UNL     1      -9.496   5.143  69.935  1.00  0.00    -0.148 N  
HETATM   27  H   UNL     1      -9.191   5.262  68.969  1.00  0.00     0.000 HD 
HETATM   28  O   UNL     1      -9.517   2.898  69.617  1.00  0.00    -0.149 OA 
HETATM   29  C   UNL     1      -9.688   3.857  70.356  1.00  0.00    -0.175 C  
ENDBRANCH  20  26
ENDBRANCH  15  18
ENDBRANCH  14  15
ENDBRANCH  12  14
ENDBRANCH  10  12
ENDBRANCH   9  10
ENDBRANCH   6   9
ENDBRANCH   2   3
TORSDOF 8
ENDMDL
MODEL      285
REMARK 921   NORMALIZED FREE ENERGY PREDICTED BY IDOCK:   -3.74 KCAL/MOL
REMARK 922        TOTAL FREE ENERGY PREDICTED BY IDOCK:   -7.16 KCAL/MOL
REMARK 923 INTER-LIGAND FREE ENERGY PREDICTED BY IDOCK:   -6.52 KCAL/MOL
REMARK 924 INTRA-LIGAND FREE ENERGY PREDICTED BY IDOCK:   -0.64 KCAL/MOL
REMARK 927      BINDING AFFINITY PREDICTED BY RF-SCORE:    0.00 PKD
ROOT
HETATM    1  C   UNL     1      -5.535  10.594  65.554  1.00  0.00    -0.136 C  
HETATM    2  O   UNL     1      -5.572   9.626  66.594  1.00  0.00    -0.045 OA 
ENDROOT
BRANCH   2   3
HETATM    3  C   UNL     1      -6.569   9.761  67.521  1.00  0.00    -0.069 A  
HETATM    4  C   UNL     1      -6.706  10.807  68.433  1.00  0.00    -0.059 A  
HETATM    5  C   UNL     1      -7.742  10.792  69.372  1.00  0.00    -0.107 A  
HETATM    6  C   UNL     1      -8.664   9.736  69.401  1.00  0.00    -0.178 A  
HETATM    7  C   UNL     1      -7.504   8.726  67.527  1.00  0.00    -0.089 A  
HETATM    8  C   UNL     1      -8.542   8.710  68.459  1.00  0.00    -0.135 A  
BRANCH   6   9
HETATM    9  C   UNL     1      -9.685   9.617  70.508  1.00  0.00    -0.280 C  
BRANCH   9  10
HETATM   10  C   UNL     1     -11.102   9.152  70.099  1.00  0.00    -0.222 C  
HETATM   11  C   UNL     1     -11.753   8.329  71.218  1.00  0.00    -0.318 C  
BRANCH  10  12
HETATM   12  N   UNL     1     -12.005  10.284  69.811  1.00  0.00    -0.467 NA 
HETATM   13  H   UNL     1     -12.439  10.627  70.668  1.00  0.00     0.000 HD 
BRANCH  12  14
HETATM   14  C   UNL     1     -11.351  11.384  69.081  1.00  0.00    -0.288 C  
BRANCH  14  15
HETATM   15  C   UNL     1     -11.656  11.393  67.564  1.00  0.00    -0.219 C  
HETATM   16  H   UNL     1     -11.192  10.288  66.002  1.00  0.00     0.000 HD 
HETATM   17  O   UNL     1     -11.005  10.283  66.934  1.00  0.00    -0.190 OA 
BRANCH  15  18
HETATM   18  C   UNL     1     -11.333  12.698  66.867  1.00  0.00    -0.373 A  
HETATM   19  C   UNL     1     -11.323  13.893  67.611  1.00  0.00    -0.335 A  
HETATM   20  C   UNL     1     -11.054  15.123  67.000  1.00  0.00    -0.328 A  
HETATM   21  H   UNL     1     -10.355  16.315  64.013  1.00  0.00     0.000 HD 
HETATM   22  C   UNL     1     -10.772  15.141  65.628  1.00  0.00    -0.363 A  
HETATM   23  C   UNL     1     -11.027  12.747  65.500  1.00  0.00    -0.310 A  
HETATM   24  C   UNL     1     -10.748  13.965  64.883  1.00  0.00    -0.422 A  
HETATM   25  O   UNL     1     -10.547  16.303  64.944  1.00  0.00    -0.650 OA 
BRANCH  20  26
HETATM   26  N   UNL     1     -11.042  16.331  67.723  1.00  0.00    -0.277 N  
HETATM   27  H   UNL     1     -11.939  16.802  67.833  1.00  0.00     0.000 HD 
HETATM   28  O   UNL     1     -10.056  18.003  68.894  1.00  0.00    -0.375 OA 
HETATM   29  C   UNL     1      -9.961  16.943  68.293  1.00  0.00    -0.282 C  
ENDBRANCH  20  26
ENDBRANCH  15  18
ENDBRANCH  14  15
ENDBRANCH  12  14
ENDBRANCH  10  12
ENDBRANCH   9  10
ENDBRANCH   6   9
ENDBRANCH   2   3
TORSDOF 8
ENDMDL
MODEL      286
REMARK 921   NORMALIZED FREE ENERGY PREDICTED BY IDOCK:   -3.74 KCAL/MOL
REMARK 922        TOTAL FREE ENERGY PREDICTED BY IDOCK:   -7.15 KCAL/MOL
REMARK 923 INTER-LIGAND FREE ENERGY PREDICTED BY IDOCK:   -6.47 KCAL/MOL
REMARK 924 INTRA-LIGAND FREE ENERGY PREDICTED BY IDOCK:   -0.68 KCAL/MOL
REMARK 927      BINDING AFFINITY PREDICTED BY RF-SCORE:    0.00 PKD
ROOT
HETATM    1  C   UNL     1      -5.811  19.767  72.042  1.00  0.00    -0.104 C  
HETATM    2  O   UNL     1      -5.129  19.606  70.806  1.00  0.00    -0.188 OA 
ENDROOT
BRANCH   2   3
HETATM    3  C   UNL     1      -5.903  19.361  69.705  1.00  0.00    -0.265 A  
HETATM    4  C   UNL     1      -6.321  20.307  68.770  1.00  0.00    -0.347 A  
HETATM    5  C   UNL     1      -7.166  19.934  67.719  1.00  0.00    -0.313 A  
HETATM    6  C   UNL     1      -7.591  18.605  67.583  1.00  0.00    -0.243 A  
HETATM    7  C   UNL     1      -6.299  18.032  69.553  1.00  0.00    -0.215 A  
HETATM    8  C   UNL     1      -7.137  17.655  68.504  1.00  0.00    -0.239 A  
BRANCH   6   9
HETATM    9  C   UNL     1      -8.631  18.216  66.560  1.00  0.00    -0.282 C  
BRANCH   9  10
HETATM   10  C   UNL     1     -10.106  18.511  66.921  1.00  0.00    -0.370 C  
HETATM   11  C   UNL     1     -10.774  19.369  65.838  1.00  0.00    -0.501 C  
BRANCH  10  12
HETATM   12  N   UNL     1     -10.910  17.281  67.058  1.00  0.00    -0.132 NA 
HETATM   13  H   UNL     1     -11.664  17.263  66.372  1.00  0.00     0.000 HD 
BRANCH  12  14
HETATM   14  C   UNL     1     -10.110  16.047  66.987  1.00  0.00    -0.271 C  
BRANCH  14  15
HETATM   15  C   UNL     1     -10.856  14.790  67.494  1.00  0.00    -0.287 C  
HETATM   16  H   UNL     1     -10.944  13.752  69.165  1.00  0.00     0.000 HD 
HETATM   17  O   UNL     1     -10.486  14.524  68.853  1.00  0.00    -0.238 OA 
BRANCH  15  18
HETATM   18  C   UNL     1     -10.686  13.564  66.620  1.00  0.00    -0.282 A  
HETATM   19  C   UNL     1      -9.435  12.921  66.571  1.00  0.00    -0.251 A  
HETATM   20  C   UNL     1      -9.229  11.801  65.758  1.00  0.00    -0.139 A  
HETATM   21  H   UNL     1     -10.909   9.927  63.637  1.00  0.00     0.000 HD 
HETATM   22  C   UNL     1     -10.306  11.315  65.004  1.00  0.00    -0.301 A  
HETATM   23  C   UNL     1     -11.748  13.041  65.870  1.00  0.00    -0.442 A  
HETATM   24  C   UNL     1     -11.558  11.920  65.064  1.00  0.00    -0.277 A  
HETATM   25  O   UNL     1     -10.179  10.257  64.148  1.00  0.00    -0.233 OA 
BRANCH  20  26
HETATM   26  N   UNL     1      -7.987  11.143  65.690  1.00  0.00    -0.370 N  
HETATM   27  H   UNL     1      -7.494  11.197  64.799  1.00  0.00     0.000 HD 
HETATM   28  O   UNL     1      -6.286   9.893  66.517  1.00  0.00    -0.067 OA 
HETATM   29  C   UNL     1      -7.367  10.439  66.684  1.00  0.00    -0.114 C  
ENDBRANCH  20  26
ENDBRANCH  15  18
ENDBRANCH  14  15
ENDBRANCH  12  14
ENDBRANCH  10  12
ENDBRANCH   9  10
ENDBRANCH   6   9
ENDBRANCH   2   3
TORSDOF 8
ENDMDL
MODEL      287
REMARK 921   NORMALIZED FREE ENERGY PREDICTED BY IDOCK:   -3.74 KCAL/MOL
REMARK 922        TOTAL FREE ENERGY PREDICTED BY IDOCK:   -7.14 KCAL/MOL
REMARK 923 INTER-LIGAND FREE ENERGY PREDICTED BY IDOCK:   -6.04 KCAL/MOL
REMARK 924 INTRA-LIGAND FREE ENERGY PREDICTED BY IDOCK:   -1.10 KCAL/MOL
REMARK 927      BINDING AFFINITY PREDICTED BY RF-SCORE:    0.00 PKD
ROOT
HETATM    1  C   UNL     1     -12.658   6.616  71.851  1.00  0.00    -0.256 C  
HETATM    2  O   UNL     1     -11.306   6.187  71.762  1.00  0.00    -0.275 OA 
ENDROOT
BRANCH   2   3
HETATM    3  C   UNL     1     -10.405   7.097  71.285  1.00  0.00    -0.198 A  
HETATM    4  C   UNL     1     -10.488   8.483  71.419  1.00  0.00    -0.305 A  
HETATM    5  C   UNL     1      -9.525   9.308  70.828  1.00  0.00    -0.336 A  
HETATM    6  C   UNL     1      -8.458   8.755  70.107  1.00  0.00    -0.139 A  
HETATM    7  C   UNL     1      -9.325   6.544  70.596  1.00  0.00    -0.166 A  
HETATM    8  C   UNL     1      -8.360   7.364  70.009  1.00  0.00    -0.137 A  
BRANCH   6   9
HETATM    9  C   UNL     1      -7.506   9.628  69.323  1.00  0.00    -0.085 C  
BRANCH   9  10
HETATM   10  C   UNL     1      -6.665  10.641  70.135  1.00  0.00    -0.140 C  
HETATM   11  C   UNL     1      -5.700   9.916  71.082  1.00  0.00    -0.071 C  
BRANCH  10  12
HETATM   12  N   UNL     1      -5.849  11.516  69.270  1.00  0.00    -0.055 NA 
HETATM   13  H   UNL     1      -4.905  11.144  69.167  1.00  0.00     0.000 HD 
BRANCH  12  14
HETATM   14  C   UNL     1      -6.457  11.771  67.953  1.00  0.00    -0.068 C  
BRANCH  14  15
HETATM   15  C   UNL     1      -6.907  13.237  67.748  1.00  0.00    -0.153 C  
HETATM   16  H   UNL     1      -6.670  14.954  68.682  1.00  0.00     0.000 HD 
HETATM   17  O   UNL     1      -6.394  14.053  68.808  1.00  0.00    -0.081 OA 
BRANCH  15  18
HETATM   18  C   UNL     1      -8.402  13.417  67.579  1.00  0.00    -0.190 A  
HETATM   19  C   UNL     1      -8.882  14.459  66.765  1.00  0.00    -0.225 A  
HETATM   20  C   UNL     1     -10.255  14.675  66.602  1.00  0.00    -0.274 A  
HETATM   21  H   UNL     1     -13.111  13.401  67.630  1.00  0.00     0.000 HD 
HETATM   22  C   UNL     1     -11.149  13.815  67.253  1.00  0.00    -0.304 A  
HETATM   23  C   UNL     1      -9.322  12.561  68.201  1.00  0.00    -0.210 A  
HETATM   24  C   UNL     1     -10.691  12.761  68.038  1.00  0.00    -0.246 A  
HETATM   25  O   UNL     1     -12.504  13.985  67.188  1.00  0.00    -0.293 OA 
BRANCH  20  26
HETATM   26  N   UNL     1     -10.760  15.712  65.795  1.00  0.00    -0.336 N  
HETATM   27  H   UNL     1     -10.801  16.638  66.220  1.00  0.00     0.000 HD 
HETATM   28  O   UNL     1     -11.634  16.583  63.893  1.00  0.00    -1.175 OA 
HETATM   29  C   UNL     1     -11.201  15.617  64.505  1.00  0.00    -0.325 C  
ENDBRANCH  20  26
ENDBRANCH  15  18
ENDBRANCH  14  15
ENDBRANCH  12  14
ENDBRANCH  10  12
ENDBRANCH   9  10
ENDBRANCH   6   9
ENDBRANCH   2   3
TORSDOF 8
ENDMDL
MODEL      288
REMARK 921   NORMALIZED FREE ENERGY PREDICTED BY IDOCK:   -3.73 KCAL/MOL
REMARK 922        TOTAL FREE ENERGY PREDICTED BY IDOCK:   -7.14 KCAL/MOL
REMARK 923 INTER-LIGAND FREE ENERGY PREDICTED BY IDOCK:   -6.59 KCAL/MOL
REMARK 924 INTRA-LIGAND FREE ENERGY PREDICTED BY IDOCK:   -0.55 KCAL/MOL
REMARK 927      BINDING AFFINITY PREDICTED BY RF-SCORE:    0.00 PKD
ROOT
HETATM    1  C   UNL     1      -6.397  19.931  72.386  1.00  0.00     0.805 C  
HETATM    2  O   UNL     1      -5.161  20.116  71.708  1.00  0.00    -0.349 OA 
ENDROOT
BRANCH   2   3
HETATM    3  C   UNL     1      -5.189  20.013  70.345  1.00  0.00    -0.229 A  
HETATM    4  C   UNL     1      -5.205  21.075  69.442  1.00  0.00    -0.378 A  
HETATM    5  C   UNL     1      -5.296  20.832  68.068  1.00  0.00    -0.300 A  
HETATM    6  C   UNL     1      -5.357  19.520  67.578  1.00  0.00    -0.169 A  
HETATM    7  C   UNL     1      -5.216  18.706  69.858  1.00  0.00    -0.206 A  
HETATM    8  C   UNL     1      -5.302  18.458  68.488  1.00  0.00    -0.170 A  
BRANCH   6   9
HETATM    9  C   UNL     1      -5.623  19.239  66.118  1.00  0.00    -0.172 C  
BRANCH   9  10
HETATM   10  C   UNL     1      -6.364  20.339  65.323  1.00  0.00    -0.267 C  
HETATM   11  C   UNL     1      -6.038  20.247  63.827  1.00  0.00    -0.250 C  
BRANCH  10  12
HETATM   12  N   UNL     1      -7.832  20.238  65.455  1.00  0.00    -0.462 NA 
HETATM   13  H   UNL     1      -8.272  20.149  64.540  1.00  0.00     0.000 HD 
BRANCH  12  14
HETATM   14  C   UNL     1      -8.265  19.151  66.351  1.00  0.00    -0.314 C  
BRANCH  14  15
HETATM   15  C   UNL     1      -9.801  18.981  66.424  1.00  0.00    -0.378 C  
HETATM   16  H   UNL     1     -11.293  19.827  67.393  1.00  0.00     0.000 HD 
HETATM   17  O   UNL     1     -10.349  19.931  67.347  1.00  0.00    -0.412 OA 
BRANCH  15  18
HETATM   18  C   UNL     1     -10.262  17.572  66.736  1.00  0.00    -0.327 A  
HETATM   19  C   UNL     1     -10.640  17.246  68.051  1.00  0.00    -0.394 A  
HETATM   20  C   UNL     1     -11.048  15.950  68.387  1.00  0.00    -0.345 A  
HETATM   21  H   UNL     1     -11.466  13.024  66.939  1.00  0.00     0.000 HD 
HETATM   22  C   UNL     1     -11.095  14.981  67.376  1.00  0.00    -0.324 A  
HETATM   23  C   UNL     1     -10.339  16.586  65.743  1.00  0.00    -0.359 A  
HETATM   24  C   UNL     1     -10.754  15.295  66.063  1.00  0.00    -0.324 A  
HETATM   25  O   UNL     1     -11.434  13.681  67.625  1.00  0.00    -0.291 OA 
BRANCH  20  26
HETATM   26  N   UNL     1     -11.427  15.599  69.696  1.00  0.00    -0.314 N  
HETATM   27  H   UNL     1     -11.944  14.726  69.799  1.00  0.00     0.000 HD 
HETATM   28  O   UNL     1     -11.566  15.908  71.937  1.00  0.00    -0.426 OA 
HETATM   29  C   UNL     1     -11.180  16.298  70.844  1.00  0.00    -0.232 C  
ENDBRANCH  20  26
ENDBRANCH  15  18
ENDBRANCH  14  15
ENDBRANCH  12  14
ENDBRANCH  10  12
ENDBRANCH   9  10
ENDBRANCH   6   9
ENDBRANCH   2   3
TORSDOF 8
ENDMDL
MODEL      289
REMARK 921   NORMALIZED FREE ENERGY PREDICTED BY IDOCK:   -3.72 KCAL/MOL
REMARK 922        TOTAL FREE ENERGY PREDICTED BY IDOCK:   -7.12 KCAL/MOL
REMARK 923 INTER-LIGAND FREE ENERGY PREDICTED BY IDOCK:   -6.45 KCAL/MOL
REMARK 924 INTRA-LIGAND FREE ENERGY PREDICTED BY IDOCK:   -0.67 KCAL/MOL
REMARK 927      BINDING AFFINITY PREDICTED BY RF-SCORE:    0.00 PKD
ROOT
HETATM    1  C   UNL     1      -8.818  20.058  67.350  1.00  0.00    -0.346 C  
HETATM    2  O   UNL     1      -8.000  19.289  68.222  1.00  0.00    -0.300 OA 
ENDROOT
BRANCH   2   3
HETATM    3  C   UNL     1      -8.104  17.929  68.120  1.00  0.00    -0.267 A  
HETATM    4  C   UNL     1      -8.881  17.233  67.195  1.00  0.00    -0.237 A  
HETATM    5  C   UNL     1      -8.946  15.836  67.237  1.00  0.00    -0.211 A  
HETATM    6  C   UNL     1      -8.223  15.118  68.199  1.00  0.00    -0.145 A  
HETATM    7  C   UNL     1      -7.357  17.214  69.056  1.00  0.00    -0.217 A  
HETATM    8  C   UNL     1      -7.416  15.821  69.099  1.00  0.00    -0.207 A  
BRANCH   6   9
HETATM    9  C   UNL     1      -8.409  13.628  68.368  1.00  0.00    -0.147 C  
BRANCH   9  10
HETATM   10  C   UNL     1      -7.675  12.717  67.357  1.00  0.00    -0.161 C  
HETATM   11  C   UNL     1      -6.188  12.589  67.713  1.00  0.00    -0.119 C  
BRANCH  10  12
HETATM   12  N   UNL     1      -8.233  11.350  67.322  1.00  0.00    -0.144 NA 
HETATM   13  H   UNL     1      -7.623  10.698  67.814  1.00  0.00     0.000 HD 
BRANCH  12  14
HETATM   14  C   UNL     1      -9.610  11.266  67.836  1.00  0.00    -0.178 C  
BRANCH  14  15
HETATM   15  C   UNL     1     -10.019   9.846  68.292  1.00  0.00    -0.151 C  
HETATM   16  H   UNL     1     -10.768   8.230  67.452  1.00  0.00     0.000 HD 
HETATM   17  O   UNL     1     -10.516   9.103  67.172  1.00  0.00    -0.260 OA 
BRANCH  15  18
HETATM   18  C   UNL     1     -10.989   9.815  69.456  1.00  0.00    -0.256 A  
HETATM   19  C   UNL     1     -10.981   8.713  70.330  1.00  0.00    -0.256 A  
HETATM   20  C   UNL     1     -11.876   8.633  71.403  1.00  0.00    -0.297 A  
HETATM   21  H   UNL     1     -14.323  10.388  72.732  1.00  0.00     0.000 HD 
HETATM   22  C   UNL     1     -12.774   9.690  71.604  1.00  0.00    -0.407 A  
HETATM   23  C   UNL     1     -11.885  10.865  69.696  1.00  0.00    -0.416 A  
HETATM   24  C   UNL     1     -12.775  10.802  70.766  1.00  0.00    -0.451 A  
HETATM   25  O   UNL     1     -13.714   9.671  72.596  1.00  0.00    -0.328 OA 
BRANCH  20  26
HETATM   26  N   UNL     1     -11.889   7.540  72.289  1.00  0.00    -0.374 N  
HETATM   27  H   UNL     1     -12.010   7.759  73.277  1.00  0.00     0.000 HD 
HETATM   28  O   UNL     1     -11.771   5.340  72.825  1.00  0.00    -0.275 OA 
HETATM   29  C   UNL     1     -11.758   6.217  71.972  1.00  0.00    -0.299 C  
ENDBRANCH  20  26
ENDBRANCH  15  18
ENDBRANCH  14  15
ENDBRANCH  12  14
ENDBRANCH  10  12
ENDBRANCH   9  10
ENDBRANCH   6   9
ENDBRANCH   2   3
TORSDOF 8
ENDMDL
MODEL      290
REMARK 921   NORMALIZED FREE ENERGY PREDICTED BY IDOCK:   -3.72 KCAL/MOL
REMARK 922        TOTAL FREE ENERGY PREDICTED BY IDOCK:   -7.12 KCAL/MOL
REMARK 923 INTER-LIGAND FREE ENERGY PREDICTED BY IDOCK:   -5.71 KCAL/MOL
REMARK 924 INTRA-LIGAND FREE ENERGY PREDICTED BY IDOCK:   -1.41 KCAL/MOL
REMARK 927      BINDING AFFINITY PREDICTED BY RF-SCORE:    0.00 PKD
ROOT
HETATM    1  C   UNL     1     -11.382  15.631  64.474  1.00  0.00    -0.320 C  
HETATM    2  O   UNL     1     -11.524  14.825  65.636  1.00  0.00    -0.348 OA 
ENDROOT
BRANCH   2   3
HETATM    3  C   UNL     1     -11.141  13.516  65.524  1.00  0.00    -0.294 A  
HETATM    4  C   UNL     1     -11.188  12.558  66.536  1.00  0.00    -0.356 A  
HETATM    5  C   UNL     1     -10.707  11.265  66.307  1.00  0.00    -0.312 A  
HETATM    6  C   UNL     1     -10.185  10.911  65.055  1.00  0.00    -0.367 A  
HETATM    7  C   UNL     1     -10.652  13.156  64.268  1.00  0.00    -0.432 A  
HETATM    8  C   UNL     1     -10.176  11.866  64.033  1.00  0.00    -0.394 A  
BRANCH   6   9
HETATM    9  C   UNL     1      -9.509   9.577  64.836  1.00  0.00    -0.230 C  
BRANCH   9  10
HETATM   10  C   UNL     1      -7.964   9.565  64.890  1.00  0.00    -0.121 C  
HETATM   11  C   UNL     1      -7.442  10.606  65.888  1.00  0.00    -0.131 C  
BRANCH  10  12
HETATM   12  N   UNL     1      -7.425   8.255  65.307  1.00  0.00    -0.080 NA 
HETATM   13  H   UNL     1      -6.937   8.333  66.199  1.00  0.00     0.000 HD 
BRANCH  12  14
HETATM   14  C   UNL     1      -8.443   7.192  65.360  1.00  0.00    -0.082 C  
BRANCH  14  15
HETATM   15  C   UNL     1      -8.584   6.533  66.753  1.00  0.00    -0.117 C  
HETATM   16  H   UNL     1      -9.995   5.605  67.764  1.00  0.00     0.000 HD 
HETATM   17  O   UNL     1      -9.909   6.010  66.909  1.00  0.00    -0.141 OA 
BRANCH  15  18
HETATM   18  C   UNL     1      -8.197   7.427  67.913  1.00  0.00    -0.120 A  
HETATM   19  C   UNL     1      -9.094   8.422  68.344  1.00  0.00    -0.135 A  
HETATM   20  C   UNL     1      -8.766   9.285  69.396  1.00  0.00    -0.148 A  
HETATM   21  H   UNL     1      -6.267   9.848  71.461  1.00  0.00     0.000 HD 
HETATM   22  C   UNL     1      -7.527   9.126  70.029  1.00  0.00    -0.077 A  
HETATM   23  C   UNL     1      -6.974   7.281  68.580  1.00  0.00    -0.082 A  
HETATM   24  C   UNL     1      -6.640   8.128  69.635  1.00  0.00    -0.037 A  
HETATM   25  O   UNL     1      -7.107   9.956  71.031  1.00  0.00    -0.339 OA 
BRANCH  20  26
HETATM   26  N   UNL     1      -9.646  10.289  69.843  1.00  0.00    -0.405 N  
HETATM   27  H   UNL     1      -9.234  11.203  70.026  1.00  0.00     0.000 HD 
HETATM   28  O   UNL     1     -11.666  11.111  70.461  1.00  0.00    -0.333 OA 
HETATM   29  C   UNL     1     -10.991  10.175  70.059  1.00  0.00    -0.307 C  
ENDBRANCH  20  26
ENDBRANCH  15  18
ENDBRANCH  14  15
ENDBRANCH  12  14
ENDBRANCH  10  12
ENDBRANCH   9  10
ENDBRANCH   6   9
ENDBRANCH   2   3
TORSDOF 8
ENDMDL
MODEL      291
REMARK 921   NORMALIZED FREE ENERGY PREDICTED BY IDOCK:   -3.71 KCAL/MOL
REMARK 922        TOTAL FREE ENERGY PREDICTED BY IDOCK:   -7.11 KCAL/MOL
REMARK 923 INTER-LIGAND FREE ENERGY PREDICTED BY IDOCK:   -6.33 KCAL/MOL
REMARK 924 INTRA-LIGAND FREE ENERGY PREDICTED BY IDOCK:   -0.78 KCAL/MOL
REMARK 927      BINDING AFFINITY PREDICTED BY RF-SCORE:    0.00 PKD
ROOT
HETATM    1  C   UNL     1     -10.344  18.258  65.973  1.00  0.00    -0.363 C  
HETATM    2  O   UNL     1     -10.604  17.019  65.328  1.00  0.00    -0.647 OA 
ENDROOT
BRANCH   2   3
HETATM    3  C   UNL     1     -10.581  15.901  66.115  1.00  0.00    -0.305 A  
HETATM    4  C   UNL     1     -11.069  15.805  67.418  1.00  0.00    -0.235 A  
HETATM    5  C   UNL     1     -10.928  14.614  68.138  1.00  0.00    -0.269 A  
HETATM    6  C   UNL     1     -10.309  13.499  67.557  1.00  0.00    -0.237 A  
HETATM    7  C   UNL     1      -9.994  14.783  65.524  1.00  0.00    -0.390 A  
HETATM    8  C   UNL     1      -9.856  13.591  66.237  1.00  0.00    -0.306 A  
BRANCH   6   9
HETATM    9  C   UNL     1      -9.997  12.264  68.368  1.00  0.00    -0.210 C  
BRANCH   9  10
HETATM   10  C   UNL     1     -10.120  10.905  67.640  1.00  0.00    -0.179 C  
HETATM   11  C   UNL     1      -8.836  10.081  67.798  1.00  0.00    -0.125 C  
BRANCH  10  12
HETATM   12  N   UNL     1     -11.231  10.084  68.163  1.00  0.00    -0.502 NA 
HETATM   13  H   UNL     1     -11.822   9.750  67.402  1.00  0.00     0.000 HD 
BRANCH  12  14
HETATM   14  C   UNL     1     -10.783   8.963  69.007  1.00  0.00    -0.126 C  
BRANCH  14  15
HETATM   15  C   UNL     1     -11.336   9.010  70.451  1.00  0.00    -0.210 C  
HETATM   16  H   UNL     1     -11.659  10.391  71.817  1.00  0.00     0.000 HD 
HETATM   17  O   UNL     1     -11.319  10.361  70.930  1.00  0.00    -0.335 OA 
BRANCH  15  18
HETATM   18  C   UNL     1     -10.651   8.067  71.417  1.00  0.00    -0.258 A  
HETATM   19  C   UNL     1      -9.548   7.311  70.977  1.00  0.00    -0.158 A  
HETATM   20  C   UNL     1      -8.902   6.410  71.830  1.00  0.00    -0.139 A  
HETATM   21  H   UNL     1      -9.134   5.315  74.925  1.00  0.00     0.000 HD 
HETATM   22  C   UNL     1      -9.363   6.288  73.147  1.00  0.00    -0.135 A  
HETATM   23  C   UNL     1     -11.075   7.937  72.746  1.00  0.00    -0.462 A  
HETATM   24  C   UNL     1     -10.433   7.050  73.608  1.00  0.00    -0.414 A  
HETATM   25  O   UNL     1      -8.821   5.397  74.031  1.00  0.00    -0.120 OA 
BRANCH  20  26
HETATM   26  N   UNL     1      -7.800   5.641  71.411  1.00  0.00    -0.109 N  
HETATM   27  H   UNL     1      -7.195   5.277  72.148  1.00  0.00     0.000 HD 
HETATM   28  O   UNL     1      -6.458   4.658  69.870  1.00  0.00    -0.030 OA 
HETATM   29  C   UNL     1      -7.448   5.328  70.128  1.00  0.00    -0.068 C  
ENDBRANCH  20  26
ENDBRANCH  15  18
ENDBRANCH  14  15
ENDBRANCH  12  14
ENDBRANCH  10  12
ENDBRANCH   9  10
ENDBRANCH   6   9
ENDBRANCH   2   3
TORSDOF 8
ENDMDL
MODEL      292
REMARK 921   NORMALIZED FREE ENERGY PREDICTED BY IDOCK:   -3.68 KCAL/MOL
REMARK 922        TOTAL FREE ENERGY PREDICTED BY IDOCK:   -7.07 KCAL/MOL
REMARK 923 INTER-LIGAND FREE ENERGY PREDICTED BY IDOCK:   -6.17 KCAL/MOL
REMARK 924 INTRA-LIGAND FREE ENERGY PREDICTED BY IDOCK:   -0.90 KCAL/MOL
REMARK 927      BINDING AFFINITY PREDICTED BY RF-SCORE:    0.00 PKD
ROOT
HETATM    1  C   UNL     1     -12.584  12.816  63.519  1.00  0.00    -0.258 C  
HETATM    2  O   UNL     1     -11.514  11.932  63.210  1.00  0.00    -0.369 OA 
ENDROOT
BRANCH   2   3
HETATM    3  C   UNL     1     -10.839  11.393  64.271  1.00  0.00    -0.349 A  
HETATM    4  C   UNL     1      -9.729  10.553  64.196  1.00  0.00    -0.388 A  
HETATM    5  C   UNL     1      -9.168  10.020  65.361  1.00  0.00    -0.259 A  
HETATM    6  C   UNL     1      -9.704  10.332  66.618  1.00  0.00    -0.233 A  
HETATM    7  C   UNL     1     -11.353  11.732  65.523  1.00  0.00    -0.283 A  
HETATM    8  C   UNL     1     -10.794  11.206  66.687  1.00  0.00    -0.308 A  
BRANCH   6   9
HETATM    9  C   UNL     1      -9.221   9.638  67.870  1.00  0.00    -0.134 C  
BRANCH   9  10
HETATM   10  C   UNL     1      -8.065  10.319  68.639  1.00  0.00    -0.114 C  
HETATM   11  C   UNL     1      -6.720  10.060  67.948  1.00  0.00    -0.067 C  
BRANCH  10  12
HETATM   12  N   UNL     1      -8.233  11.783  68.730  1.00  0.00    -0.327 NA 
HETATM   13  H   UNL     1      -8.165  12.095  69.698  1.00  0.00     0.000 HD 
BRANCH  12  14
HETATM   14  C   UNL     1      -7.299  12.533  67.873  1.00  0.00    -0.115 C  
BRANCH  14  15
HETATM   15  C   UNL     1      -6.961  13.945  68.407  1.00  0.00    -0.102 C  
HETATM   16  H   UNL     1      -6.557  14.758  70.154  1.00  0.00     0.000 HD 
HETATM   17  O   UNL     1      -6.765  13.891  69.826  1.00  0.00    -0.096 OA 
BRANCH  15  18
HETATM   18  C   UNL     1      -7.959  15.017  68.022  1.00  0.00    -0.134 A  
HETATM   19  C   UNL     1      -9.077  15.244  68.845  1.00  0.00    -0.209 A  
HETATM   20  C   UNL     1     -10.036  16.208  68.513  1.00  0.00    -0.241 A  
HETATM   21  H   UNL     1     -10.633  18.403  66.134  1.00  0.00     0.000 HD 
HETATM   22  C   UNL     1      -9.849  16.964  67.348  1.00  0.00    -0.261 A  
HETATM   23  C   UNL     1      -7.790  15.803  66.874  1.00  0.00    -0.271 A  
HETATM   24  C   UNL     1      -8.733  16.773  66.538  1.00  0.00    -0.310 A  
HETATM   25  O   UNL     1     -10.760  17.890  66.925  1.00  0.00    -0.296 OA 
BRANCH  20  26
HETATM   26  N   UNL     1     -11.164  16.451  69.319  1.00  0.00    -0.302 N  
HETATM   27  H   UNL     1     -11.719  17.275  69.085  1.00  0.00     0.000 HD 
HETATM   28  O   UNL     1     -12.593  16.013  71.024  1.00  0.00    -0.391 OA 
HETATM   29  C   UNL     1     -11.600  15.707  70.379  1.00  0.00    -0.349 C  
ENDBRANCH  20  26
ENDBRANCH  15  18
ENDBRANCH  14  15
ENDBRANCH  12  14
ENDBRANCH  10  12
ENDBRANCH   9  10
ENDBRANCH   6   9
ENDBRANCH   2   3
TORSDOF 8
ENDMDL
MODEL      293
REMARK 921   NORMALIZED FREE ENERGY PREDICTED BY IDOCK:   -3.68 KCAL/MOL
REMARK 922        TOTAL FREE ENERGY PREDICTED BY IDOCK:   -7.06 KCAL/MOL
REMARK 923 INTER-LIGAND FREE ENERGY PREDICTED BY IDOCK:   -6.42 KCAL/MOL
REMARK 924 INTRA-LIGAND FREE ENERGY PREDICTED BY IDOCK:   -0.64 KCAL/MOL
REMARK 927      BINDING AFFINITY PREDICTED BY RF-SCORE:    0.00 PKD
ROOT
HETATM    1  C   UNL     1      -6.461  19.583  72.428  1.00  0.00     1.300 C  
HETATM    2  O   UNL     1      -5.231  19.940  71.811  1.00  0.00    -0.350 OA 
ENDROOT
BRANCH   2   3
HETATM    3  C   UNL     1      -5.204  19.924  70.444  1.00  0.00    -0.220 A  
HETATM    4  C   UNL     1      -5.134  21.040  69.611  1.00  0.00    -0.400 A  
HETATM    5  C   UNL     1      -5.175  20.887  68.222  1.00  0.00    -0.327 A  
HETATM    6  C   UNL     1      -5.273  19.612  67.647  1.00  0.00    -0.178 A  
HETATM    7  C   UNL     1      -5.269  18.652  69.874  1.00  0.00    -0.206 A  
HETATM    8  C   UNL     1      -5.305  18.495  68.488  1.00  0.00    -0.177 A  
BRANCH   6   9
HETATM    9  C   UNL     1      -5.488  19.436  66.162  1.00  0.00    -0.171 C  
BRANCH   9  10
HETATM   10  C   UNL     1      -6.307  20.533  65.443  1.00  0.00    -0.260 C  
HETATM   11  C   UNL     1      -6.224  20.369  63.920  1.00  0.00    -0.249 C  
BRANCH  10  12
HETATM   12  N   UNL     1      -7.737  20.498  65.807  1.00  0.00    -0.527 NA 
HETATM   13  H   UNL     1      -8.306  20.928  65.078  1.00  0.00     0.000 HD 
BRANCH  12  14
HETATM   14  C   UNL     1      -8.228  19.146  66.124  1.00  0.00    -0.252 C  
BRANCH  14  15
HETATM   15  C   UNL     1      -9.752  19.081  66.381  1.00  0.00    -0.367 C  
HETATM   16  H   UNL     1     -11.102  20.192  67.289  1.00  0.00     0.000 HD 
HETATM   17  O   UNL     1     -10.165  20.231  67.130  1.00  0.00    -0.424 OA 
BRANCH  15  18
HETATM   18  C   UNL     1     -10.226  17.796  67.027  1.00  0.00    -0.346 A  
HETATM   19  C   UNL     1     -10.568  16.701  66.213  1.00  0.00    -0.205 A  
HETATM   20  C   UNL     1     -11.033  15.503  66.768  1.00  0.00    -0.257 A  
HETATM   21  H   UNL     1     -11.690  14.227  69.730  1.00  0.00     0.000 HD 
HETATM   22  C   UNL     1     -11.132  15.407  68.162  1.00  0.00    -0.309 A  
HETATM   23  C   UNL     1     -10.317  17.661  68.419  1.00  0.00    -0.375 A  
HETATM   24  C   UNL     1     -10.769  16.470  68.984  1.00  0.00    -0.332 A  
HETATM   25  O   UNL     1     -11.623  14.293  68.784  1.00  0.00    -0.283 OA 
BRANCH  20  26
HETATM   26  N   UNL     1     -11.384  14.396  65.973  1.00  0.00    -0.330 N  
HETATM   27  H   UNL     1     -10.646  13.715  65.793  1.00  0.00     0.000 HD 
HETATM   28  O   UNL     1     -12.802  13.138  64.729  1.00  0.00    -0.701 OA 
HETATM   29  C   UNL     1     -12.604  14.130  65.417  1.00  0.00    -0.466 C  
ENDBRANCH  20  26
ENDBRANCH  15  18
ENDBRANCH  14  15
ENDBRANCH  12  14
ENDBRANCH  10  12
ENDBRANCH   9  10
ENDBRANCH   6   9
ENDBRANCH   2   3
TORSDOF 8
ENDMDL
MODEL      294
REMARK 921   NORMALIZED FREE ENERGY PREDICTED BY IDOCK:   -3.68 KCAL/MOL
REMARK 922        TOTAL FREE ENERGY PREDICTED BY IDOCK:   -7.06 KCAL/MOL
REMARK 923 INTER-LIGAND FREE ENERGY PREDICTED BY IDOCK:   -4.51 KCAL/MOL
REMARK 924 INTRA-LIGAND FREE ENERGY PREDICTED BY IDOCK:   -2.55 KCAL/MOL
REMARK 927      BINDING AFFINITY PREDICTED BY RF-SCORE:    0.00 PKD
ROOT
HETATM    1  C   UNL     1      -7.356   9.895  66.570  1.00  0.00    -0.099 C  
HETATM    2  O   UNL     1      -6.921   8.571  66.853  1.00  0.00    -0.072 OA 
ENDROOT
BRANCH   2   3
HETATM    3  C   UNL     1      -7.034   8.154  68.151  1.00  0.00    -0.077 A  
HETATM    4  C   UNL     1      -6.993   8.968  69.282  1.00  0.00    -0.057 A  
HETATM    5  C   UNL     1      -7.059   8.404  70.560  1.00  0.00    -0.038 A  
HETATM    6  C   UNL     1      -7.182   7.017  70.722  1.00  0.00    -0.071 A  
HETATM    7  C   UNL     1      -7.189   6.776  68.309  1.00  0.00    -0.088 A  
HETATM    8  C   UNL     1      -7.261   6.210  69.582  1.00  0.00    -0.074 A  
BRANCH   6   9
HETATM    9  C   UNL     1      -7.087   6.376  72.086  1.00  0.00    -0.078 C  
BRANCH   9  10
HETATM   10  C   UNL     1      -7.772   4.999  72.256  1.00  0.00    -0.096 C  
HETATM   11  C   UNL     1      -6.736   3.905  72.542  1.00  0.00    -0.040 C  
BRANCH  10  12
HETATM   12  N   UNL     1      -8.739   4.984  73.371  1.00  0.00    -0.111 NA 
HETATM   13  H   UNL     1      -8.321   4.578  74.207  1.00  0.00     0.000 HD 
BRANCH  12  14
HETATM   14  C   UNL     1      -9.315   6.308  73.665  1.00  0.00    -0.135 C  
BRANCH  14  15
HETATM   15  C   UNL     1     -10.700   6.543  73.017  1.00  0.00    -0.263 C  
HETATM   16  H   UNL     1     -12.183   5.427  72.360  1.00  0.00     0.000 HD 
HETATM   17  O   UNL     1     -11.333   5.283  72.758  1.00  0.00    -0.285 OA 
BRANCH  15  18
HETATM   18  C   UNL     1     -10.674   7.418  71.780  1.00  0.00    -0.242 A  
HETATM   19  C   UNL     1     -10.806   6.822  70.513  1.00  0.00    -0.301 A  
HETATM   20  C   UNL     1     -10.763   7.591  69.344  1.00  0.00    -0.193 A  
HETATM   21  H   UNL     1     -10.396  10.738  68.452  1.00  0.00     0.000 HD 
HETATM   22  C   UNL     1     -10.605   8.978  69.462  1.00  0.00    -0.225 A  
HETATM   23  C   UNL     1     -10.536   8.810  71.865  1.00  0.00    -0.425 A  
HETATM   24  C   UNL     1     -10.502   9.587  70.710  1.00  0.00    -0.384 A  
HETATM   25  O   UNL     1     -10.503   9.796  68.372  1.00  0.00    -0.199 OA 
BRANCH  20  26
HETATM   26  N   UNL     1     -10.891   7.018  68.065  1.00  0.00    -0.418 N  
HETATM   27  H   UNL     1     -11.216   7.636  67.322  1.00  0.00     0.000 HD 
HETATM   28  O   UNL     1     -10.783   5.323  66.563  1.00  0.00    -0.301 OA 
HETATM   29  C   UNL     1     -10.627   5.725  67.707  1.00  0.00    -0.237 C  
ENDBRANCH  20  26
ENDBRANCH  15  18
ENDBRANCH  14  15
ENDBRANCH  12  14
ENDBRANCH  10  12
ENDBRANCH   9  10
ENDBRANCH   6   9
ENDBRANCH   2   3
TORSDOF 8
ENDMDL
MODEL      295
REMARK 921   NORMALIZED FREE ENERGY PREDICTED BY IDOCK:   -3.66 KCAL/MOL
REMARK 922        TOTAL FREE ENERGY PREDICTED BY IDOCK:   -7.04 KCAL/MOL
REMARK 923 INTER-LIGAND FREE ENERGY PREDICTED BY IDOCK:   -6.18 KCAL/MOL
REMARK 924 INTRA-LIGAND FREE ENERGY PREDICTED BY IDOCK:   -0.86 KCAL/MOL
REMARK 927      BINDING AFFINITY PREDICTED BY RF-SCORE:    0.00 PKD
ROOT
HETATM    1  C   UNL     1      -5.125  19.698  72.068  1.00  0.00    -0.173 C  
HETATM    2  O   UNL     1      -5.594  20.806  71.312  1.00  0.00    -0.541 OA 
ENDROOT
BRANCH   2   3
HETATM    3  C   UNL     1      -5.898  20.568  70.000  1.00  0.00    -0.313 A  
HETATM    4  C   UNL     1      -5.194  21.045  68.895  1.00  0.00    -0.354 A  
HETATM    5  C   UNL     1      -5.649  20.777  67.600  1.00  0.00    -0.291 A  
HETATM    6  C   UNL     1      -6.808  20.017  67.394  1.00  0.00    -0.261 A  
HETATM    7  C   UNL     1      -7.034  19.784  69.797  1.00  0.00    -0.197 A  
HETATM    8  C   UNL     1      -7.488  19.511  68.506  1.00  0.00    -0.368 A  
BRANCH   6   9
HETATM    9  C   UNL     1      -7.407  19.858  66.016  1.00  0.00    -0.324 C  
BRANCH   9  10
HETATM   10  C   UNL     1      -6.986  18.604  65.216  1.00  0.00     0.065 C  
HETATM   11  C   UNL     1      -5.824  18.925  64.267  1.00  0.00    -0.181 C  
BRANCH  10  12
HETATM   12  N   UNL     1      -6.541  17.500  66.090  1.00  0.00    -0.253 NA 
HETATM   13  H   UNL     1      -6.171  17.862  66.969  1.00  0.00     0.000 HD 
BRANCH  12  14
HETATM   14  C   UNL     1      -7.586  16.493  66.340  1.00  0.00    -0.214 C  
BRANCH  14  15
HETATM   15  C   UNL     1      -7.597  15.953  67.789  1.00  0.00    -0.140 C  
HETATM   16  H   UNL     1      -6.963  14.339  68.723  1.00  0.00     0.000 HD 
HETATM   17  O   UNL     1      -6.957  14.671  67.833  1.00  0.00    -0.125 OA 
BRANCH  15  18
HETATM   18  C   UNL     1      -8.967  15.913  68.434  1.00  0.00    -0.189 A  
HETATM   19  C   UNL     1      -9.663  14.692  68.497  1.00  0.00    -0.225 A  
HETATM   20  C   UNL     1     -10.942  14.616  69.062  1.00  0.00    -0.258 A  
HETATM   21  H   UNL     1     -13.160  16.601  70.466  1.00  0.00     0.000 HD 
HETATM   22  C   UNL     1     -11.511  15.784  69.586  1.00  0.00    -0.346 A  
HETATM   23  C   UNL     1      -9.556  17.059  68.985  1.00  0.00    -0.197 A  
HETATM   24  C   UNL     1     -10.824  16.994  69.559  1.00  0.00    -0.041 A  
HETATM   25  O   UNL     1     -12.773  15.809  70.110  1.00  0.00    -0.302 OA 
BRANCH  20  26
HETATM   26  N   UNL     1     -11.658  13.407  69.134  1.00  0.00    -0.294 N  
HETATM   27  H   UNL     1     -12.600  13.461  69.521  1.00  0.00     0.000 HD 
HETATM   28  O   UNL     1     -11.934  11.173  68.861  1.00  0.00    -0.394 OA 
HETATM   29  C   UNL     1     -11.233  12.168  68.744  1.00  0.00    -0.264 C  
ENDBRANCH  20  26
ENDBRANCH  15  18
ENDBRANCH  14  15
ENDBRANCH  12  14
ENDBRANCH  10  12
ENDBRANCH   9  10
ENDBRANCH   6   9
ENDBRANCH   2   3
TORSDOF 8
ENDMDL
MODEL      296
REMARK 921   NORMALIZED FREE ENERGY PREDICTED BY IDOCK:   -3.66 KCAL/MOL
REMARK 922        TOTAL FREE ENERGY PREDICTED BY IDOCK:   -7.03 KCAL/MOL
REMARK 923 INTER-LIGAND FREE ENERGY PREDICTED BY IDOCK:   -7.07 KCAL/MOL
REMARK 924 INTRA-LIGAND FREE ENERGY PREDICTED BY IDOCK:    0.04 KCAL/MOL
REMARK 927      BINDING AFFINITY PREDICTED BY RF-SCORE:    0.00 PKD
ROOT
HETATM    1  C   UNL     1     -12.404  14.903  64.097  1.00  0.00    -0.185 C  
HETATM    2  O   UNL     1     -12.300  13.633  63.468  1.00  0.00    -0.696 OA 
ENDROOT
BRANCH   2   3
HETATM    3  C   UNL     1     -11.548  12.690  64.113  1.00  0.00    -0.394 A  
HETATM    4  C   UNL     1     -11.343  12.605  65.490  1.00  0.00    -0.356 A  
HETATM    5  C   UNL     1     -10.497  11.623  66.017  1.00  0.00    -0.294 A  
HETATM    6  C   UNL     1      -9.857  10.705  65.174  1.00  0.00    -0.344 A  
HETATM    7  C   UNL     1     -10.937  11.757  63.275  1.00  0.00    -0.387 A  
HETATM    8  C   UNL     1     -10.097  10.773  63.798  1.00  0.00    -0.391 A  
BRANCH   6   9
HETATM    9  C   UNL     1      -8.814   9.749  65.704  1.00  0.00    -0.182 C  
BRANCH   9  10
HETATM   10  C   UNL     1      -9.284   8.729  66.768  1.00  0.00    -0.169 C  
HETATM   11  C   UNL     1     -10.357   9.342  67.677  1.00  0.00    -0.311 C  
BRANCH  10  12
HETATM   12  N   UNL     1      -9.867   7.514  66.165  1.00  0.00    -0.445 NA 
HETATM   13  H   UNL     1     -10.240   7.714  65.237  1.00  0.00     0.000 HD 
BRANCH  12  14
HETATM   14  C   UNL     1      -8.932   6.377  66.117  1.00  0.00    -0.150 C  
BRANCH  14  15
HETATM   15  C   UNL     1      -9.609   5.004  66.336  1.00  0.00    -0.164 C  
HETATM   16  H   UNL     1     -11.323   4.159  65.863  1.00  0.00     0.000 HD 
HETATM   17  O   UNL     1     -10.907   5.002  65.728  1.00  0.00    -0.211 OA 
BRANCH  15  18
HETATM   18  C   UNL     1      -9.670   4.557  67.782  1.00  0.00    -0.199 A  
HETATM   19  C   UNL     1     -10.230   5.417  68.745  1.00  0.00    -0.252 A  
HETATM   20  C   UNL     1     -10.284   5.054  70.096  1.00  0.00    -0.259 A  
HETATM   21  H   UNL     1      -9.415   2.535  72.028  1.00  0.00     0.000 HD 
HETATM   22  C   UNL     1      -9.785   3.800  70.471  1.00  0.00    -0.160 A  
HETATM   23  C   UNL     1      -9.198   3.301  68.187  1.00  0.00    -0.243 A  
HETATM   24  C   UNL     1      -9.255   2.924  69.527  1.00  0.00    -0.211 A  
HETATM   25  O   UNL     1      -9.754   3.386  71.773  1.00  0.00    -0.148 OA 
BRANCH  20  26
HETATM   26  N   UNL     1     -10.837   5.898  71.077  1.00  0.00    -0.273 N  
HETATM   27  H   UNL     1     -10.561   5.713  72.041  1.00  0.00     0.000 HD 
HETATM   28  O   UNL     1     -12.134   7.607  71.811  1.00  0.00    -0.285 OA 
HETATM   29  C   UNL     1     -11.701   6.938  70.882  1.00  0.00    -0.361 C  
ENDBRANCH  20  26
ENDBRANCH  15  18
ENDBRANCH  14  15
ENDBRANCH  12  14
ENDBRANCH  10  12
ENDBRANCH   9  10
ENDBRANCH   6   9
ENDBRANCH   2   3
TORSDOF 8
ENDMDL
MODEL      297
REMARK 921   NORMALIZED FREE ENERGY PREDICTED BY IDOCK:   -3.66 KCAL/MOL
REMARK 922        TOTAL FREE ENERGY PREDICTED BY IDOCK:   -7.03 KCAL/MOL
REMARK 923 INTER-LIGAND FREE ENERGY PREDICTED BY IDOCK:   -5.92 KCAL/MOL
REMARK 924 INTRA-LIGAND FREE ENERGY PREDICTED BY IDOCK:   -1.11 KCAL/MOL
REMARK 927      BINDING AFFINITY PREDICTED BY RF-SCORE:    0.00 PKD
ROOT
HETATM    1  C   UNL     1      -8.798  10.672  62.552  1.00  0.00    -0.275 C  
HETATM    2  O   UNL     1     -10.157  10.663  62.967  1.00  0.00    -0.280 OA 
ENDROOT
BRANCH   2   3
HETATM    3  C   UNL     1     -10.481  11.469  64.023  1.00  0.00    -0.370 A  
HETATM    4  C   UNL     1      -9.648  11.794  65.093  1.00  0.00    -0.173 A  
HETATM    5  C   UNL     1     -10.126  12.584  66.144  1.00  0.00    -0.265 A  
HETATM    6  C   UNL     1     -11.440  13.071  66.130  1.00  0.00    -0.381 A  
HETATM    7  C   UNL     1     -11.779  11.980  63.991  1.00  0.00    -0.498 A  
HETATM    8  C   UNL     1     -12.257  12.772  65.035  1.00  0.00    -0.527 A  
BRANCH   6   9
HETATM    9  C   UNL     1     -12.026  13.781  67.327  1.00  0.00    -0.436 C  
BRANCH   9  10
HETATM   10  C   UNL     1     -11.408  13.445  68.705  1.00  0.00    -0.292 C  
HETATM   11  C   UNL     1     -11.404  14.678  69.619  1.00  0.00    -0.317 C  
BRANCH  10  12
HETATM   12  N   UNL     1     -12.152  12.383  69.412  1.00  0.00    -0.230 NA 
HETATM   13  H   UNL     1     -13.141  12.619  69.481  1.00  0.00     0.000 HD 
BRANCH  12  14
HETATM   14  C   UNL     1     -11.974  11.048  68.816  1.00  0.00    -0.225 C  
BRANCH  14  15
HETATM   15  C   UNL     1     -11.341  10.015  69.778  1.00  0.00    -0.228 C  
HETATM   16  H   UNL     1     -11.042   9.859  71.718  1.00  0.00     0.000 HD 
HETATM   17  O   UNL     1     -11.431  10.493  71.127  1.00  0.00    -0.257 OA 
BRANCH  15  18
HETATM   18  C   UNL     1      -9.926   9.611  69.423  1.00  0.00    -0.207 A  
HETATM   19  C   UNL     1      -9.594   8.245  69.363  1.00  0.00    -0.171 A  
HETATM   20  C   UNL     1      -8.292   7.829  69.062  1.00  0.00    -0.131 A  
HETATM   21  H   UNL     1      -5.359   9.151  68.368  1.00  0.00     0.000 HD 
HETATM   22  C   UNL     1      -7.322   8.805  68.800  1.00  0.00    -0.083 A  
HETATM   23  C   UNL     1      -8.938  10.562  69.136  1.00  0.00    -0.171 A  
HETATM   24  C   UNL     1      -7.640  10.160  68.825  1.00  0.00    -0.089 A  
HETATM   25  O   UNL     1      -6.017   8.488  68.547  1.00  0.00    -0.043 OA 
BRANCH  20  26
HETATM   26  N   UNL     1      -7.936   6.469  68.999  1.00  0.00    -0.110 N  
HETATM   27  H   UNL     1      -7.112   6.241  68.444  1.00  0.00     0.000 HD 
HETATM   28  O   UNL     1      -8.184   4.265  69.471  1.00  0.00    -0.059 OA 
HETATM   29  C   UNL     1      -8.571   5.418  69.599  1.00  0.00    -0.103 C  
ENDBRANCH  20  26
ENDBRANCH  15  18
ENDBRANCH  14  15
ENDBRANCH  12  14
ENDBRANCH  10  12
ENDBRANCH   9  10
ENDBRANCH   6   9
ENDBRANCH   2   3
TORSDOF 8
ENDMDL
MODEL      298
REMARK 921   NORMALIZED FREE ENERGY PREDICTED BY IDOCK:   -3.65 KCAL/MOL
REMARK 922        TOTAL FREE ENERGY PREDICTED BY IDOCK:   -7.02 KCAL/MOL
REMARK 923 INTER-LIGAND FREE ENERGY PREDICTED BY IDOCK:   -6.51 KCAL/MOL
REMARK 924 INTRA-LIGAND FREE ENERGY PREDICTED BY IDOCK:   -0.51 KCAL/MOL
REMARK 927      BINDING AFFINITY PREDICTED BY RF-SCORE:    0.00 PKD
ROOT
HETATM    1  C   UNL     1     -10.234  17.855  67.746  1.00  0.00    -0.368 C  
HETATM    2  O   UNL     1     -10.535  17.427  66.425  1.00  0.00    -0.326 OA 
ENDROOT
BRANCH   2   3
HETATM    3  C   UNL     1     -10.627  16.078  66.224  1.00  0.00    -0.285 A  
HETATM    4  C   UNL     1     -10.243  15.392  65.072  1.00  0.00    -0.295 A  
HETATM    5  C   UNL     1     -10.448  14.012  64.972  1.00  0.00    -0.440 A  
HETATM    6  C   UNL     1     -11.027  13.298  66.030  1.00  0.00    -0.292 A  
HETATM    7  C   UNL     1     -11.173  15.364  67.290  1.00  0.00    -0.270 A  
HETATM    8  C   UNL     1     -11.374  13.987  67.197  1.00  0.00    -0.348 A  
BRANCH   6   9
HETATM    9  C   UNL     1     -11.409  11.845  65.879  1.00  0.00    -0.365 C  
BRANCH   9  10
HETATM   10  C   UNL     1     -10.416  10.803  66.445  1.00  0.00    -0.233 C  
HETATM   11  C   UNL     1      -9.815   9.951  65.320  1.00  0.00    -0.373 C  
BRANCH  10  12
HETATM   12  N   UNL     1      -9.289  11.431  67.164  1.00  0.00    -0.171 NA 
HETATM   13  H   UNL     1      -9.110  12.368  66.806  1.00  0.00     0.000 HD 
BRANCH  12  14
HETATM   14  C   UNL     1      -9.469  11.456  68.626  1.00  0.00    -0.163 C  
BRANCH  14  15
HETATM   15  C   UNL     1      -8.571  10.447  69.381  1.00  0.00    -0.130 C  
HETATM   16  H   UNL     1      -7.351   8.977  68.905  1.00  0.00     0.000 HD 
HETATM   17  O   UNL     1      -7.902   9.597  68.441  1.00  0.00    -0.085 OA 
BRANCH  15  18
HETATM   18  C   UNL     1      -9.287   9.645  70.448  1.00  0.00    -0.268 A  
HETATM   19  C   UNL     1      -8.594   8.625  71.124  1.00  0.00    -0.224 A  
HETATM   20  C   UNL     1      -9.226   7.843  72.098  1.00  0.00    -0.158 A  
HETATM   21  H   UNL     1     -12.182   7.549  73.515  1.00  0.00     0.000 HD 
HETATM   22  C   UNL     1     -10.566   8.112  72.405  1.00  0.00    -0.323 A  
HETATM   23  C   UNL     1     -10.622   9.902  70.791  1.00  0.00    -0.309 A  
HETATM   24  C   UNL     1     -11.258   9.138  71.767  1.00  0.00    -0.451 A  
HETATM   25  O   UNL     1     -11.272   7.367  73.307  1.00  0.00    -0.324 OA 
BRANCH  20  26
HETATM   26  N   UNL     1      -8.554   6.816  72.786  1.00  0.00    -0.121 N  
HETATM   27  H   UNL     1      -8.672   5.872  72.419  1.00  0.00     0.000 HD 
HETATM   28  O   UNL     1      -7.228   5.977  74.423  1.00  0.00    -0.087 OA 
HETATM   29  C   UNL     1      -7.760   6.942  73.892  1.00  0.00    -0.101 C  
ENDBRANCH  20  26
ENDBRANCH  15  18
ENDBRANCH  14  15
ENDBRANCH  12  14
ENDBRANCH  10  12
ENDBRANCH   9  10
ENDBRANCH   6   9
ENDBRANCH   2   3
TORSDOF 8
ENDMDL
MODEL      299
REMARK 921   NORMALIZED FREE ENERGY PREDICTED BY IDOCK:   -3.64 KCAL/MOL
REMARK 922        TOTAL FREE ENERGY PREDICTED BY IDOCK:   -7.01 KCAL/MOL
REMARK 923 INTER-LIGAND FREE ENERGY PREDICTED BY IDOCK:   -6.02 KCAL/MOL
REMARK 924 INTRA-LIGAND FREE ENERGY PREDICTED BY IDOCK:   -0.98 KCAL/MOL
REMARK 927      BINDING AFFINITY PREDICTED BY RF-SCORE:    0.00 PKD
ROOT
HETATM    1  C   UNL     1      -6.228   9.181  65.121  1.00  0.00    -0.061 C  
HETATM    2  O   UNL     1      -5.999  10.152  66.134  1.00  0.00    -0.066 OA 
ENDROOT
BRANCH   2   3
HETATM    3  C   UNL     1      -7.008  11.047  66.363  1.00  0.00    -0.122 A  
HETATM    4  C   UNL     1      -6.935  12.173  67.183  1.00  0.00    -0.117 A  
HETATM    5  C   UNL     1      -8.064  12.975  67.380  1.00  0.00    -0.180 A  
HETATM    6  C   UNL     1      -9.276  12.669  66.748  1.00  0.00    -0.225 A  
HETATM    7  C   UNL     1      -8.204  10.759  65.707  1.00  0.00    -0.146 A  
HETATM    8  C   UNL     1      -9.331  11.560  65.897  1.00  0.00    -0.242 A  
BRANCH   6   9
HETATM    9  C   UNL     1     -10.544  13.421  67.077  1.00  0.00    -0.264 C  
BRANCH   9  10
HETATM   10  C   UNL     1     -10.773  13.779  68.563  1.00  0.00    -0.262 C  
HETATM   11  C   UNL     1     -10.674  15.294  68.783  1.00  0.00    -0.241 C  
BRANCH  10  12
HETATM   12  N   UNL     1     -12.102  13.356  69.047  1.00  0.00    -0.307 NA 
HETATM   13  H   UNL     1     -12.355  12.447  68.661  1.00  0.00     0.000 HD 
BRANCH  12  14
HETATM   14  C   UNL     1     -12.216  13.349  70.516  1.00  0.00    -0.352 C  
BRANCH  14  15
HETATM   15  C   UNL     1     -13.266  12.348  71.054  1.00  0.00     0.231 C  
HETATM   16  H   UNL     1     -14.539  12.275  72.554  1.00  0.00     0.000 HD 
HETATM   17  O   UNL     1     -13.895  12.889  72.223  1.00  0.00    -0.503 OA 
BRANCH  15  18
HETATM   18  C   UNL     1     -12.733  10.952  71.304  1.00  0.00    -0.542 A  
HETATM   19  C   UNL     1     -11.563  10.533  70.643  1.00  0.00    -0.445 A  
HETATM   20  C   UNL     1     -11.051   9.244  70.826  1.00  0.00    -0.285 A  
HETATM   21  H   UNL     1     -11.766   6.501  72.498  1.00  0.00     0.000 HD 
HETATM   22  C   UNL     1     -11.717   8.379  71.703  1.00  0.00    -0.298 A  
HETATM   23  C   UNL     1     -13.365  10.070  72.190  1.00  0.00    -0.469 A  
HETATM   24  C   UNL     1     -12.858   8.787  72.389  1.00  0.00    -0.434 A  
HETATM   25  O   UNL     1     -11.314   7.088  71.903  1.00  0.00    -0.242 OA 
BRANCH  20  26
HETATM   26  N   UNL     1      -9.885   8.802  70.174  1.00  0.00    -0.172 N  
HETATM   27  H   UNL     1      -9.710   7.797  70.191  1.00  0.00     0.000 HD 
HETATM   28  O   UNL     1      -7.970   9.082  68.993  1.00  0.00    -0.098 OA 
HETATM   29  C   UNL     1      -8.961   9.568  69.521  1.00  0.00    -0.181 C  
ENDBRANCH  20  26
ENDBRANCH  15  18
ENDBRANCH  14  15
ENDBRANCH  12  14
ENDBRANCH  10  12
ENDBRANCH   9  10
ENDBRANCH   6   9
ENDBRANCH   2   3
TORSDOF 8
ENDMDL
MODEL      300
REMARK 921   NORMALIZED FREE ENERGY PREDICTED BY IDOCK:   -3.62 KCAL/MOL
REMARK 922        TOTAL FREE ENERGY PREDICTED BY IDOCK:   -6.98 KCAL/MOL
REMARK 923 INTER-LIGAND FREE ENERGY PREDICTED BY IDOCK:   -5.90 KCAL/MOL
REMARK 924 INTRA-LIGAND FREE ENERGY PREDICTED BY IDOCK:   -1.08 KCAL/MOL
REMARK 927      BINDING AFFINITY PREDICTED BY RF-SCORE:    0.00 PKD
ROOT
HETATM    1  C   UNL     1      -7.825  17.715  68.573  1.00  0.00    -0.282 C  
HETATM    2  O   UNL     1      -8.542  16.522  68.864  1.00  0.00    -0.238 OA 
ENDROOT
BRANCH   2   3
HETATM    3  C   UNL     1      -7.888  15.343  68.636  1.00  0.00    -0.142 A  
HETATM    4  C   UNL     1      -8.040  14.524  67.518  1.00  0.00    -0.204 A  
HETATM    5  C   UNL     1      -7.354  13.308  67.436  1.00  0.00    -0.125 A  
HETATM    6  C   UNL     1      -6.495  12.903  68.467  1.00  0.00    -0.083 A  
HETATM    7  C   UNL     1      -7.010  14.957  69.648  1.00  0.00    -0.184 A  
HETATM    8  C   UNL     1      -6.319  13.747  69.568  1.00  0.00    -0.118 A  
BRANCH   6   9
HETATM    9  C   UNL     1      -5.878  11.524  68.477  1.00  0.00    -0.045 C  
BRANCH   9  10
HETATM   10  C   UNL     1      -6.830  10.338  68.756  1.00  0.00    -0.058 C  
HETATM   11  C   UNL     1      -6.933  10.061  70.262  1.00  0.00    -0.153 C  
BRANCH  10  12
HETATM   12  N   UNL     1      -8.200  10.588  68.265  1.00  0.00    -0.113 NA 
HETATM   13  H   UNL     1      -8.181  10.989  67.328  1.00  0.00     0.000 HD 
BRANCH  12  14
HETATM   14  C   UNL     1      -9.062   9.394  68.303  1.00  0.00    -0.128 C  
BRANCH  14  15
HETATM   15  C   UNL     1     -10.431   9.591  67.609  1.00  0.00    -0.263 C  
HETATM   16  H   UNL     1     -11.453   8.706  66.178  1.00  0.00     0.000 HD 
HETATM   17  O   UNL     1     -10.613   8.585  66.605  1.00  0.00    -0.255 OA 
BRANCH  15  18
HETATM   18  C   UNL     1     -10.657  10.982  67.053  1.00  0.00    -0.303 A  
HETATM   19  C   UNL     1     -11.293  11.949  67.853  1.00  0.00    -0.358 A  
HETATM   20  C   UNL     1     -11.543  13.238  67.369  1.00  0.00    -0.353 A  
HETATM   21  H   UNL     1     -11.094  14.990  64.619  1.00  0.00     0.000 HD 
HETATM   22  C   UNL     1     -11.128  13.556  66.069  1.00  0.00    -0.293 A  
HETATM   23  C   UNL     1     -10.236  11.337  65.764  1.00  0.00    -0.301 A  
HETATM   24  C   UNL     1     -10.471  12.620  65.274  1.00  0.00    -0.312 A  
HETATM   25  O   UNL     1     -11.376  14.774  65.501  1.00  0.00    -0.335 OA 
BRANCH  20  26
HETATM   26  N   UNL     1     -12.179  14.221  68.149  1.00  0.00    -0.580 N  
HETATM   27  H   UNL     1     -13.113  14.503  67.851  1.00  0.00     0.000 HD 
HETATM   28  O   UNL     1     -12.320  15.695  69.866  1.00  0.00    -0.354 OA 
HETATM   29  C   UNL     1     -11.686  14.840  69.263  1.00  0.00    -0.316 C  
ENDBRANCH  20  26
ENDBRANCH  15  18
ENDBRANCH  14  15
ENDBRANCH  12  14
ENDBRANCH  10  12
ENDBRANCH   9  10
ENDBRANCH   6   9
ENDBRANCH   2   3
TORSDOF 8
ENDMDL
MODEL      301
REMARK 921   NORMALIZED FREE ENERGY PREDICTED BY IDOCK:   -3.62 KCAL/MOL
REMARK 922        TOTAL FREE ENERGY PREDICTED BY IDOCK:   -6.97 KCAL/MOL
REMARK 923 INTER-LIGAND FREE ENERGY PREDICTED BY IDOCK:   -6.15 KCAL/MOL
REMARK 924 INTRA-LIGAND FREE ENERGY PREDICTED BY IDOCK:   -0.83 KCAL/MOL
REMARK 927      BINDING AFFINITY PREDICTED BY RF-SCORE:    0.00 PKD
ROOT
HETATM    1  C   UNL     1      -5.664   6.028  65.855  1.00  0.00    -0.020 C  
HETATM    2  O   UNL     1      -5.221   7.038  66.751  1.00  0.00    -0.019 OA 
ENDROOT
BRANCH   2   3
HETATM    3  C   UNL     1      -6.042   7.324  67.807  1.00  0.00    -0.035 A  
HETATM    4  C   UNL     1      -5.811   8.286  68.789  1.00  0.00    -0.043 A  
HETATM    5  C   UNL     1      -6.705   8.436  69.854  1.00  0.00    -0.042 A  
HETATM    6  C   UNL     1      -7.851   7.634  69.941  1.00  0.00    -0.102 A  
HETATM    7  C   UNL     1      -7.198   6.547  67.874  1.00  0.00    -0.087 A  
HETATM    8  C   UNL     1      -8.095   6.697  68.932  1.00  0.00    -0.116 A  
BRANCH   6   9
HETATM    9  C   UNL     1      -8.737   7.663  71.164  1.00  0.00    -0.138 C  
BRANCH   9  10
HETATM   10  C   UNL     1     -10.110   8.358  71.009  1.00  0.00    -0.196 C  
HETATM   11  C   UNL     1     -10.829   8.457  72.361  1.00  0.00    -0.416 C  
BRANCH  10  12
HETATM   12  N   UNL     1      -9.991   9.731  70.479  1.00  0.00    -0.340 NA 
HETATM   13  H   UNL     1      -9.079   9.873  70.046  1.00  0.00     0.000 HD 
BRANCH  12  14
HETATM   14  C   UNL     1     -11.073  10.096  69.549  1.00  0.00    -0.250 C  
BRANCH  14  15
HETATM   15  C   UNL     1     -10.987  11.552  69.033  1.00  0.00    -0.234 C  
HETATM   16  H   UNL     1     -12.080  13.185  69.161  1.00  0.00     0.000 HD 
HETATM   17  O   UNL     1     -12.132  12.290  69.478  1.00  0.00    -0.273 OA 
BRANCH  15  18
HETATM   18  C   UNL     1     -10.790  11.677  67.536  1.00  0.00    -0.287 A  
HETATM   19  C   UNL     1     -11.583  12.584  66.811  1.00  0.00    -0.446 A  
HETATM   20  C   UNL     1     -11.450  12.713  65.423  1.00  0.00    -0.338 A  
HETATM   21  H   UNL     1      -9.675  11.428  62.968  1.00  0.00     0.000 HD 
HETATM   22  C   UNL     1     -10.490  11.931  64.769  1.00  0.00    -0.289 A  
HETATM   23  C   UNL     1      -9.824  10.924  66.855  1.00  0.00    -0.222 A  
HETATM   24  C   UNL     1      -9.675  11.051  65.476  1.00  0.00    -0.274 A  
HETATM   25  O   UNL     1     -10.327  11.959  63.412  1.00  0.00    -0.409 OA 
BRANCH  20  26
HETATM   26  N   UNL     1     -12.234  13.611  64.676  1.00  0.00    -0.466 N  
HETATM   27  H   UNL     1     -13.046  13.217  64.201  1.00  0.00     0.000 HD 
HETATM   28  O   UNL     1     -12.769  15.646  63.830  1.00  0.00    -0.697 OA 
HETATM   29  C   UNL     1     -12.030  14.953  64.515  1.00  0.00    -0.410 C  
ENDBRANCH  20  26
ENDBRANCH  15  18
ENDBRANCH  14  15
ENDBRANCH  12  14
ENDBRANCH  10  12
ENDBRANCH   9  10
ENDBRANCH   6   9
ENDBRANCH   2   3
TORSDOF 8
ENDMDL
MODEL      302
REMARK 921   NORMALIZED FREE ENERGY PREDICTED BY IDOCK:   -3.62 KCAL/MOL
REMARK 922        TOTAL FREE ENERGY PREDICTED BY IDOCK:   -6.97 KCAL/MOL
REMARK 923 INTER-LIGAND FREE ENERGY PREDICTED BY IDOCK:   -6.31 KCAL/MOL
REMARK 924 INTRA-LIGAND FREE ENERGY PREDICTED BY IDOCK:   -0.66 KCAL/MOL
REMARK 927      BINDING AFFINITY PREDICTED BY RF-SCORE:    0.00 PKD
ROOT
HETATM    1  C   UNL     1      -9.261  17.888  66.351  1.00  0.00    -0.242 C  
HETATM    2  O   UNL     1     -10.199  17.122  65.606  1.00  0.00    -0.564 OA 
ENDROOT
BRANCH   2   3
HETATM    3  C   UNL     1     -10.406  15.836  66.020  1.00  0.00    -0.340 A  
HETATM    4  C   UNL     1      -9.612  15.124  66.919  1.00  0.00    -0.252 A  
HETATM    5  C   UNL     1      -9.902  13.788  67.212  1.00  0.00    -0.241 A  
HETATM    6  C   UNL     1     -11.001  13.150  66.620  1.00  0.00    -0.301 A  
HETATM    7  C   UNL     1     -11.519  15.213  65.455  1.00  0.00    -0.239 A  
HETATM    8  C   UNL     1     -11.815  13.881  65.749  1.00  0.00    -0.393 A  
BRANCH   6   9
HETATM    9  C   UNL     1     -11.233  11.668  66.792  1.00  0.00    -0.371 C  
BRANCH   9  10
HETATM   10  C   UNL     1     -11.050  11.097  68.217  1.00  0.00    -0.251 C  
HETATM   11  C   UNL     1     -12.124  11.642  69.168  1.00  0.00    -0.315 C  
BRANCH  10  12
HETATM   12  N   UNL     1     -11.147   9.624  68.252  1.00  0.00    -0.496 NA 
HETATM   13  H   UNL     1     -11.482   9.263  67.359  1.00  0.00     0.000 HD 
BRANCH  12  14
HETATM   14  C   UNL     1      -9.891   8.963  68.644  1.00  0.00    -0.167 C  
BRANCH  14  15
HETATM   15  C   UNL     1      -9.489   7.789  67.719  1.00  0.00    -0.143 C  
HETATM   16  H   UNL     1     -10.037   7.100  65.958  1.00  0.00     0.000 HD 
HETATM   17  O   UNL     1     -10.283   7.821  66.526  1.00  0.00    -0.236 OA 
BRANCH  15  18
HETATM   18  C   UNL     1      -9.530   6.427  68.380  1.00  0.00    -0.119 A  
HETATM   19  C   UNL     1     -10.034   6.312  69.689  1.00  0.00    -0.201 A  
HETATM   20  C   UNL     1     -10.066   5.076  70.346  1.00  0.00    -0.260 A  
HETATM   21  H   UNL     1      -9.242   1.940  69.781  1.00  0.00     0.000 HD 
HETATM   22  C   UNL     1      -9.604   3.944  69.662  1.00  0.00    -0.189 A  
HETATM   23  C   UNL     1      -9.094   5.272  67.716  1.00  0.00    -0.115 A  
HETATM   24  C   UNL     1      -9.131   4.035  68.356  1.00  0.00    -0.186 A  
HETATM   25  O   UNL     1      -9.555   2.709  70.245  1.00  0.00    -0.130 OA 
BRANCH  20  26
HETATM   26  N   UNL     1     -10.563   4.936  71.655  1.00  0.00    -0.130 N  
HETATM   27  H   UNL     1     -11.411   4.380  71.761  1.00  0.00     0.000 HD 
HETATM   28  O   UNL     1     -10.553   5.289  73.895  1.00  0.00    -0.260 OA 
HETATM   29  C   UNL     1     -10.035   5.462  72.801  1.00  0.00    -0.170 C  
ENDBRANCH  20  26
ENDBRANCH  15  18
ENDBRANCH  14  15
ENDBRANCH  12  14
ENDBRANCH  10  12
ENDBRANCH   9  10
ENDBRANCH   6   9
ENDBRANCH   2   3
TORSDOF 8
ENDMDL
MODEL      303
REMARK 921   NORMALIZED FREE ENERGY PREDICTED BY IDOCK:   -3.62 KCAL/MOL
REMARK 922        TOTAL FREE ENERGY PREDICTED BY IDOCK:   -6.97 KCAL/MOL
REMARK 923 INTER-LIGAND FREE ENERGY PREDICTED BY IDOCK:   -5.99 KCAL/MOL
REMARK 924 INTRA-LIGAND FREE ENERGY PREDICTED BY IDOCK:   -0.98 KCAL/MOL
REMARK 927      BINDING AFFINITY PREDICTED BY RF-SCORE:    0.00 PKD
ROOT
HETATM    1  C   UNL     1      -7.369  17.532  68.732  1.00  0.00    -0.260 C  
HETATM    2  O   UNL     1      -8.124  16.405  69.159  1.00  0.00    -0.242 OA 
ENDROOT
BRANCH   2   3
HETATM    3  C   UNL     1      -7.684  15.180  68.741  1.00  0.00    -0.143 A  
HETATM    4  C   UNL     1      -8.381  14.294  67.920  1.00  0.00    -0.162 A  
HETATM    5  C   UNL     1      -7.841  13.040  67.615  1.00  0.00    -0.166 A  
HETATM    6  C   UNL     1      -6.588  12.663  68.118  1.00  0.00    -0.081 A  
HETATM    7  C   UNL     1      -6.423  14.819  69.214  1.00  0.00    -0.121 A  
HETATM    8  C   UNL     1      -5.878  13.572  68.909  1.00  0.00    -0.076 A  
BRANCH   6   9
HETATM    9  C   UNL     1      -6.063  11.257  67.940  1.00  0.00    -0.050 C  
BRANCH   9  10
HETATM   10  C   UNL     1      -6.919  10.116  68.537  1.00  0.00    -0.069 C  
HETATM   11  C   UNL     1      -7.272  10.405  70.002  1.00  0.00    -0.143 C  
BRANCH  10  12
HETATM   12  N   UNL     1      -8.191   9.927  67.812  1.00  0.00    -0.113 NA 
HETATM   13  H   UNL     1      -8.038   9.935  66.804  1.00  0.00     0.000 HD 
BRANCH  12  14
HETATM   14  C   UNL     1      -8.923   8.716  68.219  1.00  0.00    -0.142 C  
BRANCH  14  15
HETATM   15  C   UNL     1     -10.462   8.872  68.172  1.00  0.00    -0.202 C  
HETATM   16  H   UNL     1     -11.925   8.302  66.984  1.00  0.00     0.000 HD 
HETATM   17  O   UNL     1     -10.980   8.206  67.013  1.00  0.00    -0.159 OA 
BRANCH  15  18
HETATM   18  C   UNL     1     -10.950  10.303  68.258  1.00  0.00    -0.315 A  
HETATM   19  C   UNL     1     -11.021  11.078  67.086  1.00  0.00    -0.344 A  
HETATM   20  C   UNL     1     -11.443  12.412  67.124  1.00  0.00    -0.357 A  
HETATM   21  H   UNL     1     -12.448  14.637  69.332  1.00  0.00     0.000 HD 
HETATM   22  C   UNL     1     -11.817  12.959  68.359  1.00  0.00    -0.318 A  
HETATM   23  C   UNL     1     -11.350  10.874  69.474  1.00  0.00    -0.351 A  
HETATM   24  C   UNL     1     -11.782  12.197  69.524  1.00  0.00    -0.402 A  
HETATM   25  O   UNL     1     -12.194  14.266  68.494  1.00  0.00    -0.289 OA 
BRANCH  20  26
HETATM   26  N   UNL     1     -11.520  13.207  65.966  1.00  0.00    -0.323 N  
HETATM   27  H   UNL     1     -10.644  13.371  65.470  1.00  0.00     0.000 HD 
HETATM   28  O   UNL     1     -12.593  14.471  64.420  1.00  0.00    -0.665 OA 
HETATM   29  C   UNL     1     -12.637  13.785  65.431  1.00  0.00    -0.497 C  
ENDBRANCH  20  26
ENDBRANCH  15  18
ENDBRANCH  14  15
ENDBRANCH  12  14
ENDBRANCH  10  12
ENDBRANCH   9  10
ENDBRANCH   6   9
ENDBRANCH   2   3
TORSDOF 8
ENDMDL
MODEL      304
REMARK 921   NORMALIZED FREE ENERGY PREDICTED BY IDOCK:   -3.60 KCAL/MOL
REMARK 922        TOTAL FREE ENERGY PREDICTED BY IDOCK:   -6.94 KCAL/MOL
REMARK 923 INTER-LIGAND FREE ENERGY PREDICTED BY IDOCK:   -5.56 KCAL/MOL
REMARK 924 INTRA-LIGAND FREE ENERGY PREDICTED BY IDOCK:   -1.38 KCAL/MOL
REMARK 927      BINDING AFFINITY PREDICTED BY RF-SCORE:    0.00 PKD
ROOT
HETATM    1  C   UNL     1     -12.570  14.071  71.208  1.00  0.00    -0.367 C  
HETATM    2  O   UNL     1     -12.672  12.957  70.331  1.00  0.00    -0.106 OA 
ENDROOT
BRANCH   2   3
HETATM    3  C   UNL     1     -12.242  11.754  70.817  1.00  0.00    -0.326 A  
HETATM    4  C   UNL     1     -11.075  11.088  70.445  1.00  0.00     0.036 A  
HETATM    5  C   UNL     1     -10.782   9.828  70.976  1.00  0.00    -0.342 A  
HETATM    6  C   UNL     1     -11.647   9.224  71.899  1.00  0.00    -0.405 A  
HETATM    7  C   UNL     1     -13.088  11.169  71.760  1.00  0.00    -0.536 A  
HETATM    8  C   UNL     1     -12.796   9.914  72.296  1.00  0.00    -0.345 A  
BRANCH   6   9
HETATM    9  C   UNL     1     -11.436   7.799  72.355  1.00  0.00    -0.418 C  
BRANCH   9  10
HETATM   10  C   UNL     1     -11.851   6.684  71.367  1.00  0.00    -0.337 C  
HETATM   11  C   UNL     1     -13.136   7.066  70.620  1.00  0.00     0.239 C  
BRANCH  10  12
HETATM   12  N   UNL     1     -10.817   6.421  70.346  1.00  0.00    -0.262 NA 
HETATM   13  H   UNL     1     -10.257   5.608  70.601  1.00  0.00     0.000 HD 
BRANCH  12  14
HETATM   14  C   UNL     1     -11.361   6.275  68.986  1.00  0.00    -0.242 C  
BRANCH  14  15
HETATM   15  C   UNL     1     -10.328   6.555  67.868  1.00  0.00    -0.189 C  
HETATM   16  H   UNL     1      -8.689   5.705  67.185  1.00  0.00     0.000 HD 
HETATM   17  O   UNL     1      -9.324   5.533  67.871  1.00  0.00    -0.108 OA 
BRANCH  15  18
HETATM   18  C   UNL     1      -9.715   7.939  67.914  1.00  0.00    -0.184 A  
HETATM   19  C   UNL     1     -10.309   8.981  67.179  1.00  0.00    -0.342 A  
HETATM   20  C   UNL     1      -9.760  10.268  67.174  1.00  0.00    -0.173 A  
HETATM   21  H   UNL     1      -7.202  11.884  68.469  1.00  0.00     0.000 HD 
HETATM   22  C   UNL     1      -8.611  10.507  67.938  1.00  0.00    -0.123 A  
HETATM   23  C   UNL     1      -8.577   8.216  68.684  1.00  0.00    -0.127 A  
HETATM   24  C   UNL     1      -8.027   9.496  68.695  1.00  0.00    -0.092 A  
HETATM   25  O   UNL     1      -7.982  11.721  67.951  1.00  0.00    -0.125 OA 
BRANCH  20  26
HETATM   26  N   UNL     1     -10.335  11.325  66.444  1.00  0.00    -0.237 N  
HETATM   27  H   UNL     1     -10.219  12.260  66.833  1.00  0.00     0.000 HD 
HETATM   28  O   UNL     1     -11.503  12.224  64.720  1.00  0.00    -0.313 OA 
HETATM   29  C   UNL     1     -11.032  11.238  65.271  1.00  0.00    -0.137 C  
ENDBRANCH  20  26
ENDBRANCH  15  18
ENDBRANCH  14  15
ENDBRANCH  12  14
ENDBRANCH  10  12
ENDBRANCH   9  10
ENDBRANCH   6   9
ENDBRANCH   2   3
TORSDOF 8
ENDMDL
MODEL      305
REMARK 921   NORMALIZED FREE ENERGY PREDICTED BY IDOCK:   -3.59 KCAL/MOL
REMARK 922        TOTAL FREE ENERGY PREDICTED BY IDOCK:   -6.93 KCAL/MOL
REMARK 923 INTER-LIGAND FREE ENERGY PREDICTED BY IDOCK:   -6.07 KCAL/MOL
REMARK 924 INTRA-LIGAND FREE ENERGY PREDICTED BY IDOCK:   -0.86 KCAL/MOL
REMARK 927      BINDING AFFINITY PREDICTED BY RF-SCORE:    0.00 PKD
ROOT
HETATM    1  C   UNL     1      -6.818  17.194  69.123  1.00  0.00    -0.236 C  
HETATM    2  O   UNL     1      -7.448  17.503  67.887  1.00  0.00    -0.196 OA 
ENDROOT
BRANCH   2   3
HETATM    3  C   UNL     1      -8.461  16.673  67.491  1.00  0.00    -0.188 A  
HETATM    4  C   UNL     1      -9.045  16.637  66.226  1.00  0.00    -0.333 A  
HETATM    5  C   UNL     1     -10.120  15.779  65.970  1.00  0.00    -0.359 A  
HETATM    6  C   UNL     1     -10.614  14.935  66.974  1.00  0.00    -0.289 A  
HETATM    7  C   UNL     1      -8.930  15.811  68.482  1.00  0.00    -0.194 A  
HETATM    8  C   UNL     1      -9.998  14.950  68.230  1.00  0.00    -0.222 A  
BRANCH   6   9
HETATM    9  C   UNL     1     -11.874  14.127  66.769  1.00  0.00    -0.449 C  
BRANCH   9  10
HETATM   10  C   UNL     1     -11.695  12.685  66.239  1.00  0.00    -0.402 C  
HETATM   11  C   UNL     1     -10.224  12.400  65.912  1.00  0.00    -0.273 C  
BRANCH  10  12
HETATM   12  N   UNL     1     -12.129  11.667  67.216  1.00  0.00    -0.436 NA 
HETATM   13  H   UNL     1     -11.660  10.778  67.044  1.00  0.00     0.000 HD 
BRANCH  12  14
HETATM   14  C   UNL     1     -11.952  12.087  68.617  1.00  0.00    -0.235 C  
BRANCH  14  15
HETATM   15  C   UNL     1     -11.924  10.911  69.621  1.00  0.00    -0.343 C  
HETATM   16  H   UNL     1     -12.633  10.545  71.421  1.00  0.00     0.000 HD 
HETATM   17  O   UNL     1     -12.650  11.268  70.804  1.00  0.00    -0.344 OA 
BRANCH  15  18
HETATM   18  C   UNL     1     -10.537  10.401  69.952  1.00  0.00    -0.299 A  
HETATM   19  C   UNL     1      -9.426  10.935  69.272  1.00  0.00    -0.048 A  
HETATM   20  C   UNL     1      -8.130  10.474  69.529  1.00  0.00    -0.094 A  
HETATM   21  H   UNL     1      -6.612   8.263  71.436  1.00  0.00     0.000 HD 
HETATM   22  C   UNL     1      -7.955   9.479  70.499  1.00  0.00    -0.159 A  
HETATM   23  C   UNL     1     -10.326   9.420  70.930  1.00  0.00    -0.380 A  
HETATM   24  C   UNL     1      -9.039   8.961  71.203  1.00  0.00    -0.315 A  
HETATM   25  O   UNL     1      -6.731   8.938  70.778  1.00  0.00    -0.045 OA 
BRANCH  20  26
HETATM   26  N   UNL     1      -7.005  10.991  68.861  1.00  0.00    -0.080 N  
HETATM   27  H   UNL     1      -6.450  10.324  68.325  1.00  0.00     0.000 HD 
HETATM   28  O   UNL     1      -5.569  12.632  68.241  1.00  0.00    -0.054 OA 
HETATM   29  C   UNL     1      -6.572  12.287  68.849  1.00  0.00    -0.094 C  
ENDBRANCH  20  26
ENDBRANCH  15  18
ENDBRANCH  14  15
ENDBRANCH  12  14
ENDBRANCH  10  12
ENDBRANCH   9  10
ENDBRANCH   6   9
ENDBRANCH   2   3
TORSDOF 8
ENDMDL
MODEL      306
REMARK 921   NORMALIZED FREE ENERGY PREDICTED BY IDOCK:   -3.59 KCAL/MOL
REMARK 922        TOTAL FREE ENERGY PREDICTED BY IDOCK:   -6.92 KCAL/MOL
REMARK 923 INTER-LIGAND FREE ENERGY PREDICTED BY IDOCK:   -6.56 KCAL/MOL
REMARK 924 INTRA-LIGAND FREE ENERGY PREDICTED BY IDOCK:   -0.37 KCAL/MOL
REMARK 927      BINDING AFFINITY PREDICTED BY RF-SCORE:    0.00 PKD
ROOT
HETATM    1  C   UNL     1      -5.849  19.706  67.411  1.00  0.00    -0.184 C  
HETATM    2  O   UNL     1      -6.939  19.725  68.323  1.00  0.00    -0.279 OA 
ENDROOT
BRANCH   2   3
HETATM    3  C   UNL     1      -7.639  18.558  68.465  1.00  0.00    -0.306 A  
HETATM    4  C   UNL     1      -9.024  18.440  68.572  1.00  0.00    -0.336 A  
HETATM    5  C   UNL     1      -9.611  17.187  68.776  1.00  0.00    -0.269 A  
HETATM    6  C   UNL     1      -8.819  16.034  68.861  1.00  0.00    -0.233 A  
HETATM    7  C   UNL     1      -6.852  17.408  68.516  1.00  0.00    -0.203 A  
HETATM    8  C   UNL     1      -7.434  16.156  68.714  1.00  0.00    -0.189 A  
BRANCH   6   9
HETATM    9  C   UNL     1      -9.415  14.700  69.246  1.00  0.00    -0.001 C  
BRANCH   9  10
HETATM   10  C   UNL     1     -10.722  14.290  68.528  1.00  0.00    -0.255 C  
HETATM   11  C   UNL     1     -11.946  14.880  69.241  1.00  0.00    -0.326 C  
BRANCH  10  12
HETATM   12  N   UNL     1     -10.767  14.757  67.128  1.00  0.00    -0.293 NA 
HETATM   13  H   UNL     1     -10.394  15.703  67.050  1.00  0.00     0.000 HD 
BRANCH  12  14
HETATM   14  C   UNL     1     -10.090  13.849  66.186  1.00  0.00    -0.308 C  
BRANCH  14  15
HETATM   15  C   UNL     1     -11.002  12.727  65.637  1.00  0.00    -0.273 C  
HETATM   16  H   UNL     1     -12.917  12.272  65.708  1.00  0.00     0.000 HD 
HETATM   17  O   UNL     1     -12.356  12.962  66.045  1.00  0.00    -0.504 OA 
BRANCH  15  18
HETATM   18  C   UNL     1     -10.550  11.324  65.986  1.00  0.00    -0.314 A  
HETATM   19  C   UNL     1      -9.833  10.575  65.035  1.00  0.00    -0.369 A  
HETATM   20  C   UNL     1      -9.418   9.266  65.308  1.00  0.00    -0.164 A  
HETATM   21  H   UNL     1      -9.591   7.062  67.746  1.00  0.00     0.000 HD 
HETATM   22  C   UNL     1      -9.715   8.719  66.563  1.00  0.00    -0.259 A  
HETATM   23  C   UNL     1     -10.814  10.755  67.240  1.00  0.00    -0.344 A  
HETATM   24  C   UNL     1     -10.397   9.457  67.527  1.00  0.00    -0.314 A  
HETATM   25  O   UNL     1      -9.390   7.433  66.894  1.00  0.00    -0.142 OA 
BRANCH  20  26
HETATM   26  N   UNL     1      -8.702   8.497  64.372  1.00  0.00    -0.405 N  
HETATM   27  H   UNL     1      -8.510   7.530  64.633  1.00  0.00     0.000 HD 
HETATM   28  O   UNL     1      -7.612   8.151  62.414  1.00  0.00    -0.101 OA 
HETATM   29  C   UNL     1      -8.237   8.900  63.152  1.00  0.00    -0.183 C  
ENDBRANCH  20  26
ENDBRANCH  15  18
ENDBRANCH  14  15
ENDBRANCH  12  14
ENDBRANCH  10  12
ENDBRANCH   9  10
ENDBRANCH   6   9
ENDBRANCH   2   3
TORSDOF 8
ENDMDL
MODEL      307
REMARK 921   NORMALIZED FREE ENERGY PREDICTED BY IDOCK:   -3.58 KCAL/MOL
REMARK 922        TOTAL FREE ENERGY PREDICTED BY IDOCK:   -6.92 KCAL/MOL
REMARK 923 INTER-LIGAND FREE ENERGY PREDICTED BY IDOCK:   -6.29 KCAL/MOL
REMARK 924 INTRA-LIGAND FREE ENERGY PREDICTED BY IDOCK:   -0.63 KCAL/MOL
REMARK 927      BINDING AFFINITY PREDICTED BY RF-SCORE:    0.00 PKD
ROOT
HETATM    1  C   UNL     1      -7.626  19.902  67.605  1.00  0.00    -0.289 C  
HETATM    2  O   UNL     1      -8.587  19.221  66.810  1.00  0.00    -0.282 OA 
ENDROOT
BRANCH   2   3
HETATM    3  C   UNL     1      -8.698  17.872  67.004  1.00  0.00    -0.245 A  
HETATM    4  C   UNL     1      -7.897  17.095  67.839  1.00  0.00    -0.196 A  
HETATM    5  C   UNL     1      -8.078  15.709  67.901  1.00  0.00    -0.149 A  
HETATM    6  C   UNL     1      -9.075  15.086  67.138  1.00  0.00    -0.229 A  
HETATM    7  C   UNL     1      -9.712  17.258  66.269  1.00  0.00    -0.282 A  
HETATM    8  C   UNL     1      -9.900  15.877  66.331  1.00  0.00    -0.302 A  
BRANCH   6   9
HETATM    9  C   UNL     1      -9.178  13.581  67.062  1.00  0.00    -0.248 C  
BRANCH   9  10
HETATM   10  C   UNL     1      -9.530  12.842  68.374  1.00  0.00    -0.162 C  
HETATM   11  C   UNL     1     -10.963  13.165  68.816  1.00  0.00    -0.298 C  
BRANCH  10  12
HETATM   12  N   UNL     1      -9.438  11.374  68.237  1.00  0.00    -0.181 NA 
HETATM   13  H   UNL     1      -9.134  11.117  67.298  1.00  0.00     0.000 HD 
BRANCH  12  14
HETATM   14  C   UNL     1      -8.581  10.744  69.254  1.00  0.00    -0.033 C  
BRANCH  14  15
HETATM   15  C   UNL     1      -8.661   9.199  69.266  1.00  0.00    -0.139 C  
HETATM   16  H   UNL     1      -9.554   7.801  68.204  1.00  0.00     0.000 HD 
HETATM   17  O   UNL     1      -9.504   8.750  68.197  1.00  0.00    -0.139 OA 
BRANCH  15  18
HETATM   18  C   UNL     1      -9.080   8.602  70.594  1.00  0.00    -0.201 A  
HETATM   19  C   UNL     1     -10.438   8.627  70.963  1.00  0.00    -0.276 A  
HETATM   20  C   UNL     1     -10.864   8.109  72.191  1.00  0.00    -0.303 A  
HETATM   21  H   UNL     1      -9.582   6.673  74.861  1.00  0.00     0.000 HD 
HETATM   22  C   UNL     1      -9.908   7.542  73.045  1.00  0.00    -0.238 A  
HETATM   23  C   UNL     1      -8.152   8.010  71.462  1.00  0.00    -0.126 A  
HETATM   24  C   UNL     1      -8.565   7.482  72.683  1.00  0.00    -0.154 A  
HETATM   25  O   UNL     1     -10.230   7.058  74.282  1.00  0.00    -0.313 OA 
BRANCH  20  26
HETATM   26  N   UNL     1     -12.215   8.125  72.582  1.00  0.00    -0.599 N  
HETATM   27  H   UNL     1     -12.597   7.245  72.930  1.00  0.00     0.000 HD 
HETATM   28  O   UNL     1     -14.240   9.092  72.904  1.00  0.00    -0.528 OA 
HETATM   29  C   UNL     1     -13.074   9.187  72.549  1.00  0.00    -0.377 C  
ENDBRANCH  20  26
ENDBRANCH  15  18
ENDBRANCH  14  15
ENDBRANCH  12  14
ENDBRANCH  10  12
ENDBRANCH   9  10
ENDBRANCH   6   9
ENDBRANCH   2   3
TORSDOF 8
ENDMDL
MODEL      308
REMARK 921   NORMALIZED FREE ENERGY PREDICTED BY IDOCK:   -3.58 KCAL/MOL
REMARK 922        TOTAL FREE ENERGY PREDICTED BY IDOCK:   -6.92 KCAL/MOL
REMARK 923 INTER-LIGAND FREE ENERGY PREDICTED BY IDOCK:   -6.23 KCAL/MOL
REMARK 924 INTRA-LIGAND FREE ENERGY PREDICTED BY IDOCK:   -0.69 KCAL/MOL
REMARK 927      BINDING AFFINITY PREDICTED BY RF-SCORE:    0.00 PKD
ROOT
HETATM    1  C   UNL     1      -9.286   5.467  73.763  1.00  0.00    -0.136 C  
HETATM    2  O   UNL     1      -8.960   4.912  72.496  1.00  0.00    -0.130 OA 
ENDROOT
BRANCH   2   3
HETATM    3  C   UNL     1      -9.432   5.575  71.397  1.00  0.00    -0.148 A  
HETATM    4  C   UNL     1     -10.393   5.103  70.504  1.00  0.00    -0.314 A  
HETATM    5  C   UNL     1     -10.744   5.858  69.381  1.00  0.00    -0.406 A  
HETATM    6  C   UNL     1     -10.147   7.104  69.145  1.00  0.00    -0.183 A  
HETATM    7  C   UNL     1      -8.861   6.829  71.182  1.00  0.00    -0.137 A  
HETATM    8  C   UNL     1      -9.212   7.588  70.065  1.00  0.00    -0.151 A  
BRANCH   6   9
HETATM    9  C   UNL     1     -10.387   7.857  67.857  1.00  0.00    -0.281 C  
BRANCH   9  10
HETATM   10  C   UNL     1     -10.311   9.400  67.931  1.00  0.00    -0.225 C  
HETATM   11  C   UNL     1      -9.435   9.960  66.802  1.00  0.00    -0.212 C  
BRANCH  10  12
HETATM   12  N   UNL     1     -11.638  10.036  67.807  1.00  0.00    -0.501 NA 
HETATM   13  H   UNL     1     -12.271   9.695  68.531  1.00  0.00     0.000 HD 
BRANCH  12  14
HETATM   14  C   UNL     1     -11.584  11.508  67.813  1.00  0.00    -0.267 C  
BRANCH  14  15
HETATM   15  C   UNL     1     -11.216  12.113  69.189  1.00  0.00    -0.244 C  
HETATM   16  H   UNL     1     -11.926  12.039  71.024  1.00  0.00     0.000 HD 
HETATM   17  O   UNL     1     -12.152  11.667  70.179  1.00  0.00    -0.322 OA 
BRANCH  15  18
HETATM   18  C   UNL     1     -11.076  13.621  69.194  1.00  0.00    -0.275 A  
HETATM   19  C   UNL     1     -10.039  14.219  68.454  1.00  0.00    -0.243 A  
HETATM   20  C   UNL     1      -9.859  15.607  68.451  1.00  0.00    -0.206 A  
HETATM   21  H   UNL     1     -11.222  18.292  69.780  1.00  0.00     0.000 HD 
HETATM   22  C   UNL     1     -10.750  16.398  69.189  1.00  0.00    -0.317 A  
HETATM   23  C   UNL     1     -11.962  14.442  69.905  1.00  0.00    -0.391 A  
HETATM   24  C   UNL     1     -11.799  15.825  69.902  1.00  0.00    -0.355 A  
HETATM   25  O   UNL     1     -10.617  17.755  69.280  1.00  0.00    -0.176 OA 
BRANCH  20  26
HETATM   26  N   UNL     1      -8.828  16.227  67.721  1.00  0.00    -0.187 N  
HETATM   27  H   UNL     1      -8.883  17.242  67.632  1.00  0.00     0.000 HD 
HETATM   28  O   UNL     1      -6.922  16.256  66.493  1.00  0.00    -0.199 OA 
HETATM   29  C   UNL     1      -7.762  15.622  67.117  1.00  0.00    -0.223 C  
ENDBRANCH  20  26
ENDBRANCH  15  18
ENDBRANCH  14  15
ENDBRANCH  12  14
ENDBRANCH  10  12
ENDBRANCH   9  10
ENDBRANCH   6   9
ENDBRANCH   2   3
TORSDOF 8
ENDMDL
MODEL      309
REMARK 921   NORMALIZED FREE ENERGY PREDICTED BY IDOCK:   -3.58 KCAL/MOL
REMARK 922        TOTAL FREE ENERGY PREDICTED BY IDOCK:   -6.91 KCAL/MOL
REMARK 923 INTER-LIGAND FREE ENERGY PREDICTED BY IDOCK:   -5.40 KCAL/MOL
REMARK 924 INTRA-LIGAND FREE ENERGY PREDICTED BY IDOCK:   -1.52 KCAL/MOL
REMARK 927      BINDING AFFINITY PREDICTED BY RF-SCORE:    0.00 PKD
ROOT
HETATM    1  C   UNL     1     -11.306  10.438  68.021  1.00  0.00    -0.204 C  
HETATM    2  O   UNL     1     -12.198  11.543  68.077  1.00  0.00    -0.582 OA 
ENDROOT
BRANCH   2   3
HETATM    3  C   UNL     1     -11.783  12.697  67.473  1.00  0.00    -0.368 A  
HETATM    4  C   UNL     1     -11.459  12.848  66.125  1.00  0.00    -0.393 A  
HETATM    5  C   UNL     1     -10.987  14.074  65.646  1.00  0.00    -0.300 A  
HETATM    6  C   UNL     1     -10.846  15.170  66.507  1.00  0.00    -0.317 A  
HETATM    7  C   UNL     1     -11.674  13.796  68.325  1.00  0.00    -0.394 A  
HETATM    8  C   UNL     1     -11.208  15.022  67.850  1.00  0.00    -0.330 A  
BRANCH   6   9
HETATM    9  C   UNL     1     -10.183  16.447  66.049  1.00  0.00    -0.373 C  
BRANCH   9  10
HETATM   10  C   UNL     1      -8.656  16.557  66.272  1.00  0.00    -0.332 C  
HETATM   11  C   UNL     1      -8.194  18.018  66.195  1.00  0.00    -0.180 C  
BRANCH  10  12
HETATM   12  N   UNL     1      -8.240  16.038  67.590  1.00  0.00    -0.145 NA 
HETATM   13  H   UNL     1      -9.053  15.802  68.159  1.00  0.00     0.000 HD 
BRANCH  12  14
HETATM   14  C   UNL     1      -7.314  14.896  67.505  1.00  0.00    -0.204 C  
BRANCH  14  15
HETATM   15  C   UNL     1      -7.575  13.802  68.567  1.00  0.00    -0.134 C  
HETATM   16  H   UNL     1      -6.744  13.213  70.252  1.00  0.00     0.000 HD 
HETATM   17  O   UNL     1      -6.584  13.885  69.600  1.00  0.00    -0.123 OA 
BRANCH  15  18
HETATM   18  C   UNL     1      -7.681  12.398  68.008  1.00  0.00    -0.135 A  
HETATM   19  C   UNL     1      -7.980  12.220  66.645  1.00  0.00     0.095 A  
HETATM   20  C   UNL     1      -8.112  10.941  66.094  1.00  0.00    -0.160 A  
HETATM   21  H   UNL     1      -7.945   7.795  67.048  1.00  0.00     0.000 HD 
HETATM   22  C   UNL     1      -7.919   9.831  66.927  1.00  0.00    -0.105 A  
HETATM   23  C   UNL     1      -7.474  11.268  68.811  1.00  0.00    -0.123 A  
HETATM   24  C   UNL     1      -7.593   9.989  68.271  1.00  0.00    -0.084 A  
HETATM   25  O   UNL     1      -8.077   8.548  66.483  1.00  0.00    -0.101 OA 
BRANCH  20  26
HETATM   26  N   UNL     1      -8.414  10.738  64.734  1.00  0.00    -0.345 N  
HETATM   27  H   UNL     1      -9.402  10.736  64.485  1.00  0.00     0.000 HD 
HETATM   28  O   UNL     1      -7.897  10.364  62.558  1.00  0.00    -0.142 OA 
HETATM   29  C   UNL     1      -7.529  10.543  63.711  1.00  0.00     0.079 C  
ENDBRANCH  20  26
ENDBRANCH  15  18
ENDBRANCH  14  15
ENDBRANCH  12  14
ENDBRANCH  10  12
ENDBRANCH   9  10
ENDBRANCH   6   9
ENDBRANCH   2   3
TORSDOF 8
ENDMDL
MODEL      310
REMARK 921   NORMALIZED FREE ENERGY PREDICTED BY IDOCK:   -3.58 KCAL/MOL
REMARK 922        TOTAL FREE ENERGY PREDICTED BY IDOCK:   -6.91 KCAL/MOL
REMARK 923 INTER-LIGAND FREE ENERGY PREDICTED BY IDOCK:   -5.71 KCAL/MOL
REMARK 924 INTRA-LIGAND FREE ENERGY PREDICTED BY IDOCK:   -1.20 KCAL/MOL
REMARK 927      BINDING AFFINITY PREDICTED BY RF-SCORE:    0.00 PKD
ROOT
HETATM    1  C   UNL     1     -10.581   5.749  74.198  1.00  0.00    -0.168 C  
HETATM    2  O   UNL     1     -10.751   6.971  73.492  1.00  0.00    -0.349 OA 
ENDROOT
BRANCH   2   3
HETATM    3  C   UNL     1      -9.817   7.262  72.537  1.00  0.00    -0.159 A  
HETATM    4  C   UNL     1      -9.124   8.464  72.406  1.00  0.00    -0.326 A  
HETATM    5  C   UNL     1      -8.236   8.655  71.342  1.00  0.00    -0.205 A  
HETATM    6  C   UNL     1      -8.020   7.637  70.403  1.00  0.00    -0.097 A  
HETATM    7  C   UNL     1      -9.580   6.236  71.622  1.00  0.00    -0.167 A  
HETATM    8  C   UNL     1      -8.691   6.420  70.562  1.00  0.00    -0.144 A  
BRANCH   6   9
HETATM    9  C   UNL     1      -7.198   7.879  69.159  1.00  0.00    -0.081 C  
BRANCH   9  10
HETATM   10  C   UNL     1      -6.785   9.342  68.873  1.00  0.00    -0.051 C  
HETATM   11  C   UNL     1      -5.535   9.395  67.986  1.00  0.00    -0.037 C  
BRANCH  10  12
HETATM   12  N   UNL     1      -7.844  10.102  68.179  1.00  0.00    -0.095 NA 
HETATM   13  H   UNL     1      -7.448  10.894  67.674  1.00  0.00     0.000 HD 
BRANCH  12  14
HETATM   14  C   UNL     1      -8.668   9.272  67.284  1.00  0.00    -0.128 C  
BRANCH  14  15
HETATM   15  C   UNL     1     -10.111   9.046  67.796  1.00  0.00    -0.208 C  
HETATM   16  H   UNL     1     -11.782   8.284  67.087  1.00  0.00     0.000 HD 
HETATM   17  O   UNL     1     -10.896   8.422  66.772  1.00  0.00    -0.172 OA 
BRANCH  15  18
HETATM   18  C   UNL     1     -10.786  10.289  68.337  1.00  0.00    -0.288 A  
HETATM   19  C   UNL     1     -11.104  11.339  67.456  1.00  0.00    -0.346 A  
HETATM   20  C   UNL     1     -11.706  12.515  67.918  1.00  0.00    -0.359 A  
HETATM   21  H   UNL     1     -12.755  13.822  70.751  1.00  0.00     0.000 HD 
HETATM   22  C   UNL     1     -12.008  12.620  69.282  1.00  0.00    -0.246 A  
HETATM   23  C   UNL     1     -11.119  10.417  69.693  1.00  0.00    -0.328 A  
HETATM   24  C   UNL     1     -11.727  11.579  70.163  1.00  0.00    -0.395 A  
HETATM   25  O   UNL     1     -12.550  13.751  69.825  1.00  0.00    -0.233 OA 
BRANCH  20  26
HETATM   26  N   UNL     1     -12.031  13.579  67.056  1.00  0.00    -0.398 N  
HETATM   27  H   UNL     1     -12.542  14.358  67.471  1.00  0.00     0.000 HD 
HETATM   28  O   UNL     1     -12.078  14.654  65.061  1.00  0.00    -0.386 OA 
HETATM   29  C   UNL     1     -11.738  13.686  65.726  1.00  0.00    -0.348 C  
ENDBRANCH  20  26
ENDBRANCH  15  18
ENDBRANCH  14  15
ENDBRANCH  12  14
ENDBRANCH  10  12
ENDBRANCH   9  10
ENDBRANCH   6   9
ENDBRANCH   2   3
TORSDOF 8
ENDMDL
MODEL      311
REMARK 921   NORMALIZED FREE ENERGY PREDICTED BY IDOCK:   -3.58 KCAL/MOL
REMARK 922        TOTAL FREE ENERGY PREDICTED BY IDOCK:   -6.91 KCAL/MOL
REMARK 923 INTER-LIGAND FREE ENERGY PREDICTED BY IDOCK:   -6.31 KCAL/MOL
REMARK 924 INTRA-LIGAND FREE ENERGY PREDICTED BY IDOCK:   -0.60 KCAL/MOL
REMARK 927      BINDING AFFINITY PREDICTED BY RF-SCORE:    0.00 PKD
ROOT
HETATM    1  C   UNL     1      -5.943   6.781  74.244  1.00  0.00    -0.063 C  
HETATM    2  O   UNL     1      -7.038   5.879  74.338  1.00  0.00    -0.087 OA 
ENDROOT
BRANCH   2   3
HETATM    3  C   UNL     1      -7.925   5.882  73.297  1.00  0.00    -0.109 A  
HETATM    4  C   UNL     1      -7.679   5.410  72.008  1.00  0.00    -0.101 A  
HETATM    5  C   UNL     1      -8.658   5.528  71.016  1.00  0.00    -0.126 A  
HETATM    6  C   UNL     1      -9.901   6.107  71.305  1.00  0.00    -0.204 A  
HETATM    7  C   UNL     1      -9.173   6.428  73.596  1.00  0.00    -0.143 A  
HETATM    8  C   UNL     1     -10.154   6.543  72.610  1.00  0.00    -0.190 A  
BRANCH   6   9
HETATM    9  C   UNL     1     -10.905   6.395  70.214  1.00  0.00    -0.350 C  
BRANCH   9  10
HETATM   10  C   UNL     1     -10.565   7.551  69.245  1.00  0.00    -0.210 C  
HETATM   11  C   UNL     1     -10.858   7.153  67.793  1.00  0.00    -0.248 C  
BRANCH  10  12
HETATM   12  N   UNL     1     -11.346   8.772  69.527  1.00  0.00    -0.423 NA 
HETATM   13  H   UNL     1     -12.044   8.595  70.250  1.00  0.00     0.000 HD 
BRANCH  12  14
HETATM   14  C   UNL     1     -10.511   9.933  69.880  1.00  0.00    -0.269 C  
BRANCH  14  15
HETATM   15  C   UNL     1     -11.313  11.243  70.064  1.00  0.00    -0.208 C  
HETATM   16  H   UNL     1     -13.100  11.751  70.716  1.00  0.00     0.000 HD 
HETATM   17  O   UNL     1     -12.608  10.946  70.603  1.00  0.00    -0.331 OA 
BRANCH  15  18
HETATM   18  C   UNL     1     -11.411  12.099  68.818  1.00  0.00    -0.339 A  
HETATM   19  C   UNL     1     -11.388  11.481  67.555  1.00  0.00    -0.366 A  
HETATM   20  C   UNL     1     -11.451  12.237  66.378  1.00  0.00    -0.378 A  
HETATM   21  H   UNL     1     -11.649  15.391  65.459  1.00  0.00     0.000 HD 
HETATM   22  C   UNL     1     -11.559  13.630  66.484  1.00  0.00    -0.366 A  
HETATM   23  C   UNL     1     -11.539  13.493  68.890  1.00  0.00    -0.364 A  
HETATM   24  C   UNL     1     -11.613  14.255  67.727  1.00  0.00    -0.383 A  
HETATM   25  O   UNL     1     -11.576  14.446  65.388  1.00  0.00    -0.332 OA 
BRANCH  20  26
HETATM   26  N   UNL     1     -11.428  11.642  65.103  1.00  0.00    -0.178 N  
HETATM   27  H   UNL     1     -12.333  11.408  64.696  1.00  0.00     0.000 HD 
HETATM   28  O   UNL     1     -10.417  10.812  63.251  1.00  0.00    -0.226 OA 
HETATM   29  C   UNL     1     -10.328  11.343  64.350  1.00  0.00    -0.320 C  
ENDBRANCH  20  26
ENDBRANCH  15  18
ENDBRANCH  14  15
ENDBRANCH  12  14
ENDBRANCH  10  12
ENDBRANCH   9  10
ENDBRANCH   6   9
ENDBRANCH   2   3
TORSDOF 8
ENDMDL
MODEL      312
REMARK 921   NORMALIZED FREE ENERGY PREDICTED BY IDOCK:   -3.57 KCAL/MOL
REMARK 922        TOTAL FREE ENERGY PREDICTED BY IDOCK:   -6.90 KCAL/MOL
REMARK 923 INTER-LIGAND FREE ENERGY PREDICTED BY IDOCK:   -5.42 KCAL/MOL
REMARK 924 INTRA-LIGAND FREE ENERGY PREDICTED BY IDOCK:   -1.49 KCAL/MOL
REMARK 927      BINDING AFFINITY PREDICTED BY RF-SCORE:    0.00 PKD
ROOT
HETATM    1  C   UNL     1     -11.956  14.032  64.478  1.00  0.00    -0.448 C  
HETATM    2  O   UNL     1     -11.561  13.111  65.487  1.00  0.00    -0.315 OA 
ENDROOT
BRANCH   2   3
HETATM    3  C   UNL     1     -10.887  11.997  65.069  1.00  0.00    -0.304 A  
HETATM    4  C   UNL     1     -10.551  10.898  65.859  1.00  0.00    -0.244 A  
HETATM    5  C   UNL     1      -9.803   9.845  65.320  1.00  0.00    -0.373 A  
HETATM    6  C   UNL     1      -9.395   9.873  63.980  1.00  0.00    -0.280 A  
HETATM    7  C   UNL     1     -10.510  12.011  63.726  1.00  0.00    -0.469 A  
HETATM    8  C   UNL     1      -9.769  10.961  63.184  1.00  0.00    -0.396 A  
BRANCH   6   9
HETATM    9  C   UNL     1      -8.449   8.833  63.426  1.00  0.00    -0.116 C  
BRANCH   9  10
HETATM   10  C   UNL     1      -6.946   9.027  63.734  1.00  0.00    -0.088 C  
HETATM   11  C   UNL     1      -6.735  10.174  64.730  1.00  0.00    -0.121 C  
BRANCH  10  12
HETATM   12  N   UNL     1      -6.331   7.820  64.323  1.00  0.00    -0.052 NA 
HETATM   13  H   UNL     1      -5.578   8.074  64.962  1.00  0.00     0.000 HD 
BRANCH  12  14
HETATM   14  C   UNL     1      -7.302   6.933  64.986  1.00  0.00    -0.086 C  
BRANCH  14  15
HETATM   15  C   UNL     1      -7.010   6.702  66.488  1.00  0.00    -0.066 C  
HETATM   16  H   UNL     1      -7.107   5.195  67.752  1.00  0.00     0.000 HD 
HETATM   17  O   UNL     1      -7.286   5.337  66.830  1.00  0.00    -0.083 OA 
BRANCH  15  18
HETATM   18  C   UNL     1      -7.717   7.664  67.420  1.00  0.00    -0.117 A  
HETATM   19  C   UNL     1      -8.980   7.320  67.937  1.00  0.00    -0.130 A  
HETATM   20  C   UNL     1      -9.678   8.191  68.781  1.00  0.00    -0.153 A  
HETATM   21  H   UNL     1      -9.310  11.169  70.132  1.00  0.00     0.000 HD 
HETATM   22  C   UNL     1      -9.082   9.412  69.122  1.00  0.00    -0.148 A  
HETATM   23  C   UNL     1      -7.139   8.884  67.796  1.00  0.00    -0.079 A  
HETATM   24  C   UNL     1      -7.820   9.755  68.644  1.00  0.00    -0.081 A  
HETATM   25  O   UNL     1      -9.714  10.341  69.900  1.00  0.00    -0.196 OA 
BRANCH  20  26
HETATM   26  N   UNL     1     -10.943   7.870  69.308  1.00  0.00    -0.429 N  
HETATM   27  H   UNL     1     -11.696   8.528  69.111  1.00  0.00     0.000 HD 
HETATM   28  O   UNL     1     -12.409   6.593  70.475  1.00  0.00    -0.314 OA 
HETATM   29  C   UNL     1     -11.275   6.773  70.053  1.00  0.00    -0.328 C  
ENDBRANCH  20  26
ENDBRANCH  15  18
ENDBRANCH  14  15
ENDBRANCH  12  14
ENDBRANCH  10  12
ENDBRANCH   9  10
ENDBRANCH   6   9
ENDBRANCH   2   3
TORSDOF 8
ENDMDL
MODEL      313
REMARK 921   NORMALIZED FREE ENERGY PREDICTED BY IDOCK:   -3.57 KCAL/MOL
REMARK 922        TOTAL FREE ENERGY PREDICTED BY IDOCK:   -6.90 KCAL/MOL
REMARK 923 INTER-LIGAND FREE ENERGY PREDICTED BY IDOCK:   -6.01 KCAL/MOL
REMARK 924 INTRA-LIGAND FREE ENERGY PREDICTED BY IDOCK:   -0.89 KCAL/MOL
REMARK 927      BINDING AFFINITY PREDICTED BY RF-SCORE:    0.00 PKD
ROOT
HETATM    1  C   UNL     1     -12.159  15.856  64.273  1.00  0.00     0.102 C  
HETATM    2  O   UNL     1     -12.301  14.515  63.823  1.00  0.00    -0.729 OA 
ENDROOT
BRANCH   2   3
HETATM    3  C   UNL     1     -11.911  13.533  64.690  1.00  0.00    -0.400 A  
HETATM    4  C   UNL     1     -11.184  12.389  64.362  1.00  0.00    -0.384 A  
HETATM    5  C   UNL     1     -10.901  11.429  65.339  1.00  0.00    -0.292 A  
HETATM    6  C   UNL     1     -11.331  11.607  66.661  1.00  0.00    -0.338 A  
HETATM    7  C   UNL     1     -12.312  13.728  66.012  1.00  0.00    -0.499 A  
HETATM    8  C   UNL     1     -12.028  12.775  66.990  1.00  0.00    -0.364 A  
BRANCH   6   9
HETATM    9  C   UNL     1     -11.184  10.511  67.689  1.00  0.00    -0.338 C  
BRANCH   9  10
HETATM   10  C   UNL     1      -9.968  10.609  68.640  1.00  0.00    -0.181 C  
HETATM   11  C   UNL     1      -8.708  10.037  67.978  1.00  0.00    -0.125 C  
BRANCH  10  12
HETATM   12  N   UNL     1      -9.664  12.002  69.023  1.00  0.00    -0.404 NA 
HETATM   13  H   UNL     1      -9.670  12.107  70.038  1.00  0.00     0.000 HD 
BRANCH  12  14
HETATM   14  C   UNL     1      -8.401  12.503  68.455  1.00  0.00    -0.132 C  
BRANCH  14  15
HETATM   15  C   UNL     1      -8.592  13.401  67.209  1.00  0.00    -0.213 C  
HETATM   16  H   UNL     1      -8.036  13.369  65.321  1.00  0.00     0.000 HD 
HETATM   17  O   UNL     1      -7.919  12.818  66.086  1.00  0.00     0.748 OA 
BRANCH  15  18
HETATM   18  C   UNL     1      -8.191  14.847  67.410  1.00  0.00    -0.217 A  
HETATM   19  C   UNL     1      -9.191  15.828  67.540  1.00  0.00    -0.207 A  
HETATM   20  C   UNL     1      -8.864  17.179  67.703  1.00  0.00    -0.218 A  
HETATM   21  H   UNL     1      -6.184  19.080  67.898  1.00  0.00     0.000 HD 
HETATM   22  C   UNL     1      -7.510  17.537  67.755  1.00  0.00    -0.191 A  
HETATM   23  C   UNL     1      -6.846  15.235  67.487  1.00  0.00    -0.218 A  
HETATM   24  C   UNL     1      -6.508  16.576  67.658  1.00  0.00    -0.170 A  
HETATM   25  O   UNL     1      -7.102  18.837  67.862  1.00  0.00    -0.231 OA 
BRANCH  20  26
HETATM   26  N   UNL     1      -9.847  18.178  67.832  1.00  0.00    -0.299 N  
HETATM   27  H   UNL     1     -10.163  18.382  68.779  1.00  0.00     0.000 HD 
HETATM   28  O   UNL     1     -11.283  19.748  67.049  1.00  0.00    -0.276 OA 
HETATM   29  C   UNL     1     -10.424  18.906  66.829  1.00  0.00    -0.428 C  
ENDBRANCH  20  26
ENDBRANCH  15  18
ENDBRANCH  14  15
ENDBRANCH  12  14
ENDBRANCH  10  12
ENDBRANCH   9  10
ENDBRANCH   6   9
ENDBRANCH   2   3
TORSDOF 8
ENDMDL
MODEL      314
REMARK 921   NORMALIZED FREE ENERGY PREDICTED BY IDOCK:   -3.57 KCAL/MOL
REMARK 922        TOTAL FREE ENERGY PREDICTED BY IDOCK:   -6.89 KCAL/MOL
REMARK 923 INTER-LIGAND FREE ENERGY PREDICTED BY IDOCK:   -5.97 KCAL/MOL
REMARK 924 INTRA-LIGAND FREE ENERGY PREDICTED BY IDOCK:   -0.92 KCAL/MOL
REMARK 927      BINDING AFFINITY PREDICTED BY RF-SCORE:    0.00 PKD
ROOT
HETATM    1  C   UNL     1      -6.512  14.002  68.036  1.00  0.00    -0.149 C  
HETATM    2  O   UNL     1      -5.888  13.116  67.116  1.00  0.00    -0.332 OA 
ENDROOT
BRANCH   2   3
HETATM    3  C   UNL     1      -6.086  11.779  67.323  1.00  0.00    -0.124 A  
HETATM    4  C   UNL     1      -5.837  10.760  66.404  1.00  0.00    -0.109 A  
HETATM    5  C   UNL     1      -6.141   9.433  66.722  1.00  0.00    -0.064 A  
HETATM    6  C   UNL     1      -6.686   9.106  67.971  1.00  0.00    -0.068 A  
HETATM    7  C   UNL     1      -6.598  11.452  68.579  1.00  0.00    -0.062 A  
HETATM    8  C   UNL     1      -6.898  10.128  68.902  1.00  0.00    -0.054 A  
BRANCH   6   9
HETATM    9  C   UNL     1      -7.176   7.709  68.272  1.00  0.00    -0.093 C  
BRANCH   9  10
HETATM   10  C   UNL     1      -8.695   7.459  68.126  1.00  0.00    -0.122 C  
HETATM   11  C   UNL     1      -8.966   6.169  67.341  1.00  0.00    -0.112 C  
BRANCH  10  12
HETATM   12  N   UNL     1      -9.372   7.323  69.432  1.00  0.00    -0.152 NA 
HETATM   13  H   UNL     1      -8.955   7.948  70.121  1.00  0.00     0.000 HD 
BRANCH  12  14
HETATM   14  C   UNL     1     -10.829   7.524  69.359  1.00  0.00    -0.150 C  
BRANCH  14  15
HETATM   15  C   UNL     1     -11.486   7.820  70.729  1.00  0.00    -0.272 C  
HETATM   16  H   UNL     1     -12.961   7.078  71.802  1.00  0.00     0.000 HD 
HETATM   17  O   UNL     1     -12.557   6.897  70.961  1.00  0.00    -0.374 OA 
BRANCH  15  18
HETATM   18  C   UNL     1     -11.937   9.254  70.911  1.00  0.00    -0.321 A  
HETATM   19  C   UNL     1     -11.432  10.249  70.054  1.00  0.00    -0.367 A  
HETATM   20  C   UNL     1     -11.804  11.590  70.204  1.00  0.00    -0.356 A  
HETATM   21  H   UNL     1     -13.705  13.439  72.154  1.00  0.00     0.000 HD 
HETATM   22  C   UNL     1     -12.711  11.923  71.219  1.00  0.00    -0.298 A  
HETATM   23  C   UNL     1     -12.858   9.617  71.904  1.00  0.00    -0.515 A  
HETATM   24  C   UNL     1     -13.243  10.947  72.056  1.00  0.00    -0.456 A  
HETATM   25  O   UNL     1     -13.089  13.213  71.466  1.00  0.00    -0.365 OA 
BRANCH  20  26
HETATM   26  N   UNL     1     -11.311  12.603  69.361  1.00  0.00    -0.412 N  
HETATM   27  H   UNL     1     -10.612  13.228  69.763  1.00  0.00     0.000 HD 
HETATM   28  O   UNL     1     -11.179  13.763  67.417  1.00  0.00    -0.291 OA 
HETATM   29  C   UNL     1     -11.663  12.844  68.062  1.00  0.00    -0.356 C  
ENDBRANCH  20  26
ENDBRANCH  15  18
ENDBRANCH  14  15
ENDBRANCH  12  14
ENDBRANCH  10  12
ENDBRANCH   9  10
ENDBRANCH   6   9
ENDBRANCH   2   3
TORSDOF 8
ENDMDL
MODEL      315
REMARK 921   NORMALIZED FREE ENERGY PREDICTED BY IDOCK:   -3.56 KCAL/MOL
REMARK 922        TOTAL FREE ENERGY PREDICTED BY IDOCK:   -6.89 KCAL/MOL
REMARK 923 INTER-LIGAND FREE ENERGY PREDICTED BY IDOCK:   -6.72 KCAL/MOL
REMARK 924 INTRA-LIGAND FREE ENERGY PREDICTED BY IDOCK:   -0.17 KCAL/MOL
REMARK 927      BINDING AFFINITY PREDICTED BY RF-SCORE:    0.00 PKD
ROOT
HETATM    1  C   UNL     1     -10.506   9.310  71.076  1.00  0.00    -0.314 C  
HETATM    2  O   UNL     1     -11.313  10.141  70.251  1.00  0.00    -0.269 OA 
ENDROOT
BRANCH   2   3
HETATM    3  C   UNL     1     -10.946  10.243  68.938  1.00  0.00    -0.238 A  
HETATM    4  C   UNL     1     -10.160   9.332  68.232  1.00  0.00    -0.214 A  
HETATM    5  C   UNL     1      -9.806   9.588  66.904  1.00  0.00    -0.262 A  
HETATM    6  C   UNL     1     -10.245  10.752  66.260  1.00  0.00    -0.301 A  
HETATM    7  C   UNL     1     -11.411  11.386  68.289  1.00  0.00    -0.369 A  
HETATM    8  C   UNL     1     -11.064  11.642  66.962  1.00  0.00    -0.359 A  
BRANCH   6   9
HETATM    9  C   UNL     1      -9.739  11.128  64.887  1.00  0.00    -0.297 C  
BRANCH   9  10
HETATM   10  C   UNL     1     -10.054  12.561  64.398  1.00  0.00    -0.258 C  
HETATM   11  C   UNL     1     -11.497  12.659  63.886  1.00  0.00    -0.509 C  
BRANCH  10  12
HETATM   12  N   UNL     1      -9.903  13.567  65.468  1.00  0.00    -0.492 NA 
HETATM   13  H   UNL     1      -9.114  13.338  66.071  1.00  0.00     0.000 HD 
BRANCH  12  14
HETATM   14  C   UNL     1      -9.791  14.946  64.962  1.00  0.00    -0.034 C  
BRANCH  14  15
HETATM   15  C   UNL     1     -10.641  15.970  65.751  1.00  0.00    -0.353 C  
HETATM   16  H   UNL     1     -10.708  17.928  65.950  1.00  0.00     0.000 HD 
HETATM   17  O   UNL     1     -10.186  17.299  65.465  1.00  0.00    -0.602 OA 
BRANCH  15  18
HETATM   18  C   UNL     1     -10.709  15.713  67.242  1.00  0.00    -0.305 A  
HETATM   19  C   UNL     1      -9.517  15.514  67.962  1.00  0.00    -0.194 A  
HETATM   20  C   UNL     1      -9.537  15.250  69.336  1.00  0.00    -0.244 A  
HETATM   21  H   UNL     1     -11.728  14.877  71.764  1.00  0.00     0.000 HD 
HETATM   22  C   UNL     1     -10.775  15.207  69.991  1.00  0.00    -0.238 A  
HETATM   23  C   UNL     1     -11.930  15.683  67.930  1.00  0.00     0.187 A  
HETATM   24  C   UNL     1     -11.962  15.431  69.300  1.00  0.00    -0.335 A  
HETATM   25  O   UNL     1     -10.888  14.906  71.320  1.00  0.00    -0.070 OA 
BRANCH  20  26
HETATM   26  N   UNL     1      -8.358  15.045  70.077  1.00  0.00    -0.304 N  
HETATM   27  H   UNL     1      -8.471  14.911  71.081  1.00  0.00     0.000 HD 
HETATM   28  O   UNL     1      -6.115  14.831  70.335  1.00  0.00    -0.155 OA 
HETATM   29  C   UNL     1      -7.077  15.005  69.600  1.00  0.00    -0.193 C  
ENDBRANCH  20  26
ENDBRANCH  15  18
ENDBRANCH  14  15
ENDBRANCH  12  14
ENDBRANCH  10  12
ENDBRANCH   9  10
ENDBRANCH   6   9
ENDBRANCH   2   3
TORSDOF 8
ENDMDL
MODEL      316
REMARK 921   NORMALIZED FREE ENERGY PREDICTED BY IDOCK:   -3.55 KCAL/MOL
REMARK 922        TOTAL FREE ENERGY PREDICTED BY IDOCK:   -6.87 KCAL/MOL
REMARK 923 INTER-LIGAND FREE ENERGY PREDICTED BY IDOCK:   -6.59 KCAL/MOL
REMARK 924 INTRA-LIGAND FREE ENERGY PREDICTED BY IDOCK:   -0.28 KCAL/MOL
REMARK 927      BINDING AFFINITY PREDICTED BY RF-SCORE:    0.00 PKD
ROOT
HETATM    1  C   UNL     1      -8.324  17.487  66.539  1.00  0.00    -0.270 C  
HETATM    2  O   UNL     1      -9.269  16.725  65.799  1.00  0.00    -0.520 OA 
ENDROOT
BRANCH   2   3
HETATM    3  C   UNL     1      -9.459  15.431  66.199  1.00  0.00    -0.336 A  
HETATM    4  C   UNL     1      -8.873  14.819  67.306  1.00  0.00    -0.218 A  
HETATM    5  C   UNL     1      -9.106  13.465  67.569  1.00  0.00    -0.215 A  
HETATM    6  C   UNL     1      -9.941  12.710  66.735  1.00  0.00    -0.237 A  
HETATM    7  C   UNL     1     -10.317  14.689  65.386  1.00  0.00    -0.406 A  
HETATM    8  C   UNL     1     -10.556  13.340  65.648  1.00  0.00    -0.291 A  
BRANCH   6   9
HETATM    9  C   UNL     1     -10.072  11.214  66.903  1.00  0.00    -0.250 C  
BRANCH   9  10
HETATM   10  C   UNL     1     -10.677  10.716  68.236  1.00  0.00    -0.219 C  
HETATM   11  C   UNL     1     -11.908  11.545  68.623  1.00  0.00    -0.382 C  
BRANCH  10  12
HETATM   12  N   UNL     1     -11.108   9.305  68.167  1.00  0.00    -0.497 NA 
HETATM   13  H   UNL     1     -11.932   9.207  67.575  1.00  0.00     0.000 HD 
BRANCH  12  14
HETATM   14  C   UNL     1     -10.041   8.388  67.732  1.00  0.00    -0.207 C  
BRANCH  14  15
HETATM   15  C   UNL     1     -10.051   7.027  68.468  1.00  0.00    -0.165 C  
HETATM   16  H   UNL     1     -11.239   5.460  68.568  1.00  0.00     0.000 HD 
HETATM   17  O   UNL     1     -11.232   6.295  68.116  1.00  0.00    -0.327 OA 
BRANCH  15  18
HETATM   18  C   UNL     1      -9.884   7.125  69.971  1.00  0.00    -0.178 A  
HETATM   19  C   UNL     1      -9.992   5.961  70.753  1.00  0.00    -0.241 A  
HETATM   20  C   UNL     1      -9.869   6.011  72.147  1.00  0.00    -0.161 A  
HETATM   21  H   UNL     1      -9.353   8.236  74.516  1.00  0.00     0.000 HD 
HETATM   22  C   UNL     1      -9.613   7.249  72.750  1.00  0.00    -0.158 A  
HETATM   23  C   UNL     1      -9.607   8.345  70.603  1.00  0.00    -0.195 A  
HETATM   24  C   UNL     1      -9.472   8.406  71.989  1.00  0.00    -0.339 A  
HETATM   25  O   UNL     1      -9.527   7.396  74.107  1.00  0.00    -0.249 OA 
BRANCH  20  26
HETATM   26  N   UNL     1      -9.976   4.861  72.950  1.00  0.00    -0.154 N  
HETATM   27  H   UNL     1      -9.119   4.541  73.401  1.00  0.00     0.000 HD 
HETATM   28  O   UNL     1     -11.084   3.128  73.904  1.00  0.00    -0.205 OA 
HETATM   29  C   UNL     1     -11.101   4.124  73.194  1.00  0.00    -0.173 C  
ENDBRANCH  20  26
ENDBRANCH  15  18
ENDBRANCH  14  15
ENDBRANCH  12  14
ENDBRANCH  10  12
ENDBRANCH   9  10
ENDBRANCH   6   9
ENDBRANCH   2   3
TORSDOF 8
ENDMDL
MODEL      317
REMARK 921   NORMALIZED FREE ENERGY PREDICTED BY IDOCK:   -3.55 KCAL/MOL
REMARK 922        TOTAL FREE ENERGY PREDICTED BY IDOCK:   -6.86 KCAL/MOL
REMARK 923 INTER-LIGAND FREE ENERGY PREDICTED BY IDOCK:   -5.94 KCAL/MOL
REMARK 924 INTRA-LIGAND FREE ENERGY PREDICTED BY IDOCK:   -0.93 KCAL/MOL
REMARK 927      BINDING AFFINITY PREDICTED BY RF-SCORE:    0.00 PKD
ROOT
HETATM    1  C   UNL     1      -6.228   7.821  65.834  1.00  0.00    -0.042 C  
HETATM    2  O   UNL     1      -6.309   9.056  66.535  1.00  0.00    -0.063 OA 
ENDROOT
BRANCH   2   3
HETATM    3  C   UNL     1      -7.288   9.157  67.485  1.00  0.00    -0.084 A  
HETATM    4  C   UNL     1      -7.367  10.131  68.480  1.00  0.00    -0.081 A  
HETATM    5  C   UNL     1      -8.391  10.085  69.431  1.00  0.00    -0.169 A  
HETATM    6  C   UNL     1      -9.359   9.071  69.390  1.00  0.00    -0.158 A  
HETATM    7  C   UNL     1      -8.268   8.167  67.422  1.00  0.00    -0.122 A  
HETATM    8  C   UNL     1      -9.295   8.121  68.365  1.00  0.00    -0.135 A  
BRANCH   6   9
HETATM    9  C   UNL     1     -10.370   8.906  70.499  1.00  0.00    -0.246 C  
BRANCH   9  10
HETATM   10  C   UNL     1     -11.657   9.759  70.399  1.00  0.00    -0.258 C  
HETATM   11  C   UNL     1     -12.731   9.246  71.367  1.00  0.00    -0.402 C  
BRANCH  10  12
HETATM   12  N   UNL     1     -11.419  11.179  70.726  1.00  0.00    -0.313 NA 
HETATM   13  H   UNL     1     -10.421  11.387  70.730  1.00  0.00     0.000 HD 
BRANCH  12  14
HETATM   14  C   UNL     1     -12.142  12.112  69.844  1.00  0.00    -0.253 C  
BRANCH  14  15
HETATM   15  C   UNL     1     -11.816  13.601  70.112  1.00  0.00    -0.281 C  
HETATM   16  H   UNL     1     -12.832  15.249  70.471  1.00  0.00     0.000 HD 
HETATM   17  O   UNL     1     -13.032  14.334  70.307  1.00  0.00    -0.261 OA 
BRANCH  15  18
HETATM   18  C   UNL     1     -10.936  14.249  69.063  1.00  0.00    -0.282 A  
HETATM   19  C   UNL     1     -10.804  13.639  67.802  1.00  0.00    -0.266 A  
HETATM   20  C   UNL     1      -9.982  14.191  66.813  1.00  0.00    -0.267 A  
HETATM   21  H   UNL     1      -7.985  16.774  66.400  1.00  0.00     0.000 HD 
HETATM   22  C   UNL     1      -9.305  15.384  67.097  1.00  0.00    -0.214 A  
HETATM   23  C   UNL     1     -10.261  15.452  69.309  1.00  0.00    -0.250 A  
HETATM   24  C   UNL     1      -9.448  16.017  68.329  1.00  0.00    -0.206 A  
HETATM   25  O   UNL     1      -8.445  15.965  66.207  1.00  0.00    -0.311 OA 
BRANCH  20  26
HETATM   26  N   UNL     1      -9.832  13.598  65.546  1.00  0.00    -0.499 N  
HETATM   27  H   UNL     1      -8.876  13.479  65.212  1.00  0.00     0.000 HD 
HETATM   28  O   UNL     1     -10.586  12.668  63.620  1.00  0.00    -0.418 OA 
HETATM   29  C   UNL     1     -10.825  13.163  64.713  1.00  0.00    -0.352 C  
ENDBRANCH  20  26
ENDBRANCH  15  18
ENDBRANCH  14  15
ENDBRANCH  12  14
ENDBRANCH  10  12
ENDBRANCH   9  10
ENDBRANCH   6   9
ENDBRANCH   2   3
TORSDOF 8
ENDMDL
MODEL      318
REMARK 921   NORMALIZED FREE ENERGY PREDICTED BY IDOCK:   -3.54 KCAL/MOL
REMARK 922        TOTAL FREE ENERGY PREDICTED BY IDOCK:   -6.85 KCAL/MOL
REMARK 923 INTER-LIGAND FREE ENERGY PREDICTED BY IDOCK:   -5.99 KCAL/MOL
REMARK 924 INTRA-LIGAND FREE ENERGY PREDICTED BY IDOCK:   -0.86 KCAL/MOL
REMARK 927      BINDING AFFINITY PREDICTED BY RF-SCORE:    0.00 PKD
ROOT
HETATM    1  C   UNL     1      -9.784   4.937  64.999  1.00  0.00     0.067 C  
HETATM    2  O   UNL     1      -9.412   3.800  65.768  1.00  0.00    -0.160 OA 
ENDROOT
BRANCH   2   3
HETATM    3  C   UNL     1      -9.580   3.895  67.122  1.00  0.00    -0.189 A  
HETATM    4  C   UNL     1      -9.995   5.028  67.820  1.00  0.00    -0.198 A  
HETATM    5  C   UNL     1     -10.066   5.009  69.217  1.00  0.00    -0.270 A  
HETATM    6  C   UNL     1      -9.737   3.850  69.932  1.00  0.00    -0.235 A  
HETATM    7  C   UNL     1      -9.283   2.730  67.829  1.00  0.00    -0.246 A  
HETATM    8  C   UNL     1      -9.359   2.705  69.222  1.00  0.00    -0.188 A  
BRANCH   6   9
HETATM    9  C   UNL     1      -9.647   3.858  71.440  1.00  0.00    -0.237 C  
BRANCH   9  10
HETATM   10  C   UNL     1      -8.297   4.298  72.052  1.00  0.00    -0.106 C  
HETATM   11  C   UNL     1      -7.154   3.399  71.563  1.00  0.00    -0.032 C  
BRANCH  10  12
HETATM   12  N   UNL     1      -7.942   5.686  71.695  1.00  0.00    -0.115 NA 
HETATM   13  H   UNL     1      -8.511   6.016  70.916  1.00  0.00     0.000 HD 
BRANCH  12  14
HETATM   14  C   UNL     1      -8.019   6.622  72.830  1.00  0.00    -0.101 C  
BRANCH  14  15
HETATM   15  C   UNL     1      -8.388   8.067  72.422  1.00  0.00    -0.153 C  
HETATM   16  H   UNL     1      -8.119   9.876  73.151  1.00  0.00     0.000 HD 
HETATM   17  O   UNL     1      -7.892   8.988  73.402  1.00  0.00    -0.236 OA 
BRANCH  15  18
HETATM   18  C   UNL     1      -9.862   8.285  72.148  1.00  0.00    -0.342 A  
HETATM   19  C   UNL     1     -10.249   9.042  71.026  1.00  0.00    -0.347 A  
HETATM   20  C   UNL     1     -11.599   9.288  70.751  1.00  0.00    -0.285 A  
HETATM   21  H   UNL     1     -14.558   8.608  72.022  1.00  0.00     0.000 HD 
HETATM   22  C   UNL     1     -12.566   8.745  71.608  1.00  0.00    -0.345 A  
HETATM   23  C   UNL     1     -10.854   7.740  72.974  1.00  0.00    -0.451 A  
HETATM   24  C   UNL     1     -12.201   7.969  72.704  1.00  0.00    -0.228 A  
HETATM   25  O   UNL     1     -13.903   8.977  71.440  1.00  0.00    -0.361 OA 
BRANCH  20  26
HETATM   26  N   UNL     1     -12.011  10.043  69.637  1.00  0.00    -0.475 N  
HETATM   27  H   UNL     1     -12.992   9.962  69.372  1.00  0.00     0.000 HD 
HETATM   28  O   UNL     1     -11.699  11.481  67.912  1.00  0.00    -0.489 OA 
HETATM   29  C   UNL     1     -11.243  10.875  68.871  1.00  0.00    -0.267 C  
ENDBRANCH  20  26
ENDBRANCH  15  18
ENDBRANCH  14  15
ENDBRANCH  12  14
ENDBRANCH  10  12
ENDBRANCH   9  10
ENDBRANCH   6   9
ENDBRANCH   2   3
TORSDOF 8
ENDMDL
MODEL      319
REMARK 921   NORMALIZED FREE ENERGY PREDICTED BY IDOCK:   -3.50 KCAL/MOL
REMARK 922        TOTAL FREE ENERGY PREDICTED BY IDOCK:   -6.80 KCAL/MOL
REMARK 923 INTER-LIGAND FREE ENERGY PREDICTED BY IDOCK:   -6.36 KCAL/MOL
REMARK 924 INTRA-LIGAND FREE ENERGY PREDICTED BY IDOCK:   -0.45 KCAL/MOL
REMARK 927      BINDING AFFINITY PREDICTED BY RF-SCORE:    0.00 PKD
ROOT
HETATM    1  C   UNL     1      -8.826  17.854  68.267  1.00  0.00    -0.275 C  
HETATM    2  O   UNL     1     -10.214  17.788  67.966  1.00  0.00    -0.337 OA 
ENDROOT
BRANCH   2   3
HETATM    3  C   UNL     1     -10.690  16.582  67.532  1.00  0.00    -0.283 A  
HETATM    4  C   UNL     1     -11.386  15.650  68.301  1.00  0.00    -0.357 A  
HETATM    5  C   UNL     1     -11.765  14.422  67.748  1.00  0.00    -0.407 A  
HETATM    6  C   UNL     1     -11.465  14.118  66.413  1.00  0.00    -0.362 A  
HETATM    7  C   UNL     1     -10.419  16.295  66.194  1.00  0.00    -0.330 A  
HETATM    8  C   UNL     1     -10.800  15.074  65.637  1.00  0.00    -0.356 A  
BRANCH   6   9
HETATM    9  C   UNL     1     -11.716  12.740  65.847  1.00  0.00    -0.464 C  
BRANCH   9  10
HETATM   10  C   UNL     1     -10.946  11.570  66.502  1.00  0.00    -0.293 C  
HETATM   11  C   UNL     1      -9.480  11.949  66.750  1.00  0.00    -0.207 C  
BRANCH  10  12
HETATM   12  N   UNL     1     -11.520  11.176  67.804  1.00  0.00    -0.483 NA 
HETATM   13  H   UNL     1     -12.394  10.667  67.675  1.00  0.00     0.000 HD 
BRANCH  12  14
HETATM   14  C   UNL     1     -10.587  10.408  68.647  1.00  0.00    -0.209 C  
BRANCH  14  15
HETATM   15  C   UNL     1     -11.278   9.635  69.795  1.00  0.00    -0.174 C  
HETATM   16  H   UNL     1     -11.666   9.943  71.701  1.00  0.00     0.000 HD 
HETATM   17  O   UNL     1     -11.242  10.417  70.995  1.00  0.00    -0.266 OA 
BRANCH  15  18
HETATM   18  C   UNL     1     -10.739   8.238  70.024  1.00  0.00    -0.239 A  
HETATM   19  C   UNL     1      -9.348   8.039  70.093  1.00  0.00    -0.156 A  
HETATM   20  C   UNL     1      -8.808   6.761  70.279  1.00  0.00    -0.152 A  
HETATM   21  H   UNL     1      -9.839   3.657  70.647  1.00  0.00     0.000 HD 
HETATM   22  C   UNL     1      -9.686   5.678  70.417  1.00  0.00    -0.179 A  
HETATM   23  C   UNL     1     -11.591   7.136  70.186  1.00  0.00    -0.211 A  
HETATM   24  C   UNL     1     -11.065   5.861  70.382  1.00  0.00    -0.353 A  
HETATM   25  O   UNL     1      -9.243   4.392  70.553  1.00  0.00    -0.105 OA 
BRANCH  20  26
HETATM   26  N   UNL     1      -7.420   6.537  70.349  1.00  0.00    -0.092 N  
HETATM   27  H   UNL     1      -7.055   5.777  69.776  1.00  0.00     0.000 HD 
HETATM   28  O   UNL     1      -5.318   6.941  71.096  1.00  0.00    -0.026 OA 
HETATM   29  C   UNL     1      -6.508   7.225  71.099  1.00  0.00    -0.043 C  
ENDBRANCH  20  26
ENDBRANCH  15  18
ENDBRANCH  14  15
ENDBRANCH  12  14
ENDBRANCH  10  12
ENDBRANCH   9  10
ENDBRANCH   6   9
ENDBRANCH   2   3
TORSDOF 8
ENDMDL
MODEL      320
REMARK 921   NORMALIZED FREE ENERGY PREDICTED BY IDOCK:   -3.50 KCAL/MOL
REMARK 922        TOTAL FREE ENERGY PREDICTED BY IDOCK:   -6.79 KCAL/MOL
REMARK 923 INTER-LIGAND FREE ENERGY PREDICTED BY IDOCK:   -5.56 KCAL/MOL
REMARK 924 INTRA-LIGAND FREE ENERGY PREDICTED BY IDOCK:   -1.24 KCAL/MOL
REMARK 927      BINDING AFFINITY PREDICTED BY RF-SCORE:    0.00 PKD
ROOT
HETATM    1  C   UNL     1     -11.567  13.358  67.173  1.00  0.00    -0.358 C  
HETATM    2  O   UNL     1     -12.088  13.267  68.493  1.00  0.00    -0.341 OA 
ENDROOT
BRANCH   2   3
HETATM    3  C   UNL     1     -11.909  12.077  69.141  1.00  0.00    -0.311 A  
HETATM    4  C   UNL     1     -12.319  11.780  70.441  1.00  0.00    -0.362 A  
HETATM    5  C   UNL     1     -12.018  10.538  71.009  1.00  0.00    -0.466 A  
HETATM    6  C   UNL     1     -11.316   9.571  70.278  1.00  0.00    -0.284 A  
HETATM    7  C   UNL     1     -11.239  11.103  68.401  1.00  0.00    -0.325 A  
HETATM    8  C   UNL     1     -10.941   9.861  68.962  1.00  0.00    -0.223 A  
BRANCH   6   9
HETATM    9  C   UNL     1     -10.837   8.293  70.926  1.00  0.00    -0.261 C  
BRANCH   9  10
HETATM   10  C   UNL     1     -10.419   8.382  72.412  1.00  0.00    -0.332 C  
HETATM   11  C   UNL     1     -10.883   7.142  73.187  1.00  0.00    -0.373 C  
BRANCH  10  12
HETATM   12  N   UNL     1      -8.956   8.479  72.582  1.00  0.00    -0.347 NA 
HETATM   13  H   UNL     1      -8.605   7.702  73.141  1.00  0.00     0.000 HD 
BRANCH  12  14
HETATM   14  C   UNL     1      -8.224   8.579  71.308  1.00  0.00    -0.142 C  
BRANCH  14  15
HETATM   15  C   UNL     1      -7.205   7.437  71.085  1.00  0.00    -0.071 C  
HETATM   16  H   UNL     1      -5.560   7.167  70.035  1.00  0.00     0.000 HD 
HETATM   17  O   UNL     1      -6.186   7.869  70.173  1.00  0.00    -0.032 OA 
BRANCH  15  18
HETATM   18  C   UNL     1      -7.820   6.122  70.651  1.00  0.00    -0.106 A  
HETATM   19  C   UNL     1      -8.124   5.919  69.292  1.00  0.00    -0.106 A  
HETATM   20  C   UNL     1      -8.716   4.730  68.852  1.00  0.00    -0.089 A  
HETATM   21  H   UNL     1      -9.783   1.877  70.100  1.00  0.00     0.000 HD 
HETATM   22  C   UNL     1      -8.982   3.728  69.795  1.00  0.00    -0.103 A  
HETATM   23  C   UNL     1      -8.081   5.093  71.566  1.00  0.00    -0.115 A  
HETATM   24  C   UNL     1      -8.660   3.900  71.138  1.00  0.00    -0.108 A  
HETATM   25  O   UNL     1      -9.602   2.557  69.460  1.00  0.00    -0.100 OA 
BRANCH  20  26
HETATM   26  N   UNL     1      -9.032   4.505  67.500  1.00  0.00    -0.111 N  
HETATM   27  H   UNL     1      -8.369   3.943  66.967  1.00  0.00     0.000 HD 
HETATM   28  O   UNL     1     -10.304   4.713  65.634  1.00  0.00    -0.254 OA 
HETATM   29  C   UNL     1     -10.128   4.957  66.820  1.00  0.00    -0.238 C  
ENDBRANCH  20  26
ENDBRANCH  15  18
ENDBRANCH  14  15
ENDBRANCH  12  14
ENDBRANCH  10  12
ENDBRANCH   9  10
ENDBRANCH   6   9
ENDBRANCH   2   3
TORSDOF 8
ENDMDL
MODEL      321
REMARK 921   NORMALIZED FREE ENERGY PREDICTED BY IDOCK:   -3.49 KCAL/MOL
REMARK 922        TOTAL FREE ENERGY PREDICTED BY IDOCK:   -6.79 KCAL/MOL
REMARK 923 INTER-LIGAND FREE ENERGY PREDICTED BY IDOCK:   -6.11 KCAL/MOL
REMARK 924 INTRA-LIGAND FREE ENERGY PREDICTED BY IDOCK:   -0.67 KCAL/MOL
REMARK 927      BINDING AFFINITY PREDICTED BY RF-SCORE:    0.00 PKD
ROOT
HETATM    1  C   UNL     1     -10.480   4.442  74.328  1.00  0.00    -0.260 C  
HETATM    2  O   UNL     1      -9.875   5.510  73.612  1.00  0.00    -0.157 OA 
ENDROOT
BRANCH   2   3
HETATM    3  C   UNL     1     -10.164   5.595  72.278  1.00  0.00    -0.199 A  
HETATM    4  C   UNL     1      -9.393   5.077  71.237  1.00  0.00    -0.197 A  
HETATM    5  C   UNL     1      -9.772   5.287  69.907  1.00  0.00    -0.260 A  
HETATM    6  C   UNL     1     -10.935   6.006  69.602  1.00  0.00    -0.470 A  
HETATM    7  C   UNL     1     -11.339   6.282  71.977  1.00  0.00    -0.348 A  
HETATM    8  C   UNL     1     -11.723   6.489  70.652  1.00  0.00    -0.436 A  
BRANCH   6   9
HETATM    9  C   UNL     1     -11.272   6.386  68.180  1.00  0.00    -0.270 C  
BRANCH   9  10
HETATM   10  C   UNL     1     -10.112   6.345  67.157  1.00  0.00    -0.168 C  
HETATM   11  C   UNL     1     -10.176   5.068  66.308  1.00  0.00    -0.306 C  
BRANCH  10  12
HETATM   12  N   UNL     1     -10.142   7.489  66.224  1.00  0.00    -0.463 NA 
HETATM   13  H   UNL     1     -10.737   7.285  65.421  1.00  0.00     0.000 HD 
BRANCH  12  14
HETATM   14  C   UNL     1     -10.543   8.754  66.862  1.00  0.00    -0.193 C  
BRANCH  14  15
HETATM   15  C   UNL     1     -10.159  10.012  66.047  1.00  0.00    -0.248 C  
HETATM   16  H   UNL     1      -9.268  10.393  64.333  1.00  0.00     0.000 HD 
HETATM   17  O   UNL     1      -9.504   9.620  64.834  1.00  0.00    -0.267 OA 
BRANCH  15  18
HETATM   18  C   UNL     1      -9.346  11.033  66.815  1.00  0.00    -0.199 A  
HETATM   19  C   UNL     1      -9.715  12.390  66.760  1.00  0.00    -0.226 A  
HETATM   20  C   UNL     1      -8.976  13.369  67.434  1.00  0.00    -0.215 A  
HETATM   21  H   UNL     1      -6.307  13.589  69.348  1.00  0.00     0.000 HD 
HETATM   22  C   UNL     1      -7.865  12.967  68.188  1.00  0.00    -0.147 A  
HETATM   23  C   UNL     1      -8.241  10.661  67.593  1.00  0.00    -0.107 A  
HETATM   24  C   UNL     1      -7.504  11.626  68.277  1.00  0.00    -0.097 A  
HETATM   25  O   UNL     1      -7.061  13.862  68.836  1.00  0.00    -0.106 OA 
BRANCH  20  26
HETATM   26  N   UNL     1      -9.324  14.732  67.392  1.00  0.00    -0.193 N  
HETATM   27  H   UNL     1      -9.535  15.173  68.287  1.00  0.00     0.000 HD 
HETATM   28  O   UNL     1      -9.735  16.707  66.358  1.00  0.00    -0.256 OA 
HETATM   29  C   UNL     1      -9.411  15.530  66.286  1.00  0.00    -0.323 C  
ENDBRANCH  20  26
ENDBRANCH  15  18
ENDBRANCH  14  15
ENDBRANCH  12  14
ENDBRANCH  10  12
ENDBRANCH   9  10
ENDBRANCH   6   9
ENDBRANCH   2   3
TORSDOF 8
ENDMDL
MODEL      322
REMARK 921   NORMALIZED FREE ENERGY PREDICTED BY IDOCK:   -3.49 KCAL/MOL
REMARK 922        TOTAL FREE ENERGY PREDICTED BY IDOCK:   -6.78 KCAL/MOL
REMARK 923 INTER-LIGAND FREE ENERGY PREDICTED BY IDOCK:   -6.71 KCAL/MOL
REMARK 924 INTRA-LIGAND FREE ENERGY PREDICTED BY IDOCK:   -0.07 KCAL/MOL
REMARK 927      BINDING AFFINITY PREDICTED BY RF-SCORE:    0.00 PKD
ROOT
HETATM    1  C   UNL     1      -9.637   5.499  72.955  1.00  0.00    -0.147 C  
HETATM    2  O   UNL     1      -9.592   4.899  71.667  1.00  0.00    -0.147 OA 
ENDROOT
BRANCH   2   3
HETATM    3  C   UNL     1      -9.864   5.713  70.602  1.00  0.00    -0.187 A  
HETATM    4  C   UNL     1     -11.131   6.017  70.104  1.00  0.00    -0.432 A  
HETATM    5  C   UNL     1     -11.268   6.818  68.966  1.00  0.00    -0.214 A  
HETATM    6  C   UNL     1     -10.138   7.337  68.319  1.00  0.00    -0.193 A  
HETATM    7  C   UNL     1      -8.740   6.255  69.979  1.00  0.00    -0.141 A  
HETATM    8  C   UNL     1      -8.873   7.059  68.847  1.00  0.00    -0.130 A  
BRANCH   6   9
HETATM    9  C   UNL     1     -10.254   8.061  66.999  1.00  0.00    -0.374 C  
BRANCH   9  10
HETATM   10  C   UNL     1      -9.945   9.577  67.009  1.00  0.00    -0.213 C  
HETATM   11  C   UNL     1     -10.155  10.187  65.617  1.00  0.00    -0.324 C  
BRANCH  10  12
HETATM   12  N   UNL     1     -10.809  10.322  67.945  1.00  0.00    -0.265 NA 
HETATM   13  H   UNL     1     -11.210   9.696  68.643  1.00  0.00     0.000 HD 
BRANCH  12  14
HETATM   14  C   UNL     1     -10.130  11.458  68.591  1.00  0.00    -0.210 C  
BRANCH  14  15
HETATM   15  C   UNL     1     -11.012  12.723  68.715  1.00  0.00    -0.250 C  
HETATM   16  H   UNL     1     -12.899  13.191  68.406  1.00  0.00     0.000 HD 
HETATM   17  O   UNL     1     -12.357  12.414  68.330  1.00  0.00    -0.170 OA 
BRANCH  15  18
HETATM   18  C   UNL     1     -10.483  13.932  67.971  1.00  0.00    -0.243 A  
HETATM   19  C   UNL     1     -10.688  15.216  68.508  1.00  0.00    -0.240 A  
HETATM   20  C   UNL     1     -10.238  16.360  67.840  1.00  0.00    -0.268 A  
HETATM   21  H   UNL     1      -8.660  17.158  65.064  1.00  0.00     0.000 HD 
HETATM   22  C   UNL     1      -9.554  16.201  66.628  1.00  0.00    -0.244 A  
HETATM   23  C   UNL     1      -9.778  13.805  66.766  1.00  0.00    -0.277 A  
HETATM   24  C   UNL     1      -9.316  14.937  66.097  1.00  0.00    -0.307 A  
HETATM   25  O   UNL     1      -9.124  17.266  65.887  1.00  0.00    -0.516 OA 
BRANCH  20  26
HETATM   26  N   UNL     1     -10.434  17.655  68.356  1.00  0.00    -0.372 N  
HETATM   27  H   UNL     1     -10.692  17.716  69.341  1.00  0.00     0.000 HD 
HETATM   28  O   UNL     1     -10.522  19.917  68.228  1.00  0.00    -0.426 OA 
HETATM   29  C   UNL     1     -10.317  18.840  67.685  1.00  0.00    -0.420 C  
ENDBRANCH  20  26
ENDBRANCH  15  18
ENDBRANCH  14  15
ENDBRANCH  12  14
ENDBRANCH  10  12
ENDBRANCH   9  10
ENDBRANCH   6   9
ENDBRANCH   2   3
TORSDOF 8
ENDMDL
MODEL      323
REMARK 921   NORMALIZED FREE ENERGY PREDICTED BY IDOCK:   -3.48 KCAL/MOL
REMARK 922        TOTAL FREE ENERGY PREDICTED BY IDOCK:   -6.76 KCAL/MOL
REMARK 923 INTER-LIGAND FREE ENERGY PREDICTED BY IDOCK:   -6.15 KCAL/MOL
REMARK 924 INTRA-LIGAND FREE ENERGY PREDICTED BY IDOCK:   -0.61 KCAL/MOL
REMARK 927      BINDING AFFINITY PREDICTED BY RF-SCORE:    0.00 PKD
ROOT
HETATM    1  C   UNL     1      -9.227  19.530  67.103  1.00  0.00    -0.316 C  
HETATM    2  O   UNL     1     -10.379  18.968  66.488  1.00  0.00    -0.381 OA 
ENDROOT
BRANCH   2   3
HETATM    3  C   UNL     1     -10.527  17.612  66.587  1.00  0.00    -0.286 A  
HETATM    4  C   UNL     1     -10.443  16.699  65.536  1.00  0.00    -0.285 A  
HETATM    5  C   UNL     1     -10.676  15.339  65.764  1.00  0.00    -0.357 A  
HETATM    6  C   UNL     1     -10.981  14.873  67.050  1.00  0.00    -0.327 A  
HETATM    7  C   UNL     1     -10.798  17.147  67.873  1.00  0.00    -0.294 A  
HETATM    8  C   UNL     1     -11.026  15.790  68.106  1.00  0.00    -0.330 A  
BRANCH   6   9
HETATM    9  C   UNL     1     -11.399  13.441  67.287  1.00  0.00    -0.348 C  
BRANCH   9  10
HETATM   10  C   UNL     1     -10.330  12.495  67.882  1.00  0.00    -0.216 C  
HETATM   11  C   UNL     1      -8.949  13.163  67.886  1.00  0.00    -0.200 C  
BRANCH  10  12
HETATM   12  N   UNL     1     -10.630  12.111  69.276  1.00  0.00    -0.439 NA 
HETATM   13  H   UNL     1     -10.759  12.937  69.859  1.00  0.00     0.000 HD 
BRANCH  12  14
HETATM   14  C   UNL     1     -11.782  11.201  69.397  1.00  0.00    -0.332 C  
BRANCH  14  15
HETATM   15  C   UNL     1     -11.402   9.773  69.855  1.00  0.00    -0.192 C  
HETATM   16  H   UNL     1     -10.607   8.944  71.454  1.00  0.00     0.000 HD 
HETATM   17  O   UNL     1     -10.840   9.821  71.172  1.00  0.00    -0.334 OA 
BRANCH  15  18
HETATM   18  C   UNL     1     -10.504   9.023  68.892  1.00  0.00    -0.231 A  
HETATM   19  C   UNL     1      -9.392   8.321  69.393  1.00  0.00    -0.155 A  
HETATM   20  C   UNL     1      -8.523   7.636  68.536  1.00  0.00    -0.129 A  
HETATM   21  H   UNL     1      -8.155   7.051  65.319  1.00  0.00     0.000 HD 
HETATM   22  C   UNL     1      -8.794   7.646  67.162  1.00  0.00    -0.125 A  
HETATM   23  C   UNL     1     -10.759   8.997  67.514  1.00  0.00    -0.239 A  
HETATM   24  C   UNL     1      -9.906   8.311  66.653  1.00  0.00    -0.337 A  
HETATM   25  O   UNL     1      -7.971   7.045  66.251  1.00  0.00    -0.106 OA 
BRANCH  20  26
HETATM   26  N   UNL     1      -7.404   6.929  69.013  1.00  0.00    -0.091 N  
HETATM   27  H   UNL     1      -6.500   7.196  68.625  1.00  0.00     0.000 HD 
HETATM   28  O   UNL     1      -6.360   5.363  70.279  1.00  0.00    -0.028 OA 
HETATM   29  C   UNL     1      -7.393   5.923  69.939  1.00  0.00    -0.075 C  
ENDBRANCH  20  26
ENDBRANCH  15  18
ENDBRANCH  14  15
ENDBRANCH  12  14
ENDBRANCH  10  12
ENDBRANCH   9  10
ENDBRANCH   6   9
ENDBRANCH   2   3
TORSDOF 8
ENDMDL
MODEL      324
REMARK 921   NORMALIZED FREE ENERGY PREDICTED BY IDOCK:   -3.48 KCAL/MOL
REMARK 922        TOTAL FREE ENERGY PREDICTED BY IDOCK:   -6.76 KCAL/MOL
REMARK 923 INTER-LIGAND FREE ENERGY PREDICTED BY IDOCK:   -6.21 KCAL/MOL
REMARK 924 INTRA-LIGAND FREE ENERGY PREDICTED BY IDOCK:   -0.56 KCAL/MOL
REMARK 927      BINDING AFFINITY PREDICTED BY RF-SCORE:    0.00 PKD
ROOT
HETATM    1  C   UNL     1      -7.900  18.239  68.851  1.00  0.00    -0.195 C  
HETATM    2  O   UNL     1      -8.598  17.036  69.145  1.00  0.00    -0.171 OA 
ENDROOT
BRANCH   2   3
HETATM    3  C   UNL     1      -7.990  15.869  68.775  1.00  0.00    -0.188 A  
HETATM    4  C   UNL     1      -8.210  15.168  67.590  1.00  0.00    -0.178 A  
HETATM    5  C   UNL     1      -7.564  13.948  67.362  1.00  0.00    -0.160 A  
HETATM    6  C   UNL     1      -6.677  13.422  68.311  1.00  0.00    -0.105 A  
HETATM    7  C   UNL     1      -7.083  15.363  69.707  1.00  0.00    -0.139 A  
HETATM    8  C   UNL     1      -6.432  14.150  69.480  1.00  0.00    -0.127 A  
BRANCH   6   9
HETATM    9  C   UNL     1      -6.100  12.034  68.161  1.00  0.00    -0.053 C  
BRANCH   9  10
HETATM   10  C   UNL     1      -7.057  10.851  68.437  1.00  0.00    -0.073 C  
HETATM   11  C   UNL     1      -7.218  10.617  69.945  1.00  0.00    -0.109 C  
BRANCH  10  12
HETATM   12  N   UNL     1      -8.408  11.078  67.886  1.00  0.00    -0.121 NA 
HETATM   13  H   UNL     1      -8.610  10.413  67.139  1.00  0.00     0.000 HD 
BRANCH  12  14
HETATM   14  C   UNL     1      -9.469  11.053  68.907  1.00  0.00    -0.155 C  
BRANCH  14  15
HETATM   15  C   UNL     1     -10.786  11.726  68.453  1.00  0.00    -0.223 C  
HETATM   16  H   UNL     1     -12.714  11.440  68.737  1.00  0.00     0.000 HD 
HETATM   17  O   UNL     1     -11.905  11.027  69.015  1.00  0.00    -0.310 OA 
BRANCH  15  18
HETATM   18  C   UNL     1     -10.925  11.886  66.954  1.00  0.00    -0.335 A  
HETATM   19  C   UNL     1     -11.334  13.125  66.428  1.00  0.00    -0.349 A  
HETATM   20  C   UNL     1     -11.498  13.308  65.050  1.00  0.00    -0.305 A  
HETATM   21  H   UNL     1     -11.223  11.579  62.264  1.00  0.00     0.000 HD 
HETATM   22  C   UNL     1     -11.226  12.232  64.196  1.00  0.00    -0.369 A  
HETATM   23  C   UNL     1     -10.641  10.835  66.071  1.00  0.00    -0.224 A  
HETATM   24  C   UNL     1     -10.792  11.008  64.697  1.00  0.00    -0.248 A  
HETATM   25  O   UNL     1     -11.408  12.309  62.843  1.00  0.00    -0.103 OA 
BRANCH  20  26
HETATM   26  N   UNL     1     -11.909  14.538  64.501  1.00  0.00    -0.524 N  
HETATM   27  H   UNL     1     -12.792  14.534  63.991  1.00  0.00     0.000 HD 
HETATM   28  O   UNL     1     -11.696  16.749  64.051  1.00  0.00    -1.120 OA 
HETATM   29  C   UNL     1     -11.256  15.736  64.576  1.00  0.00    -0.322 C  
ENDBRANCH  20  26
ENDBRANCH  15  18
ENDBRANCH  14  15
ENDBRANCH  12  14
ENDBRANCH  10  12
ENDBRANCH   9  10
ENDBRANCH   6   9
ENDBRANCH   2   3
TORSDOF 8
ENDMDL
MODEL      325
REMARK 921   NORMALIZED FREE ENERGY PREDICTED BY IDOCK:   -3.47 KCAL/MOL
REMARK 922        TOTAL FREE ENERGY PREDICTED BY IDOCK:   -6.76 KCAL/MOL
REMARK 923 INTER-LIGAND FREE ENERGY PREDICTED BY IDOCK:   -6.05 KCAL/MOL
REMARK 924 INTRA-LIGAND FREE ENERGY PREDICTED BY IDOCK:   -0.71 KCAL/MOL
REMARK 927      BINDING AFFINITY PREDICTED BY RF-SCORE:    0.00 PKD
ROOT
HETATM    1  C   UNL     1      -8.223   6.941  64.801  1.00  0.00    -0.050 C  
HETATM    2  O   UNL     1      -7.652   7.757  65.816  1.00  0.00    -0.079 OA 
ENDROOT
BRANCH   2   3
HETATM    3  C   UNL     1      -8.329   8.902  66.135  1.00  0.00    -0.122 A  
HETATM    4  C   UNL     1      -9.714   9.060  66.150  1.00  0.00    -0.354 A  
HETATM    5  C   UNL     1     -10.279  10.307  66.435  1.00  0.00    -0.290 A  
HETATM    6  C   UNL     1      -9.464  11.410  66.724  1.00  0.00    -0.197 A  
HETATM    7  C   UNL     1      -7.516   9.990  66.454  1.00  0.00    -0.104 A  
HETATM    8  C   UNL     1      -8.076  11.235  66.744  1.00  0.00    -0.159 A  
BRANCH   6   9
HETATM    9  C   UNL     1     -10.044  12.797  66.869  1.00  0.00    -0.234 C  
BRANCH   9  10
HETATM   10  C   UNL     1     -10.526  13.203  68.281  1.00  0.00    -0.250 C  
HETATM   11  C   UNL     1     -12.017  13.566  68.267  1.00  0.00    -0.377 C  
BRANCH  10  12
HETATM   12  N   UNL     1     -10.352  12.120  69.270  1.00  0.00    -0.411 NA 
HETATM   13  H   UNL     1      -9.547  12.303  69.868  1.00  0.00     0.000 HD 
BRANCH  12  14
HETATM   14  C   UNL     1     -11.556  11.868  70.080  1.00  0.00    -0.220 C  
BRANCH  14  15
HETATM   15  C   UNL     1     -11.987  10.382  70.109  1.00  0.00    -0.276 C  
HETATM   16  H   UNL     1     -13.537   9.351  70.748  1.00  0.00     0.000 HD 
HETATM   17  O   UNL     1     -13.273  10.263  70.730  1.00  0.00    -0.385 OA 
BRANCH  15  18
HETATM   18  C   UNL     1     -10.975   9.447  70.738  1.00  0.00    -0.371 A  
HETATM   19  C   UNL     1     -11.417   8.454  71.632  1.00  0.00    -0.349 A  
HETATM   20  C   UNL     1     -10.513   7.586  72.254  1.00  0.00    -0.230 A  
HETATM   21  H   UNL     1      -7.271   7.024  72.348  1.00  0.00     0.000 HD 
HETATM   22  C   UNL     1      -9.150   7.712  71.953  1.00  0.00    -0.127 A  
HETATM   23  C   UNL     1      -9.607   9.534  70.443  1.00  0.00    -0.326 A  
HETATM   24  C   UNL     1      -8.699   8.669  71.049  1.00  0.00    -0.227 A  
HETATM   25  O   UNL     1      -8.196   6.939  72.553  1.00  0.00    -0.106 OA 
BRANCH  20  26
HETATM   26  N   UNL     1     -10.931   6.587  73.153  1.00  0.00    -0.394 N  
HETATM   27  H   UNL     1     -10.830   6.799  74.145  1.00  0.00     0.000 HD 
HETATM   28  O   UNL     1     -11.780   4.559  73.707  1.00  0.00    -0.137 OA 
HETATM   29  C   UNL     1     -11.457   5.364  72.844  1.00  0.00    -0.275 C  
ENDBRANCH  20  26
ENDBRANCH  15  18
ENDBRANCH  14  15
ENDBRANCH  12  14
ENDBRANCH  10  12
ENDBRANCH   9  10
ENDBRANCH   6   9
ENDBRANCH   2   3
TORSDOF 8
ENDMDL
MODEL      326
REMARK 921   NORMALIZED FREE ENERGY PREDICTED BY IDOCK:   -3.47 KCAL/MOL
REMARK 922        TOTAL FREE ENERGY PREDICTED BY IDOCK:   -6.76 KCAL/MOL
REMARK 923 INTER-LIGAND FREE ENERGY PREDICTED BY IDOCK:   -5.63 KCAL/MOL
REMARK 924 INTRA-LIGAND FREE ENERGY PREDICTED BY IDOCK:   -1.13 KCAL/MOL
REMARK 927      BINDING AFFINITY PREDICTED BY RF-SCORE:    0.00 PKD
ROOT
HETATM    1  C   UNL     1      -8.159   6.964  64.955  1.00  0.00    -0.117 C  
HETATM    2  O   UNL     1      -7.682   7.856  65.954  1.00  0.00    -0.087 OA 
ENDROOT
BRANCH   2   3
HETATM    3  C   UNL     1      -8.378   9.021  66.118  1.00  0.00    -0.121 A  
HETATM    4  C   UNL     1      -9.761   9.171  66.023  1.00  0.00    -0.358 A  
HETATM    5  C   UNL     1     -10.344  10.436  66.153  1.00  0.00    -0.269 A  
HETATM    6  C   UNL     1      -9.550  11.565  66.395  1.00  0.00    -0.230 A  
HETATM    7  C   UNL     1      -7.590  10.139  66.392  1.00  0.00    -0.108 A  
HETATM    8  C   UNL     1      -8.168  11.401  66.527  1.00  0.00    -0.152 A  
BRANCH   6   9
HETATM    9  C   UNL     1     -10.139  12.956  66.373  1.00  0.00    -0.272 C  
BRANCH   9  10
HETATM   10  C   UNL     1     -10.633  13.523  67.724  1.00  0.00    -0.246 C  
HETATM   11  C   UNL     1     -12.137  13.823  67.675  1.00  0.00    -0.333 C  
BRANCH  10  12
HETATM   12  N   UNL     1     -10.413  12.586  68.843  1.00  0.00    -0.406 NA 
HETATM   13  H   UNL     1      -9.655  12.910  69.442  1.00  0.00     0.000 HD 
BRANCH  12  14
HETATM   14  C   UNL     1     -11.628  12.323  69.634  1.00  0.00    -0.278 C  
BRANCH  14  15
HETATM   15  C   UNL     1     -11.946  10.819  69.807  1.00  0.00    -0.325 C  
HETATM   16  H   UNL     1     -13.381   9.741  70.616  1.00  0.00     0.000 HD 
HETATM   17  O   UNL     1     -13.186  10.665  70.509  1.00  0.00    -0.242 OA 
BRANCH  15  18
HETATM   18  C   UNL     1     -10.837  10.013  70.451  1.00  0.00    -0.380 A  
HETATM   19  C   UNL     1      -9.559  10.006  69.861  1.00  0.00    -0.233 A  
HETATM   20  C   UNL     1      -8.513   9.255  70.410  1.00  0.00    -0.206 A  
HETATM   21  H   UNL     1      -7.975   7.227  72.945  1.00  0.00     0.000 HD 
HETATM   22  C   UNL     1      -8.758   8.522  71.579  1.00  0.00    -0.189 A  
HETATM   23  C   UNL     1     -11.044   9.285  71.631  1.00  0.00    -0.438 A  
HETATM   24  C   UNL     1     -10.008   8.542  72.192  1.00  0.00    -0.387 A  
HETATM   25  O   UNL     1      -7.808   7.724  72.152  1.00  0.00    -0.094 OA 
BRANCH  20  26
HETATM   26  N   UNL     1      -7.228   9.229  69.837  1.00  0.00    -0.063 N  
HETATM   27  H   UNL     1      -6.995   8.404  69.284  1.00  0.00     0.000 HD 
HETATM   28  O   UNL     1      -5.163  10.061  69.406  1.00  0.00    -0.035 OA 
HETATM   29  C   UNL     1      -6.258  10.186  69.937  1.00  0.00    -0.063 C  
ENDBRANCH  20  26
ENDBRANCH  15  18
ENDBRANCH  14  15
ENDBRANCH  12  14
ENDBRANCH  10  12
ENDBRANCH   9  10
ENDBRANCH   6   9
ENDBRANCH   2   3
TORSDOF 8
ENDMDL
MODEL      327
REMARK 921   NORMALIZED FREE ENERGY PREDICTED BY IDOCK:   -3.47 KCAL/MOL
REMARK 922        TOTAL FREE ENERGY PREDICTED BY IDOCK:   -6.76 KCAL/MOL
REMARK 923 INTER-LIGAND FREE ENERGY PREDICTED BY IDOCK:   -6.27 KCAL/MOL
REMARK 924 INTRA-LIGAND FREE ENERGY PREDICTED BY IDOCK:   -0.49 KCAL/MOL
REMARK 927      BINDING AFFINITY PREDICTED BY RF-SCORE:    0.00 PKD
ROOT
HETATM    1  C   UNL     1     -10.496   4.163  74.356  1.00  0.00    -0.235 C  
HETATM    2  O   UNL     1      -9.399   3.972  73.473  1.00  0.00    -0.104 OA 
ENDROOT
BRANCH   2   3
HETATM    3  C   UNL     1      -9.457   4.626  72.273  1.00  0.00    -0.141 A  
HETATM    4  C   UNL     1      -9.252   5.991  72.072  1.00  0.00    -0.151 A  
HETATM    5  C   UNL     1      -9.402   6.546  70.796  1.00  0.00    -0.162 A  
HETATM    6  C   UNL     1      -9.744   5.739  69.703  1.00  0.00    -0.208 A  
HETATM    7  C   UNL     1      -9.765   3.816  71.180  1.00  0.00    -0.245 A  
HETATM    8  C   UNL     1      -9.910   4.365  69.906  1.00  0.00    -0.290 A  
BRANCH   6   9
HETATM    9  C   UNL     1     -10.073   6.340  68.357  1.00  0.00    -0.179 C  
BRANCH   9  10
HETATM   10  C   UNL     1     -10.009   7.881  68.251  1.00  0.00    -0.180 C  
HETATM   11  C   UNL     1      -9.911   8.326  66.785  1.00  0.00    -0.333 C  
BRANCH  10  12
HETATM   12  N   UNL     1     -11.202   8.536  68.824  1.00  0.00    -0.245 NA 
HETATM   13  H   UNL     1     -11.317   8.283  69.805  1.00  0.00     0.000 HD 
BRANCH  12  14
HETATM   14  C   UNL     1     -11.204   9.999  68.659  1.00  0.00    -0.121 C  
BRANCH  14  15
HETATM   15  C   UNL     1     -11.771  10.763  69.878  1.00  0.00    -0.333 C  
HETATM   16  H   UNL     1     -13.424  10.731  70.947  1.00  0.00     0.000 HD 
HETATM   17  O   UNL     1     -13.075  10.262  70.198  1.00  0.00    -0.117 OA 
BRANCH  15  18
HETATM   18  C   UNL     1     -11.774  12.271  69.729  1.00  0.00    -0.368 A  
HETATM   19  C   UNL     1     -11.425  12.841  68.491  1.00  0.00    -0.344 A  
HETATM   20  C   UNL     1     -11.392  14.229  68.317  1.00  0.00    -0.289 A  
HETATM   21  H   UNL     1     -11.913  16.966  70.070  1.00  0.00     0.000 HD 
HETATM   22  C   UNL     1     -11.734  15.047  69.402  1.00  0.00    -0.326 A  
HETATM   23  C   UNL     1     -12.131  13.115  70.789  1.00  0.00    -0.290 A  
HETATM   24  C   UNL     1     -12.111  14.499  70.625  1.00  0.00    -0.392 A  
HETATM   25  O   UNL     1     -11.681  16.411  69.334  1.00  0.00    -0.178 OA 
BRANCH  20  26
HETATM   26  N   UNL     1     -11.043  14.822  67.090  1.00  0.00    -0.324 N  
HETATM   27  H   UNL     1     -10.274  15.491  67.112  1.00  0.00     0.000 HD 
HETATM   28  O   UNL     1     -11.248  15.182  64.861  1.00  0.00    -0.391 OA 
HETATM   29  C   UNL     1     -11.621  14.603  65.871  1.00  0.00    -0.327 C  
ENDBRANCH  20  26
ENDBRANCH  15  18
ENDBRANCH  14  15
ENDBRANCH  12  14
ENDBRANCH  10  12
ENDBRANCH   9  10
ENDBRANCH   6   9
ENDBRANCH   2   3
TORSDOF 8
ENDMDL
MODEL      328
REMARK 921   NORMALIZED FREE ENERGY PREDICTED BY IDOCK:   -3.47 KCAL/MOL
REMARK 922        TOTAL FREE ENERGY PREDICTED BY IDOCK:   -6.75 KCAL/MOL
REMARK 923 INTER-LIGAND FREE ENERGY PREDICTED BY IDOCK:   -6.00 KCAL/MOL
REMARK 924 INTRA-LIGAND FREE ENERGY PREDICTED BY IDOCK:   -0.75 KCAL/MOL
REMARK 927      BINDING AFFINITY PREDICTED BY RF-SCORE:    0.00 PKD
ROOT
HETATM    1  C   UNL     1     -11.557  12.060  63.523  1.00  0.00    -0.461 C  
HETATM    2  O   UNL     1     -12.447  12.700  64.427  1.00  0.00    -0.494 OA 
ENDROOT
BRANCH   2   3
HETATM    3  C   UNL     1     -11.990  12.898  65.701  1.00  0.00    -0.440 A  
HETATM    4  C   UNL     1     -11.313  11.964  66.484  1.00  0.00    -0.403 A  
HETATM    5  C   UNL     1     -10.953  12.275  67.799  1.00  0.00    -0.274 A  
HETATM    6  C   UNL     1     -11.251  13.532  68.342  1.00  0.00    -0.309 A  
HETATM    7  C   UNL     1     -12.258  14.161  66.228  1.00  0.00    -0.474 A  
HETATM    8  C   UNL     1     -11.895  14.477  67.538  1.00  0.00    -0.404 A  
BRANCH   6   9
HETATM    9  C   UNL     1     -11.021  13.829  69.805  1.00  0.00     0.067 C  
BRANCH   9  10
HETATM   10  C   UNL     1     -11.979  13.148  70.811  1.00  0.00    -0.069 C  
HETATM   11  C   UNL     1     -13.201  14.033  71.089  1.00  0.00    -0.337 C  
BRANCH  10  12
HETATM   12  N   UNL     1     -12.485  11.851  70.319  1.00  0.00    -0.174 NA 
HETATM   13  H   UNL     1     -12.021  11.589  69.449  1.00  0.00     0.000 HD 
BRANCH  12  14
HETATM   14  C   UNL     1     -12.384  10.768  71.312  1.00  0.00    -0.365 C  
BRANCH  14  15
HETATM   15  C   UNL     1     -12.534   9.352  70.706  1.00  0.00    -0.081 C  
HETATM   16  H   UNL     1     -13.258   7.615  71.285  1.00  0.00     0.000 HD 
HETATM   17  O   UNL     1     -13.166   8.485  71.657  1.00  0.00    -0.335 OA 
BRANCH  15  18
HETATM   18  C   UNL     1     -11.246   8.756  70.177  1.00  0.00    -0.162 A  
HETATM   19  C   UNL     1     -11.304   7.640  69.323  1.00  0.00     0.310 A  
HETATM   20  C   UNL     1     -10.137   7.043  68.831  1.00  0.00    -0.173 A  
HETATM   21  H   UNL     1      -6.874   7.422  69.043  1.00  0.00     0.000 HD 
HETATM   22  C   UNL     1      -8.901   7.596  69.193  1.00  0.00    -0.139 A  
HETATM   23  C   UNL     1      -9.995   9.297  70.504  1.00  0.00    -0.307 A  
HETATM   24  C   UNL     1      -8.827   8.718  70.013  1.00  0.00    -0.149 A  
HETATM   25  O   UNL     1      -7.713   7.047  68.798  1.00  0.00    -0.105 OA 
BRANCH  20  26
HETATM   26  N   UNL     1     -10.169   5.925  67.978  1.00  0.00    -0.166 N  
HETATM   27  H   UNL     1      -9.641   5.108  68.282  1.00  0.00     0.000 HD 
HETATM   28  O   UNL     1     -10.784   4.794  66.112  1.00  0.00    -0.308 OA 
HETATM   29  C   UNL     1     -10.830   5.812  66.786  1.00  0.00    -0.248 C  
ENDBRANCH  20  26
ENDBRANCH  15  18
ENDBRANCH  14  15
ENDBRANCH  12  14
ENDBRANCH  10  12
ENDBRANCH   9  10
ENDBRANCH   6   9
ENDBRANCH   2   3
TORSDOF 8
ENDMDL
MODEL      329
REMARK 921   NORMALIZED FREE ENERGY PREDICTED BY IDOCK:   -3.44 KCAL/MOL
REMARK 922        TOTAL FREE ENERGY PREDICTED BY IDOCK:   -6.71 KCAL/MOL
REMARK 923 INTER-LIGAND FREE ENERGY PREDICTED BY IDOCK:   -6.03 KCAL/MOL
REMARK 924 INTRA-LIGAND FREE ENERGY PREDICTED BY IDOCK:   -0.68 KCAL/MOL
REMARK 927      BINDING AFFINITY PREDICTED BY RF-SCORE:    0.00 PKD
ROOT
HETATM    1  C   UNL     1     -10.255   5.240  71.624  1.00  0.00    -0.212 C  
HETATM    2  O   UNL     1     -10.041   4.804  70.289  1.00  0.00    -0.239 OA 
ENDROOT
BRANCH   2   3
HETATM    3  C   UNL     1      -9.952   5.777  69.332  1.00  0.00    -0.187 A  
HETATM    4  C   UNL     1     -10.893   6.038  68.337  1.00  0.00    -0.361 A  
HETATM    5  C   UNL     1     -10.651   7.028  67.379  1.00  0.00    -0.372 A  
HETATM    6  C   UNL     1      -9.469   7.780  67.414  1.00  0.00    -0.177 A  
HETATM    7  C   UNL     1      -8.791   6.547  69.389  1.00  0.00    -0.133 A  
HETATM    8  C   UNL     1      -8.548   7.539  68.438  1.00  0.00    -0.124 A  
BRANCH   6   9
HETATM    9  C   UNL     1      -9.113   8.734  66.298  1.00  0.00    -0.240 C  
BRANCH   9  10
HETATM   10  C   UNL     1      -9.329  10.240  66.576  1.00  0.00    -0.166 C  
HETATM   11  C   UNL     1     -10.682  10.483  67.256  1.00  0.00    -0.333 C  
BRANCH  10  12
HETATM   12  N   UNL     1      -8.290  10.804  67.460  1.00  0.00    -0.115 NA 
HETATM   13  H   UNL     1      -7.709  10.064  67.853  1.00  0.00     0.000 HD 
BRANCH  12  14
HETATM   14  C   UNL     1      -7.459  11.830  66.807  1.00  0.00    -0.057 C  
BRANCH  14  15
HETATM   15  C   UNL     1      -7.063  12.998  67.741  1.00  0.00    -0.139 C  
HETATM   16  H   UNL     1      -6.657  13.230  69.654  1.00  0.00     0.000 HD 
HETATM   17  O   UNL     1      -6.901  12.513  69.080  1.00  0.00    -0.103 OA 
BRANCH  15  18
HETATM   18  C   UNL     1      -7.998  14.188  67.689  1.00  0.00    -0.187 A  
HETATM   19  C   UNL     1      -9.187  14.097  66.942  1.00  0.00    -0.270 A  
HETATM   20  C   UNL     1     -10.067  15.182  66.848  1.00  0.00    -0.255 A  
HETATM   21  H   UNL     1     -10.312  18.284  67.920  1.00  0.00     0.000 HD 
HETATM   22  C   UNL     1      -9.749  16.362  67.533  1.00  0.00    -0.231 A  
HETATM   23  C   UNL     1      -7.719  15.376  68.379  1.00  0.00    -0.120 A  
HETATM   24  C   UNL     1      -8.592  16.459  68.301  1.00  0.00    -0.200 A  
HETATM   25  O   UNL     1     -10.527  17.483  67.455  1.00  0.00    -0.343 OA 
BRANCH  20  26
HETATM   26  N   UNL     1     -11.261  15.116  66.105  1.00  0.00    -0.313 N  
HETATM   27  H   UNL     1     -12.126  15.062  66.642  1.00  0.00     0.000 HD 
HETATM   28  O   UNL     1     -12.480  15.043  64.195  1.00  0.00    -0.756 OA 
HETATM   29  C   UNL     1     -11.390  15.116  64.745  1.00  0.00    -0.395 C  
ENDBRANCH  20  26
ENDBRANCH  15  18
ENDBRANCH  14  15
ENDBRANCH  12  14
ENDBRANCH  10  12
ENDBRANCH   9  10
ENDBRANCH   6   9
ENDBRANCH   2   3
TORSDOF 8
ENDMDL
MODEL      330
REMARK 921   NORMALIZED FREE ENERGY PREDICTED BY IDOCK:   -3.43 KCAL/MOL
REMARK 922        TOTAL FREE ENERGY PREDICTED BY IDOCK:   -6.70 KCAL/MOL
REMARK 923 INTER-LIGAND FREE ENERGY PREDICTED BY IDOCK:   -6.07 KCAL/MOL
REMARK 924 INTRA-LIGAND FREE ENERGY PREDICTED BY IDOCK:   -0.63 KCAL/MOL
REMARK 927      BINDING AFFINITY PREDICTED BY RF-SCORE:    0.00 PKD
ROOT
HETATM    1  C   UNL     1     -13.359  12.604  72.019  1.00  0.00    -0.454 C  
HETATM    2  O   UNL     1     -12.939  12.059  70.774  1.00  0.00    -0.091 OA 
ENDROOT
BRANCH   2   3
HETATM    3  C   UNL     1     -12.082  10.995  70.830  1.00  0.00    -0.366 A  
HETATM    4  C   UNL     1     -10.979  10.786  70.003  1.00  0.00    -0.280 A  
HETATM    5  C   UNL     1     -10.216   9.620  70.125  1.00  0.00    -0.313 A  
HETATM    6  C   UNL     1     -10.540   8.654  71.088  1.00  0.00    -0.291 A  
HETATM    7  C   UNL     1     -12.386  10.051  71.810  1.00  0.00    -0.434 A  
HETATM    8  C   UNL     1     -11.625   8.889  71.939  1.00  0.00    -0.442 A  
BRANCH   6   9
HETATM    9  C   UNL     1      -9.836   7.319  71.126  1.00  0.00    -0.182 C  
BRANCH   9  10
HETATM   10  C   UNL     1      -9.883   6.471  69.833  1.00  0.00    -0.167 C  
HETATM   11  C   UNL     1     -11.319   6.356  69.306  1.00  0.00    -0.405 C  
BRANCH  10  12
HETATM   12  N   UNL     1      -9.067   7.052  68.748  1.00  0.00    -0.134 NA 
HETATM   13  H   UNL     1      -8.208   6.519  68.617  1.00  0.00     0.000 HD 
BRANCH  12  14
HETATM   14  C   UNL     1      -9.796   7.188  67.475  1.00  0.00    -0.151 C  
BRANCH  14  15
HETATM   15  C   UNL     1      -9.028   6.629  66.255  1.00  0.00    -0.152 C  
HETATM   16  H   UNL     1      -7.602   5.309  65.940  1.00  0.00     0.000 HD 
HETATM   17  O   UNL     1      -8.073   5.652  66.690  1.00  0.00    -0.104 OA 
BRANCH  15  18
HETATM   18  C   UNL     1      -8.386   7.685  65.379  1.00  0.00    -0.134 A  
HETATM   19  C   UNL     1      -9.031   8.924  65.209  1.00  0.00    -0.213 A  
HETATM   20  C   UNL     1      -8.484   9.918  64.389  1.00  0.00    -0.177 A  
HETATM   21  H   UNL     1      -5.854  10.384  62.467  1.00  0.00     0.000 HD 
HETATM   22  C   UNL     1      -7.262   9.662  63.753  1.00  0.00    -0.114 A  
HETATM   23  C   UNL     1      -7.155   7.468  64.745  1.00  0.00    -0.064 A  
HETATM   24  C   UNL     1      -6.596   8.453  63.935  1.00  0.00    -0.075 A  
HETATM   25  O   UNL     1      -6.683  10.557  62.898  1.00  0.00    -0.132 OA 
BRANCH  20  26
HETATM   26  N   UNL     1      -9.112  11.163  64.201  1.00  0.00    -0.378 N  
HETATM   27  H   UNL     1      -8.567  11.988  64.449  1.00  0.00     0.000 HD 
HETATM   28  O   UNL     1     -10.830  12.519  63.607  1.00  0.00    -0.423 OA 
HETATM   29  C   UNL     1     -10.372  11.390  63.722  1.00  0.00    -0.393 C  
ENDBRANCH  20  26
ENDBRANCH  15  18
ENDBRANCH  14  15
ENDBRANCH  12  14
ENDBRANCH  10  12
ENDBRANCH   9  10
ENDBRANCH   6   9
ENDBRANCH   2   3
TORSDOF 8
ENDMDL
MODEL      331
REMARK 921   NORMALIZED FREE ENERGY PREDICTED BY IDOCK:   -3.43 KCAL/MOL
REMARK 922        TOTAL FREE ENERGY PREDICTED BY IDOCK:   -6.70 KCAL/MOL
REMARK 923 INTER-LIGAND FREE ENERGY PREDICTED BY IDOCK:   -5.79 KCAL/MOL
REMARK 924 INTRA-LIGAND FREE ENERGY PREDICTED BY IDOCK:   -0.91 KCAL/MOL
REMARK 927      BINDING AFFINITY PREDICTED BY RF-SCORE:    0.00 PKD
ROOT
HETATM    1  C   UNL     1     -12.621  13.430  65.012  1.00  0.00    -0.403 C  
HETATM    2  O   UNL     1     -12.522  12.634  66.186  1.00  0.00    -0.520 OA 
ENDROOT
BRANCH   2   3
HETATM    3  C   UNL     1     -11.389  11.880  66.322  1.00  0.00    -0.334 A  
HETATM    4  C   UNL     1     -10.997  11.185  67.465  1.00  0.00    -0.331 A  
HETATM    5  C   UNL     1      -9.778  10.500  67.492  1.00  0.00    -0.190 A  
HETATM    6  C   UNL     1      -8.942  10.490  66.367  1.00  0.00    -0.174 A  
HETATM    7  C   UNL     1     -10.573  11.844  65.191  1.00  0.00    -0.333 A  
HETATM    8  C   UNL     1      -9.359  11.157  65.211  1.00  0.00    -0.243 A  
BRANCH   6   9
HETATM    9  C   UNL     1      -7.553   9.900  66.429  1.00  0.00    -0.101 C  
BRANCH   9  10
HETATM   10  C   UNL     1      -6.425  10.830  66.934  1.00  0.00    -0.090 C  
HETATM   11  C   UNL     1      -6.995  12.172  67.411  1.00  0.00    -0.146 C  
BRANCH  10  12
HETATM   12  N   UNL     1      -5.679  10.247  68.067  1.00  0.00    -0.041 NA 
HETATM   13  H   UNL     1      -5.591  10.922  68.827  1.00  0.00     0.000 HD 
BRANCH  12  14
HETATM   14  C   UNL     1      -6.251   8.982  68.557  1.00  0.00    -0.049 C  
BRANCH  14  15
HETATM   15  C   UNL     1      -7.056   9.129  69.869  1.00  0.00    -0.056 C  
HETATM   16  H   UNL     1      -6.729   8.846  71.791  1.00  0.00     0.000 HD 
HETATM   17  O   UNL     1      -6.235   8.756  70.984  1.00  0.00    -0.037 OA 
BRANCH  15  18
HETATM   18  C   UNL     1      -8.379   8.391  69.880  1.00  0.00    -0.124 A  
HETATM   19  C   UNL     1      -9.541   9.067  70.295  1.00  0.00    -0.230 A  
HETATM   20  C   UNL     1     -10.779   8.416  70.344  1.00  0.00    -0.231 A  
HETATM   21  H   UNL     1     -12.045   5.438  69.743  1.00  0.00     0.000 HD 
HETATM   22  C   UNL     1     -10.844   7.074  69.948  1.00  0.00    -0.251 A  
HETATM   23  C   UNL     1      -8.481   7.054  69.472  1.00  0.00    -0.134 A  
HETATM   24  C   UNL     1      -9.709   6.398  69.507  1.00  0.00    -0.167 A  
HETATM   25  O   UNL     1     -12.001   6.349  70.011  1.00  0.00    -0.333 OA 
BRANCH  20  26
HETATM   26  N   UNL     1     -11.954   9.071  70.757  1.00  0.00    -0.442 N  
HETATM   27  H   UNL     1     -12.434   9.629  70.052  1.00  0.00     0.000 HD 
HETATM   28  O   UNL     1     -13.547   9.660  72.259  1.00  0.00    -0.438 OA 
HETATM   29  C   UNL     1     -12.524   9.042  71.999  1.00  0.00    -0.390 C  
ENDBRANCH  20  26
ENDBRANCH  15  18
ENDBRANCH  14  15
ENDBRANCH  12  14
ENDBRANCH  10  12
ENDBRANCH   9  10
ENDBRANCH   6   9
ENDBRANCH   2   3
TORSDOF 8
ENDMDL
MODEL      332
REMARK 921   NORMALIZED FREE ENERGY PREDICTED BY IDOCK:   -3.42 KCAL/MOL
REMARK 922        TOTAL FREE ENERGY PREDICTED BY IDOCK:   -6.68 KCAL/MOL
REMARK 923 INTER-LIGAND FREE ENERGY PREDICTED BY IDOCK:   -5.78 KCAL/MOL
REMARK 924 INTRA-LIGAND FREE ENERGY PREDICTED BY IDOCK:   -0.90 KCAL/MOL
REMARK 927      BINDING AFFINITY PREDICTED BY RF-SCORE:    0.00 PKD
ROOT
HETATM    1  C   UNL     1     -12.853  12.318  63.487  1.00  0.00    -0.283 C  
HETATM    2  O   UNL     1     -11.465  12.354  63.179  1.00  0.00    -0.389 OA 
ENDROOT
BRANCH   2   3
HETATM    3  C   UNL     1     -10.614  11.868  64.133  1.00  0.00    -0.350 A  
HETATM    4  C   UNL     1      -9.983  10.624  64.113  1.00  0.00    -0.406 A  
HETATM    5  C   UNL     1      -9.181  10.223  65.186  1.00  0.00    -0.252 A  
HETATM    6  C   UNL     1      -8.989  11.068  66.288  1.00  0.00    -0.195 A  
HETATM    7  C   UNL     1     -10.398  12.723  65.214  1.00  0.00    -0.313 A  
HETATM    8  C   UNL     1      -9.595  12.329  66.284  1.00  0.00    -0.248 A  
BRANCH   6   9
HETATM    9  C   UNL     1      -8.267  10.590  67.526  1.00  0.00    -0.114 C  
BRANCH   9  10
HETATM   10  C   UNL     1      -6.768  10.245  67.366  1.00  0.00    -0.072 C  
HETATM   11  C   UNL     1      -5.990  11.436  66.792  1.00  0.00    -0.143 C  
BRANCH  10  12
HETATM   12  N   UNL     1      -6.132   9.888  68.650  1.00  0.00    -0.042 NA 
HETATM   13  H   UNL     1      -5.153  10.175  68.660  1.00  0.00     0.000 HD 
BRANCH  12  14
HETATM   14  C   UNL     1      -6.844  10.420  69.824  1.00  0.00    -0.130 C  
BRANCH  14  15
HETATM   15  C   UNL     1      -7.113   9.363  70.921  1.00  0.00    -0.088 C  
HETATM   16  H   UNL     1      -6.313   7.659  71.497  1.00  0.00     0.000 HD 
HETATM   17  O   UNL     1      -6.147   8.309  70.824  1.00  0.00    -0.032 OA 
BRANCH  15  18
HETATM   18  C   UNL     1      -8.528   8.823  70.938  1.00  0.00    -0.209 A  
HETATM   19  C   UNL     1      -9.121   8.405  69.732  1.00  0.00    -0.153 A  
HETATM   20  C   UNL     1     -10.434   7.923  69.700  1.00  0.00    -0.226 A  
HETATM   21  H   UNL     1     -12.932   7.379  71.772  1.00  0.00     0.000 HD 
HETATM   22  C   UNL     1     -11.147   7.844  70.904  1.00  0.00    -0.255 A  
HETATM   23  C   UNL     1      -9.261   8.713  72.128  1.00  0.00    -0.326 A  
HETATM   24  C   UNL     1     -10.566   8.225  72.110  1.00  0.00    -0.380 A  
HETATM   25  O   UNL     1     -12.449   7.432  70.955  1.00  0.00    -0.314 OA 
BRANCH  20  26
HETATM   26  N   UNL     1     -11.049   7.502  68.506  1.00  0.00    -0.421 N  
HETATM   27  H   UNL     1     -11.774   8.113  68.130  1.00  0.00     0.000 HD 
HETATM   28  O   UNL     1     -11.385   6.086  66.767  1.00  0.00    -0.134 OA 
HETATM   29  C   UNL     1     -10.782   6.367  67.794  1.00  0.00    -0.303 C  
ENDBRANCH  20  26
ENDBRANCH  15  18
ENDBRANCH  14  15
ENDBRANCH  12  14
ENDBRANCH  10  12
ENDBRANCH   9  10
ENDBRANCH   6   9
ENDBRANCH   2   3
TORSDOF 8
ENDMDL
MODEL      333
REMARK 921   NORMALIZED FREE ENERGY PREDICTED BY IDOCK:   -3.42 KCAL/MOL
REMARK 922        TOTAL FREE ENERGY PREDICTED BY IDOCK:   -6.67 KCAL/MOL
REMARK 923 INTER-LIGAND FREE ENERGY PREDICTED BY IDOCK:   -6.70 KCAL/MOL
REMARK 924 INTRA-LIGAND FREE ENERGY PREDICTED BY IDOCK:    0.03 KCAL/MOL
REMARK 927      BINDING AFFINITY PREDICTED BY RF-SCORE:    0.00 PKD
ROOT
HETATM    1  C   UNL     1      -5.692  12.450  67.316  1.00  0.00    -0.114 C  
HETATM    2  O   UNL     1      -6.100  13.811  67.309  1.00  0.00    -0.321 OA 
ENDROOT
BRANCH   2   3
HETATM    3  C   UNL     1      -7.362  14.075  67.766  1.00  0.00    -0.167 A  
HETATM    4  C   UNL     1      -8.536  13.454  67.339  1.00  0.00    -0.197 A  
HETATM    5  C   UNL     1      -9.774  13.862  67.846  1.00  0.00    -0.231 A  
HETATM    6  C   UNL     1      -9.852  14.887  68.799  1.00  0.00    -0.225 A  
HETATM    7  C   UNL     1      -7.435  15.072  68.738  1.00  0.00    -0.133 A  
HETATM    8  C   UNL     1      -8.668  15.478  69.250  1.00  0.00    -0.260 A  
BRANCH   6   9
HETATM    9  C   UNL     1     -11.183  15.454  69.233  1.00  0.00    -0.300 C  
BRANCH   9  10
HETATM   10  C   UNL     1     -11.940  14.681  70.338  1.00  0.00    -0.311 C  
HETATM   11  C   UNL     1     -12.975  15.581  71.025  1.00  0.00    -0.550 C  
BRANCH  10  12
HETATM   12  N   UNL     1     -12.666  13.509  69.809  1.00  0.00    -0.028 NA 
HETATM   13  H   UNL     1     -12.700  13.534  68.790  1.00  0.00     0.000 HD 
BRANCH  12  14
HETATM   14  C   UNL     1     -12.125  12.223  70.281  1.00  0.00    -0.295 C  
BRANCH  14  15
HETATM   15  C   UNL     1     -11.373  11.425  69.189  1.00  0.00    -0.288 C  
HETATM   16  H   UNL     1     -11.678  10.934  67.307  1.00  0.00     0.000 HD 
HETATM   17  O   UNL     1     -12.139  11.424  67.978  1.00  0.00    -0.629 OA 
BRANCH  15  18
HETATM   18  C   UNL     1     -10.977  10.021  69.598  1.00  0.00    -0.301 A  
HETATM   19  C   UNL     1     -10.947   9.684  70.964  1.00  0.00    -0.431 A  
HETATM   20  C   UNL     1     -10.563   8.407  71.386  1.00  0.00    -0.234 A  
HETATM   21  H   UNL     1      -9.565   5.555  70.082  1.00  0.00     0.000 HD 
HETATM   22  C   UNL     1     -10.226   7.455  70.415  1.00  0.00    -0.198 A  
HETATM   23  C   UNL     1     -10.653   9.041  68.650  1.00  0.00    -0.194 A  
HETATM   24  C   UNL     1     -10.279   7.762  69.058  1.00  0.00    -0.213 A  
HETATM   25  O   UNL     1      -9.793   6.200  70.741  1.00  0.00    -0.181 OA 
BRANCH  20  26
HETATM   26  N   UNL     1     -10.523   8.047  72.747  1.00  0.00    -0.331 N  
HETATM   27  H   UNL     1     -10.487   8.815  73.417  1.00  0.00     0.000 HD 
HETATM   28  O   UNL     1     -10.479   6.580  74.474  1.00  0.00    -0.275 OA 
HETATM   29  C   UNL     1     -10.527   6.785  73.270  1.00  0.00    -0.296 C  
ENDBRANCH  20  26
ENDBRANCH  15  18
ENDBRANCH  14  15
ENDBRANCH  12  14
ENDBRANCH  10  12
ENDBRANCH   9  10
ENDBRANCH   6   9
ENDBRANCH   2   3
TORSDOF 8
ENDMDL
MODEL      334
REMARK 921   NORMALIZED FREE ENERGY PREDICTED BY IDOCK:   -3.41 KCAL/MOL
REMARK 922        TOTAL FREE ENERGY PREDICTED BY IDOCK:   -6.67 KCAL/MOL
REMARK 923 INTER-LIGAND FREE ENERGY PREDICTED BY IDOCK:   -5.94 KCAL/MOL
REMARK 924 INTRA-LIGAND FREE ENERGY PREDICTED BY IDOCK:   -0.73 KCAL/MOL
REMARK 927      BINDING AFFINITY PREDICTED BY RF-SCORE:    0.00 PKD
ROOT
HETATM    1  C   UNL     1     -10.340  18.579  65.976  1.00  0.00    -0.393 C  
HETATM    2  O   UNL     1     -10.601  17.362  65.291  1.00  0.00    -0.667 OA 
ENDROOT
BRANCH   2   3
HETATM    3  C   UNL     1     -10.263  16.207  65.941  1.00  0.00    -0.360 A  
HETATM    4  C   UNL     1      -9.037  15.935  66.546  1.00  0.00    -0.320 A  
HETATM    5  C   UNL     1      -8.798  14.686  67.127  1.00  0.00    -0.238 A  
HETATM    6  C   UNL     1      -9.791  13.696  67.123  1.00  0.00    -0.242 A  
HETATM    7  C   UNL     1     -11.264  15.236  65.965  1.00  0.00    -0.231 A  
HETATM    8  C   UNL     1     -11.032  13.990  66.548  1.00  0.00    -0.306 A  
BRANCH   6   9
HETATM    9  C   UNL     1      -9.500  12.291  67.594  1.00  0.00    -0.188 C  
BRANCH   9  10
HETATM   10  C   UNL     1     -10.696  11.482  68.148  1.00  0.00    -0.205 C  
HETATM   11  C   UNL     1     -10.855  10.154  67.396  1.00  0.00    -0.323 C  
BRANCH  10  12
HETATM   12  N   UNL     1     -10.540  11.155  69.579  1.00  0.00    -0.430 NA 
HETATM   13  H   UNL     1     -11.288  11.576  70.130  1.00  0.00     0.000 HD 
BRANCH  12  14
HETATM   14  C   UNL     1     -10.449   9.709  69.843  1.00  0.00    -0.253 C  
BRANCH  14  15
HETATM   15  C   UNL     1      -9.161   9.293  70.594  1.00  0.00    -0.264 C  
HETATM   16  H   UNL     1      -7.255   9.781  70.550  1.00  0.00     0.000 HD 
HETATM   17  O   UNL     1      -8.045  10.037  70.089  1.00  0.00    -0.175 OA 
BRANCH  15  18
HETATM   18  C   UNL     1      -8.886   7.803  70.590  1.00  0.00    -0.144 A  
HETATM   19  C   UNL     1      -9.827   6.927  71.162  1.00  0.00    -0.184 A  
HETATM   20  C   UNL     1      -9.600   5.547  71.201  1.00  0.00    -0.162 A  
HETATM   21  H   UNL     1      -7.295   3.381  70.291  1.00  0.00     0.000 HD 
HETATM   22  C   UNL     1      -8.419   5.047  70.636  1.00  0.00    -0.106 A  
HETATM   23  C   UNL     1      -7.724   7.270  70.015  1.00  0.00    -0.096 A  
HETATM   24  C   UNL     1      -7.492   5.897  70.039  1.00  0.00    -0.079 A  
HETATM   25  O   UNL     1      -8.096   3.720  70.675  1.00  0.00    -0.053 OA 
BRANCH  20  26
HETATM   26  N   UNL     1     -10.524   4.652  71.771  1.00  0.00    -0.133 N  
HETATM   27  H   UNL     1     -11.136   4.158  71.121  1.00  0.00     0.000 HD 
HETATM   28  O   UNL     1     -11.539   3.579  73.491  1.00  0.00    -0.167 OA 
HETATM   29  C   UNL     1     -10.694   4.370  73.097  1.00  0.00    -0.220 C  
ENDBRANCH  20  26
ENDBRANCH  15  18
ENDBRANCH  14  15
ENDBRANCH  12  14
ENDBRANCH  10  12
ENDBRANCH   9  10
ENDBRANCH   6   9
ENDBRANCH   2   3
TORSDOF 8
ENDMDL
MODEL      335
REMARK 921   NORMALIZED FREE ENERGY PREDICTED BY IDOCK:   -3.41 KCAL/MOL
REMARK 922        TOTAL FREE ENERGY PREDICTED BY IDOCK:   -6.67 KCAL/MOL
REMARK 923 INTER-LIGAND FREE ENERGY PREDICTED BY IDOCK:   -6.19 KCAL/MOL
REMARK 924 INTRA-LIGAND FREE ENERGY PREDICTED BY IDOCK:   -0.48 KCAL/MOL
REMARK 927      BINDING AFFINITY PREDICTED BY RF-SCORE:    0.00 PKD
ROOT
HETATM    1  C   UNL     1      -7.883   3.093  70.330  1.00  0.00    -0.043 C  
HETATM    2  O   UNL     1      -8.602   3.411  71.514  1.00  0.00    -0.073 OA 
ENDROOT
BRANCH   2   3
HETATM    3  C   UNL     1      -9.535   4.407  71.415  1.00  0.00    -0.155 A  
HETATM    4  C   UNL     1     -10.158   4.834  70.244  1.00  0.00    -0.304 A  
HETATM    5  C   UNL     1     -11.053   5.909  70.273  1.00  0.00    -0.368 A  
HETATM    6  C   UNL     1     -11.346   6.560  71.478  1.00  0.00    -0.339 A  
HETATM    7  C   UNL     1      -9.850   5.032  72.621  1.00  0.00    -0.195 A  
HETATM    8  C   UNL     1     -10.747   6.101  72.656  1.00  0.00    -0.261 A  
BRANCH   6   9
HETATM    9  C   UNL     1     -12.176   7.822  71.506  1.00  0.00    -0.344 C  
BRANCH   9  10
HETATM   10  C   UNL     1     -11.487   9.117  71.017  1.00  0.00    -0.306 C  
HETATM   11  C   UNL     1     -10.019   9.158  71.462  1.00  0.00    -0.358 C  
BRANCH  10  12
HETATM   12  N   UNL     1     -11.499   9.242  69.546  1.00  0.00    -0.427 NA 
HETATM   13  H   UNL     1     -12.382   8.905  69.163  1.00  0.00     0.000 HD 
BRANCH  12  14
HETATM   14  C   UNL     1     -11.211  10.607  69.072  1.00  0.00    -0.265 C  
BRANCH  14  15
HETATM   15  C   UNL     1     -10.839  10.679  67.572  1.00  0.00    -0.296 C  
HETATM   16  H   UNL     1      -9.636   9.718  66.345  1.00  0.00     0.000 HD 
HETATM   17  O   UNL     1      -9.864   9.674  67.266  1.00  0.00    -0.159 OA 
BRANCH  15  18
HETATM   18  C   UNL     1     -10.395  12.048  67.101  1.00  0.00    -0.235 A  
HETATM   19  C   UNL     1      -9.272  12.651  67.697  1.00  0.00    -0.191 A  
HETATM   20  C   UNL     1      -8.842  13.925  67.309  1.00  0.00    -0.221 A  
HETATM   21  H   UNL     1      -9.699  16.299  65.197  1.00  0.00     0.000 HD 
HETATM   22  C   UNL     1      -9.544  14.586  66.292  1.00  0.00    -0.304 A  
HETATM   23  C   UNL     1     -11.064  12.727  66.073  1.00  0.00    -0.315 A  
HETATM   24  C   UNL     1     -10.639  13.992  65.671  1.00  0.00    -0.313 A  
HETATM   25  O   UNL     1      -9.223  15.851  65.887  1.00  0.00    -0.337 OA 
BRANCH  20  26
HETATM   26  N   UNL     1      -7.723  14.548  67.892  1.00  0.00    -0.125 N  
HETATM   27  H   UNL     1      -7.913  15.352  68.490  1.00  0.00     0.000 HD 
HETATM   28  O   UNL     1      -5.508  14.816  68.293  1.00  0.00    -0.101 OA 
HETATM   29  C   UNL     1      -6.411  14.197  67.748  1.00  0.00    -0.156 C  
ENDBRANCH  20  26
ENDBRANCH  15  18
ENDBRANCH  14  15
ENDBRANCH  12  14
ENDBRANCH  10  12
ENDBRANCH   9  10
ENDBRANCH   6   9
ENDBRANCH   2   3
TORSDOF 8
ENDMDL
MODEL      336
REMARK 921   NORMALIZED FREE ENERGY PREDICTED BY IDOCK:   -3.39 KCAL/MOL
REMARK 922        TOTAL FREE ENERGY PREDICTED BY IDOCK:   -6.63 KCAL/MOL
REMARK 923 INTER-LIGAND FREE ENERGY PREDICTED BY IDOCK:   -5.34 KCAL/MOL
REMARK 924 INTRA-LIGAND FREE ENERGY PREDICTED BY IDOCK:   -1.29 KCAL/MOL
REMARK 927      BINDING AFFINITY PREDICTED BY RF-SCORE:    0.00 PKD
ROOT
HETATM    1  C   UNL     1      -9.453   7.214  69.996  1.00  0.00    -0.164 C  
HETATM    2  O   UNL     1      -9.138   8.598  70.062  1.00  0.00    -0.148 OA 
ENDROOT
BRANCH   2   3
HETATM    3  C   UNL     1      -9.927   9.442  69.329  1.00  0.00    -0.181 A  
HETATM    4  C   UNL     1     -10.034   9.465  67.939  1.00  0.00    -0.220 A  
HETATM    5  C   UNL     1     -10.834  10.423  67.309  1.00  0.00    -0.324 A  
HETATM    6  C   UNL     1     -11.550  11.362  68.064  1.00  0.00    -0.357 A  
HETATM    7  C   UNL     1     -10.664  10.355  70.083  1.00  0.00    -0.292 A  
HETATM    8  C   UNL     1     -11.468  11.309  69.459  1.00  0.00    -0.376 A  
BRANCH   6   9
HETATM    9  C   UNL     1     -12.284  12.505  67.402  1.00  0.00     0.119 C  
BRANCH   9  10
HETATM   10  C   UNL     1     -11.803  12.915  65.990  1.00  0.00    -0.430 C  
HETATM   11  C   UNL     1     -12.778  12.419  64.915  1.00  0.00    -0.256 C  
BRANCH  10  12
HETATM   12  N   UNL     1     -11.692  14.379  65.835  1.00  0.00    -0.367 NA 
HETATM   13  H   UNL     1     -12.584  14.780  65.546  1.00  0.00     0.000 HD 
BRANCH  12  14
HETATM   14  C   UNL     1     -11.180  15.058  67.038  1.00  0.00    -0.328 C  
BRANCH  14  15
HETATM   15  C   UNL     1      -9.927  15.927  66.776  1.00  0.00    -0.248 C  
HETATM   16  H   UNL     1      -9.019  16.698  65.208  1.00  0.00     0.000 HD 
HETATM   17  O   UNL     1      -9.789  16.164  65.369  1.00  0.00    -0.474 OA 
BRANCH  15  18
HETATM   18  C   UNL     1      -8.648  15.383  67.378  1.00  0.00    -0.197 A  
HETATM   19  C   UNL     1      -8.340  14.019  67.222  1.00  0.00    -0.209 A  
HETATM   20  C   UNL     1      -7.182  13.470  67.784  1.00  0.00    -0.154 A  
HETATM   21  H   UNL     1      -4.603  14.427  69.590  1.00  0.00     0.000 HD 
HETATM   22  C   UNL     1      -6.316  14.315  68.490  1.00  0.00    -0.092 A  
HETATM   23  C   UNL     1      -7.752  16.206  68.073  1.00  0.00    -0.143 A  
HETATM   24  C   UNL     1      -6.590  15.673  68.627  1.00  0.00    -0.110 A  
HETATM   25  O   UNL     1      -5.190  13.853  69.111  1.00  0.00    -0.077 OA 
BRANCH  20  26
HETATM   26  N   UNL     1      -6.854  12.108  67.644  1.00  0.00    -0.105 N  
HETATM   27  H   UNL     1      -6.261  11.708  68.371  1.00  0.00     0.000 HD 
HETATM   28  O   UNL     1      -6.891  10.091  66.610  1.00  0.00    -0.078 OA 
HETATM   29  C   UNL     1      -7.242  11.262  66.644  1.00  0.00    -0.126 C  
ENDBRANCH  20  26
ENDBRANCH  15  18
ENDBRANCH  14  15
ENDBRANCH  12  14
ENDBRANCH  10  12
ENDBRANCH   9  10
ENDBRANCH   6   9
ENDBRANCH   2   3
TORSDOF 8
ENDMDL
MODEL      337
REMARK 921   NORMALIZED FREE ENERGY PREDICTED BY IDOCK:   -3.39 KCAL/MOL
REMARK 922        TOTAL FREE ENERGY PREDICTED BY IDOCK:   -6.63 KCAL/MOL
REMARK 923 INTER-LIGAND FREE ENERGY PREDICTED BY IDOCK:   -6.08 KCAL/MOL
REMARK 924 INTRA-LIGAND FREE ENERGY PREDICTED BY IDOCK:   -0.55 KCAL/MOL
REMARK 927      BINDING AFFINITY PREDICTED BY RF-SCORE:    0.00 PKD
ROOT
HETATM    1  C   UNL     1      -5.704  19.523  66.831  1.00  0.00    -0.173 C  
HETATM    2  O   UNL     1      -7.019  20.020  66.622  1.00  0.00    -0.213 OA 
ENDROOT
BRANCH   2   3
HETATM    3  C   UNL     1      -8.030  19.100  66.627  1.00  0.00    -0.272 A  
HETATM    4  C   UNL     1      -9.361  19.345  66.962  1.00  0.00    -0.393 A  
HETATM    5  C   UNL     1     -10.287  18.296  66.986  1.00  0.00    -0.408 A  
HETATM    6  C   UNL     1      -9.894  16.991  66.661  1.00  0.00    -0.297 A  
HETATM    7  C   UNL     1      -7.644  17.807  66.272  1.00  0.00    -0.322 A  
HETATM    8  C   UNL     1      -8.566  16.759  66.290  1.00  0.00    -0.340 A  
BRANCH   6   9
HETATM    9  C   UNL     1     -10.833  15.821  66.842  1.00  0.00    -0.265 C  
BRANCH   9  10
HETATM   10  C   UNL     1     -11.200  15.022  65.569  1.00  0.00    -0.344 C  
HETATM   11  C   UNL     1     -11.416  15.962  64.376  1.00  0.00    -0.268 C  
BRANCH  10  12
HETATM   12  N   UNL     1     -10.147  14.063  65.182  1.00  0.00    -0.544 NA 
HETATM   13  H   UNL     1      -9.268  14.546  64.998  1.00  0.00     0.000 HD 
BRANCH  12  14
HETATM   14  C   UNL     1      -9.951  12.981  66.163  1.00  0.00    -0.278 C  
BRANCH  14  15
HETATM   15  C   UNL     1     -10.577  11.633  65.736  1.00  0.00    -0.271 C  
HETATM   16  H   UNL     1     -12.304  10.716  65.968  1.00  0.00     0.000 HD 
HETATM   17  O   UNL     1     -11.919  11.545  66.230  1.00  0.00    -0.294 OA 
BRANCH  15  18
HETATM   18  C   UNL     1      -9.762  10.414  66.116  1.00  0.00    -0.262 A  
HETATM   19  C   UNL     1      -8.860   9.870  65.183  1.00  0.00    -0.209 A  
HETATM   20  C   UNL     1      -8.106   8.730  65.485  1.00  0.00    -0.115 A  
HETATM   21  H   UNL     1      -7.690   6.613  67.970  1.00  0.00     0.000 HD 
HETATM   22  C   UNL     1      -8.252   8.149  66.751  1.00  0.00    -0.107 A  
HETATM   23  C   UNL     1      -9.870   9.821  67.381  1.00  0.00    -0.219 A  
HETATM   24  C   UNL     1      -9.117   8.692  67.697  1.00  0.00    -0.145 A  
HETATM   25  O   UNL     1      -7.592   7.007  67.111  1.00  0.00    -0.102 OA 
BRANCH  20  26
HETATM   26  N   UNL     1      -7.200   8.166  64.567  1.00  0.00    -0.080 N  
HETATM   27  H   UNL     1      -6.218   8.171  64.840  1.00  0.00     0.000 HD 
HETATM   28  O   UNL     1      -6.622   7.157  62.621  1.00  0.00    -0.051 OA 
HETATM   29  C   UNL     1      -7.490   7.612  63.352  1.00  0.00    -0.108 C  
ENDBRANCH  20  26
ENDBRANCH  15  18
ENDBRANCH  14  15
ENDBRANCH  12  14
ENDBRANCH  10  12
ENDBRANCH   9  10
ENDBRANCH   6   9
ENDBRANCH   2   3
TORSDOF 8
ENDMDL
MODEL      338
REMARK 921   NORMALIZED FREE ENERGY PREDICTED BY IDOCK:   -3.39 KCAL/MOL
REMARK 922        TOTAL FREE ENERGY PREDICTED BY IDOCK:   -6.63 KCAL/MOL
REMARK 923 INTER-LIGAND FREE ENERGY PREDICTED BY IDOCK:   -6.01 KCAL/MOL
REMARK 924 INTRA-LIGAND FREE ENERGY PREDICTED BY IDOCK:   -0.62 KCAL/MOL
REMARK 927      BINDING AFFINITY PREDICTED BY RF-SCORE:    0.00 PKD
ROOT
HETATM    1  C   UNL     1     -13.791   8.101  71.002  1.00  0.00     0.100 C  
HETATM    2  O   UNL     1     -12.624   7.357  71.326  1.00  0.00    -0.343 OA 
ENDROOT
BRANCH   2   3
HETATM    3  C   UNL     1     -11.441   7.823  70.823  1.00  0.00    -0.272 A  
HETATM    4  C   UNL     1     -10.631   8.799  71.402  1.00  0.00    -0.349 A  
HETATM    5  C   UNL     1      -9.471   9.231  70.750  1.00  0.00    -0.336 A  
HETATM    6  C   UNL     1      -9.100   8.681  69.515  1.00  0.00    -0.146 A  
HETATM    7  C   UNL     1     -11.056   7.251  69.610  1.00  0.00    -0.161 A  
HETATM    8  C   UNL     1      -9.898   7.675  68.959  1.00  0.00    -0.168 A  
BRANCH   6   9
HETATM    9  C   UNL     1      -7.949   9.248  68.718  1.00  0.00    -0.099 C  
BRANCH   9  10
HETATM   10  C   UNL     1      -8.038  10.744  68.339  1.00  0.00    -0.127 C  
HETATM   11  C   UNL     1      -6.891  11.140  67.400  1.00  0.00    -0.089 C  
BRANCH  10  12
HETATM   12  N   UNL     1      -9.300  11.077  67.647  1.00  0.00    -0.155 NA 
HETATM   13  H   UNL     1     -10.099  10.924  68.261  1.00  0.00     0.000 HD 
BRANCH  12  14
HETATM   14  C   UNL     1      -9.321  12.441  67.092  1.00  0.00    -0.199 C  
BRANCH  14  15
HETATM   15  C   UNL     1     -10.358  13.371  67.766  1.00  0.00    -0.241 C  
HETATM   16  H   UNL     1     -12.291  13.332  68.137  1.00  0.00     0.000 HD 
HETATM   17  O   UNL     1     -11.654  12.761  67.724  1.00  0.00    -0.309 OA 
BRANCH  15  18
HETATM   18  C   UNL     1     -10.388  14.782  67.214  1.00  0.00    -0.247 A  
HETATM   19  C   UNL     1      -9.891  15.839  67.999  1.00  0.00    -0.217 A  
HETATM   20  C   UNL     1      -9.922  17.159  67.537  1.00  0.00    -0.279 A  
HETATM   21  H   UNL     1     -10.908  18.842  64.886  1.00  0.00     0.000 HD 
HETATM   22  C   UNL     1     -10.442  17.409  66.261  1.00  0.00    -0.276 A  
HETATM   23  C   UNL     1     -10.883  15.062  65.933  1.00  0.00    -0.339 A  
HETATM   24  C   UNL     1     -10.910  16.371  65.459  1.00  0.00    -0.224 A  
HETATM   25  O   UNL     1     -10.555  18.673  65.752  1.00  0.00    -0.567 OA 
BRANCH  20  26
HETATM   26  N   UNL     1      -9.434  18.233  68.305  1.00  0.00    -0.297 N  
HETATM   27  H   UNL     1     -10.098  18.675  68.940  1.00  0.00     0.000 HD 
HETATM   28  O   UNL     1      -7.848  19.698  68.997  1.00  0.00    -0.342 OA 
HETATM   29  C   UNL     1      -8.168  18.750  68.295  1.00  0.00    -0.325 C  
ENDBRANCH  20  26
ENDBRANCH  15  18
ENDBRANCH  14  15
ENDBRANCH  12  14
ENDBRANCH  10  12
ENDBRANCH   9  10
ENDBRANCH   6   9
ENDBRANCH   2   3
TORSDOF 8
ENDMDL
MODEL      339
REMARK 921   NORMALIZED FREE ENERGY PREDICTED BY IDOCK:   -3.37 KCAL/MOL
REMARK 922        TOTAL FREE ENERGY PREDICTED BY IDOCK:   -6.61 KCAL/MOL
REMARK 923 INTER-LIGAND FREE ENERGY PREDICTED BY IDOCK:   -5.20 KCAL/MOL
REMARK 924 INTRA-LIGAND FREE ENERGY PREDICTED BY IDOCK:   -1.41 KCAL/MOL
REMARK 927      BINDING AFFINITY PREDICTED BY RF-SCORE:    0.00 PKD
ROOT
HETATM    1  C   UNL     1      -6.072   9.421  70.433  1.00  0.00    -0.054 C  
HETATM    2  O   UNL     1      -6.983   9.739  69.389  1.00  0.00    -0.052 OA 
ENDROOT
BRANCH   2   3
HETATM    3  C   UNL     1      -8.312   9.725  69.711  1.00  0.00    -0.178 A  
HETATM    4  C   UNL     1      -9.347  10.263  68.947  1.00  0.00    -0.180 A  
HETATM    5  C   UNL     1     -10.663  10.236  69.422  1.00  0.00    -0.272 A  
HETATM    6  C   UNL     1     -10.961   9.656  70.662  1.00  0.00    -0.386 A  
HETATM    7  C   UNL     1      -8.612   9.118  70.930  1.00  0.00    -0.259 A  
HETATM    8  C   UNL     1      -9.923   9.084  71.406  1.00  0.00    -0.388 A  
BRANCH   6   9
HETATM    9  C   UNL     1     -12.341   9.764  71.267  1.00  0.00    -0.465 C  
BRANCH   9  10
HETATM   10  C   UNL     1     -12.836   8.551  72.089  1.00  0.00    -0.369 C  
HETATM   11  C   UNL     1     -14.368   8.529  72.163  1.00  0.00    -0.529 C  
BRANCH  10  12
HETATM   12  N   UNL     1     -12.411   7.263  71.505  1.00  0.00    -0.343 NA 
HETATM   13  H   UNL     1     -11.904   7.412  70.633  1.00  0.00     0.000 HD 
BRANCH  12  14
HETATM   14  C   UNL     1     -11.623   6.432  72.431  1.00  0.00    -0.269 C  
BRANCH  14  15
HETATM   15  C   UNL     1     -10.994   5.185  71.767  1.00  0.00    -0.008 C  
HETATM   16  H   UNL     1     -10.420   3.391  72.341  1.00  0.00     0.000 HD 
HETATM   17  O   UNL     1     -10.806   4.157  72.749  1.00  0.00    -0.156 OA 
BRANCH  15  18
HETATM   18  C   UNL     1      -9.718   5.459  70.998  1.00  0.00    -0.235 A  
HETATM   19  C   UNL     1      -9.786   5.690  69.611  1.00  0.00    -0.243 A  
HETATM   20  C   UNL     1      -8.630   5.924  68.859  1.00  0.00    -0.110 A  
HETATM   21  H   UNL     1      -5.375   6.129  69.304  1.00  0.00     0.000 HD 
HETATM   22  C   UNL     1      -7.395   5.944  69.520  1.00  0.00    -0.075 A  
HETATM   23  C   UNL     1      -8.470   5.506  71.633  1.00  0.00    -0.131 A  
HETATM   24  C   UNL     1      -7.312   5.747  70.896  1.00  0.00    -0.085 A  
HETATM   25  O   UNL     1      -6.213   6.115  68.855  1.00  0.00    -0.033 OA 
BRANCH  20  26
HETATM   26  N   UNL     1      -8.673   6.154  67.471  1.00  0.00    -0.106 N  
HETATM   27  H   UNL     1      -8.816   5.336  66.880  1.00  0.00     0.000 HD 
HETATM   28  O   UNL     1      -8.586   7.444  65.608  1.00  0.00    -0.148 OA 
HETATM   29  C   UNL     1      -8.544   7.353  66.827  1.00  0.00    -0.127 C  
ENDBRANCH  20  26
ENDBRANCH  15  18
ENDBRANCH  14  15
ENDBRANCH  12  14
ENDBRANCH  10  12
ENDBRANCH   9  10
ENDBRANCH   6   9
ENDBRANCH   2   3
TORSDOF 8
ENDMDL
MODEL      340
REMARK 921   NORMALIZED FREE ENERGY PREDICTED BY IDOCK:   -3.37 KCAL/MOL
REMARK 922        TOTAL FREE ENERGY PREDICTED BY IDOCK:   -6.61 KCAL/MOL
REMARK 923 INTER-LIGAND FREE ENERGY PREDICTED BY IDOCK:   -5.49 KCAL/MOL
REMARK 924 INTRA-LIGAND FREE ENERGY PREDICTED BY IDOCK:   -1.12 KCAL/MOL
REMARK 927      BINDING AFFINITY PREDICTED BY RF-SCORE:    0.00 PKD
ROOT
HETATM    1  C   UNL     1     -12.598  14.256  64.911  1.00  0.00    -0.324 C  
HETATM    2  O   UNL     1     -12.046  13.406  63.915  1.00  0.00    -0.454 OA 
ENDROOT
BRANCH   2   3
HETATM    3  C   UNL     1     -11.311  12.341  64.358  1.00  0.00    -0.336 A  
HETATM    4  C   UNL     1     -11.098  11.987  65.690  1.00  0.00    -0.361 A  
HETATM    5  C   UNL     1     -10.272  10.905  66.009  1.00  0.00    -0.311 A  
HETATM    6  C   UNL     1      -9.661  10.152  64.997  1.00  0.00    -0.362 A  
HETATM    7  C   UNL     1     -10.730  11.572  63.349  1.00  0.00    -0.444 A  
HETATM    8  C   UNL     1      -9.910  10.488  63.662  1.00  0.00    -0.354 A  
BRANCH   6   9
HETATM    9  C   UNL     1      -8.637   9.089  65.320  1.00  0.00    -0.199 C  
BRANCH   9  10
HETATM   10  C   UNL     1      -8.796   8.361  66.675  1.00  0.00    -0.142 C  
HETATM   11  C   UNL     1      -9.239   6.907  66.468  1.00  0.00    -0.195 C  
BRANCH  10  12
HETATM   12  N   UNL     1      -7.538   8.326  67.448  1.00  0.00    -0.096 NA 
HETATM   13  H   UNL     1      -6.865   7.696  67.013  1.00  0.00     0.000 HD 
BRANCH  12  14
HETATM   14  C   UNL     1      -6.945   9.657  67.661  1.00  0.00    -0.087 C  
BRANCH  14  15
HETATM   15  C   UNL     1      -7.323  10.296  69.019  1.00  0.00    -0.092 C  
HETATM   16  H   UNL     1      -8.881  10.290  70.223  1.00  0.00     0.000 HD 
HETATM   17  O   UNL     1      -8.649   9.897  69.389  1.00  0.00    -0.146 OA 
BRANCH  15  18
HETATM   18  C   UNL     1      -7.159  11.801  69.071  1.00  0.00    -0.100 A  
HETATM   19  C   UNL     1      -7.978  12.612  68.263  1.00  0.00    -0.153 A  
HETATM   20  C   UNL     1      -7.843  14.005  68.263  1.00  0.00    -0.140 A  
HETATM   21  H   UNL     1      -6.000  16.322  69.699  1.00  0.00     0.000 HD 
HETATM   22  C   UNL     1      -6.883  14.583  69.103  1.00  0.00    -0.123 A  
HETATM   23  C   UNL     1      -6.222  12.412  69.915  1.00  0.00    -0.102 A  
HETATM   24  C   UNL     1      -6.085  13.798  69.931  1.00  0.00    -0.140 A  
HETATM   25  O   UNL     1      -6.651  15.930  69.128  1.00  0.00    -0.137 OA 
BRANCH  20  26
HETATM   26  N   UNL     1      -8.649  14.835  67.462  1.00  0.00    -0.176 N  
HETATM   27  H   UNL     1      -8.255  15.122  66.566  1.00  0.00     0.000 HD 
HETATM   28  O   UNL     1     -10.515  16.032  66.987  1.00  0.00    -0.299 OA 
HETATM   29  C   UNL     1      -9.901  15.301  67.751  1.00  0.00    -0.220 C  
ENDBRANCH  20  26
ENDBRANCH  15  18
ENDBRANCH  14  15
ENDBRANCH  12  14
ENDBRANCH  10  12
ENDBRANCH   9  10
ENDBRANCH   6   9
ENDBRANCH   2   3
TORSDOF 8
ENDMDL
MODEL      341
REMARK 921   NORMALIZED FREE ENERGY PREDICTED BY IDOCK:   -3.37 KCAL/MOL
REMARK 922        TOTAL FREE ENERGY PREDICTED BY IDOCK:   -6.60 KCAL/MOL
REMARK 923 INTER-LIGAND FREE ENERGY PREDICTED BY IDOCK:   -5.45 KCAL/MOL
REMARK 924 INTRA-LIGAND FREE ENERGY PREDICTED BY IDOCK:   -1.15 KCAL/MOL
REMARK 927      BINDING AFFINITY PREDICTED BY RF-SCORE:    0.00 PKD
ROOT
HETATM    1  C   UNL     1      -5.655  12.604  67.409  1.00  0.00    -0.087 C  
HETATM    2  O   UNL     1      -6.246  13.891  67.284  1.00  0.00    -0.307 OA 
ENDROOT
BRANCH   2   3
HETATM    3  C   UNL     1      -7.543  14.013  67.699  1.00  0.00    -0.179 A  
HETATM    4  C   UNL     1      -8.653  13.408  67.111  1.00  0.00    -0.201 A  
HETATM    5  C   UNL     1      -9.938  13.666  67.599  1.00  0.00    -0.239 A  
HETATM    6  C   UNL     1     -10.127  14.522  68.693  1.00  0.00    -0.244 A  
HETATM    7  C   UNL     1      -7.726  14.838  68.808  1.00  0.00    -0.136 A  
HETATM    8  C   UNL     1      -9.005  15.094  69.302  1.00  0.00    -0.202 A  
BRANCH   6   9
HETATM    9  C   UNL     1     -11.510  14.943  69.130  1.00  0.00    -0.324 C  
BRANCH   9  10
HETATM   10  C   UNL     1     -12.030  14.350  70.460  1.00  0.00    -0.325 C  
HETATM   11  C   UNL     1     -13.123  15.240  71.066  1.00  0.00    -0.544 C  
BRANCH  10  12
HETATM   12  N   UNL     1     -12.611  13.004  70.288  1.00  0.00    -0.111 NA 
HETATM   13  H   UNL     1     -12.534  12.698  69.319  1.00  0.00     0.000 HD 
BRANCH  12  14
HETATM   14  C   UNL     1     -12.037  11.998  71.200  1.00  0.00     0.161 C  
BRANCH  14  15
HETATM   15  C   UNL     1     -12.488  10.551  70.893  1.00  0.00    -0.390 C  
HETATM   16  H   UNL     1     -13.317   9.066  71.886  1.00  0.00     0.000 HD 
HETATM   17  O   UNL     1     -13.040   9.955  72.074  1.00  0.00    -0.423 OA 
BRANCH  15  18
HETATM   18  C   UNL     1     -11.415   9.676  70.277  1.00  0.00    -0.288 A  
HETATM   19  C   UNL     1     -10.664  10.168  69.194  1.00  0.00    -0.254 A  
HETATM   20  C   UNL     1      -9.680   9.384  68.581  1.00  0.00    -0.152 A  
HETATM   21  H   UNL     1      -8.373   6.376  68.853  1.00  0.00     0.000 HD 
HETATM   22  C   UNL     1      -9.441   8.098  69.082  1.00  0.00    -0.155 A  
HETATM   23  C   UNL     1     -11.139   8.393  70.769  1.00  0.00    -0.286 A  
HETATM   24  C   UNL     1     -10.155   7.607  70.172  1.00  0.00    -0.199 A  
HETATM   25  O   UNL     1      -8.535   7.248  68.513  1.00  0.00    -0.124 OA 
BRANCH  20  26
HETATM   26  N   UNL     1      -8.918   9.853  67.495  1.00  0.00    -0.134 N  
HETATM   27  H   UNL     1      -8.154  10.489  67.719  1.00  0.00     0.000 HD 
HETATM   28  O   UNL     1      -8.372  10.023  65.301  1.00  0.00    -0.140 OA 
HETATM   29  C   UNL     1      -9.087   9.550  66.173  1.00  0.00    -0.166 C  
ENDBRANCH  20  26
ENDBRANCH  15  18
ENDBRANCH  14  15
ENDBRANCH  12  14
ENDBRANCH  10  12
ENDBRANCH   9  10
ENDBRANCH   6   9
ENDBRANCH   2   3
TORSDOF 8
ENDMDL
MODEL      342
REMARK 921   NORMALIZED FREE ENERGY PREDICTED BY IDOCK:   -3.37 KCAL/MOL
REMARK 922        TOTAL FREE ENERGY PREDICTED BY IDOCK:   -6.60 KCAL/MOL
REMARK 923 INTER-LIGAND FREE ENERGY PREDICTED BY IDOCK:   -5.56 KCAL/MOL
REMARK 924 INTRA-LIGAND FREE ENERGY PREDICTED BY IDOCK:   -1.04 KCAL/MOL
REMARK 927      BINDING AFFINITY PREDICTED BY RF-SCORE:    0.00 PKD
ROOT
HETATM    1  C   UNL     1     -12.453  12.771  63.605  1.00  0.00    -0.389 C  
HETATM    2  O   UNL     1     -11.162  12.325  63.213  1.00  0.00    -0.419 OA 
ENDROOT
BRANCH   2   3
HETATM    3  C   UNL     1     -10.464  11.588  64.129  1.00  0.00    -0.353 A  
HETATM    4  C   UNL     1      -9.756  10.415  63.871  1.00  0.00    -0.367 A  
HETATM    5  C   UNL     1      -9.133   9.723  64.915  1.00  0.00    -0.278 A  
HETATM    6  C   UNL     1      -9.199  10.204  66.229  1.00  0.00    -0.191 A  
HETATM    7  C   UNL     1     -10.503  12.087  65.431  1.00  0.00    -0.313 A  
HETATM    8  C   UNL     1      -9.879  11.402  66.474  1.00  0.00    -0.237 A  
BRANCH   6   9
HETATM    9  C   UNL     1      -8.680   9.389  67.390  1.00  0.00    -0.128 C  
BRANCH   9  10
HETATM   10  C   UNL     1      -7.158   9.118  67.422  1.00  0.00    -0.079 C  
HETATM   11  C   UNL     1      -6.371  10.352  66.962  1.00  0.00    -0.072 C  
BRANCH  10  12
HETATM   12  N   UNL     1      -6.674   8.773  68.774  1.00  0.00    -0.054 NA 
HETATM   13  H   UNL     1      -5.665   8.629  68.771  1.00  0.00     0.000 HD 
BRANCH  12  14
HETATM   14  C   UNL     1      -7.059   9.755  69.801  1.00  0.00    -0.095 C  
BRANCH  14  15
HETATM   15  C   UNL     1      -7.510   9.116  71.136  1.00  0.00    -0.063 C  
HETATM   16  H   UNL     1      -6.886   7.667  72.315  1.00  0.00     0.000 HD 
HETATM   17  O   UNL     1      -6.610   8.060  71.495  1.00  0.00    -0.041 OA 
BRANCH  15  18
HETATM   18  C   UNL     1      -8.951   8.650  71.153  1.00  0.00    -0.253 A  
HETATM   19  C   UNL     1      -9.235   7.299  71.426  1.00  0.00    -0.145 A  
HETATM   20  C   UNL     1     -10.550   6.822  71.428  1.00  0.00    -0.221 A  
HETATM   21  H   UNL     1     -13.602   7.948  70.931  1.00  0.00     0.000 HD 
HETATM   22  C   UNL     1     -11.589   7.726  71.171  1.00  0.00    -0.281 A  
HETATM   23  C   UNL     1     -10.014   9.533  70.920  1.00  0.00    -0.308 A  
HETATM   24  C   UNL     1     -11.329   9.071  70.929  1.00  0.00    -0.351 A  
HETATM   25  O   UNL     1     -12.897   7.335  71.105  1.00  0.00    -0.351 OA 
BRANCH  20  26
HETATM   26  N   UNL     1     -10.858   5.475  71.695  1.00  0.00    -0.233 N  
HETATM   27  H   UNL     1     -11.780   5.153  71.400  1.00  0.00     0.000 HD 
HETATM   28  O   UNL     1     -10.430   3.399  72.502  1.00  0.00    -0.146 OA 
HETATM   29  C   UNL     1     -10.060   4.549  72.306  1.00  0.00    -0.191 C  
ENDBRANCH  20  26
ENDBRANCH  15  18
ENDBRANCH  14  15
ENDBRANCH  12  14
ENDBRANCH  10  12
ENDBRANCH   9  10
ENDBRANCH   6   9
ENDBRANCH   2   3
TORSDOF 8
ENDMDL
MODEL      343
REMARK 921   NORMALIZED FREE ENERGY PREDICTED BY IDOCK:   -3.37 KCAL/MOL
REMARK 922        TOTAL FREE ENERGY PREDICTED BY IDOCK:   -6.60 KCAL/MOL
REMARK 923 INTER-LIGAND FREE ENERGY PREDICTED BY IDOCK:   -5.64 KCAL/MOL
REMARK 924 INTRA-LIGAND FREE ENERGY PREDICTED BY IDOCK:   -0.96 KCAL/MOL
REMARK 927      BINDING AFFINITY PREDICTED BY RF-SCORE:    0.00 PKD
ROOT
HETATM    1  C   UNL     1      -8.444   3.849  63.071  1.00  0.00    -0.088 C  
HETATM    2  O   UNL     1      -8.119   4.098  64.432  1.00  0.00    -0.088 OA 
ENDROOT
BRANCH   2   3
HETATM    3  C   UNL     1      -8.346   5.365  64.894  1.00  0.00    -0.142 A  
HETATM    4  C   UNL     1      -8.875   5.702  66.139  1.00  0.00    -0.142 A  
HETATM    5  C   UNL     1      -9.113   7.042  66.465  1.00  0.00    -0.183 A  
HETATM    6  C   UNL     1      -8.812   8.062  65.553  1.00  0.00    -0.102 A  
HETATM    7  C   UNL     1      -8.014   6.381  63.998  1.00  0.00    -0.090 A  
HETATM    8  C   UNL     1      -8.246   7.718  64.321  1.00  0.00    -0.030 A  
BRANCH   6   9
HETATM    9  C   UNL     1      -9.214   9.494  65.816  1.00  0.00    -0.267 C  
BRANCH   9  10
HETATM   10  C   UNL     1      -8.405  10.256  66.891  1.00  0.00    -0.123 C  
HETATM   11  C   UNL     1      -6.912  10.282  66.537  1.00  0.00    -0.107 C  
BRANCH  10  12
HETATM   12  N   UNL     1      -8.841  11.659  67.036  1.00  0.00    -0.171 NA 
HETATM   13  H   UNL     1      -9.557  11.888  66.346  1.00  0.00     0.000 HD 
BRANCH  12  14
HETATM   14  C   UNL     1      -9.301  11.992  68.395  1.00  0.00    -0.175 C  
BRANCH  14  15
HETATM   15  C   UNL     1     -10.836  12.153  68.511  1.00  0.00    -0.236 C  
HETATM   16  H   UNL     1     -12.110  13.640  68.713  1.00  0.00     0.000 HD 
HETATM   17  O   UNL     1     -11.168  13.541  68.641  1.00  0.00    -0.249 OA 
BRANCH  15  18
HETATM   18  C   UNL     1     -11.472  11.322  69.606  1.00  0.00    -0.380 A  
HETATM   19  C   UNL     1     -11.253   9.933  69.633  1.00  0.00    -0.251 A  
HETATM   20  C   UNL     1     -11.843   9.126  70.612  1.00  0.00    -0.175 A  
HETATM   21  H   UNL     1     -13.840   9.430  73.210  1.00  0.00     0.000 HD 
HETATM   22  C   UNL     1     -12.644   9.735  71.587  1.00  0.00    -0.416 A  
HETATM   23  C   UNL     1     -12.263  11.904  70.607  1.00  0.00    -0.424 A  
HETATM   24  C   UNL     1     -12.847  11.112  71.593  1.00  0.00    -0.524 A  
HETATM   25  O   UNL     1     -13.296   9.016  72.549  1.00  0.00    -0.453 OA 
BRANCH  20  26
HETATM   26  N   UNL     1     -11.641   7.734  70.657  1.00  0.00    -0.399 N  
HETATM   27  H   UNL     1     -12.470   7.152  70.544  1.00  0.00     0.000 HD 
HETATM   28  O   UNL     1     -10.391   5.854  70.870  1.00  0.00    -0.209 OA 
HETATM   29  C   UNL     1     -10.456   7.075  70.835  1.00  0.00    -0.214 C  
ENDBRANCH  20  26
ENDBRANCH  15  18
ENDBRANCH  14  15
ENDBRANCH  12  14
ENDBRANCH  10  12
ENDBRANCH   9  10
ENDBRANCH   6   9
ENDBRANCH   2   3
TORSDOF 8
ENDMDL
MODEL      344
REMARK 921   NORMALIZED FREE ENERGY PREDICTED BY IDOCK:   -3.36 KCAL/MOL
REMARK 922        TOTAL FREE ENERGY PREDICTED BY IDOCK:   -6.59 KCAL/MOL
REMARK 923 INTER-LIGAND FREE ENERGY PREDICTED BY IDOCK:   -5.97 KCAL/MOL
REMARK 924 INTRA-LIGAND FREE ENERGY PREDICTED BY IDOCK:   -0.62 KCAL/MOL
REMARK 927      BINDING AFFINITY PREDICTED BY RF-SCORE:    0.00 PKD
ROOT
HETATM    1  C   UNL     1      -5.485  15.279  71.056  1.00  0.00    -0.050 C  
HETATM    2  O   UNL     1      -5.490  16.288  70.054  1.00  0.00    -0.150 OA 
ENDROOT
BRANCH   2   3
HETATM    3  C   UNL     1      -6.610  16.372  69.275  1.00  0.00    -0.206 A  
HETATM    4  C   UNL     1      -7.002  17.475  68.516  1.00  0.00    -0.214 A  
HETATM    5  C   UNL     1      -8.208  17.452  67.808  1.00  0.00    -0.216 A  
HETATM    6  C   UNL     1      -9.031  16.318  67.838  1.00  0.00    -0.187 A  
HETATM    7  C   UNL     1      -7.412  15.230  69.279  1.00  0.00    -0.200 A  
HETATM    8  C   UNL     1      -8.613  15.201  68.570  1.00  0.00    -0.163 A  
BRANCH   6   9
HETATM    9  C   UNL     1     -10.409  16.333  67.221  1.00  0.00    -0.285 C  
BRANCH   9  10
HETATM   10  C   UNL     1     -10.534  15.764  65.788  1.00  0.00    -0.367 C  
HETATM   11  C   UNL     1      -9.433  14.733  65.510  1.00  0.00    -0.015 C  
BRANCH  10  12
HETATM   12  N   UNL     1     -11.828  15.090  65.559  1.00  0.00    -0.153 NA 
HETATM   13  H   UNL     1     -11.828  14.601  64.665  1.00  0.00     0.000 HD 
BRANCH  12  14
HETATM   14  C   UNL     1     -12.216  14.182  66.652  1.00  0.00    -0.418 C  
BRANCH  14  15
HETATM   15  C   UNL     1     -11.761  12.719  66.437  1.00  0.00    -0.403 C  
HETATM   16  H   UNL     1     -12.391  11.156  65.419  1.00  0.00     0.000 HD 
HETATM   17  O   UNL     1     -12.671  12.055  65.551  1.00  0.00    -0.123 OA 
BRANCH  15  18
HETATM   18  C   UNL     1     -11.552  11.932  67.714  1.00  0.00    -0.393 A  
HETATM   19  C   UNL     1     -11.016  10.634  67.643  1.00  0.00    -0.370 A  
HETATM   20  C   UNL     1     -10.830   9.863  68.797  1.00  0.00    -0.208 A  
HETATM   21  H   UNL     1     -11.298  10.102  72.046  1.00  0.00     0.000 HD 
HETATM   22  C   UNL     1     -11.171  10.422  70.036  1.00  0.00    -0.316 A  
HETATM   23  C   UNL     1     -11.864  12.470  68.970  1.00  0.00    -0.344 A  
HETATM   24  C   UNL     1     -11.674  11.717  70.127  1.00  0.00    -0.354 A  
HETATM   25  O   UNL     1     -11.067   9.723  71.205  1.00  0.00    -0.355 OA 
BRANCH  20  26
HETATM   26  N   UNL     1     -10.298   8.561  68.751  1.00  0.00    -0.217 N  
HETATM   27  H   UNL     1     -10.614   7.917  69.475  1.00  0.00     0.000 HD 
HETATM   28  O   UNL     1      -8.995   6.913  67.899  1.00  0.00    -0.123 OA 
HETATM   29  C   UNL     1      -9.405   8.064  67.844  1.00  0.00    -0.138 C  
ENDBRANCH  20  26
ENDBRANCH  15  18
ENDBRANCH  14  15
ENDBRANCH  12  14
ENDBRANCH  10  12
ENDBRANCH   9  10
ENDBRANCH   6   9
ENDBRANCH   2   3
TORSDOF 8
ENDMDL
MODEL      345
REMARK 921   NORMALIZED FREE ENERGY PREDICTED BY IDOCK:   -3.36 KCAL/MOL
REMARK 922        TOTAL FREE ENERGY PREDICTED BY IDOCK:   -6.59 KCAL/MOL
REMARK 923 INTER-LIGAND FREE ENERGY PREDICTED BY IDOCK:   -5.81 KCAL/MOL
REMARK 924 INTRA-LIGAND FREE ENERGY PREDICTED BY IDOCK:   -0.78 KCAL/MOL
REMARK 927      BINDING AFFINITY PREDICTED BY RF-SCORE:    0.00 PKD
ROOT
HETATM    1  C   UNL     1      -9.492   7.215  70.014  1.00  0.00    -0.164 C  
HETATM    2  O   UNL     1      -8.923   8.509  69.862  1.00  0.00    -0.141 OA 
ENDROOT
BRANCH   2   3
HETATM    3  C   UNL     1      -9.621   9.399  69.094  1.00  0.00    -0.163 A  
HETATM    4  C   UNL     1      -9.916   9.258  67.738  1.00  0.00    -0.235 A  
HETATM    5  C   UNL     1     -10.587  10.276  67.053  1.00  0.00    -0.302 A  
HETATM    6  C   UNL     1     -10.986  11.442  67.720  1.00  0.00    -0.301 A  
HETATM    7  C   UNL     1     -10.045  10.544  69.767  1.00  0.00    -0.126 A  
HETATM    8  C   UNL     1     -10.720  11.560  69.089  1.00  0.00    -0.210 A  
BRANCH   6   9
HETATM    9  C   UNL     1     -11.560  12.619  66.967  1.00  0.00    -0.431 C  
BRANCH   9  10
HETATM   10  C   UNL     1     -11.158  12.755  65.480  1.00  0.00    -0.285 C  
HETATM   11  C   UNL     1     -12.353  12.471  64.561  1.00  0.00    -0.545 C  
BRANCH  10  12
HETATM   12  N   UNL     1     -10.668  14.109  65.151  1.00  0.00    -0.363 NA 
HETATM   13  H   UNL     1     -11.316  14.585  64.524  1.00  0.00     0.000 HD 
BRANCH  12  14
HETATM   14  C   UNL     1     -10.388  14.935  66.337  1.00  0.00    -0.286 C  
BRANCH  14  15
HETATM   15  C   UNL     1      -8.880  15.091  66.646  1.00  0.00    -0.272 C  
HETATM   16  H   UNL     1      -7.654  14.580  68.100  1.00  0.00     0.000 HD 
HETATM   17  O   UNL     1      -8.580  14.485  67.910  1.00  0.00    -0.148 OA 
BRANCH  15  18
HETATM   18  C   UNL     1      -8.369  16.515  66.576  1.00  0.00    -0.327 A  
HETATM   19  C   UNL     1      -9.067  17.532  67.252  1.00  0.00    -0.240 A  
HETATM   20  C   UNL     1      -8.642  18.864  67.193  1.00  0.00    -0.280 A  
HETATM   21  H   UNL     1      -6.249  20.650  65.810  1.00  0.00     0.000 HD 
HETATM   22  C   UNL     1      -7.488  19.166  66.458  1.00  0.00    -0.245 A  
HETATM   23  C   UNL     1      -7.206  16.846  65.866  1.00  0.00     0.297 A  
HETATM   24  C   UNL     1      -6.768  18.168  65.808  1.00  0.00    -0.308 A  
HETATM   25  O   UNL     1      -7.032  20.445  66.308  1.00  0.00    -0.252 OA 
BRANCH  20  26
HETATM   26  N   UNL     1      -9.326  19.899  67.859  1.00  0.00    -0.343 N  
HETATM   27  H   UNL     1      -9.322  20.811  67.404  1.00  0.00     0.000 HD 
HETATM   28  O   UNL     1     -10.549  20.785  69.550  1.00  0.00     0.218 OA 
HETATM   29  C   UNL     1      -9.994  19.817  69.049  1.00  0.00    -0.355 C  
ENDBRANCH  20  26
ENDBRANCH  15  18
ENDBRANCH  14  15
ENDBRANCH  12  14
ENDBRANCH  10  12
ENDBRANCH   9  10
ENDBRANCH   6   9
ENDBRANCH   2   3
TORSDOF 8
ENDMDL
MODEL      346
REMARK 921   NORMALIZED FREE ENERGY PREDICTED BY IDOCK:   -3.35 KCAL/MOL
REMARK 922        TOTAL FREE ENERGY PREDICTED BY IDOCK:   -6.58 KCAL/MOL
REMARK 923 INTER-LIGAND FREE ENERGY PREDICTED BY IDOCK:   -6.09 KCAL/MOL
REMARK 924 INTRA-LIGAND FREE ENERGY PREDICTED BY IDOCK:   -0.49 KCAL/MOL
REMARK 927      BINDING AFFINITY PREDICTED BY RF-SCORE:    0.00 PKD
ROOT
HETATM    1  C   UNL     1     -11.839  15.717  72.392  1.00  0.00    -0.501 C  
HETATM    2  O   UNL     1     -12.204  16.075  71.066  1.00  0.00    -0.407 OA 
ENDROOT
BRANCH   2   3
HETATM    3  C   UNL     1     -12.105  15.095  70.118  1.00  0.00    -0.343 A  
HETATM    4  C   UNL     1     -12.150  13.721  70.349  1.00  0.00    -0.421 A  
HETATM    5  C   UNL     1     -11.974  12.821  69.293  1.00  0.00    -0.300 A  
HETATM    6  C   UNL     1     -11.765  13.286  67.988  1.00  0.00    -0.394 A  
HETATM    7  C   UNL     1     -11.929  15.560  68.814  1.00  0.00    -0.265 A  
HETATM    8  C   UNL     1     -11.759  14.666  67.757  1.00  0.00    -0.386 A  
BRANCH   6   9
HETATM    9  C   UNL     1     -11.408  12.340  66.866  1.00  0.00    -0.392 C  
BRANCH   9  10
HETATM   10  C   UNL     1     -10.090  12.625  66.109  1.00  0.00    -0.257 C  
HETATM   11  C   UNL     1     -10.185  13.937  65.320  1.00  0.00    -0.366 C  
BRANCH  10  12
HETATM   12  N   UNL     1      -8.933  12.747  67.018  1.00  0.00    -0.216 NA 
HETATM   13  H   UNL     1      -9.240  12.957  67.968  1.00  0.00     0.000 HD 
BRANCH  12  14
HETATM   14  C   UNL     1      -8.049  11.569  67.003  1.00  0.00    -0.161 C  
BRANCH  14  15
HETATM   15  C   UNL     1      -7.729  11.013  68.411  1.00  0.00    -0.119 C  
HETATM   16  H   UNL     1      -6.112  10.596  69.453  1.00  0.00     0.000 HD 
HETATM   17  O   UNL     1      -6.309  10.937  68.589  1.00  0.00    -0.049 OA 
BRANCH  15  18
HETATM   18  C   UNL     1      -8.402   9.695  68.733  1.00  0.00    -0.111 A  
HETATM   19  C   UNL     1      -8.173   8.583  67.901  1.00  0.00    -0.119 A  
HETATM   20  C   UNL     1      -8.794   7.354  68.149  1.00  0.00    -0.127 A  
HETATM   21  H   UNL     1     -10.895   6.021  70.303  1.00  0.00     0.000 HD 
HETATM   22  C   UNL     1      -9.639   7.244  69.262  1.00  0.00    -0.156 A  
HETATM   23  C   UNL     1      -9.236   9.547  69.849  1.00  0.00    -0.242 A  
HETATM   24  C   UNL     1      -9.852   8.325  70.112  1.00  0.00    -0.184 A  
HETATM   25  O   UNL     1     -10.323   6.096  69.548  1.00  0.00    -0.183 OA 
BRANCH  20  26
HETATM   26  N   UNL     1      -8.583   6.229  67.330  1.00  0.00    -0.108 N  
HETATM   27  H   UNL     1      -8.036   5.469  67.735  1.00  0.00     0.000 HD 
HETATM   28  O   UNL     1      -8.778   5.024  65.419  1.00  0.00    -0.136 OA 
HETATM   29  C   UNL     1      -9.028   6.040  66.052  1.00  0.00    -0.147 C  
ENDBRANCH  20  26
ENDBRANCH  15  18
ENDBRANCH  14  15
ENDBRANCH  12  14
ENDBRANCH  10  12
ENDBRANCH   9  10
ENDBRANCH   6   9
ENDBRANCH   2   3
TORSDOF 8
ENDMDL
MODEL      347
REMARK 921   NORMALIZED FREE ENERGY PREDICTED BY IDOCK:   -3.33 KCAL/MOL
REMARK 922        TOTAL FREE ENERGY PREDICTED BY IDOCK:   -6.55 KCAL/MOL
REMARK 923 INTER-LIGAND FREE ENERGY PREDICTED BY IDOCK:   -4.78 KCAL/MOL
REMARK 924 INTRA-LIGAND FREE ENERGY PREDICTED BY IDOCK:   -1.77 KCAL/MOL
REMARK 927      BINDING AFFINITY PREDICTED BY RF-SCORE:    0.00 PKD
ROOT
HETATM    1  C   UNL     1      -7.096  10.356  66.294  1.00  0.00    -0.123 C  
HETATM    2  O   UNL     1      -6.845   9.114  66.939  1.00  0.00    -0.078 OA 
ENDROOT
BRANCH   2   3
HETATM    3  C   UNL     1      -7.257   9.005  68.239  1.00  0.00    -0.078 A  
HETATM    4  C   UNL     1      -7.800  10.027  69.016  1.00  0.00    -0.101 A  
HETATM    5  C   UNL     1      -8.125   9.797  70.357  1.00  0.00    -0.134 A  
HETATM    6  C   UNL     1      -7.923   8.535  70.933  1.00  0.00    -0.120 A  
HETATM    7  C   UNL     1      -7.086   7.740  68.801  1.00  0.00    -0.076 A  
HETATM    8  C   UNL     1      -7.413   7.505  70.137  1.00  0.00    -0.086 A  
BRANCH   6   9
HETATM    9  C   UNL     1      -8.108   8.311  72.415  1.00  0.00    -0.204 C  
BRANCH   9  10
HETATM   10  C   UNL     1      -8.785   6.987  72.839  1.00  0.00    -0.118 C  
HETATM   11  C   UNL     1      -7.809   6.099  73.622  1.00  0.00    -0.094 C  
BRANCH  10  12
HETATM   12  N   UNL     1      -9.962   7.206  73.702  1.00  0.00    -0.292 NA 
HETATM   13  H   UNL     1      -9.827   8.023  74.297  1.00  0.00     0.000 HD 
BRANCH  12  14
HETATM   14  C   UNL     1     -11.227   7.308  72.954  1.00  0.00    -0.292 C  
BRANCH  14  15
HETATM   15  C   UNL     1     -11.649   5.991  72.261  1.00  0.00    -0.307 C  
HETATM   16  H   UNL     1     -11.708   4.079  72.731  1.00  0.00     0.000 HD 
HETATM   17  O   UNL     1     -11.449   4.889  73.156  1.00  0.00    -0.322 OA 
BRANCH  15  18
HETATM   18  C   UNL     1     -10.988   5.747  70.920  1.00  0.00    -0.305 A  
HETATM   19  C   UNL     1     -11.250   6.626  69.854  1.00  0.00    -0.421 A  
HETATM   20  C   UNL     1     -10.680   6.424  68.592  1.00  0.00    -0.285 A  
HETATM   21  H   UNL     1      -8.676   4.291  67.084  1.00  0.00     0.000 HD 
HETATM   22  C   UNL     1      -9.820   5.332  68.415  1.00  0.00    -0.153 A  
HETATM   23  C   UNL     1     -10.108   4.675  70.716  1.00  0.00    -0.264 A  
HETATM   24  C   UNL     1      -9.526   4.469  69.467  1.00  0.00    -0.244 A  
HETATM   25  O   UNL     1      -9.260   5.032  67.204  1.00  0.00    -0.116 OA 
BRANCH  20  26
HETATM   26  N   UNL     1     -10.928   7.288  67.509  1.00  0.00    -0.537 N  
HETATM   27  H   UNL     1     -11.258   6.852  66.648  1.00  0.00     0.000 HD 
HETATM   28  O   UNL     1     -11.012   9.307  66.481  1.00  0.00     0.106 OA 
HETATM   29  C   UNL     1     -10.778   8.646  67.483  1.00  0.00    -0.139 C  
ENDBRANCH  20  26
ENDBRANCH  15  18
ENDBRANCH  14  15
ENDBRANCH  12  14
ENDBRANCH  10  12
ENDBRANCH   9  10
ENDBRANCH   6   9
ENDBRANCH   2   3
TORSDOF 8
ENDMDL
MODEL      348
REMARK 921   NORMALIZED FREE ENERGY PREDICTED BY IDOCK:   -3.32 KCAL/MOL
REMARK 922        TOTAL FREE ENERGY PREDICTED BY IDOCK:   -6.54 KCAL/MOL
REMARK 923 INTER-LIGAND FREE ENERGY PREDICTED BY IDOCK:   -5.17 KCAL/MOL
REMARK 924 INTRA-LIGAND FREE ENERGY PREDICTED BY IDOCK:   -1.37 KCAL/MOL
REMARK 927      BINDING AFFINITY PREDICTED BY RF-SCORE:    0.00 PKD
ROOT
HETATM    1  C   UNL     1      -8.723   3.325  69.418  1.00  0.00    -0.079 C  
HETATM    2  O   UNL     1      -9.413   3.448  70.655  1.00  0.00    -0.150 OA 
ENDROOT
BRANCH   2   3
HETATM    3  C   UNL     1     -10.197   4.557  70.811  1.00  0.00    -0.094 A  
HETATM    4  C   UNL     1     -10.830   5.266  69.791  1.00  0.00    -0.022 A  
HETATM    5  C   UNL     1     -11.556   6.425  70.082  1.00  0.00    -0.449 A  
HETATM    6  C   UNL     1     -11.671   6.882  71.402  1.00  0.00    -0.358 A  
HETATM    7  C   UNL     1     -10.337   4.992  72.129  1.00  0.00    -0.276 A  
HETATM    8  C   UNL     1     -11.065   6.145  72.425  1.00  0.00    -0.316 A  
BRANCH   6   9
HETATM    9  C   UNL     1     -12.306   8.215  71.718  1.00  0.00    -0.357 C  
BRANCH   9  10
HETATM   10  C   UNL     1     -11.512   9.478  71.308  1.00  0.00    -0.377 C  
HETATM   11  C   UNL     1     -10.001   9.227  71.398  1.00  0.00    -0.323 C  
BRANCH  10  12
HETATM   12  N   UNL     1     -11.801   9.900  69.923  1.00  0.00    -0.456 NA 
HETATM   13  H   UNL     1     -12.654  10.457  69.886  1.00  0.00     0.000 HD 
BRANCH  12  14
HETATM   14  C   UNL     1     -10.683  10.615  69.283  1.00  0.00    -0.238 C  
BRANCH  14  15
HETATM   15  C   UNL     1     -10.502  10.275  67.785  1.00  0.00    -0.226 C  
HETATM   16  H   UNL     1     -11.669  10.040  66.217  1.00  0.00     0.000 HD 
HETATM   17  O   UNL     1     -11.780  10.249  67.137  1.00  0.00     0.130 OA 
BRANCH  15  18
HETATM   18  C   UNL     1      -9.716   9.007  67.520  1.00  0.00    -0.206 A  
HETATM   19  C   UNL     1     -10.375   7.890  66.974  1.00  0.00    -0.411 A  
HETATM   20  C   UNL     1      -9.693   6.692  66.736  1.00  0.00    -0.169 A  
HETATM   21  H   UNL     1      -6.667   5.444  67.084  1.00  0.00     0.000 HD 
HETATM   22  C   UNL     1      -8.326   6.630  67.036  1.00  0.00    -0.113 A  
HETATM   23  C   UNL     1      -8.344   8.920  67.790  1.00  0.00    -0.110 A  
HETATM   24  C   UNL     1      -7.652   7.735  67.549  1.00  0.00    -0.109 A  
HETATM   25  O   UNL     1      -7.595   5.486  66.881  1.00  0.00    -0.090 OA 
BRANCH  20  26
HETATM   26  N   UNL     1     -10.331   5.561  66.193  1.00  0.00    -0.431 N  
HETATM   27  H   UNL     1     -11.016   5.097  66.789  1.00  0.00     0.000 HD 
HETATM   28  O   UNL     1     -10.737   4.018  64.582  1.00  0.00    -0.260 OA 
HETATM   29  C   UNL     1     -10.136   5.015  64.955  1.00  0.00     0.322 C  
ENDBRANCH  20  26
ENDBRANCH  15  18
ENDBRANCH  14  15
ENDBRANCH  12  14
ENDBRANCH  10  12
ENDBRANCH   9  10
ENDBRANCH   6   9
ENDBRANCH   2   3
TORSDOF 8
ENDMDL
MODEL      349
REMARK 921   NORMALIZED FREE ENERGY PREDICTED BY IDOCK:   -3.31 KCAL/MOL
REMARK 922        TOTAL FREE ENERGY PREDICTED BY IDOCK:   -6.52 KCAL/MOL
REMARK 923 INTER-LIGAND FREE ENERGY PREDICTED BY IDOCK:   -5.62 KCAL/MOL
REMARK 924 INTRA-LIGAND FREE ENERGY PREDICTED BY IDOCK:   -0.90 KCAL/MOL
REMARK 927      BINDING AFFINITY PREDICTED BY RF-SCORE:    0.00 PKD
ROOT
HETATM    1  C   UNL     1     -12.325  15.395  64.170  1.00  0.00     0.004 C  
HETATM    2  O   UNL     1     -12.463  14.038  63.767  1.00  0.00    -0.753 OA 
ENDROOT
BRANCH   2   3
HETATM    3  C   UNL     1     -11.576  13.147  64.305  1.00  0.00    -0.392 A  
HETATM    4  C   UNL     1     -10.980  13.238  65.562  1.00  0.00    -0.297 A  
HETATM    5  C   UNL     1     -10.039  12.286  65.967  1.00  0.00    -0.269 A  
HETATM    6  C   UNL     1      -9.694  11.221  65.124  1.00  0.00    -0.285 A  
HETATM    7  C   UNL     1     -11.258  12.069  63.478  1.00  0.00    -0.526 A  
HETATM    8  C   UNL     1     -10.324  11.115  63.880  1.00  0.00    -0.441 A  
BRANCH   6   9
HETATM    9  C   UNL     1      -8.563  10.281  65.472  1.00  0.00    -0.173 C  
BRANCH   9  10
HETATM   10  C   UNL     1      -8.794   9.330  66.669  1.00  0.00    -0.128 C  
HETATM   11  C   UNL     1     -10.095   8.535  66.494  1.00  0.00    -0.328 C  
BRANCH  10  12
HETATM   12  N   UNL     1      -7.703   8.348  66.828  1.00  0.00    -0.090 NA 
HETATM   13  H   UNL     1      -6.937   8.552  66.186  1.00  0.00     0.000 HD 
BRANCH  12  14
HETATM   14  C   UNL     1      -7.210   8.239  68.212  1.00  0.00    -0.093 C  
BRANCH  14  15
HETATM   15  C   UNL     1      -7.503   6.871  68.872  1.00  0.00    -0.096 C  
HETATM   16  H   UNL     1      -8.011   5.068  68.268  1.00  0.00     0.000 HD 
HETATM   17  O   UNL     1      -7.831   5.908  67.863  1.00  0.00    -0.102 OA 
BRANCH  15  18
HETATM   18  C   UNL     1      -8.552   6.914  69.964  1.00  0.00    -0.141 A  
HETATM   19  C   UNL     1      -8.601   5.875  70.912  1.00  0.00    -0.131 A  
HETATM   20  C   UNL     1      -9.570   5.863  71.922  1.00  0.00    -0.151 A  
HETATM   21  H   UNL     1     -12.111   7.685  72.950  1.00  0.00     0.000 HD 
HETATM   22  C   UNL     1     -10.484   6.923  71.985  1.00  0.00    -0.205 A  
HETATM   23  C   UNL     1      -9.468   7.970  70.066  1.00  0.00    -0.160 A  
HETATM   24  C   UNL     1     -10.430   7.974  71.073  1.00  0.00    -0.229 A  
HETATM   25  O   UNL     1     -11.491   6.965  72.908  1.00  0.00    -0.207 OA 
BRANCH  20  26
HETATM   26  N   UNL     1      -9.641   4.835  72.880  1.00  0.00    -0.130 N  
HETATM   27  H   UNL     1      -9.018   4.920  73.683  1.00  0.00     0.000 HD 
HETATM   28  O   UNL     1     -10.426   2.888  73.737  1.00  0.00    -0.130 OA 
HETATM   29  C   UNL     1     -10.450   3.734  72.854  1.00  0.00    -0.165 C  
ENDBRANCH  20  26
ENDBRANCH  15  18
ENDBRANCH  14  15
ENDBRANCH  12  14
ENDBRANCH  10  12
ENDBRANCH   9  10
ENDBRANCH   6   9
ENDBRANCH   2   3
TORSDOF 8
ENDMDL
MODEL      350
REMARK 921   NORMALIZED FREE ENERGY PREDICTED BY IDOCK:   -3.28 KCAL/MOL
REMARK 922        TOTAL FREE ENERGY PREDICTED BY IDOCK:   -6.47 KCAL/MOL
REMARK 923 INTER-LIGAND FREE ENERGY PREDICTED BY IDOCK:   -4.87 KCAL/MOL
REMARK 924 INTRA-LIGAND FREE ENERGY PREDICTED BY IDOCK:   -1.60 KCAL/MOL
REMARK 927      BINDING AFFINITY PREDICTED BY RF-SCORE:    0.00 PKD
ROOT
HETATM    1  C   UNL     1     -11.712  12.338  67.149  1.00  0.00    -0.326 C  
HETATM    2  O   UNL     1     -11.999  12.371  68.541  1.00  0.00    -0.318 OA 
ENDROOT
BRANCH   2   3
HETATM    3  C   UNL     1     -11.693  11.247  69.256  1.00  0.00    -0.334 A  
HETATM    4  C   UNL     1     -11.964  11.034  70.607  1.00  0.00    -0.464 A  
HETATM    5  C   UNL     1     -11.541   9.858  71.235  1.00  0.00    -0.456 A  
HETATM    6  C   UNL     1     -10.854   8.872  70.514  1.00  0.00    -0.276 A  
HETATM    7  C   UNL     1     -11.038  10.252  68.529  1.00  0.00    -0.294 A  
HETATM    8  C   UNL     1     -10.619   9.075  69.150  1.00  0.00    -0.219 A  
BRANCH   6   9
HETATM    9  C   UNL     1     -10.245   7.676  71.206  1.00  0.00    -0.204 C  
BRANCH   9  10
HETATM   10  C   UNL     1      -9.196   7.969  72.305  1.00  0.00    -0.182 C  
HETATM   11  C   UNL     1      -9.686   7.481  73.674  1.00  0.00    -0.341 C  
BRANCH  10  12
HETATM   12  N   UNL     1      -7.904   7.303  72.043  1.00  0.00    -0.090 NA 
HETATM   13  H   UNL     1      -8.021   6.291  72.007  1.00  0.00     0.000 HD 
BRANCH  12  14
HETATM   14  C   UNL     1      -7.227   7.795  70.831  1.00  0.00    -0.054 C  
BRANCH  14  15
HETATM   15  C   UNL     1      -6.762   6.669  69.877  1.00  0.00    -0.050 C  
HETATM   16  H   UNL     1      -5.170   6.282  68.785  1.00  0.00     0.000 HD 
HETATM   17  O   UNL     1      -5.456   6.973  69.370  1.00  0.00    -0.014 OA 
BRANCH  15  18
HETATM   18  C   UNL     1      -7.734   6.351  68.760  1.00  0.00    -0.101 A  
HETATM   19  C   UNL     1      -7.769   7.178  67.622  1.00  0.00    -0.112 A  
HETATM   20  C   UNL     1      -8.668   6.935  66.578  1.00  0.00    -0.133 A  
HETATM   21  H   UNL     1     -11.049   4.801  65.796  1.00  0.00     0.000 HD 
HETATM   22  C   UNL     1      -9.526   5.832  66.678  1.00  0.00    -0.149 A  
HETATM   23  C   UNL     1      -8.591   5.244  68.821  1.00  0.00    -0.091 A  
HETATM   24  C   UNL     1      -9.484   4.986  67.783  1.00  0.00    -0.159 A  
HETATM   25  O   UNL     1     -10.467   5.550  65.728  1.00  0.00     0.053 OA 
BRANCH  20  26
HETATM   26  N   UNL     1      -8.723   7.749  65.431  1.00  0.00    -0.340 N  
HETATM   27  H   UNL     1      -9.278   8.602  65.507  1.00  0.00     0.000 HD 
HETATM   28  O   UNL     1      -8.239   8.295  63.285  1.00  0.00    -0.158 OA 
HETATM   29  C   UNL     1      -8.117   7.525  64.227  1.00  0.00    -0.064 C  
ENDBRANCH  20  26
ENDBRANCH  15  18
ENDBRANCH  14  15
ENDBRANCH  12  14
ENDBRANCH  10  12
ENDBRANCH   9  10
ENDBRANCH   6   9
ENDBRANCH   2   3
TORSDOF 8
ENDMDL
MODEL      351
REMARK 921   NORMALIZED FREE ENERGY PREDICTED BY IDOCK:   -3.26 KCAL/MOL
REMARK 922        TOTAL FREE ENERGY PREDICTED BY IDOCK:   -6.44 KCAL/MOL
REMARK 923 INTER-LIGAND FREE ENERGY PREDICTED BY IDOCK:   -5.02 KCAL/MOL
REMARK 924 INTRA-LIGAND FREE ENERGY PREDICTED BY IDOCK:   -1.42 KCAL/MOL
REMARK 927      BINDING AFFINITY PREDICTED BY RF-SCORE:    0.00 PKD
ROOT
HETATM    1  C   UNL     1     -12.459   9.473  71.719  1.00  0.00    -0.401 C  
HETATM    2  O   UNL     1     -12.252   8.337  72.547  1.00  0.00    -0.370 OA 
ENDROOT
BRANCH   2   3
HETATM    3  C   UNL     1     -11.701   7.236  71.951  1.00  0.00    -0.287 A  
HETATM    4  C   UNL     1     -11.283   6.075  72.599  1.00  0.00    -0.326 A  
HETATM    5  C   UNL     1     -10.676   5.043  71.876  1.00  0.00    -0.181 A  
HETATM    6  C   UNL     1     -10.493   5.155  70.491  1.00  0.00    -0.278 A  
HETATM    7  C   UNL     1     -11.549   7.336  70.568  1.00  0.00    -0.292 A  
HETATM    8  C   UNL     1     -10.949   6.307  69.842  1.00  0.00    -0.435 A  
BRANCH   6   9
HETATM    9  C   UNL     1      -9.693   4.131  69.720  1.00  0.00    -0.278 C  
BRANCH   9  10
HETATM   10  C   UNL     1      -8.191   4.435  69.513  1.00  0.00    -0.059 C  
HETATM   11  C   UNL     1      -7.321   3.501  70.363  1.00  0.00    -0.041 C  
BRANCH  10  12
HETATM   12  N   UNL     1      -7.770   4.263  68.108  1.00  0.00    -0.075 NA 
HETATM   13  H   UNL     1      -8.531   3.882  67.546  1.00  0.00     0.000 HD 
BRANCH  12  14
HETATM   14  C   UNL     1      -7.240   5.496  67.500  1.00  0.00    -0.075 C  
BRANCH  14  15
HETATM   15  C   UNL     1      -8.240   6.676  67.513  1.00  0.00    -0.122 C  
HETATM   16  H   UNL     1      -9.183   7.770  66.175  1.00  0.00     0.000 HD 
HETATM   17  O   UNL     1      -8.569   7.045  66.167  1.00  0.00    -0.132 OA 
BRANCH  15  18
HETATM   18  C   UNL     1      -7.788   7.873  68.324  1.00  0.00    -0.120 A  
HETATM   19  C   UNL     1      -8.593   9.026  68.356  1.00  0.00    -0.130 A  
HETATM   20  C   UNL     1      -8.201  10.163  69.073  1.00  0.00    -0.132 A  
HETATM   21  H   UNL     1      -5.692  11.175  70.946  1.00  0.00     0.000 HD 
HETATM   22  C   UNL     1      -6.993  10.122  69.781  1.00  0.00    -0.118 A  
HETATM   23  C   UNL     1      -6.595   7.857  69.059  1.00  0.00    -0.044 A  
HETATM   24  C   UNL     1      -6.199   8.979  69.785  1.00  0.00    -0.038 A  
HETATM   25  O   UNL     1      -6.512  11.203  70.466  1.00  0.00    -0.306 OA 
BRANCH  20  26
HETATM   26  N   UNL     1      -8.988  11.329  69.118  1.00  0.00    -0.391 N  
HETATM   27  H   UNL     1      -9.726  11.350  69.820  1.00  0.00     0.000 HD 
HETATM   28  O   UNL     1      -9.619  13.398  68.438  1.00  0.00    -0.217 OA 
HETATM   29  C   UNL     1      -8.873  12.436  68.324  1.00  0.00    -0.174 C  
ENDBRANCH  20  26
ENDBRANCH  15  18
ENDBRANCH  14  15
ENDBRANCH  12  14
ENDBRANCH  10  12
ENDBRANCH   9  10
ENDBRANCH   6   9
ENDBRANCH   2   3
TORSDOF 8
ENDMDL
MODEL      352
REMARK 921   NORMALIZED FREE ENERGY PREDICTED BY IDOCK:   -3.25 KCAL/MOL
REMARK 922        TOTAL FREE ENERGY PREDICTED BY IDOCK:   -6.43 KCAL/MOL
REMARK 923 INTER-LIGAND FREE ENERGY PREDICTED BY IDOCK:   -5.80 KCAL/MOL
REMARK 924 INTRA-LIGAND FREE ENERGY PREDICTED BY IDOCK:   -0.64 KCAL/MOL
REMARK 927      BINDING AFFINITY PREDICTED BY RF-SCORE:    0.00 PKD
ROOT
HETATM    1  C   UNL     1     -11.603   6.329  70.618  1.00  0.00    -0.281 C  
HETATM    2  O   UNL     1     -11.499   6.096  69.220  1.00  0.00    -0.404 OA 
ENDROOT
BRANCH   2   3
HETATM    3  C   UNL     1     -10.475   6.726  68.568  1.00  0.00    -0.204 A  
HETATM    4  C   UNL     1      -9.132   6.713  68.943  1.00  0.00    -0.132 A  
HETATM    5  C   UNL     1      -8.191   7.454  68.220  1.00  0.00    -0.125 A  
HETATM    6  C   UNL     1      -8.581   8.206  67.103  1.00  0.00    -0.124 A  
HETATM    7  C   UNL     1     -10.859   7.447  67.438  1.00  0.00    -0.299 A  
HETATM    8  C   UNL     1      -9.923   8.183  66.711  1.00  0.00    -0.349 A  
BRANCH   6   9
HETATM    9  C   UNL     1      -7.616   9.141  66.412  1.00  0.00    -0.093 C  
BRANCH   9  10
HETATM   10  C   UNL     1      -7.209  10.416  67.187  1.00  0.00    -0.091 C  
HETATM   11  C   UNL     1      -6.260  11.284  66.352  1.00  0.00    -0.106 C  
BRANCH  10  12
HETATM   12  N   UNL     1      -8.371  11.256  67.539  1.00  0.00    -0.128 NA 
HETATM   13  H   UNL     1      -8.194  11.775  68.399  1.00  0.00     0.000 HD 
BRANCH  12  14
HETATM   14  C   UNL     1      -8.786  12.165  66.457  1.00  0.00    -0.114 C  
BRANCH  14  15
HETATM   15  C   UNL     1     -10.246  12.660  66.584  1.00  0.00    -0.236 C  
HETATM   16  H   UNL     1     -11.758  12.994  65.368  1.00  0.00     0.000 HD 
HETATM   17  O   UNL     1     -10.861  12.690  65.290  1.00  0.00    -0.277 OA 
BRANCH  15  18
HETATM   18  C   UNL     1     -10.400  13.983  67.306  1.00  0.00    -0.264 A  
HETATM   19  C   UNL     1      -9.942  15.161  66.688  1.00  0.00    -0.261 A  
HETATM   20  C   UNL     1     -10.042  16.401  67.330  1.00  0.00    -0.270 A  
HETATM   21  H   UNL     1     -11.124  17.643  70.179  1.00  0.00     0.000 HD 
HETATM   22  C   UNL     1     -10.631  16.450  68.600  1.00  0.00    -0.305 A  
HETATM   23  C   UNL     1     -11.002  14.068  68.568  1.00  0.00    -0.274 A  
HETATM   24  C   UNL     1     -11.117  15.298  69.213  1.00  0.00    -0.277 A  
HETATM   25  O   UNL     1     -10.725  17.610  69.317  1.00  0.00    -0.098 OA 
BRANCH  20  26
HETATM   26  N   UNL     1      -9.589  17.592  66.733  1.00  0.00    -0.283 N  
HETATM   27  H   UNL     1      -8.579  17.734  66.715  1.00  0.00     0.000 HD 
HETATM   28  O   UNL     1      -9.855  19.588  65.691  1.00  0.00    -0.380 OA 
HETATM   29  C   UNL     1     -10.351  18.581  66.176  1.00  0.00    -0.426 C  
ENDBRANCH  20  26
ENDBRANCH  15  18
ENDBRANCH  14  15
ENDBRANCH  12  14
ENDBRANCH  10  12
ENDBRANCH   9  10
ENDBRANCH   6   9
ENDBRANCH   2   3
TORSDOF 8
ENDMDL
MODEL      353
REMARK 921   NORMALIZED FREE ENERGY PREDICTED BY IDOCK:   -3.24 KCAL/MOL
REMARK 922        TOTAL FREE ENERGY PREDICTED BY IDOCK:   -6.41 KCAL/MOL
REMARK 923 INTER-LIGAND FREE ENERGY PREDICTED BY IDOCK:   -5.52 KCAL/MOL
REMARK 924 INTRA-LIGAND FREE ENERGY PREDICTED BY IDOCK:   -0.89 KCAL/MOL
REMARK 927      BINDING AFFINITY PREDICTED BY RF-SCORE:    0.00 PKD
ROOT
HETATM    1  C   UNL     1      -5.597   9.689  65.178  1.00  0.00    -0.057 C  
HETATM    2  O   UNL     1      -5.700   9.595  66.593  1.00  0.00    -0.052 OA 
ENDROOT
BRANCH   2   3
HETATM    3  C   UNL     1      -6.181  10.696  67.246  1.00  0.00    -0.056 A  
HETATM    4  C   UNL     1      -7.406  10.789  67.905  1.00  0.00    -0.088 A  
HETATM    5  C   UNL     1      -7.806  11.998  68.483  1.00  0.00    -0.129 A  
HETATM    6  C   UNL     1      -6.977  13.127  68.422  1.00  0.00    -0.104 A  
HETATM    7  C   UNL     1      -5.340  11.809  67.212  1.00  0.00    -0.100 A  
HETATM    8  C   UNL     1      -5.733  13.015  67.793  1.00  0.00    -0.134 A  
BRANCH   6   9
HETATM    9  C   UNL     1      -7.458  14.480  68.891  1.00  0.00    -0.133 C  
BRANCH   9  10
HETATM   10  C   UNL     1      -8.824  14.958  68.346  1.00  0.00    -0.178 C  
HETATM   11  C   UNL     1      -9.814  15.207  69.491  1.00  0.00    -0.191 C  
BRANCH  10  12
HETATM   12  N   UNL     1      -8.717  16.218  67.583  1.00  0.00    -0.181 NA 
HETATM   13  H   UNL     1      -8.051  16.121  66.816  1.00  0.00     0.000 HD 
BRANCH  12  14
HETATM   14  C   UNL     1     -10.012  16.716  67.090  1.00  0.00    -0.268 C  
BRANCH  14  15
HETATM   15  C   UNL     1     -10.242  16.467  65.581  1.00  0.00    -0.324 C  
HETATM   16  H   UNL     1     -10.969  17.476  64.055  1.00  0.00     0.000 HD 
HETATM   17  O   UNL     1     -10.827  17.630  64.982  1.00  0.00    -0.758 OA 
BRANCH  15  18
HETATM   18  C   UNL     1     -11.038  15.217  65.266  1.00  0.00    -0.389 A  
HETATM   19  C   UNL     1     -11.197  14.233  66.259  1.00  0.00    -0.337 A  
HETATM   20  C   UNL     1     -11.903  13.052  66.001  1.00  0.00    -0.417 A  
HETATM   21  H   UNL     1     -13.523  11.617  63.522  1.00  0.00     0.000 HD 
HETATM   22  C   UNL     1     -12.473  12.877  64.733  1.00  0.00    -0.455 A  
HETATM   23  C   UNL     1     -11.637  15.021  64.014  1.00  0.00     0.117 A  
HETATM   24  C   UNL     1     -12.351  13.854  63.749  1.00  0.00    -0.260 A  
HETATM   25  O   UNL     1     -13.136  11.735  64.382  1.00  0.00    -0.371 OA 
BRANCH  20  26
HETATM   26  N   UNL     1     -12.073  12.053  66.977  1.00  0.00    -0.009 N  
HETATM   27  H   UNL     1     -12.583  11.219  66.688  1.00  0.00     0.000 HD 
HETATM   28  O   UNL     1     -11.840  11.152  69.045  1.00  0.00    -0.311 OA 
HETATM   29  C   UNL     1     -11.629  12.074  68.270  1.00  0.00    -0.334 C  
ENDBRANCH  20  26
ENDBRANCH  15  18
ENDBRANCH  14  15
ENDBRANCH  12  14
ENDBRANCH  10  12
ENDBRANCH   9  10
ENDBRANCH   6   9
ENDBRANCH   2   3
TORSDOF 8
ENDMDL
MODEL      354
REMARK 921   NORMALIZED FREE ENERGY PREDICTED BY IDOCK:   -3.23 KCAL/MOL
REMARK 922        TOTAL FREE ENERGY PREDICTED BY IDOCK:   -6.40 KCAL/MOL
REMARK 923 INTER-LIGAND FREE ENERGY PREDICTED BY IDOCK:   -5.41 KCAL/MOL
REMARK 924 INTRA-LIGAND FREE ENERGY PREDICTED BY IDOCK:   -0.99 KCAL/MOL
REMARK 927      BINDING AFFINITY PREDICTED BY RF-SCORE:    0.00 PKD
ROOT
HETATM    1  C   UNL     1     -11.587  12.624  67.319  1.00  0.00    -0.364 C  
HETATM    2  O   UNL     1     -11.933  12.620  68.698  1.00  0.00    -0.304 OA 
ENDROOT
BRANCH   2   3
HETATM    3  C   UNL     1     -11.775  11.437  69.366  1.00  0.00    -0.338 A  
HETATM    4  C   UNL     1     -12.289  11.130  70.624  1.00  0.00    -0.482 A  
HETATM    5  C   UNL     1     -12.001   9.899  71.223  1.00  0.00    -0.489 A  
HETATM    6  C   UNL     1     -11.205   8.954  70.563  1.00  0.00    -0.287 A  
HETATM    7  C   UNL     1     -11.009  10.484  68.692  1.00  0.00    -0.294 A  
HETATM    8  C   UNL     1     -10.724   9.254  69.284  1.00  0.00    -0.211 A  
BRANCH   6   9
HETATM    9  C   UNL     1     -10.745   7.693  71.257  1.00  0.00    -0.248 C  
BRANCH   9  10
HETATM   10  C   UNL     1      -9.635   7.852  72.321  1.00  0.00    -0.195 C  
HETATM   11  C   UNL     1     -10.124   7.382  73.697  1.00  0.00    -0.376 C  
BRANCH  10  12
HETATM   12  N   UNL     1      -8.427   7.066  71.998  1.00  0.00    -0.113 NA 
HETATM   13  H   UNL     1      -8.582   6.075  72.178  1.00  0.00     0.000 HD 
BRANCH  12  14
HETATM   14  C   UNL     1      -7.942   7.277  70.623  1.00  0.00    -0.099 C  
BRANCH  14  15
HETATM   15  C   UNL     1      -7.542   5.971  69.896  1.00  0.00    -0.081 C  
HETATM   16  H   UNL     1      -5.924   5.242  69.045  1.00  0.00     0.000 HD 
HETATM   17  O   UNL     1      -6.169   6.044  69.491  1.00  0.00    -0.027 OA 
BRANCH  15  18
HETATM   18  C   UNL     1      -8.445   5.595  68.740  1.00  0.00    -0.102 A  
HETATM   19  C   UNL     1      -7.910   4.881  67.652  1.00  0.00    -0.094 A  
HETATM   20  C   UNL     1      -8.704   4.535  66.552  1.00  0.00    -0.112 A  
HETATM   21  H   UNL     1     -11.808   4.889  65.519  1.00  0.00     0.000 HD 
HETATM   22  C   UNL     1     -10.057   4.898  66.564  1.00  0.00    -0.255 A  
HETATM   23  C   UNL     1      -9.807   5.926  68.730  1.00  0.00    -0.177 A  
HETATM   24  C   UNL     1     -10.610   5.578  67.646  1.00  0.00    -0.239 A  
HETATM   25  O   UNL     1     -10.890   4.643  65.511  1.00  0.00    -0.278 OA 
BRANCH  20  26
HETATM   26  N   UNL     1      -8.190   3.823  65.452  1.00  0.00    -0.100 N  
HETATM   27  H   UNL     1      -7.874   4.381  64.660  1.00  0.00     0.000 HD 
HETATM   28  O   UNL     1      -7.616   1.946  64.318  1.00  0.00    -0.057 OA 
HETATM   29  C   UNL     1      -8.068   2.468  65.328  1.00  0.00    -0.083 C  
ENDBRANCH  20  26
ENDBRANCH  15  18
ENDBRANCH  14  15
ENDBRANCH  12  14
ENDBRANCH  10  12
ENDBRANCH   9  10
ENDBRANCH   6   9
ENDBRANCH   2   3
TORSDOF 8
ENDMDL
MODEL      355
REMARK 921   NORMALIZED FREE ENERGY PREDICTED BY IDOCK:   -3.20 KCAL/MOL
REMARK 922        TOTAL FREE ENERGY PREDICTED BY IDOCK:   -6.36 KCAL/MOL
REMARK 923 INTER-LIGAND FREE ENERGY PREDICTED BY IDOCK:   -6.49 KCAL/MOL
REMARK 924 INTRA-LIGAND FREE ENERGY PREDICTED BY IDOCK:    0.13 KCAL/MOL
REMARK 927      BINDING AFFINITY PREDICTED BY RF-SCORE:    0.00 PKD
ROOT
HETATM    1  C   UNL     1      -6.993  13.754  67.466  1.00  0.00    -0.145 C  
HETATM    2  O   UNL     1      -5.847  14.415  67.986  1.00  0.00    -0.127 OA 
ENDROOT
BRANCH   2   3
HETATM    3  C   UNL     1      -5.917  15.777  68.086  1.00  0.00    -0.127 A  
HETATM    4  C   UNL     1      -6.689  16.494  68.999  1.00  0.00    -0.200 A  
HETATM    5  C   UNL     1      -6.718  17.892  68.954  1.00  0.00    -0.244 A  
HETATM    6  C   UNL     1      -5.962  18.591  68.003  1.00  0.00    -0.188 A  
HETATM    7  C   UNL     1      -5.139  16.471  67.160  1.00  0.00    -0.107 A  
HETATM    8  C   UNL     1      -5.160  17.866  67.115  1.00  0.00    -0.145 A  
BRANCH   6   9
HETATM    9  C   UNL     1      -6.107  20.084  67.829  1.00  0.00    -0.243 C  
BRANCH   9  10
HETATM   10  C   UNL     1      -7.056  20.564  66.706  1.00  0.00    -0.275 C  
HETATM   11  C   UNL     1      -6.993  19.622  65.497  1.00  0.00    -0.317 C  
BRANCH  10  12
HETATM   12  N   UNL     1      -8.466  20.616  67.143  1.00  0.00    -0.530 NA 
HETATM   13  H   UNL     1      -9.051  21.042  66.425  1.00  0.00     0.000 HD 
BRANCH  12  14
HETATM   14  C   UNL     1      -9.004  19.305  67.544  1.00  0.00    -0.298 C  
BRANCH  14  15
HETATM   15  C   UNL     1     -10.218  18.846  66.702  1.00  0.00    -0.405 C  
HETATM   16  H   UNL     1     -12.034  19.507  66.327  1.00  0.00     0.000 HD 
HETATM   17  O   UNL     1     -11.288  19.789  66.843  1.00  0.00    -0.122 OA 
BRANCH  15  18
HETATM   18  C   UNL     1     -10.680  17.432  66.986  1.00  0.00    -0.162 A  
HETATM   19  C   UNL     1     -10.817  16.525  65.920  1.00  0.00    -0.096 A  
HETATM   20  C   UNL     1     -11.265  15.216  66.135  1.00  0.00    -0.271 A  
HETATM   21  H   UNL     1     -12.241  13.303  68.629  1.00  0.00     0.000 HD 
HETATM   22  C   UNL     1     -11.555  14.817  67.446  1.00  0.00    -0.360 A  
HETATM   23  C   UNL     1     -10.960  16.995  68.289  1.00  0.00    -0.269 A  
HETATM   24  C   UNL     1     -11.396  15.692  68.517  1.00  0.00    -0.361 A  
HETATM   25  O   UNL     1     -12.044  13.574  67.740  1.00  0.00    -0.349 OA 
BRANCH  20  26
HETATM   26  N   UNL     1     -11.413  14.292  65.084  1.00  0.00    -0.337 N  
HETATM   27  H   UNL     1     -12.289  14.333  64.565  1.00  0.00     0.000 HD 
HETATM   28  O   UNL     1     -10.745  12.580  63.757  1.00  0.00    -0.405 OA 
HETATM   29  C   UNL     1     -10.512  13.346  64.681  1.00  0.00    -0.411 C  
ENDBRANCH  20  26
ENDBRANCH  15  18
ENDBRANCH  14  15
ENDBRANCH  12  14
ENDBRANCH  10  12
ENDBRANCH   9  10
ENDBRANCH   6   9
ENDBRANCH   2   3
TORSDOF 8
ENDMDL
MODEL      356
REMARK 921   NORMALIZED FREE ENERGY PREDICTED BY IDOCK:   -3.20 KCAL/MOL
REMARK 922        TOTAL FREE ENERGY PREDICTED BY IDOCK:   -6.36 KCAL/MOL
REMARK 923 INTER-LIGAND FREE ENERGY PREDICTED BY IDOCK:   -5.69 KCAL/MOL
REMARK 924 INTRA-LIGAND FREE ENERGY PREDICTED BY IDOCK:   -0.67 KCAL/MOL
REMARK 927      BINDING AFFINITY PREDICTED BY RF-SCORE:    0.00 PKD
ROOT
HETATM    1  C   UNL     1     -10.077   3.871  74.081  1.00  0.00    -0.154 C  
HETATM    2  O   UNL     1      -9.164   3.026  73.393  1.00  0.00    -0.085 OA 
ENDROOT
BRANCH   2   3
HETATM    3  C   UNL     1      -9.052   3.215  72.043  1.00  0.00    -0.103 A  
HETATM    4  C   UNL     1      -8.554   4.355  71.413  1.00  0.00    -0.125 A  
HETATM    5  C   UNL     1      -8.551   4.444  70.017  1.00  0.00    -0.099 A  
HETATM    6  C   UNL     1      -9.033   3.386  69.233  1.00  0.00    -0.178 A  
HETATM    7  C   UNL     1      -9.500   2.148  71.265  1.00  0.00    -0.211 A  
HETATM    8  C   UNL     1      -9.494   2.231  69.872  1.00  0.00    -0.121 A  
BRANCH   6   9
HETATM    9  C   UNL     1      -9.193   3.528  67.738  1.00  0.00    -0.229 C  
BRANCH   9  10
HETATM   10  C   UNL     1      -9.468   4.951  67.201  1.00  0.00    -0.142 C  
HETATM   11  C   UNL     1      -9.356   4.990  65.671  1.00  0.00    -0.163 C  
BRANCH  10  12
HETATM   12  N   UNL     1     -10.819   5.434  67.549  1.00  0.00    -0.185 NA 
HETATM   13  H   UNL     1     -10.974   5.380  68.556  1.00  0.00     0.000 HD 
BRANCH  12  14
HETATM   14  C   UNL     1     -11.103   6.791  67.050  1.00  0.00    -0.299 C  
BRANCH  14  15
HETATM   15  C   UNL     1     -10.277   7.897  67.748  1.00  0.00    -0.216 C  
HETATM   16  H   UNL     1     -10.071   8.594  69.579  1.00  0.00     0.000 HD 
HETATM   17  O   UNL     1     -10.579   7.914  69.150  1.00  0.00    -0.219 OA 
BRANCH  15  18
HETATM   18  C   UNL     1     -10.420   9.272  67.130  1.00  0.00    -0.319 A  
HETATM   19  C   UNL     1     -11.069  10.289  67.855  1.00  0.00    -0.341 A  
HETATM   20  C   UNL     1     -11.245  11.566  67.311  1.00  0.00    -0.301 A  
HETATM   21  H   UNL     1     -10.568  13.199  64.535  1.00  0.00     0.000 HD 
HETATM   22  C   UNL     1     -10.740  11.822  66.030  1.00  0.00    -0.279 A  
HETATM   23  C   UNL     1      -9.909   9.566  65.859  1.00  0.00    -0.360 A  
HETATM   24  C   UNL     1     -10.069  10.837  65.311  1.00  0.00    -0.353 A  
HETATM   25  O   UNL     1     -10.911  13.025  65.405  1.00  0.00    -0.277 OA 
BRANCH  20  26
HETATM   26  N   UNL     1     -11.893  12.598  68.016  1.00  0.00    -0.343 N  
HETATM   27  H   UNL     1     -12.872  12.760  67.783  1.00  0.00     0.000 HD 
HETATM   28  O   UNL     1     -12.006  14.287  69.524  1.00  0.00    -0.299 OA 
HETATM   29  C   UNL     1     -11.356  13.407  68.977  1.00  0.00    -0.287 C  
ENDBRANCH  20  26
ENDBRANCH  15  18
ENDBRANCH  14  15
ENDBRANCH  12  14
ENDBRANCH  10  12
ENDBRANCH   9  10
ENDBRANCH   6   9
ENDBRANCH   2   3
TORSDOF 8
ENDMDL
MODEL      357
REMARK 921   NORMALIZED FREE ENERGY PREDICTED BY IDOCK:   -3.20 KCAL/MOL
REMARK 922        TOTAL FREE ENERGY PREDICTED BY IDOCK:   -6.36 KCAL/MOL
REMARK 923 INTER-LIGAND FREE ENERGY PREDICTED BY IDOCK:   -5.74 KCAL/MOL
REMARK 924 INTRA-LIGAND FREE ENERGY PREDICTED BY IDOCK:   -0.61 KCAL/MOL
REMARK 927      BINDING AFFINITY PREDICTED BY RF-SCORE:    0.00 PKD
ROOT
HETATM    1  C   UNL     1     -10.992   6.908  68.475  1.00  0.00    -0.136 C  
HETATM    2  O   UNL     1     -10.747   7.595  67.254  1.00  0.00    -0.306 OA 
ENDROOT
BRANCH   2   3
HETATM    3  C   UNL     1      -9.736   8.516  67.262  1.00  0.00    -0.183 A  
HETATM    4  C   UNL     1      -8.735   8.628  68.226  1.00  0.00    -0.142 A  
HETATM    5  C   UNL     1      -7.792   9.658  68.147  1.00  0.00    -0.086 A  
HETATM    6  C   UNL     1      -7.832  10.582  67.094  1.00  0.00    -0.112 A  
HETATM    7  C   UNL     1      -9.757   9.415  66.195  1.00  0.00    -0.334 A  
HETATM    8  C   UNL     1      -8.816  10.441  66.111  1.00  0.00    -0.172 A  
BRANCH   6   9
HETATM    9  C   UNL     1      -6.932  11.795  67.081  1.00  0.00    -0.145 C  
BRANCH   9  10
HETATM   10  C   UNL     1      -7.076  12.780  68.265  1.00  0.00    -0.104 C  
HETATM   11  C   UNL     1      -6.090  13.947  68.130  1.00  0.00    -0.128 C  
BRANCH  10  12
HETATM   12  N   UNL     1      -8.430  13.363  68.352  1.00  0.00    -0.236 NA 
HETATM   13  H   UNL     1      -8.554  13.858  69.235  1.00  0.00     0.000 HD 
BRANCH  12  14
HETATM   14  C   UNL     1      -8.766  14.234  67.213  1.00  0.00    -0.218 C  
BRANCH  14  15
HETATM   15  C   UNL     1     -10.016  15.115  67.451  1.00  0.00    -0.226 C  
HETATM   16  H   UNL     1     -11.824  15.273  66.688  1.00  0.00     0.000 HD 
HETATM   17  O   UNL     1     -11.057  14.732  66.543  1.00  0.00    -0.324 OA 
BRANCH  15  18
HETATM   18  C   UNL     1      -9.752  16.606  67.399  1.00  0.00    -0.251 A  
HETATM   19  C   UNL     1      -8.514  17.070  66.918  1.00  0.00    -0.244 A  
HETATM   20  C   UNL     1      -8.220  18.438  66.877  1.00  0.00    -0.247 A  
HETATM   21  H   UNL     1      -9.639  21.308  67.637  1.00  0.00     0.000 HD 
HETATM   22  C   UNL     1      -9.198  19.344  67.307  1.00  0.00    -0.314 A  
HETATM   23  C   UNL     1     -10.716  17.539  67.803  1.00  0.00    -0.333 A  
HETATM   24  C   UNL     1     -10.439  18.904  67.757  1.00  0.00    -0.487 A  
HETATM   25  O   UNL     1      -8.976  20.693  67.346  1.00  0.00    -0.344 OA 
BRANCH  20  26
HETATM   26  N   UNL     1      -6.988  18.925  66.404  1.00  0.00    -0.212 N  
HETATM   27  H   UNL     1      -6.156  18.621  66.908  1.00  0.00     0.000 HD 
HETATM   28  O   UNL     1      -5.663  20.137  65.018  1.00  0.00    -0.169 OA 
HETATM   29  C   UNL     1      -6.781  19.762  65.342  1.00  0.00    -0.293 C  
ENDBRANCH  20  26
ENDBRANCH  15  18
ENDBRANCH  14  15
ENDBRANCH  12  14
ENDBRANCH  10  12
ENDBRANCH   9  10
ENDBRANCH   6   9
ENDBRANCH   2   3
TORSDOF 8
ENDMDL
MODEL      358
REMARK 921   NORMALIZED FREE ENERGY PREDICTED BY IDOCK:   -3.20 KCAL/MOL
REMARK 922        TOTAL FREE ENERGY PREDICTED BY IDOCK:   -6.36 KCAL/MOL
REMARK 923 INTER-LIGAND FREE ENERGY PREDICTED BY IDOCK:   -5.28 KCAL/MOL
REMARK 924 INTRA-LIGAND FREE ENERGY PREDICTED BY IDOCK:   -1.08 KCAL/MOL
REMARK 927      BINDING AFFINITY PREDICTED BY RF-SCORE:    0.00 PKD
ROOT
HETATM    1  C   UNL     1     -11.256  10.352  68.413  1.00  0.00    -0.258 C  
HETATM    2  O   UNL     1     -12.139  11.277  67.791  1.00  0.00    -0.631 OA 
ENDROOT
BRANCH   2   3
HETATM    3  C   UNL     1     -11.567  12.376  67.213  1.00  0.00    -0.365 A  
HETATM    4  C   UNL     1     -10.585  12.366  66.223  1.00  0.00    -0.277 A  
HETATM    5  C   UNL     1     -10.038  13.566  65.759  1.00  0.00    -0.298 A  
HETATM    6  C   UNL     1     -10.478  14.795  66.271  1.00  0.00    -0.300 A  
HETATM    7  C   UNL     1     -12.029  13.599  67.700  1.00  0.00    -0.386 A  
HETATM    8  C   UNL     1     -11.490  14.799  67.236  1.00  0.00    -0.378 A  
BRANCH   6   9
HETATM    9  C   UNL     1      -9.787  16.088  65.907  1.00  0.00    -0.380 C  
BRANCH   9  10
HETATM   10  C   UNL     1      -8.308  16.229  66.335  1.00  0.00    -0.330 C  
HETATM   11  C   UNL     1      -7.811  17.665  66.122  1.00  0.00    -0.269 C  
BRANCH  10  12
HETATM   12  N   UNL     1      -8.099  15.904  67.760  1.00  0.00    -0.140 NA 
HETATM   13  H   UNL     1      -8.917  15.433  68.147  1.00  0.00     0.000 HD 
BRANCH  12  14
HETATM   14  C   UNL     1      -6.878  15.119  68.010  1.00  0.00    -0.141 C  
BRANCH  14  15
HETATM   15  C   UNL     1      -6.834  14.464  69.410  1.00  0.00    -0.132 C  
HETATM   16  H   UNL     1      -5.965  14.832  71.138  1.00  0.00     0.000 HD 
HETATM   17  O   UNL     1      -5.993  15.235  70.278  1.00  0.00    -0.144 OA 
BRANCH  15  18
HETATM   18  C   UNL     1      -6.441  13.001  69.407  1.00  0.00    -0.094 A  
HETATM   19  C   UNL     1      -6.818  12.189  68.322  1.00  0.00    -0.069 A  
HETATM   20  C   UNL     1      -6.496  10.827  68.291  1.00  0.00    -0.058 A  
HETATM   21  H   UNL     1      -4.960   8.594  70.158  1.00  0.00     0.000 HD 
HETATM   22  C   UNL     1      -5.768  10.288  69.360  1.00  0.00    -0.037 A  
HETATM   23  C   UNL     1      -5.695  12.436  70.451  1.00  0.00    -0.168 A  
HETATM   24  C   UNL     1      -5.360  11.084  70.427  1.00  0.00    -0.092 A  
HETATM   25  O   UNL     1      -5.454   8.960  69.433  1.00  0.00    -0.034 OA 
BRANCH  20  26
HETATM   26  N   UNL     1      -6.865   9.994  67.218  1.00  0.00    -0.081 N  
HETATM   27  H   UNL     1      -6.220   9.961  66.429  1.00  0.00     0.000 HD 
HETATM   28  O   UNL     1      -8.223   8.542  66.129  1.00  0.00    -0.107 OA 
HETATM   29  C   UNL     1      -7.990   9.226  67.116  1.00  0.00    -0.106 C  
ENDBRANCH  20  26
ENDBRANCH  15  18
ENDBRANCH  14  15
ENDBRANCH  12  14
ENDBRANCH  10  12
ENDBRANCH   9  10
ENDBRANCH   6   9
ENDBRANCH   2   3
TORSDOF 8
ENDMDL
MODEL      359
REMARK 921   NORMALIZED FREE ENERGY PREDICTED BY IDOCK:   -3.19 KCAL/MOL
REMARK 922        TOTAL FREE ENERGY PREDICTED BY IDOCK:   -6.35 KCAL/MOL
REMARK 923 INTER-LIGAND FREE ENERGY PREDICTED BY IDOCK:   -5.70 KCAL/MOL
REMARK 924 INTRA-LIGAND FREE ENERGY PREDICTED BY IDOCK:   -0.64 KCAL/MOL
REMARK 927      BINDING AFFINITY PREDICTED BY RF-SCORE:    0.00 PKD
ROOT
HETATM    1  C   UNL     1     -12.368  14.839  64.475  1.00  0.00    -0.366 C  
HETATM    2  O   UNL     1     -12.060  13.459  64.325  1.00  0.00    -0.401 OA 
ENDROOT
BRANCH   2   3
HETATM    3  C   UNL     1     -11.592  12.811  65.434  1.00  0.00    -0.358 A  
HETATM    4  C   UNL     1     -11.689  13.263  66.750  1.00  0.00    -0.434 A  
HETATM    5  C   UNL     1     -11.112  12.529  67.792  1.00  0.00    -0.291 A  
HETATM    6  C   UNL     1     -10.443  11.326  67.531  1.00  0.00    -0.234 A  
HETATM    7  C   UNL     1     -10.956  11.597  65.177  1.00  0.00    -0.326 A  
HETATM    8  C   UNL     1     -10.383  10.860  66.213  1.00  0.00    -0.306 A  
BRANCH   6   9
HETATM    9  C   UNL     1      -9.672  10.606  68.613  1.00  0.00    -0.178 C  
BRANCH   9  10
HETATM   10  C   UNL     1     -10.473   9.630  69.505  1.00  0.00    -0.224 C  
HETATM   11  C   UNL     1     -11.753  10.293  70.031  1.00  0.00    -0.330 C  
BRANCH  10  12
HETATM   12  N   UNL     1     -10.883   8.411  68.779  1.00  0.00    -0.432 NA 
HETATM   13  H   UNL     1     -11.699   8.594  68.196  1.00  0.00     0.000 HD 
BRANCH  12  14
HETATM   14  C   UNL     1      -9.798   7.810  67.985  1.00  0.00    -0.163 C  
BRANCH  14  15
HETATM   15  C   UNL     1      -9.211   6.520  68.607  1.00  0.00    -0.127 C  
HETATM   16  H   UNL     1      -9.817   4.672  68.912  1.00  0.00     0.000 HD 
HETATM   17  O   UNL     1     -10.177   5.464  68.530  1.00  0.00    -0.175 OA 
BRANCH  15  18
HETATM   18  C   UNL     1      -8.680   6.688  70.015  1.00  0.00    -0.141 A  
HETATM   19  C   UNL     1      -9.352   6.066  71.084  1.00  0.00    -0.174 A  
HETATM   20  C   UNL     1      -8.909   6.216  72.403  1.00  0.00    -0.136 A  
HETATM   21  H   UNL     1      -6.512   7.746  74.060  1.00  0.00     0.000 HD 
HETATM   22  C   UNL     1      -7.762   6.986  72.639  1.00  0.00    -0.089 A  
HETATM   23  C   UNL     1      -7.525   7.436  70.283  1.00  0.00    -0.083 A  
HETATM   24  C   UNL     1      -7.068   7.584  71.591  1.00  0.00    -0.062 A  
HETATM   25  O   UNL     1      -7.290   7.224  73.899  1.00  0.00    -0.095 OA 
BRANCH  20  26
HETATM   26  N   UNL     1      -9.565   5.606  73.488  1.00  0.00    -0.138 N  
HETATM   27  H   UNL     1      -9.240   5.866  74.418  1.00  0.00     0.000 HD 
HETATM   28  O   UNL     1     -11.087   4.223  74.442  1.00  0.00    -0.210 OA 
HETATM   29  C   UNL     1     -10.591   4.704  73.433  1.00  0.00    -0.229 C  
ENDBRANCH  20  26
ENDBRANCH  15  18
ENDBRANCH  14  15
ENDBRANCH  12  14
ENDBRANCH  10  12
ENDBRANCH   9  10
ENDBRANCH   6   9
ENDBRANCH   2   3
TORSDOF 8
ENDMDL
MODEL      360
REMARK 921   NORMALIZED FREE ENERGY PREDICTED BY IDOCK:   -3.17 KCAL/MOL
REMARK 922        TOTAL FREE ENERGY PREDICTED BY IDOCK:   -6.31 KCAL/MOL
REMARK 923 INTER-LIGAND FREE ENERGY PREDICTED BY IDOCK:   -4.84 KCAL/MOL
REMARK 924 INTRA-LIGAND FREE ENERGY PREDICTED BY IDOCK:   -1.47 KCAL/MOL
REMARK 927      BINDING AFFINITY PREDICTED BY RF-SCORE:    0.00 PKD
ROOT
HETATM    1  C   UNL     1     -10.709   4.594  73.837  1.00  0.00    -0.294 C  
HETATM    2  O   UNL     1     -10.072   5.595  73.054  1.00  0.00    -0.173 OA 
ENDROOT
BRANCH   2   3
HETATM    3  C   UNL     1     -10.173   5.468  71.696  1.00  0.00    -0.209 A  
HETATM    4  C   UNL     1      -9.377   4.658  70.886  1.00  0.00    -0.214 A  
HETATM    5  C   UNL     1      -9.546   4.666  69.498  1.00  0.00    -0.258 A  
HETATM    6  C   UNL     1     -10.524   5.475  68.903  1.00  0.00    -0.282 A  
HETATM    7  C   UNL     1     -11.169   6.248  71.109  1.00  0.00    -0.365 A  
HETATM    8  C   UNL     1     -11.345   6.255  69.725  1.00  0.00    -0.506 A  
BRANCH   6   9
HETATM    9  C   UNL     1     -10.612   5.625  67.402  1.00  0.00    -0.312 C  
BRANCH   9  10
HETATM   10  C   UNL     1      -9.385   5.155  66.585  1.00  0.00    -0.137 C  
HETATM   11  C   UNL     1      -9.780   4.058  65.588  1.00  0.00    -0.192 C  
BRANCH  10  12
HETATM   12  N   UNL     1      -8.773   6.251  65.807  1.00  0.00    -0.183 NA 
HETATM   13  H   UNL     1      -8.674   5.986  64.827  1.00  0.00     0.000 HD 
BRANCH  12  14
HETATM   14  C   UNL     1      -9.492   7.530  65.932  1.00  0.00     0.161 C  
BRANCH  14  15
HETATM   15  C   UNL     1      -8.565   8.768  65.930  1.00  0.00    -0.154 C  
HETATM   16  H   UNL     1      -6.896   9.309  65.036  1.00  0.00     0.000 HD 
HETATM   17  O   UNL     1      -7.466   8.548  65.037  1.00  0.00    -0.083 OA 
BRANCH  15  18
HETATM   18  C   UNL     1      -8.090   9.198  67.303  1.00  0.00    -0.106 A  
HETATM   19  C   UNL     1      -8.926   8.995  68.416  1.00  0.00    -0.133 A  
HETATM   20  C   UNL     1      -8.536   9.399  69.698  1.00  0.00    -0.168 A  
HETATM   21  H   UNL     1      -5.986  10.870  71.171  1.00  0.00     0.000 HD 
HETATM   22  C   UNL     1      -7.278   9.996  69.856  1.00  0.00    -0.145 A  
HETATM   23  C   UNL     1      -6.830   9.780  67.498  1.00  0.00    -0.082 A  
HETATM   24  C   UNL     1      -6.426  10.177  68.771  1.00  0.00    -0.052 A  
HETATM   25  O   UNL     1      -6.840  10.465  71.063  1.00  0.00    -0.271 OA 
BRANCH  20  26
HETATM   26  N   UNL     1      -9.356   9.209  70.826  1.00  0.00    -0.245 N  
HETATM   27  H   UNL     1      -8.999   8.581  71.545  1.00  0.00     0.000 HD 
HETATM   28  O   UNL     1     -11.218   9.531  72.078  1.00  0.00    -0.207 OA 
HETATM   29  C   UNL     1     -10.578   9.772  71.065  1.00  0.00    -0.225 C  
ENDBRANCH  20  26
ENDBRANCH  15  18
ENDBRANCH  14  15
ENDBRANCH  12  14
ENDBRANCH  10  12
ENDBRANCH   9  10
ENDBRANCH   6   9
ENDBRANCH   2   3
TORSDOF 8
ENDMDL
MODEL      361
REMARK 921   NORMALIZED FREE ENERGY PREDICTED BY IDOCK:   -3.15 KCAL/MOL
REMARK 922        TOTAL FREE ENERGY PREDICTED BY IDOCK:   -6.28 KCAL/MOL
REMARK 923 INTER-LIGAND FREE ENERGY PREDICTED BY IDOCK:   -4.86 KCAL/MOL
REMARK 924 INTRA-LIGAND FREE ENERGY PREDICTED BY IDOCK:   -1.43 KCAL/MOL
REMARK 927      BINDING AFFINITY PREDICTED BY RF-SCORE:    0.00 PKD
ROOT
HETATM    1  C   UNL     1     -12.987   8.917  71.322  1.00  0.00    -0.211 C  
HETATM    2  O   UNL     1     -12.590   7.919  72.254  1.00  0.00    -0.276 OA 
ENDROOT
BRANCH   2   3
HETATM    3  C   UNL     1     -11.842   6.885  71.764  1.00  0.00    -0.316 A  
HETATM    4  C   UNL     1     -11.171   5.926  72.521  1.00  0.00    -0.341 A  
HETATM    5  C   UNL     1     -10.386   4.953  71.893  1.00  0.00    -0.259 A  
HETATM    6  C   UNL     1     -10.275   4.920  70.497  1.00  0.00    -0.288 A  
HETATM    7  C   UNL     1     -11.758   6.834  70.372  1.00  0.00    -0.418 A  
HETATM    8  C   UNL     1     -10.981   5.862  69.742  1.00  0.00    -0.452 A  
BRANCH   6   9
HETATM    9  C   UNL     1      -9.305   3.987  69.810  1.00  0.00    -0.242 C  
BRANCH   9  10
HETATM   10  C   UNL     1      -7.967   4.602  69.336  1.00  0.00    -0.066 C  
HETATM   11  C   UNL     1      -6.842   4.301  70.335  1.00  0.00    -0.033 C  
BRANCH  10  12
HETATM   12  N   UNL     1      -7.537   4.076  68.026  1.00  0.00    -0.067 NA 
HETATM   13  H   UNL     1      -8.118   3.286  67.745  1.00  0.00     0.000 HD 
BRANCH  12  14
HETATM   14  C   UNL     1      -7.500   5.099  66.967  1.00  0.00    -0.087 C  
BRANCH  14  15
HETATM   15  C   UNL     1      -8.882   5.722  66.655  1.00  0.00    -0.121 C  
HETATM   16  H   UNL     1     -10.172   5.675  65.169  1.00  0.00     0.000 HD 
HETATM   17  O   UNL     1      -9.324   5.292  65.361  1.00  0.00    -0.133 OA 
BRANCH  15  18
HETATM   18  C   UNL     1      -8.936   7.230  66.790  1.00  0.00    -0.154 A  
HETATM   19  C   UNL     1      -8.492   7.830  67.982  1.00  0.00    -0.123 A  
HETATM   20  C   UNL     1      -8.548   9.218  68.158  1.00  0.00    -0.125 A  
HETATM   21  H   UNL     1      -9.505  11.895  66.501  1.00  0.00     0.000 HD 
HETATM   22  C   UNL     1      -9.038  10.005  67.108  1.00  0.00    -0.138 A  
HETATM   23  C   UNL     1      -9.402   8.046  65.751  1.00  0.00    -0.010 A  
HETATM   24  C   UNL     1      -9.453   9.430  65.910  1.00  0.00    -0.315 A  
HETATM   25  O   UNL     1      -9.173  11.361  67.214  1.00  0.00    -0.162 OA 
BRANCH  20  26
HETATM   26  N   UNL     1      -8.113   9.841  69.342  1.00  0.00    -0.115 N  
HETATM   27  H   UNL     1      -8.453  10.788  69.508  1.00  0.00     0.000 HD 
HETATM   28  O   UNL     1      -6.956   9.953  71.289  1.00  0.00    -0.318 OA 
HETATM   29  C   UNL     1      -7.284   9.319  70.296  1.00  0.00    -0.087 C  
ENDBRANCH  20  26
ENDBRANCH  15  18
ENDBRANCH  14  15
ENDBRANCH  12  14
ENDBRANCH  10  12
ENDBRANCH   9  10
ENDBRANCH   6   9
ENDBRANCH   2   3
TORSDOF 8
ENDMDL
MODEL      362
REMARK 921   NORMALIZED FREE ENERGY PREDICTED BY IDOCK:   -3.15 KCAL/MOL
REMARK 922        TOTAL FREE ENERGY PREDICTED BY IDOCK:   -6.28 KCAL/MOL
REMARK 923 INTER-LIGAND FREE ENERGY PREDICTED BY IDOCK:   -5.71 KCAL/MOL
REMARK 924 INTRA-LIGAND FREE ENERGY PREDICTED BY IDOCK:   -0.57 KCAL/MOL
REMARK 927      BINDING AFFINITY PREDICTED BY RF-SCORE:    0.00 PKD
ROOT
HETATM    1  C   UNL     1     -10.440   7.507  71.464  1.00  0.00    -0.204 C  
HETATM    2  O   UNL     1     -10.379   8.847  70.996  1.00  0.00    -0.213 OA 
ENDROOT
BRANCH   2   3
HETATM    3  C   UNL     1     -10.205   9.019  69.650  1.00  0.00    -0.206 A  
HETATM    4  C   UNL     1     -10.711   8.195  68.645  1.00  0.00    -0.065 A  
HETATM    5  C   UNL     1     -10.407   8.450  67.304  1.00  0.00    -0.369 A  
HETATM    6  C   UNL     1      -9.603   9.542  66.950  1.00  0.00    -0.217 A  
HETATM    7  C   UNL     1      -9.432  10.125  69.298  1.00  0.00    -0.231 A  
HETATM    8  C   UNL     1      -9.130  10.386  67.961  1.00  0.00    -0.136 A  
BRANCH   6   9
HETATM    9  C   UNL     1      -9.126   9.737  65.530  1.00  0.00    -0.242 C  
BRANCH   9  10
HETATM   10  C   UNL     1      -9.597  11.023  64.811  1.00  0.00    -0.248 C  
HETATM   11  C   UNL     1     -11.127  11.065  64.710  1.00  0.00    -0.036 C  
BRANCH  10  12
HETATM   12  N   UNL     1      -9.173  12.250  65.514  1.00  0.00    -0.431 NA 
HETATM   13  H   UNL     1      -8.177  12.419  65.378  1.00  0.00     0.000 HD 
BRANCH  12  14
HETATM   14  C   UNL     1      -9.960  13.439  65.142  1.00  0.00    -0.167 C  
BRANCH  14  15
HETATM   15  C   UNL     1     -10.605  14.161  66.349  1.00  0.00    -0.280 C  
HETATM   16  H   UNL     1     -12.148  15.346  66.653  1.00  0.00     0.000 HD 
HETATM   17  O   UNL     1     -11.751  14.902  65.912  1.00  0.00    -0.296 OA 
BRANCH  15  18
HETATM   18  C   UNL     1      -9.651  15.027  67.146  1.00  0.00    -0.222 A  
HETATM   19  C   UNL     1      -8.770  15.887  66.465  1.00  0.00    -0.350 A  
HETATM   20  C   UNL     1      -7.856  16.685  67.162  1.00  0.00    -0.179 A  
HETATM   21  H   UNL     1      -6.954  17.297  70.267  1.00  0.00     0.000 HD 
HETATM   22  C   UNL     1      -7.850  16.627  68.562  1.00  0.00    -0.218 A  
HETATM   23  C   UNL     1      -9.634  15.007  68.547  1.00  0.00    -0.210 A  
HETATM   24  C   UNL     1      -8.735  15.805  69.252  1.00  0.00    -0.261 A  
HETATM   25  O   UNL     1      -6.958  17.336  69.318  1.00  0.00    -0.239 OA 
BRANCH  20  26
HETATM   26  N   UNL     1      -6.963  17.551  66.504  1.00  0.00    -0.225 N  
HETATM   27  H   UNL     1      -5.976  17.451  66.742  1.00  0.00     0.000 HD 
HETATM   28  O   UNL     1      -6.414  19.222  65.073  1.00  0.00    -0.344 OA 
HETATM   29  C   UNL     1      -7.270  18.511  65.581  1.00  0.00    -0.119 C  
ENDBRANCH  20  26
ENDBRANCH  15  18
ENDBRANCH  14  15
ENDBRANCH  12  14
ENDBRANCH  10  12
ENDBRANCH   9  10
ENDBRANCH   6   9
ENDBRANCH   2   3
TORSDOF 8
ENDMDL
MODEL      363
REMARK 921   NORMALIZED FREE ENERGY PREDICTED BY IDOCK:   -3.15 KCAL/MOL
REMARK 922        TOTAL FREE ENERGY PREDICTED BY IDOCK:   -6.28 KCAL/MOL
REMARK 923 INTER-LIGAND FREE ENERGY PREDICTED BY IDOCK:   -5.53 KCAL/MOL
REMARK 924 INTRA-LIGAND FREE ENERGY PREDICTED BY IDOCK:   -0.75 KCAL/MOL
REMARK 927      BINDING AFFINITY PREDICTED BY RF-SCORE:    0.00 PKD
ROOT
HETATM    1  C   UNL     1      -9.108  17.432  66.135  1.00  0.00    -0.145 C  
HETATM    2  O   UNL     1     -10.368  16.775  66.176  1.00  0.00    -0.328 OA 
ENDROOT
BRANCH   2   3
HETATM    3  C   UNL     1     -10.353  15.439  66.469  1.00  0.00    -0.289 A  
HETATM    4  C   UNL     1      -9.310  14.745  67.080  1.00  0.00    -0.245 A  
HETATM    5  C   UNL     1      -9.398  13.361  67.268  1.00  0.00    -0.233 A  
HETATM    6  C   UNL     1     -10.539  12.658  66.859  1.00  0.00    -0.256 A  
HETATM    7  C   UNL     1     -11.503  14.746  66.092  1.00  0.00    -0.311 A  
HETATM    8  C   UNL     1     -11.597  13.367  66.282  1.00  0.00    -0.378 A  
BRANCH   6   9
HETATM    9  C   UNL     1     -10.586  11.148  66.900  1.00  0.00    -0.304 C  
BRANCH   9  10
HETATM   10  C   UNL     1     -10.805  10.497  68.285  1.00  0.00    -0.248 C  
HETATM   11  C   UNL     1     -11.948  11.188  69.041  1.00  0.00    -0.389 C  
BRANCH  10  12
HETATM   12  N   UNL     1     -11.153   9.066  68.187  1.00  0.00    -0.470 NA 
HETATM   13  H   UNL     1     -12.158   8.945  68.069  1.00  0.00     0.000 HD 
BRANCH  12  14
HETATM   14  C   UNL     1     -10.414   8.355  67.129  1.00  0.00    -0.310 C  
BRANCH  14  15
HETATM   15  C   UNL     1      -9.205   7.543  67.650  1.00  0.00    -0.127 C  
HETATM   16  H   UNL     1      -8.905   5.763  68.436  1.00  0.00     0.000 HD 
HETATM   17  O   UNL     1      -9.648   6.262  68.115  1.00  0.00    -0.117 OA 
BRANCH  15  18
HETATM   18  C   UNL     1      -8.373   8.258  68.695  1.00  0.00    -0.125 A  
HETATM   19  C   UNL     1      -8.669   8.071  70.057  1.00  0.00    -0.135 A  
HETATM   20  C   UNL     1      -7.941   8.732  71.053  1.00  0.00    -0.144 A  
HETATM   21  H   UNL     1      -5.446  10.863  71.307  1.00  0.00     0.000 HD 
HETATM   22  C   UNL     1      -6.889   9.573  70.666  1.00  0.00    -0.115 A  
HETATM   23  C   UNL     1      -7.302   9.090  68.340  1.00  0.00    -0.078 A  
HETATM   24  C   UNL     1      -6.563   9.745  69.323  1.00  0.00    -0.052 A  
HETATM   25  O   UNL     1      -6.160  10.293  71.570  1.00  0.00    -0.313 OA 
BRANCH  20  26
HETATM   26  N   UNL     1      -8.220   8.563  72.422  1.00  0.00    -0.130 N  
HETATM   27  H   UNL     1      -7.531   8.936  73.075  1.00  0.00     0.000 HD 
HETATM   28  O   UNL     1      -9.455   7.851  74.185  1.00  0.00    -0.020 OA 
HETATM   29  C   UNL     1      -9.312   7.955  72.975  1.00  0.00    -0.265 C  
ENDBRANCH  20  26
ENDBRANCH  15  18
ENDBRANCH  14  15
ENDBRANCH  12  14
ENDBRANCH  10  12
ENDBRANCH   9  10
ENDBRANCH   6   9
ENDBRANCH   2   3
TORSDOF 8
ENDMDL
MODEL      364
REMARK 921   NORMALIZED FREE ENERGY PREDICTED BY IDOCK:   -3.14 KCAL/MOL
REMARK 922        TOTAL FREE ENERGY PREDICTED BY IDOCK:   -6.27 KCAL/MOL
REMARK 923 INTER-LIGAND FREE ENERGY PREDICTED BY IDOCK:   -5.59 KCAL/MOL
REMARK 924 INTRA-LIGAND FREE ENERGY PREDICTED BY IDOCK:   -0.68 KCAL/MOL
REMARK 927      BINDING AFFINITY PREDICTED BY RF-SCORE:    0.00 PKD
ROOT
HETATM    1  C   UNL     1     -10.728  17.147  65.260  1.00  0.00    -0.056 C  
HETATM    2  O   UNL     1      -9.339  17.266  65.539  1.00  0.00    -0.383 OA 
ENDROOT
BRANCH   2   3
HETATM    3  C   UNL     1      -8.763  16.238  66.232  1.00  0.00    -0.335 A  
HETATM    4  C   UNL     1      -7.507  16.258  66.838  1.00  0.00    -0.271 A  
HETATM    5  C   UNL     1      -7.008  15.112  67.465  1.00  0.00    -0.220 A  
HETATM    6  C   UNL     1      -7.766  13.934  67.506  1.00  0.00    -0.192 A  
HETATM    7  C   UNL     1      -9.532  15.076  66.300  1.00  0.00    -0.342 A  
HETATM    8  C   UNL     1      -9.040  13.933  66.930  1.00  0.00    -0.257 A  
BRANCH   6   9
HETATM    9  C   UNL     1      -7.181  12.643  68.029  1.00  0.00    -0.112 C  
BRANCH   9  10
HETATM   10  C   UNL     1      -6.960  11.513  66.997  1.00  0.00    -0.145 C  
HETATM   11  C   UNL     1      -5.472  11.366  66.655  1.00  0.00    -0.135 C  
BRANCH  10  12
HETATM   12  N   UNL     1      -7.424  10.201  67.490  1.00  0.00    -0.090 NA 
HETATM   13  H   UNL     1      -6.708   9.757  68.065  1.00  0.00     0.000 HD 
BRANCH  12  14
HETATM   14  C   UNL     1      -8.706  10.266  68.212  1.00  0.00    -0.126 C  
BRANCH  14  15
HETATM   15  C   UNL     1      -8.589   9.947  69.721  1.00  0.00    -0.203 C  
HETATM   16  H   UNL     1      -7.237   9.164  70.919  1.00  0.00     0.000 HD 
HETATM   17  O   UNL     1      -7.309   9.360  69.992  1.00  0.00    -0.075 OA 
BRANCH  15  18
HETATM   18  C   UNL     1      -9.718   9.102  70.274  1.00  0.00    -0.248 A  
HETATM   19  C   UNL     1      -9.518   7.722  70.461  1.00  0.00    -0.163 A  
HETATM   20  C   UNL     1     -10.543   6.902  70.946  1.00  0.00    -0.218 A  
HETATM   21  H   UNL     1     -13.679   7.152  71.912  1.00  0.00     0.000 HD 
HETATM   22  C   UNL     1     -11.775   7.488  71.264  1.00  0.00    -0.287 A  
HETATM   23  C   UNL     1     -10.956   9.662  70.620  1.00  0.00    -0.386 A  
HETATM   24  C   UNL     1     -11.980   8.857  71.113  1.00  0.00    -0.344 A  
HETATM   25  O   UNL     1     -12.843   6.754  71.696  1.00  0.00    -0.358 OA 
BRANCH  20  26
HETATM   26  N   UNL     1     -10.367   5.519  71.139  1.00  0.00    -0.224 N  
HETATM   27  H   UNL     1     -10.687   5.142  72.031  1.00  0.00     0.000 HD 
HETATM   28  O   UNL     1      -9.699   3.438  70.537  1.00  0.00    -0.177 OA 
HETATM   29  C   UNL     1      -9.816   4.624  70.265  1.00  0.00    -0.243 C  
ENDBRANCH  20  26
ENDBRANCH  15  18
ENDBRANCH  14  15
ENDBRANCH  12  14
ENDBRANCH  10  12
ENDBRANCH   9  10
ENDBRANCH   6   9
ENDBRANCH   2   3
TORSDOF 8
ENDMDL
MODEL      365
REMARK 921   NORMALIZED FREE ENERGY PREDICTED BY IDOCK:   -3.13 KCAL/MOL
REMARK 922        TOTAL FREE ENERGY PREDICTED BY IDOCK:   -6.25 KCAL/MOL
REMARK 923 INTER-LIGAND FREE ENERGY PREDICTED BY IDOCK:   -5.60 KCAL/MOL
REMARK 924 INTRA-LIGAND FREE ENERGY PREDICTED BY IDOCK:   -0.65 KCAL/MOL
REMARK 927      BINDING AFFINITY PREDICTED BY RF-SCORE:    0.00 PKD
ROOT
HETATM    1  C   UNL     1      -6.359  16.881  69.071  1.00  0.00    -0.194 C  
HETATM    2  O   UNL     1      -7.142  17.583  68.114  1.00  0.00    -0.193 OA 
ENDROOT
BRANCH   2   3
HETATM    3  C   UNL     1      -8.259  16.946  67.649  1.00  0.00    -0.186 A  
HETATM    4  C   UNL     1      -9.171  17.456  66.727  1.00  0.00    -0.274 A  
HETATM    5  C   UNL     1     -10.310  16.722  66.381  1.00  0.00    -0.309 A  
HETATM    6  C   UNL     1     -10.543  15.460  66.944  1.00  0.00    -0.309 A  
HETATM    7  C   UNL     1      -8.472  15.676  68.186  1.00  0.00    -0.147 A  
HETATM    8  C   UNL     1      -9.604  14.938  67.840  1.00  0.00    -0.205 A  
BRANCH   6   9
HETATM    9  C   UNL     1     -11.844  14.727  66.714  1.00  0.00    -0.272 C  
BRANCH   9  10
HETATM   10  C   UNL     1     -11.837  13.625  65.628  1.00  0.00    -0.364 C  
HETATM   11  C   UNL     1     -10.477  13.562  64.921  1.00  0.00    -0.417 C  
BRANCH  10  12
HETATM   12  N   UNL     1     -12.101  12.283  66.184  1.00  0.00    -0.627 NA 
HETATM   13  H   UNL     1     -11.699  11.560  65.588  1.00  0.00     0.000 HD 
BRANCH  12  14
HETATM   14  C   UNL     1     -11.644  12.126  67.576  1.00  0.00    -0.343 C  
BRANCH  14  15
HETATM   15  C   UNL     1     -11.530  10.652  68.031  1.00  0.00    -0.212 C  
HETATM   16  H   UNL     1     -11.979   9.610  69.640  1.00  0.00     0.000 HD 
HETATM   17  O   UNL     1     -12.049  10.515  69.360  1.00  0.00    -0.225 OA 
BRANCH  15  18
HETATM   18  C   UNL     1     -10.138  10.065  67.913  1.00  0.00    -0.203 A  
HETATM   19  C   UNL     1      -9.775   8.984  68.737  1.00  0.00    -0.165 A  
HETATM   20  C   UNL     1      -8.492   8.427  68.678  1.00  0.00    -0.128 A  
HETATM   21  H   UNL     1      -5.667   8.867  67.048  1.00  0.00     0.000 HD 
HETATM   22  C   UNL     1      -7.576   8.958  67.760  1.00  0.00    -0.093 A  
HETATM   23  C   UNL     1      -9.205  10.559  66.992  1.00  0.00    -0.167 A  
HETATM   24  C   UNL     1      -7.928  10.007  66.916  1.00  0.00    -0.113 A  
HETATM   25  O   UNL     1      -6.289   8.507  67.671  1.00  0.00    -0.052 OA 
BRANCH  20  26
HETATM   26  N   UNL     1      -8.105   7.348  69.494  1.00  0.00    -0.127 N  
HETATM   27  H   UNL     1      -7.235   6.879  69.242  1.00  0.00     0.000 HD 
HETATM   28  O   UNL     1      -8.346   5.902  71.223  1.00  0.00    -0.121 OA 
HETATM   29  C   UNL     1      -8.764   6.858  70.586  1.00  0.00    -0.149 C  
ENDBRANCH  20  26
ENDBRANCH  15  18
ENDBRANCH  14  15
ENDBRANCH  12  14
ENDBRANCH  10  12
ENDBRANCH   9  10
ENDBRANCH   6   9
ENDBRANCH   2   3
TORSDOF 8
ENDMDL
MODEL      366
REMARK 921   NORMALIZED FREE ENERGY PREDICTED BY IDOCK:   -3.12 KCAL/MOL
REMARK 922        TOTAL FREE ENERGY PREDICTED BY IDOCK:   -6.24 KCAL/MOL
REMARK 923 INTER-LIGAND FREE ENERGY PREDICTED BY IDOCK:   -5.52 KCAL/MOL
REMARK 924 INTRA-LIGAND FREE ENERGY PREDICTED BY IDOCK:   -0.72 KCAL/MOL
REMARK 927      BINDING AFFINITY PREDICTED BY RF-SCORE:    0.00 PKD
ROOT
HETATM    1  C   UNL     1      -6.204   8.985  66.373  1.00  0.00    -0.064 C  
HETATM    2  O   UNL     1      -6.031  10.330  66.797  1.00  0.00    -0.056 OA 
ENDROOT
BRANCH   2   3
HETATM    3  C   UNL     1      -7.130  11.141  66.728  1.00  0.00    -0.139 A  
HETATM    4  C   UNL     1      -8.102  11.122  65.729  1.00  0.00     0.029 A  
HETATM    5  C   UNL     1      -9.148  12.051  65.745  1.00  0.00     0.008 A  
HETATM    6  C   UNL     1      -9.242  13.002  66.770  1.00  0.00    -0.229 A  
HETATM    7  C   UNL     1      -7.240  12.065  67.767  1.00  0.00    -0.108 A  
HETATM    8  C   UNL     1      -8.284  12.990  67.790  1.00  0.00    -0.168 A  
BRANCH   6   9
HETATM    9  C   UNL     1     -10.262  14.114  66.717  1.00  0.00    -0.262 C  
BRANCH   9  10
HETATM   10  C   UNL     1     -10.852  14.581  68.068  1.00  0.00    -0.244 C  
HETATM   11  C   UNL     1     -11.119  16.092  68.056  1.00  0.00    -0.334 C  
BRANCH  10  12
HETATM   12  N   UNL     1     -12.132  13.916  68.384  1.00  0.00    -0.478 NA 
HETATM   13  H   UNL     1     -12.565  13.545  67.539  1.00  0.00     0.000 HD 
BRANCH  12  14
HETATM   14  C   UNL     1     -12.009  12.868  69.412  1.00  0.00    -0.269 C  
BRANCH  14  15
HETATM   15  C   UNL     1     -11.296  11.588  68.913  1.00  0.00    -0.268 C  
HETATM   16  H   UNL     1     -11.622  10.205  67.551  1.00  0.00     0.000 HD 
HETATM   17  O   UNL     1     -12.059  10.991  67.857  1.00  0.00    -0.600 OA 
BRANCH  15  18
HETATM   18  C   UNL     1     -10.971  10.586  70.002  1.00  0.00    -0.351 A  
HETATM   19  C   UNL     1      -9.650  10.122  70.139  1.00  0.00    -0.029 A  
HETATM   20  C   UNL     1      -9.312   9.178  71.115  1.00  0.00    -0.243 A  
HETATM   21  H   UNL     1     -10.768   7.446  73.505  1.00  0.00     0.000 HD 
HETATM   22  C   UNL     1     -10.318   8.716  71.974  1.00  0.00    -0.346 A  
HETATM   23  C   UNL     1     -11.950  10.119  70.890  1.00  0.00    -0.461 A  
HETATM   24  C   UNL     1     -11.624   9.187  71.872  1.00  0.00    -0.430 A  
HETATM   25  O   UNL     1     -10.086   7.759  72.922  1.00  0.00    -0.248 OA 
BRANCH  20  26
HETATM   26  N   UNL     1      -7.999   8.697  71.269  1.00  0.00    -0.125 N  
HETATM   27  H   UNL     1      -7.509   8.435  70.414  1.00  0.00     0.000 HD 
HETATM   28  O   UNL     1      -6.165   8.102  72.463  1.00  0.00    -0.056 OA 
HETATM   29  C   UNL     1      -7.306   8.542  72.437  1.00  0.00    -0.042 C  
ENDBRANCH  20  26
ENDBRANCH  15  18
ENDBRANCH  14  15
ENDBRANCH  12  14
ENDBRANCH  10  12
ENDBRANCH   9  10
ENDBRANCH   6   9
ENDBRANCH   2   3
TORSDOF 8
ENDMDL
MODEL      367
REMARK 921   NORMALIZED FREE ENERGY PREDICTED BY IDOCK:   -3.11 KCAL/MOL
REMARK 922        TOTAL FREE ENERGY PREDICTED BY IDOCK:   -6.22 KCAL/MOL
REMARK 923 INTER-LIGAND FREE ENERGY PREDICTED BY IDOCK:   -5.00 KCAL/MOL
REMARK 924 INTRA-LIGAND FREE ENERGY PREDICTED BY IDOCK:   -1.23 KCAL/MOL
REMARK 927      BINDING AFFINITY PREDICTED BY RF-SCORE:    0.00 PKD
ROOT
HETATM    1  C   UNL     1      -6.113  19.826  72.422  1.00  0.00     0.681 C  
HETATM    2  O   UNL     1      -5.128  19.210  71.603  1.00  0.00    -0.380 OA 
ENDROOT
BRANCH   2   3
HETATM    3  C   UNL     1      -5.358  19.223  70.255  1.00  0.00    -0.213 A  
HETATM    4  C   UNL     1      -5.142  20.300  69.396  1.00  0.00    -0.243 A  
HETATM    5  C   UNL     1      -5.478  20.200  68.042  1.00  0.00    -0.219 A  
HETATM    6  C   UNL     1      -6.021  19.015  67.527  1.00  0.00    -0.186 A  
HETATM    7  C   UNL     1      -5.867  18.031  69.738  1.00  0.00    -0.240 A  
HETATM    8  C   UNL     1      -6.198  17.926  68.387  1.00  0.00    -0.185 A  
BRANCH   6   9
HETATM    9  C   UNL     1      -6.543  18.941  66.111  1.00  0.00    -0.248 C  
BRANCH   9  10
HETATM   10  C   UNL     1      -7.225  20.214  65.556  1.00  0.00    -0.258 C  
HETATM   11  C   UNL     1      -6.784  20.484  64.111  1.00  0.00    -0.023 C  
BRANCH  10  12
HETATM   12  N   UNL     1      -8.697  20.107  65.548  1.00  0.00    -0.421 NA 
HETATM   13  H   UNL     1      -8.990  19.159  65.313  1.00  0.00     0.000 HD 
BRANCH  12  14
HETATM   14  C   UNL     1      -9.322  20.549  66.807  1.00  0.00    -0.244 C  
BRANCH  14  15
HETATM   15  C   UNL     1     -10.107  19.433  67.538  1.00  0.00    -0.398 C  
HETATM   16  H   UNL     1     -10.123  18.635  69.338  1.00  0.00     0.000 HD 
HETATM   17  O   UNL     1      -9.641  19.320  68.889  1.00  0.00    -0.396 OA 
BRANCH  15  18
HETATM   18  C   UNL     1     -10.097  18.093  66.831  1.00  0.00    -0.362 A  
HETATM   19  C   UNL     1      -9.350  17.033  67.376  1.00  0.00    -0.239 A  
HETATM   20  C   UNL     1      -9.294  15.786  66.742  1.00  0.00    -0.242 A  
HETATM   21  H   UNL     1     -10.472  14.316  64.044  1.00  0.00     0.000 HD 
HETATM   22  C   UNL     1     -10.019  15.606  65.557  1.00  0.00    -0.329 A  
HETATM   23  C   UNL     1     -10.827  17.875  65.655  1.00  0.00     0.058 A  
HETATM   24  C   UNL     1     -10.787  16.635  65.020  1.00  0.00    -0.190 A  
HETATM   25  O   UNL     1      -9.981  14.438  64.848  1.00  0.00    -0.316 OA 
BRANCH  20  26
HETATM   26  N   UNL     1      -8.552  14.712  67.267  1.00  0.00    -0.201 N  
HETATM   27  H   UNL     1      -7.989  14.182  66.601  1.00  0.00     0.000 HD 
HETATM   28  O   UNL     1      -7.828  13.339  68.920  1.00  0.00    -0.037 OA 
HETATM   29  C   UNL     1      -8.500  14.298  68.568  1.00  0.00    -0.164 C  
ENDBRANCH  20  26
ENDBRANCH  15  18
ENDBRANCH  14  15
ENDBRANCH  12  14
ENDBRANCH  10  12
ENDBRANCH   9  10
ENDBRANCH   6   9
ENDBRANCH   2   3
TORSDOF 8
ENDMDL
MODEL      368
REMARK 921   NORMALIZED FREE ENERGY PREDICTED BY IDOCK:   -3.09 KCAL/MOL
REMARK 922        TOTAL FREE ENERGY PREDICTED BY IDOCK:   -6.20 KCAL/MOL
REMARK 923 INTER-LIGAND FREE ENERGY PREDICTED BY IDOCK:   -5.56 KCAL/MOL
REMARK 924 INTRA-LIGAND FREE ENERGY PREDICTED BY IDOCK:   -0.64 KCAL/MOL
REMARK 927      BINDING AFFINITY PREDICTED BY RF-SCORE:    0.00 PKD
ROOT
HETATM    1  C   UNL     1      -7.731  19.834  67.611  1.00  0.00    -0.282 C  
HETATM    2  O   UNL     1      -8.713  19.452  66.656  1.00  0.00    -0.302 OA 
ENDROOT
BRANCH   2   3
HETATM    3  C   UNL     1      -9.072  18.133  66.641  1.00  0.00    -0.282 A  
HETATM    4  C   UNL     1      -8.584  17.140  67.489  1.00  0.00    -0.209 A  
HETATM    5  C   UNL     1      -8.991  15.811  67.328  1.00  0.00    -0.211 A  
HETATM    6  C   UNL     1      -9.904  15.463  66.323  1.00  0.00    -0.320 A  
HETATM    7  C   UNL     1     -10.006  17.793  65.662  1.00  0.00     0.159 A  
HETATM    8  C   UNL     1     -10.419  16.470  65.501  1.00  0.00    -0.320 A  
BRANCH   6   9
HETATM    9  C   UNL     1     -10.227  14.018  66.024  1.00  0.00    -0.313 C  
BRANCH   9  10
HETATM   10  C   UNL     1     -11.219  13.315  66.981  1.00  0.00    -0.292 C  
HETATM   11  C   UNL     1     -12.659  13.767  66.706  1.00  0.00    -0.102 C  
BRANCH  10  12
HETATM   12  N   UNL     1     -11.191  11.846  66.843  1.00  0.00    -0.308 NA 
HETATM   13  H   UNL     1     -10.395  11.551  66.277  1.00  0.00     0.000 HD 
BRANCH  12  14
HETATM   14  C   UNL     1     -11.204  11.136  68.134  1.00  0.00    -0.292 C  
BRANCH  14  15
HETATM   15  C   UNL     1      -9.830  10.548  68.535  1.00  0.00    -0.168 C  
HETATM   16  H   UNL     1      -8.045  10.389  67.720  1.00  0.00     0.000 HD 
HETATM   17  O   UNL     1      -8.889  10.750  67.474  1.00  0.00    -0.129 OA 
BRANCH  15  18
HETATM   18  C   UNL     1      -9.872   9.099  68.974  1.00  0.00    -0.176 A  
HETATM   19  C   UNL     1     -11.026   8.605  69.611  1.00  0.00    -0.099 A  
HETATM   20  C   UNL     1     -11.097   7.280  70.055  1.00  0.00    -0.240 A  
HETATM   21  H   UNL     1      -9.217   4.579  70.124  1.00  0.00     0.000 HD 
HETATM   22  C   UNL     1      -9.997   6.441  69.832  1.00  0.00    -0.168 A  
HETATM   23  C   UNL     1      -8.797   8.229  68.749  1.00  0.00    -0.137 A  
HETATM   24  C   UNL     1      -8.860   6.904  69.176  1.00  0.00    -0.134 A  
HETATM   25  O   UNL     1      -9.963   5.148  70.275  1.00  0.00    -0.208 OA 
BRANCH  20  26
HETATM   26  N   UNL     1     -12.238   6.764  70.697  1.00  0.00    -0.530 N  
HETATM   27  H   UNL     1     -12.262   5.755  70.837  1.00  0.00     0.000 HD 
HETATM   28  O   UNL     1     -14.270   6.917  71.691  1.00  0.00    -0.314 OA 
HETATM   29  C   UNL     1     -13.318   7.466  71.153  1.00  0.00    -0.179 C  
ENDBRANCH  20  26
ENDBRANCH  15  18
ENDBRANCH  14  15
ENDBRANCH  12  14
ENDBRANCH  10  12
ENDBRANCH   9  10
ENDBRANCH   6   9
ENDBRANCH   2   3
TORSDOF 8
ENDMDL
MODEL      369
REMARK 921   NORMALIZED FREE ENERGY PREDICTED BY IDOCK:   -3.07 KCAL/MOL
REMARK 922        TOTAL FREE ENERGY PREDICTED BY IDOCK:   -6.17 KCAL/MOL
REMARK 923 INTER-LIGAND FREE ENERGY PREDICTED BY IDOCK:   -5.28 KCAL/MOL
REMARK 924 INTRA-LIGAND FREE ENERGY PREDICTED BY IDOCK:   -0.89 KCAL/MOL
REMARK 927      BINDING AFFINITY PREDICTED BY RF-SCORE:    0.00 PKD
ROOT
HETATM    1  C   UNL     1     -12.649  12.942  63.849  1.00  0.00    -0.247 C  
HETATM    2  O   UNL     1     -11.763  11.963  63.322  1.00  0.00    -0.400 OA 
ENDROOT
BRANCH   2   3
HETATM    3  C   UNL     1     -10.930  11.347  64.214  1.00  0.00    -0.321 A  
HETATM    4  C   UNL     1      -9.885  10.479  63.897  1.00  0.00    -0.373 A  
HETATM    5  C   UNL     1      -9.145   9.866  64.913  1.00  0.00    -0.271 A  
HETATM    6  C   UNL     1      -9.431  10.125  66.260  1.00  0.00    -0.229 A  
HETATM    7  C   UNL     1     -11.195  11.631  65.553  1.00  0.00    -0.267 A  
HETATM    8  C   UNL     1     -10.455  11.026  66.569  1.00  0.00    -0.309 A  
BRANCH   6   9
HETATM    9  C   UNL     1      -8.758   9.350  67.368  1.00  0.00    -0.128 C  
BRANCH   9  10
HETATM   10  C   UNL     1      -7.248   9.064  67.197  1.00  0.00    -0.083 C  
HETATM   11  C   UNL     1      -6.405  10.097  67.956  1.00  0.00    -0.057 C  
BRANCH  10  12
HETATM   12  N   UNL     1      -6.865   7.732  67.706  1.00  0.00    -0.067 NA 
HETATM   13  H   UNL     1      -5.953   7.455  67.345  1.00  0.00     0.000 HD 
BRANCH  12  14
HETATM   14  C   UNL     1      -6.895   7.636  69.176  1.00  0.00    -0.053 C  
BRANCH  14  15
HETATM   15  C   UNL     1      -7.203   6.214  69.701  1.00  0.00    -0.074 C  
HETATM   16  H   UNL     1      -7.341   4.403  68.940  1.00  0.00     0.000 HD 
HETATM   17  O   UNL     1      -7.151   5.277  68.618  1.00  0.00    -0.059 OA 
BRANCH  15  18
HETATM   18  C   UNL     1      -8.500   6.098  70.476  1.00  0.00    -0.137 A  
HETATM   19  C   UNL     1      -9.219   7.265  70.793  1.00  0.00    -0.156 A  
HETATM   20  C   UNL     1     -10.408   7.205  71.529  1.00  0.00    -0.202 A  
HETATM   21  H   UNL     1     -12.331   4.951  72.963  1.00  0.00     0.000 HD 
HETATM   22  C   UNL     1     -10.883   5.949  71.929  1.00  0.00    -0.254 A  
HETATM   23  C   UNL     1      -9.012   4.856  70.874  1.00  0.00    -0.167 A  
HETATM   24  C   UNL     1     -10.200   4.782  71.598  1.00  0.00    -0.249 A  
HETATM   25  O   UNL     1     -12.008   5.803  72.692  1.00  0.00    -0.250 OA 
BRANCH  20  26
HETATM   26  N   UNL     1     -11.143   8.358  71.860  1.00  0.00    -0.285 N  
HETATM   27  H   UNL     1     -10.793   8.909  72.643  1.00  0.00     0.000 HD 
HETATM   28  O   UNL     1     -12.847   9.835  71.625  1.00  0.00    -0.356 OA 
HETATM   29  C   UNL     1     -12.275   8.822  71.249  1.00  0.00    -0.287 C  
ENDBRANCH  20  26
ENDBRANCH  15  18
ENDBRANCH  14  15
ENDBRANCH  12  14
ENDBRANCH  10  12
ENDBRANCH   9  10
ENDBRANCH   6   9
ENDBRANCH   2   3
TORSDOF 8
ENDMDL
MODEL      370
REMARK 921   NORMALIZED FREE ENERGY PREDICTED BY IDOCK:   -3.07 KCAL/MOL
REMARK 922        TOTAL FREE ENERGY PREDICTED BY IDOCK:   -6.16 KCAL/MOL
REMARK 923 INTER-LIGAND FREE ENERGY PREDICTED BY IDOCK:   -5.41 KCAL/MOL
REMARK 924 INTRA-LIGAND FREE ENERGY PREDICTED BY IDOCK:   -0.75 KCAL/MOL
REMARK 927      BINDING AFFINITY PREDICTED BY RF-SCORE:    0.00 PKD
ROOT
HETATM    1  C   UNL     1      -8.498   3.571  63.250  1.00  0.00    -0.090 C  
HETATM    2  O   UNL     1      -8.267   3.592  64.652  1.00  0.00    -0.089 OA 
ENDROOT
BRANCH   2   3
HETATM    3  C   UNL     1      -8.508   4.774  65.295  1.00  0.00    -0.132 A  
HETATM    4  C   UNL     1      -9.733   5.194  65.811  1.00  0.00    -0.124 A  
HETATM    5  C   UNL     1      -9.857   6.460  66.394  1.00  0.00    -0.120 A  
HETATM    6  C   UNL     1      -8.751   7.316  66.481  1.00  0.00    -0.141 A  
HETATM    7  C   UNL     1      -7.398   5.612  65.411  1.00  0.00    -0.072 A  
HETATM    8  C   UNL     1      -7.516   6.873  65.996  1.00  0.00    -0.080 A  
BRANCH   6   9
HETATM    9  C   UNL     1      -8.900   8.743  66.952  1.00  0.00    -0.142 C  
BRANCH   9  10
HETATM   10  C   UNL     1      -9.334   8.948  68.422  1.00  0.00    -0.136 C  
HETATM   11  C   UNL     1      -8.182   8.627  69.383  1.00  0.00    -0.113 C  
BRANCH  10  12
HETATM   12  N   UNL     1      -9.757  10.335  68.698  1.00  0.00    -0.160 NA 
HETATM   13  H   UNL     1      -9.320  10.983  68.042  1.00  0.00     0.000 HD 
BRANCH  12  14
HETATM   14  C   UNL     1     -11.219  10.511  68.709  1.00  0.00    -0.262 C  
BRANCH  14  15
HETATM   15  C   UNL     1     -11.726  11.576  67.708  1.00  0.00    -0.227 C  
HETATM   16  H   UNL     1     -11.526  11.945  65.784  1.00  0.00     0.000 HD 
HETATM   17  O   UNL     1     -11.215  11.291  66.399  1.00  0.00    -0.253 OA 
BRANCH  15  18
HETATM   18  C   UNL     1     -11.444  13.007  68.117  1.00  0.00    -0.356 A  
HETATM   19  C   UNL     1     -12.008  13.507  69.304  1.00  0.00    -0.378 A  
HETATM   20  C   UNL     1     -11.793  14.831  69.706  1.00  0.00    -0.316 A  
HETATM   21  H   UNL     1     -10.209  17.519  68.660  1.00  0.00     0.000 HD 
HETATM   22  C   UNL     1     -10.982  15.648  68.908  1.00  0.00    -0.266 A  
HETATM   23  C   UNL     1     -10.621  13.844  67.351  1.00  0.00    -0.267 A  
HETATM   24  C   UNL     1     -10.391  15.160  67.746  1.00  0.00    -0.243 A  
HETATM   25  O   UNL     1     -10.760  16.964  69.201  1.00  0.00    -0.330 OA 
BRANCH  20  26
HETATM   26  N   UNL     1     -12.349  15.354  70.888  1.00  0.00    -0.363 N  
HETATM   27  H   UNL     1     -13.061  16.075  70.773  1.00  0.00     0.000 HD 
HETATM   28  O   UNL     1     -12.578  15.533  73.137  1.00  0.00    -0.372 OA 
HETATM   29  C   UNL     1     -12.041  15.005  72.173  1.00  0.00    -0.377 C  
ENDBRANCH  20  26
ENDBRANCH  15  18
ENDBRANCH  14  15
ENDBRANCH  12  14
ENDBRANCH  10  12
ENDBRANCH   9  10
ENDBRANCH   6   9
ENDBRANCH   2   3
TORSDOF 8
ENDMDL
MODEL      371
REMARK 921   NORMALIZED FREE ENERGY PREDICTED BY IDOCK:   -3.06 KCAL/MOL
REMARK 922        TOTAL FREE ENERGY PREDICTED BY IDOCK:   -6.15 KCAL/MOL
REMARK 923 INTER-LIGAND FREE ENERGY PREDICTED BY IDOCK:   -5.35 KCAL/MOL
REMARK 924 INTRA-LIGAND FREE ENERGY PREDICTED BY IDOCK:   -0.80 KCAL/MOL
REMARK 927      BINDING AFFINITY PREDICTED BY RF-SCORE:    0.00 PKD
ROOT
HETATM    1  C   UNL     1      -7.559   8.857  64.107  1.00  0.00    -0.120 C  
HETATM    2  O   UNL     1      -7.238   9.820  65.102  1.00  0.00    -0.109 OA 
ENDROOT
BRANCH   2   3
HETATM    3  C   UNL     1      -8.177  10.036  66.072  1.00  0.00    -0.126 A  
HETATM    4  C   UNL     1      -9.427   9.423  66.155  1.00  0.00    -0.287 A  
HETATM    5  C   UNL     1     -10.322   9.780  67.169  1.00  0.00    -0.311 A  
HETATM    6  C   UNL     1      -9.970  10.745  68.123  1.00  0.00    -0.176 A  
HETATM    7  C   UNL     1      -7.813  10.972  67.040  1.00  0.00    -0.137 A  
HETATM    8  C   UNL     1      -8.700  11.327  68.056  1.00  0.00    -0.144 A  
BRANCH   6   9
HETATM    9  C   UNL     1     -10.978  11.263  69.122  1.00  0.00    -0.292 C  
BRANCH   9  10
HETATM   10  C   UNL     1     -11.189  10.417  70.399  1.00  0.00    -0.321 C  
HETATM   11  C   UNL     1     -12.632  10.540  70.905  1.00  0.00    -0.493 C  
BRANCH  10  12
HETATM   12  N   UNL     1     -10.929   8.981  70.173  1.00  0.00    -0.238 NA 
HETATM   13  H   UNL     1     -10.063   8.848  69.652  1.00  0.00     0.000 HD 
BRANCH  12  14
HETATM   14  C   UNL     1     -10.920   8.186  71.413  1.00  0.00    -0.237 C  
BRANCH  14  15
HETATM   15  C   UNL     1     -11.242   6.688  71.195  1.00  0.00    -0.292 C  
HETATM   16  H   UNL     1     -11.627   5.125  72.328  1.00  0.00     0.000 HD 
HETATM   17  O   UNL     1     -11.429   6.044  72.461  1.00  0.00    -0.288 OA 
BRANCH  15  18
HETATM   18  C   UNL     1     -10.237   5.949  70.336  1.00  0.00    -0.273 A  
HETATM   19  C   UNL     1     -10.642   5.433  69.091  1.00  0.00    -0.241 A  
HETATM   20  C   UNL     1      -9.752   4.722  68.279  1.00  0.00    -0.140 A  
HETATM   21  H   UNL     1      -6.619   3.712  68.314  1.00  0.00     0.000 HD 
HETATM   22  C   UNL     1      -8.434   4.550  68.722  1.00  0.00    -0.084 A  
HETATM   23  C   UNL     1      -8.906   5.777  70.742  1.00  0.00    -0.142 A  
HETATM   24  C   UNL     1      -8.008   5.080  69.936  1.00  0.00    -0.074 A  
HETATM   25  O   UNL     1      -7.514   3.828  68.014  1.00  0.00    -0.061 OA 
BRANCH  20  26
HETATM   26  N   UNL     1     -10.134   4.194  67.031  1.00  0.00    -0.242 N  
HETATM   27  H   UNL     1     -10.037   3.185  66.917  1.00  0.00     0.000 HD 
HETATM   28  O   UNL     1     -10.915   4.326  64.907  1.00  0.00    -0.253 OA 
HETATM   29  C   UNL     1     -10.622   4.882  65.956  1.00  0.00    -0.261 C  
ENDBRANCH  20  26
ENDBRANCH  15  18
ENDBRANCH  14  15
ENDBRANCH  12  14
ENDBRANCH  10  12
ENDBRANCH   9  10
ENDBRANCH   6   9
ENDBRANCH   2   3
TORSDOF 8
ENDMDL
MODEL      372
REMARK 921   NORMALIZED FREE ENERGY PREDICTED BY IDOCK:   -3.05 KCAL/MOL
REMARK 922        TOTAL FREE ENERGY PREDICTED BY IDOCK:   -6.14 KCAL/MOL
REMARK 923 INTER-LIGAND FREE ENERGY PREDICTED BY IDOCK:   -5.35 KCAL/MOL
REMARK 924 INTRA-LIGAND FREE ENERGY PREDICTED BY IDOCK:   -0.79 KCAL/MOL
REMARK 927      BINDING AFFINITY PREDICTED BY RF-SCORE:    0.00 PKD
ROOT
HETATM    1  C   UNL     1      -5.213  17.479  70.607  1.00  0.00    -0.268 C  
HETATM    2  O   UNL     1      -5.808  16.922  69.443  1.00  0.00    -0.168 OA 
ENDROOT
BRANCH   2   3
HETATM    3  C   UNL     1      -5.934  15.561  69.410  1.00  0.00    -0.119 A  
HETATM    4  C   UNL     1      -5.890  14.706  70.511  1.00  0.00    -0.168 A  
HETATM    5  C   UNL     1      -5.970  13.321  70.332  1.00  0.00    -0.124 A  
HETATM    6  C   UNL     1      -6.110  12.774  69.049  1.00  0.00    -0.089 A  
HETATM    7  C   UNL     1      -6.106  15.020  68.136  1.00  0.00    -0.144 A  
HETATM    8  C   UNL     1      -6.192  13.640  67.953  1.00  0.00    -0.158 A  
BRANCH   6   9
HETATM    9  C   UNL     1      -6.031  11.284  68.819  1.00  0.00    -0.043 C  
BRANCH   9  10
HETATM   10  C   UNL     1      -7.278  10.454  69.203  1.00  0.00    -0.089 C  
HETATM   11  C   UNL     1      -7.081   9.766  70.560  1.00  0.00    -0.130 C  
BRANCH  10  12
HETATM   12  N   UNL     1      -8.496  11.283  69.309  1.00  0.00    -0.376 NA 
HETATM   13  H   UNL     1      -8.326  12.222  68.950  1.00  0.00     0.000 HD 
BRANCH  12  14
HETATM   14  C   UNL     1      -9.672  10.681  68.657  1.00  0.00    -0.178 C  
BRANCH  14  15
HETATM   15  C   UNL     1     -10.919  10.606  69.569  1.00  0.00    -0.272 C  
HETATM   16  H   UNL     1     -12.658   9.683  69.547  1.00  0.00     0.000 HD 
HETATM   17  O   UNL     1     -11.892   9.729  68.987  1.00  0.00     0.234 OA 
BRANCH  15  18
HETATM   18  C   UNL     1     -11.521  11.951  69.921  1.00  0.00    -0.264 A  
HETATM   19  C   UNL     1     -11.267  13.058  69.090  1.00  0.00    -0.297 A  
HETATM   20  C   UNL     1     -11.783  14.323  69.392  1.00  0.00    -0.316 A  
HETATM   21  H   UNL     1     -13.626  15.767  71.705  1.00  0.00     0.000 HD 
HETATM   22  C   UNL     1     -12.581  14.464  70.535  1.00  0.00    -0.353 A  
HETATM   23  C   UNL     1     -12.339  12.120  71.046  1.00  0.00    -0.331 A  
HETATM   24  C   UNL     1     -12.867  13.373  71.352  1.00  0.00    -0.420 A  
HETATM   25  O   UNL     1     -13.084  15.672  70.930  1.00  0.00    -0.493 OA 
BRANCH  20  26
HETATM   26  N   UNL     1     -11.541  15.445  68.578  1.00  0.00    -0.351 N  
HETATM   27  H   UNL     1     -11.732  16.356  68.994  1.00  0.00     0.000 HD 
HETATM   28  O   UNL     1     -10.911  16.486  66.665  1.00  0.00    -0.127 OA 
HETATM   29  C   UNL     1     -11.078  15.450  67.292  1.00  0.00    -0.302 C  
ENDBRANCH  20  26
ENDBRANCH  15  18
ENDBRANCH  14  15
ENDBRANCH  12  14
ENDBRANCH  10  12
ENDBRANCH   9  10
ENDBRANCH   6   9
ENDBRANCH   2   3
TORSDOF 8
ENDMDL
MODEL      373
REMARK 921   NORMALIZED FREE ENERGY PREDICTED BY IDOCK:   -3.05 KCAL/MOL
REMARK 922        TOTAL FREE ENERGY PREDICTED BY IDOCK:   -6.14 KCAL/MOL
REMARK 923 INTER-LIGAND FREE ENERGY PREDICTED BY IDOCK:   -6.05 KCAL/MOL
REMARK 924 INTRA-LIGAND FREE ENERGY PREDICTED BY IDOCK:   -0.09 KCAL/MOL
REMARK 927      BINDING AFFINITY PREDICTED BY RF-SCORE:    0.00 PKD
ROOT
HETATM    1  C   UNL     1      -8.831   5.996  72.342  1.00  0.00    -0.133 C  
HETATM    2  O   UNL     1      -8.019   5.523  71.275  1.00  0.00    -0.106 OA 
ENDROOT
BRANCH   2   3
HETATM    3  C   UNL     1      -8.214   6.105  70.053  1.00  0.00    -0.124 A  
HETATM    4  C   UNL     1      -7.838   7.397  69.689  1.00  0.00    -0.117 A  
HETATM    5  C   UNL     1      -8.152   7.893  68.420  1.00  0.00    -0.123 A  
HETATM    6  C   UNL     1      -8.835   7.095  67.492  1.00  0.00    -0.119 A  
HETATM    7  C   UNL     1      -8.864   5.297  69.119  1.00  0.00    -0.113 A  
HETATM    8  C   UNL     1      -9.175   5.786  67.850  1.00  0.00    -0.108 A  
BRANCH   6   9
HETATM    9  C   UNL     1      -9.329   7.663  66.183  1.00  0.00    -0.141 C  
BRANCH   9  10
HETATM   10  C   UNL     1      -9.229   9.196  66.009  1.00  0.00    -0.215 C  
HETATM   11  C   UNL     1      -9.011   9.568  64.536  1.00  0.00    -0.256 C  
BRANCH  10  12
HETATM   12  N   UNL     1     -10.449   9.896  66.458  1.00  0.00    -0.181 NA 
HETATM   13  H   UNL     1     -10.775   9.519  67.348  1.00  0.00     0.000 HD 
BRANCH  12  14
HETATM   14  C   UNL     1     -10.290  11.358  66.537  1.00  0.00    -0.236 C  
BRANCH  14  15
HETATM   15  C   UNL     1     -10.807  11.970  67.861  1.00  0.00    -0.215 C  
HETATM   16  H   UNL     1     -12.398  11.776  69.005  1.00  0.00     0.000 HD 
HETATM   17  O   UNL     1     -12.080  11.400  68.192  1.00  0.00    -0.623 OA 
BRANCH  15  18
HETATM   18  C   UNL     1     -10.853  13.484  67.877  1.00  0.00    -0.262 A  
HETATM   19  C   UNL     1     -10.047  14.207  66.979  1.00  0.00    -0.261 A  
HETATM   20  C   UNL     1     -10.041  15.607  66.977  1.00  0.00    -0.253 A  
HETATM   21  H   UNL     1     -11.462  18.099  68.590  1.00  0.00     0.000 HD 
HETATM   22  C   UNL     1     -10.876  16.279  67.879  1.00  0.00    -0.330 A  
HETATM   23  C   UNL     1     -11.692  14.186  68.753  1.00  0.00    -0.380 A  
HETATM   24  C   UNL     1     -11.702  15.580  68.754  1.00  0.00    -0.372 A  
HETATM   25  O   UNL     1     -10.895  17.642  67.978  1.00  0.00    -0.369 OA 
BRANCH  20  26
HETATM   26  N   UNL     1      -9.241  16.351  66.091  1.00  0.00    -0.320 N  
HETATM   27  H   UNL     1      -9.135  15.973  65.150  1.00  0.00     0.000 HD 
HETATM   28  O   UNL     1      -7.907  18.090  65.507  1.00  0.00    -0.451 OA 
HETATM   29  C   UNL     1      -8.591  17.525  66.350  1.00  0.00    -0.240 C  
ENDBRANCH  20  26
ENDBRANCH  15  18
ENDBRANCH  14  15
ENDBRANCH  12  14
ENDBRANCH  10  12
ENDBRANCH   9  10
ENDBRANCH   6   9
ENDBRANCH   2   3
TORSDOF 8
ENDMDL
MODEL      374
REMARK 921   NORMALIZED FREE ENERGY PREDICTED BY IDOCK:   -3.05 KCAL/MOL
REMARK 922        TOTAL FREE ENERGY PREDICTED BY IDOCK:   -6.13 KCAL/MOL
REMARK 923 INTER-LIGAND FREE ENERGY PREDICTED BY IDOCK:   -4.94 KCAL/MOL
REMARK 924 INTRA-LIGAND FREE ENERGY PREDICTED BY IDOCK:   -1.20 KCAL/MOL
REMARK 927      BINDING AFFINITY PREDICTED BY RF-SCORE:    0.00 PKD
ROOT
HETATM    1  C   UNL     1     -12.662   6.636  71.832  1.00  0.00    -0.212 C  
HETATM    2  O   UNL     1     -11.303   6.243  71.689  1.00  0.00    -0.272 OA 
ENDROOT
BRANCH   2   3
HETATM    3  C   UNL     1     -10.446   7.176  71.174  1.00  0.00    -0.210 A  
HETATM    4  C   UNL     1     -10.555   8.558  71.320  1.00  0.00    -0.296 A  
HETATM    5  C   UNL     1      -9.641   9.408  70.688  1.00  0.00    -0.331 A  
HETATM    6  C   UNL     1      -8.597   8.883  69.914  1.00  0.00    -0.137 A  
HETATM    7  C   UNL     1      -9.389   6.651  70.431  1.00  0.00    -0.160 A  
HETATM    8  C   UNL     1      -8.472   7.494  69.804  1.00  0.00    -0.135 A  
BRANCH   6   9
HETATM    9  C   UNL     1      -7.703   9.781  69.091  1.00  0.00    -0.092 C  
BRANCH   9  10
HETATM   10  C   UNL     1      -6.838  10.801  69.868  1.00  0.00    -0.146 C  
HETATM   11  C   UNL     1      -5.840  10.085  70.787  1.00  0.00    -0.091 C  
BRANCH  10  12
HETATM   12  N   UNL     1      -6.055  11.674  68.972  1.00  0.00    -0.053 NA 
HETATM   13  H   UNL     1      -5.116  11.301  68.833  1.00  0.00     0.000 HD 
BRANCH  12  14
HETATM   14  C   UNL     1      -6.713  11.928  67.679  1.00  0.00    -0.105 C  
BRANCH  14  15
HETATM   15  C   UNL     1      -7.149  13.399  67.479  1.00  0.00    -0.144 C  
HETATM   16  H   UNL     1      -6.842  15.120  68.385  1.00  0.00     0.000 HD 
HETATM   17  O   UNL     1      -6.575  14.217  68.507  1.00  0.00    -0.084 OA 
BRANCH  15  18
HETATM   18  C   UNL     1      -8.646  13.601  67.377  1.00  0.00    -0.212 A  
HETATM   19  C   UNL     1      -9.479  13.110  68.399  1.00  0.00    -0.166 A  
HETATM   20  C   UNL     1     -10.870  13.254  68.331  1.00  0.00    -0.258 A  
HETATM   21  H   UNL     1     -13.142  14.514  66.311  1.00  0.00     0.000 HD 
HETATM   22  C   UNL     1     -11.420  13.920  67.228  1.00  0.00    -0.344 A  
HETATM   23  C   UNL     1      -9.226  14.281  66.297  1.00  0.00    -0.181 A  
HETATM   24  C   UNL     1     -10.608  14.440  66.223  1.00  0.00    -0.292 A  
HETATM   25  O   UNL     1     -12.768  14.062  67.059  1.00  0.00    -0.071 OA 
BRANCH  20  26
HETATM   26  N   UNL     1     -11.723  12.768  69.339  1.00  0.00    -0.308 N  
HETATM   27  H   UNL     1     -11.957  11.777  69.296  1.00  0.00     0.000 HD 
HETATM   28  O   UNL     1     -13.016  12.959  71.192  1.00  0.00    -0.279 OA 
HETATM   29  C   UNL     1     -12.274  13.477  70.370  1.00  0.00    -0.356 C  
ENDBRANCH  20  26
ENDBRANCH  15  18
ENDBRANCH  14  15
ENDBRANCH  12  14
ENDBRANCH  10  12
ENDBRANCH   9  10
ENDBRANCH   6   9
ENDBRANCH   2   3
TORSDOF 8
ENDMDL
MODEL      375
REMARK 921   NORMALIZED FREE ENERGY PREDICTED BY IDOCK:   -3.04 KCAL/MOL
REMARK 922        TOTAL FREE ENERGY PREDICTED BY IDOCK:   -6.13 KCAL/MOL
REMARK 923 INTER-LIGAND FREE ENERGY PREDICTED BY IDOCK:   -5.48 KCAL/MOL
REMARK 924 INTRA-LIGAND FREE ENERGY PREDICTED BY IDOCK:   -0.65 KCAL/MOL
REMARK 927      BINDING AFFINITY PREDICTED BY RF-SCORE:    0.00 PKD
ROOT
HETATM    1  C   UNL     1      -8.735  17.677  66.673  1.00  0.00    -0.264 C  
HETATM    2  O   UNL     1      -9.416  16.923  65.679  1.00  0.00    -0.524 OA 
ENDROOT
BRANCH   2   3
HETATM    3  C   UNL     1      -9.583  15.589  65.930  1.00  0.00    -0.348 A  
HETATM    4  C   UNL     1      -8.980  14.865  66.957  1.00  0.00    -0.256 A  
HETATM    5  C   UNL     1      -9.189  13.486  67.065  1.00  0.00    -0.248 A  
HETATM    6  C   UNL     1     -10.018  12.817  66.155  1.00  0.00    -0.272 A  
HETATM    7  C   UNL     1     -10.434  14.931  65.042  1.00  0.00    -0.429 A  
HETATM    8  C   UNL     1     -10.650  13.556  65.150  1.00  0.00    -0.364 A  
BRANCH   6   9
HETATM    9  C   UNL     1     -10.124  11.310  66.152  1.00  0.00    -0.279 C  
BRANCH   9  10
HETATM   10  C   UNL     1     -10.550  10.641  67.480  1.00  0.00    -0.252 C  
HETATM   11  C   UNL     1     -11.770  11.350  68.083  1.00  0.00    -0.355 C  
BRANCH  10  12
HETATM   12  N   UNL     1     -10.916   9.222  67.304  1.00  0.00    -0.348 NA 
HETATM   13  H   UNL     1     -11.802   9.135  66.807  1.00  0.00     0.000 HD 
BRANCH  12  14
HETATM   14  C   UNL     1      -9.868   8.424  66.644  1.00  0.00    -0.273 C  
BRANCH  14  15
HETATM   15  C   UNL     1     -10.027   6.899  66.844  1.00  0.00    -0.200 C  
HETATM   16  H   UNL     1     -11.516   5.626  67.037  1.00  0.00     0.000 HD 
HETATM   17  O   UNL     1     -11.418   6.563  66.914  1.00  0.00    -0.212 OA 
BRANCH  15  18
HETATM   18  C   UNL     1      -9.258   6.337  68.023  1.00  0.00    -0.116 A  
HETATM   19  C   UNL     1      -8.481   7.202  68.814  1.00  0.00    -0.126 A  
HETATM   20  C   UNL     1      -7.736   6.721  69.897  1.00  0.00    -0.109 A  
HETATM   21  H   UNL     1      -7.104   3.863  71.402  1.00  0.00     0.000 HD 
HETATM   22  C   UNL     1      -7.796   5.352  70.193  1.00  0.00    -0.081 A  
HETATM   23  C   UNL     1      -9.313   4.977  68.357  1.00  0.00    -0.163 A  
HETATM   24  C   UNL     1      -8.584   4.487  69.439  1.00  0.00    -0.105 A  
HETATM   25  O   UNL     1      -7.063   4.791  71.201  1.00  0.00    -0.048 OA 
BRANCH  20  26
HETATM   26  N   UNL     1      -6.950   7.566  70.701  1.00  0.00    -0.051 N  
HETATM   27  H   UNL     1      -7.234   7.658  71.676  1.00  0.00     0.000 HD 
HETATM   28  O   UNL     1      -5.238   8.998  71.101  1.00  0.00    -0.028 OA 
HETATM   29  C   UNL     1      -5.847   8.279  70.321  1.00  0.00    -0.028 C  
ENDBRANCH  20  26
ENDBRANCH  15  18
ENDBRANCH  14  15
ENDBRANCH  12  14
ENDBRANCH  10  12
ENDBRANCH   9  10
ENDBRANCH   6   9
ENDBRANCH   2   3
TORSDOF 8
ENDMDL
MODEL      376
REMARK 921   NORMALIZED FREE ENERGY PREDICTED BY IDOCK:   -3.04 KCAL/MOL
REMARK 922        TOTAL FREE ENERGY PREDICTED BY IDOCK:   -6.12 KCAL/MOL
REMARK 923 INTER-LIGAND FREE ENERGY PREDICTED BY IDOCK:   -5.06 KCAL/MOL
REMARK 924 INTRA-LIGAND FREE ENERGY PREDICTED BY IDOCK:   -1.06 KCAL/MOL
REMARK 927      BINDING AFFINITY PREDICTED BY RF-SCORE:    0.00 PKD
ROOT
HETATM    1  C   UNL     1      -9.948   7.113  73.444  1.00  0.00    -0.278 C  
HETATM    2  O   UNL     1     -11.015   7.975  73.071  1.00  0.00    -0.374 OA 
ENDROOT
BRANCH   2   3
HETATM    3  C   UNL     1     -10.928   8.559  71.838  1.00  0.00    -0.324 A  
HETATM    4  C   UNL     1     -11.639   9.679  71.407  1.00  0.00    -0.472 A  
HETATM    5  C   UNL     1     -11.503  10.140  70.094  1.00  0.00    -0.368 A  
HETATM    6  C   UNL     1     -10.640   9.494  69.198  1.00  0.00    -0.237 A  
HETATM    7  C   UNL     1     -10.044   7.935  70.957  1.00  0.00    -0.212 A  
HETATM    8  C   UNL     1      -9.900   8.395  69.648  1.00  0.00    -0.184 A  
BRANCH   6   9
HETATM    9  C   UNL     1     -10.603   9.871  67.736  1.00  0.00    -0.313 C  
BRANCH   9  10
HETATM   10  C   UNL     1      -9.577  10.952  67.323  1.00  0.00    -0.164 C  
HETATM   11  C   UNL     1      -8.843  11.507  68.550  1.00  0.00    -0.139 C  
BRANCH  10  12
HETATM   12  N   UNL     1      -8.550  10.431  66.399  1.00  0.00    -0.130 NA 
HETATM   13  H   UNL     1      -7.761  10.044  66.917  1.00  0.00     0.000 HD 
BRANCH  12  14
HETATM   14  C   UNL     1      -9.073   9.449  65.434  1.00  0.00    -0.226 C  
BRANCH  14  15
HETATM   15  C   UNL     1      -8.082   8.307  65.109  1.00  0.00    -0.142 C  
HETATM   16  H   UNL     1      -7.254   7.544  63.493  1.00  0.00     0.000 HD 
HETATM   17  O   UNL     1      -7.862   8.246  63.694  1.00  0.00    -0.138 OA 
BRANCH  15  18
HETATM   18  C   UNL     1      -8.474   6.956  65.671  1.00  0.00    -0.141 A  
HETATM   19  C   UNL     1      -8.782   5.905  64.787  1.00  0.00     0.068 A  
HETATM   20  C   UNL     1      -9.173   4.649  65.265  1.00  0.00    -0.156 A  
HETATM   21  H   UNL     1      -9.691   3.135  68.141  1.00  0.00     0.000 HD 
HETATM   22  C   UNL     1      -9.232   4.450  66.650  1.00  0.00    -0.137 A  
HETATM   23  C   UNL     1      -8.523   6.718  67.051  1.00  0.00    -0.114 A  
HETATM   24  C   UNL     1      -8.901   5.469  67.539  1.00  0.00    -0.105 A  
HETATM   25  O   UNL     1      -9.651   3.271  67.201  1.00  0.00    -0.183 OA 
BRANCH  20  26
HETATM   26  N   UNL     1      -9.489   3.584  64.400  1.00  0.00    -0.142 N  
HETATM   27  H   UNL     1      -8.771   2.870  64.280  1.00  0.00     0.000 HD 
HETATM   28  O   UNL     1     -10.820   2.439  62.966  1.00  0.00    -0.185 OA 
HETATM   29  C   UNL     1     -10.650   3.400  63.704  1.00  0.00    -0.270 C  
ENDBRANCH  20  26
ENDBRANCH  15  18
ENDBRANCH  14  15
ENDBRANCH  12  14
ENDBRANCH  10  12
ENDBRANCH   9  10
ENDBRANCH   6   9
ENDBRANCH   2   3
TORSDOF 8
ENDMDL
MODEL      377
REMARK 921   NORMALIZED FREE ENERGY PREDICTED BY IDOCK:   -3.02 KCAL/MOL
REMARK 922        TOTAL FREE ENERGY PREDICTED BY IDOCK:   -6.10 KCAL/MOL
REMARK 923 INTER-LIGAND FREE ENERGY PREDICTED BY IDOCK:   -5.33 KCAL/MOL
REMARK 924 INTRA-LIGAND FREE ENERGY PREDICTED BY IDOCK:   -0.77 KCAL/MOL
REMARK 927      BINDING AFFINITY PREDICTED BY RF-SCORE:    0.00 PKD
ROOT
HETATM    1  C   UNL     1     -11.680   5.200  72.840  1.00  0.00    -0.139 C  
HETATM    2  O   UNL     1     -10.690   6.205  72.665  1.00  0.00    -0.208 OA 
ENDROOT
BRANCH   2   3
HETATM    3  C   UNL     1     -10.866   7.063  71.614  1.00  0.00    -0.223 A  
HETATM    4  C   UNL     1     -11.002   6.702  70.275  1.00  0.00    -0.355 A  
HETATM    5  C   UNL     1     -11.115   7.686  69.287  1.00  0.00     0.066 A  
HETATM    6  C   UNL     1     -11.107   9.044  69.630  1.00  0.00    -0.080 A  
HETATM    7  C   UNL     1     -10.891   8.414  71.961  1.00  0.00    -0.390 A  
HETATM    8  C   UNL     1     -11.008   9.398  70.979  1.00  0.00    -0.409 A  
BRANCH   6   9
HETATM    9  C   UNL     1     -11.060  10.120  68.570  1.00  0.00    -0.266 C  
BRANCH   9  10
HETATM   10  C   UNL     1     -10.234   9.809  67.301  1.00  0.00    -0.232 C  
HETATM   11  C   UNL     1     -11.035  10.133  66.033  1.00  0.00     0.317 C  
BRANCH  10  12
HETATM   12  N   UNL     1      -8.983  10.590  67.236  1.00  0.00    -0.139 NA 
HETATM   13  H   UNL     1      -8.299  10.129  66.636  1.00  0.00     0.000 HD 
BRANCH  12  14
HETATM   14  C   UNL     1      -9.186  11.987  66.817  1.00  0.00    -0.201 C  
BRANCH  14  15
HETATM   15  C   UNL     1      -8.396  13.013  67.664  1.00  0.00    -0.181 C  
HETATM   16  H   UNL     1      -7.673  13.108  69.493  1.00  0.00     0.000 HD 
HETATM   17  O   UNL     1      -8.158  12.479  68.972  1.00  0.00     0.125 OA 
BRANCH  15  18
HETATM   18  C   UNL     1      -9.024  14.390  67.729  1.00  0.00    -0.192 A  
HETATM   19  C   UNL     1      -9.641  14.809  68.922  1.00  0.00    -0.210 A  
HETATM   20  C   UNL     1     -10.255  16.063  69.017  1.00  0.00    -0.236 A  
HETATM   21  H   UNL     1     -10.820  18.702  67.133  1.00  0.00     0.000 HD 
HETATM   22  C   UNL     1     -10.225  16.908  67.900  1.00  0.00    -0.308 A  
HETATM   23  C   UNL     1      -8.993  15.267  66.636  1.00  0.00    -0.324 A  
HETATM   24  C   UNL     1      -9.592  16.522  66.722  1.00  0.00    -0.268 A  
HETATM   25  O   UNL     1     -10.841  18.128  67.891  1.00  0.00    -0.363 OA 
BRANCH  20  26
HETATM   26  N   UNL     1     -10.881  16.503  70.198  1.00  0.00    -0.300 N  
HETATM   27  H   UNL     1     -11.135  17.490  70.236  1.00  0.00     0.000 HD 
HETATM   28  O   UNL     1     -11.725  16.241  72.286  1.00  0.00    -0.498 OA 
HETATM   29  C   UNL     1     -11.187  15.756  71.301  1.00  0.00    -0.314 C  
ENDBRANCH  20  26
ENDBRANCH  15  18
ENDBRANCH  14  15
ENDBRANCH  12  14
ENDBRANCH  10  12
ENDBRANCH   9  10
ENDBRANCH   6   9
ENDBRANCH   2   3
TORSDOF 8
ENDMDL
MODEL      378
REMARK 921   NORMALIZED FREE ENERGY PREDICTED BY IDOCK:   -3.02 KCAL/MOL
REMARK 922        TOTAL FREE ENERGY PREDICTED BY IDOCK:   -6.09 KCAL/MOL
REMARK 923 INTER-LIGAND FREE ENERGY PREDICTED BY IDOCK:   -4.50 KCAL/MOL
REMARK 924 INTRA-LIGAND FREE ENERGY PREDICTED BY IDOCK:   -1.59 KCAL/MOL
REMARK 927      BINDING AFFINITY PREDICTED BY RF-SCORE:    0.00 PKD
ROOT
HETATM    1  C   UNL     1     -10.740   5.691  66.573  1.00  0.00    -0.226 C  
HETATM    2  O   UNL     1     -10.148   4.864  67.566  1.00  0.00    -0.171 OA 
ENDROOT
BRANCH   2   3
HETATM    3  C   UNL     1     -10.350   5.230  68.868  1.00  0.00    -0.158 A  
HETATM    4  C   UNL     1     -10.917   6.426  69.307  1.00  0.00    -0.418 A  
HETATM    5  C   UNL     1     -11.010   6.703  70.674  1.00  0.00    -0.329 A  
HETATM    6  C   UNL     1     -10.550   5.779  71.622  1.00  0.00    -0.302 A  
HETATM    7  C   UNL     1      -9.922   4.295  69.811  1.00  0.00    -0.167 A  
HETATM    8  C   UNL     1     -10.018   4.565  71.176  1.00  0.00    -0.257 A  
BRANCH   6   9
HETATM    9  C   UNL     1     -10.488   6.127  73.091  1.00  0.00    -0.254 C  
BRANCH   9  10
HETATM   10  C   UNL     1      -9.079   6.257  73.715  1.00  0.00    -0.129 C  
HETATM   11  C   UNL     1      -8.595   4.908  74.261  1.00  0.00    -0.110 C  
BRANCH  10  12
HETATM   12  N   UNL     1      -8.071   6.718  72.740  1.00  0.00    -0.106 NA 
HETATM   13  H   UNL     1      -8.156   6.206  71.862  1.00  0.00     0.000 HD 
BRANCH  12  14
HETATM   14  C   UNL     1      -8.107   8.171  72.502  1.00  0.00    -0.150 C  
BRANCH  14  15
HETATM   15  C   UNL     1      -7.224   8.631  71.318  1.00  0.00    -0.089 C  
HETATM   16  H   UNL     1      -5.935  10.078  70.969  1.00  0.00     0.000 HD 
HETATM   17  O   UNL     1      -6.478   9.796  71.696  1.00  0.00    -0.309 OA 
BRANCH  15  18
HETATM   18  C   UNL     1      -7.975   8.847  70.021  1.00  0.00    -0.109 A  
HETATM   19  C   UNL     1      -7.585   8.135  68.872  1.00  0.00    -0.098 A  
HETATM   20  C   UNL     1      -8.236   8.323  67.648  1.00  0.00    -0.127 A  
HETATM   21  H   UNL     1     -10.691  10.118  66.389  1.00  0.00     0.000 HD 
HETATM   22  C   UNL     1      -9.306   9.226  67.592  1.00  0.00    -0.128 A  
HETATM   23  C   UNL     1      -9.062   9.728  69.937  1.00  0.00    -0.257 A  
HETATM   24  C   UNL     1      -9.725   9.916  68.726  1.00  0.00    -0.164 A  
HETATM   25  O   UNL     1      -9.965   9.505  66.427  1.00  0.00    -0.236 OA 
BRANCH  20  26
HETATM   26  N   UNL     1      -7.862   7.624  66.485  1.00  0.00    -0.103 N  
HETATM   27  H   UNL     1      -8.284   6.705  66.353  1.00  0.00     0.000 HD 
HETATM   28  O   UNL     1      -6.729   7.346  64.541  1.00  0.00    -0.043 OA 
HETATM   29  C   UNL     1      -6.996   8.039  65.512  1.00  0.00    -0.059 C  
ENDBRANCH  20  26
ENDBRANCH  15  18
ENDBRANCH  14  15
ENDBRANCH  12  14
ENDBRANCH  10  12
ENDBRANCH   9  10
ENDBRANCH   6   9
ENDBRANCH   2   3
TORSDOF 8
ENDMDL
MODEL      379
REMARK 921   NORMALIZED FREE ENERGY PREDICTED BY IDOCK:   -3.01 KCAL/MOL
REMARK 922        TOTAL FREE ENERGY PREDICTED BY IDOCK:   -6.08 KCAL/MOL
REMARK 923 INTER-LIGAND FREE ENERGY PREDICTED BY IDOCK:   -5.57 KCAL/MOL
REMARK 924 INTRA-LIGAND FREE ENERGY PREDICTED BY IDOCK:   -0.51 KCAL/MOL
REMARK 927      BINDING AFFINITY PREDICTED BY RF-SCORE:    0.00 PKD
ROOT
HETATM    1  C   UNL     1      -7.351   9.419  64.121  1.00  0.00    -0.106 C  
HETATM    2  O   UNL     1      -7.236  10.498  65.039  1.00  0.00    -0.100 OA 
ENDROOT
BRANCH   2   3
HETATM    3  C   UNL     1      -8.340  10.777  65.797  1.00  0.00    -0.158 A  
HETATM    4  C   UNL     1      -8.523  11.905  66.596  1.00  0.00    -0.143 A  
HETATM    5  C   UNL     1      -9.678  12.040  67.373  1.00  0.00    -0.185 A  
HETATM    6  C   UNL     1     -10.672  11.052  67.349  1.00  0.00    -0.303 A  
HETATM    7  C   UNL     1      -9.343   9.809  65.747  1.00  0.00    -0.278 A  
HETATM    8  C   UNL     1     -10.499   9.942  66.516  1.00  0.00    -0.213 A  
BRANCH   6   9
HETATM    9  C   UNL     1     -11.844  11.096  68.301  1.00  0.00    -0.260 C  
BRANCH   9  10
HETATM   10  C   UNL     1     -11.542  10.796  69.788  1.00  0.00    -0.317 C  
HETATM   11  C   UNL     1     -12.302  11.761  70.707  1.00  0.00    -0.433 C  
BRANCH  10  12
HETATM   12  N   UNL     1     -11.932   9.426  70.178  1.00  0.00    -0.460 NA 
HETATM   13  H   UNL     1     -11.390   8.735  69.661  1.00  0.00     0.000 HD 
BRANCH  12  14
HETATM   14  C   UNL     1     -11.843   9.182  71.628  1.00  0.00    -0.372 C  
BRANCH  14  15
HETATM   15  C   UNL     1     -11.544   7.709  71.994  1.00  0.00    -0.291 C  
HETATM   16  H   UNL     1     -11.066   6.705  73.619  1.00  0.00     0.000 HD 
HETATM   17  O   UNL     1     -11.250   7.609  73.394  1.00  0.00    -0.314 OA 
BRANCH  15  18
HETATM   18  C   UNL     1     -10.468   7.058  71.150  1.00  0.00    -0.229 A  
HETATM   19  C   UNL     1     -10.451   5.658  71.014  1.00  0.00    -0.316 A  
HETATM   20  C   UNL     1      -9.460   5.015  70.264  1.00  0.00    -0.172 A  
HETATM   21  H   UNL     1      -6.799   5.784  68.487  1.00  0.00     0.000 HD 
HETATM   22  C   UNL     1      -8.489   5.800  69.629  1.00  0.00    -0.112 A  
HETATM   23  C   UNL     1      -9.494   7.816  70.486  1.00  0.00    -0.163 A  
HETATM   24  C   UNL     1      -8.508   7.188  69.728  1.00  0.00    -0.137 A  
HETATM   25  O   UNL     1      -7.458   5.252  68.918  1.00  0.00    -0.071 OA 
BRANCH  20  26
HETATM   26  N   UNL     1      -9.422   3.616  70.116  1.00  0.00    -0.178 N  
HETATM   27  H   UNL     1      -9.205   3.265  69.184  1.00  0.00     0.000 HD 
HETATM   28  O   UNL     1      -9.595   1.477  70.846  1.00  0.00    -0.112 OA 
HETATM   29  C   UNL     1      -9.642   2.675  71.083  1.00  0.00    -0.150 C  
ENDBRANCH  20  26
ENDBRANCH  15  18
ENDBRANCH  14  15
ENDBRANCH  12  14
ENDBRANCH  10  12
ENDBRANCH   9  10
ENDBRANCH   6   9
ENDBRANCH   2   3
TORSDOF 8
ENDMDL
MODEL      380
REMARK 921   NORMALIZED FREE ENERGY PREDICTED BY IDOCK:   -2.99 KCAL/MOL
REMARK 922        TOTAL FREE ENERGY PREDICTED BY IDOCK:   -6.04 KCAL/MOL
REMARK 923 INTER-LIGAND FREE ENERGY PREDICTED BY IDOCK:   -5.01 KCAL/MOL
REMARK 924 INTRA-LIGAND FREE ENERGY PREDICTED BY IDOCK:   -1.03 KCAL/MOL
REMARK 927      BINDING AFFINITY PREDICTED BY RF-SCORE:    0.00 PKD
ROOT
HETATM    1  C   UNL     1     -11.582   6.395  70.857  1.00  0.00    -0.331 C  
HETATM    2  O   UNL     1     -10.173   6.241  70.745  1.00  0.00    -0.186 OA 
ENDROOT
BRANCH   2   3
HETATM    3  C   UNL     1      -9.464   7.346  70.362  1.00  0.00    -0.165 A  
HETATM    4  C   UNL     1      -9.822   8.673  70.598  1.00  0.00    -0.220 A  
HETATM    5  C   UNL     1      -9.035   9.715  70.096  1.00  0.00    -0.273 A  
HETATM    6  C   UNL     1      -7.872   9.441  69.365  1.00  0.00    -0.087 A  
HETATM    7  C   UNL     1      -8.289   7.072  69.663  1.00  0.00    -0.133 A  
HETATM    8  C   UNL     1      -7.499   8.108  69.166  1.00  0.00    -0.087 A  
BRANCH   6   9
HETATM    9  C   UNL     1      -7.102  10.543  68.675  1.00  0.00    -0.077 C  
BRANCH   9  10
HETATM   10  C   UNL     1      -6.368  11.553  69.587  1.00  0.00    -0.133 C  
HETATM   11  C   UNL     1      -5.496  10.827  70.619  1.00  0.00    -0.105 C  
BRANCH  10  12
HETATM   12  N   UNL     1      -5.480  12.457  68.828  1.00  0.00    -0.054 NA 
HETATM   13  H   UNL     1      -4.615  11.982  68.572  1.00  0.00     0.000 HD 
BRANCH  12  14
HETATM   14  C   UNL     1      -6.123  13.048  67.642  1.00  0.00    -0.151 C  
BRANCH  14  15
HETATM   15  C   UNL     1      -6.468  14.547  67.802  1.00  0.00    -0.164 C  
HETATM   16  H   UNL     1      -5.847  16.051  68.912  1.00  0.00     0.000 HD 
HETATM   17  O   UNL     1      -5.635  15.130  68.813  1.00  0.00    -0.087 OA 
BRANCH  15  18
HETATM   18  C   UNL     1      -7.934  14.830  68.057  1.00  0.00    -0.138 A  
HETATM   19  C   UNL     1      -8.368  16.163  68.174  1.00  0.00    -0.166 A  
HETATM   20  C   UNL     1      -9.710  16.467  68.434  1.00  0.00    -0.236 A  
HETATM   21  H   UNL     1     -12.560  14.901  68.940  1.00  0.00     0.000 HD 
HETATM   22  C   UNL     1     -10.623  15.412  68.556  1.00  0.00    -0.240 A  
HETATM   23  C   UNL     1      -8.876  13.797  68.164  1.00  0.00    -0.185 A  
HETATM   24  C   UNL     1     -10.216  14.088  68.413  1.00  0.00    -0.239 A  
HETATM   25  O   UNL     1     -11.940  15.617  68.857  1.00  0.00    -0.367 OA 
BRANCH  20  26
HETATM   26  N   UNL     1     -10.167  17.792  68.558  1.00  0.00    -0.369 N  
HETATM   27  H   UNL     1     -10.413  18.101  69.498  1.00  0.00     0.000 HD 
HETATM   28  O   UNL     1     -10.737  19.842  67.772  1.00  0.00    -0.407 OA 
HETATM   29  C   UNL     1     -10.318  18.712  67.558  1.00  0.00    -0.411 C  
ENDBRANCH  20  26
ENDBRANCH  15  18
ENDBRANCH  14  15
ENDBRANCH  12  14
ENDBRANCH  10  12
ENDBRANCH   9  10
ENDBRANCH   6   9
ENDBRANCH   2   3
TORSDOF 8
ENDMDL
MODEL      381
REMARK 921   NORMALIZED FREE ENERGY PREDICTED BY IDOCK:   -2.98 KCAL/MOL
REMARK 922        TOTAL FREE ENERGY PREDICTED BY IDOCK:   -6.04 KCAL/MOL
REMARK 923 INTER-LIGAND FREE ENERGY PREDICTED BY IDOCK:   -5.31 KCAL/MOL
REMARK 924 INTRA-LIGAND FREE ENERGY PREDICTED BY IDOCK:   -0.73 KCAL/MOL
REMARK 927      BINDING AFFINITY PREDICTED BY RF-SCORE:    0.00 PKD
ROOT
HETATM    1  C   UNL     1     -10.598  15.531  65.924  1.00  0.00    -0.339 C  
HETATM    2  O   UNL     1     -11.190  14.290  66.285  1.00  0.00    -0.324 OA 
ENDROOT
BRANCH   2   3
HETATM    3  C   UNL     1     -10.405  13.177  66.156  1.00  0.00    -0.284 A  
HETATM    4  C   UNL     1      -9.446  12.738  67.068  1.00  0.00    -0.233 A  
HETATM    5  C   UNL     1      -8.666  11.612  66.784  1.00  0.00    -0.189 A  
HETATM    6  C   UNL     1      -8.847  10.902  65.589  1.00  0.00    -0.201 A  
HETATM    7  C   UNL     1     -10.609  12.453  64.981  1.00  0.00    -0.330 A  
HETATM    8  C   UNL     1      -9.837  11.326  64.696  1.00  0.00    -0.314 A  
BRANCH   6   9
HETATM    9  C   UNL     1      -7.907   9.790  65.188  1.00  0.00    -0.126 C  
BRANCH   9  10
HETATM   10  C   UNL     1      -8.548   8.417  64.878  1.00  0.00    -0.080 C  
HETATM   11  C   UNL     1      -7.479   7.392  64.477  1.00  0.00    -0.095 C  
BRANCH  10  12
HETATM   12  N   UNL     1      -9.273   7.859  66.036  1.00  0.00    -0.347 NA 
HETATM   13  H   UNL     1     -10.276   8.025  65.949  1.00  0.00     0.000 HD 
BRANCH  12  14
HETATM   14  C   UNL     1      -8.999   6.430  66.266  1.00  0.00    -0.156 C  
BRANCH  14  15
HETATM   15  C   UNL     1     -10.084   5.714  67.106  1.00  0.00    -0.183 C  
HETATM   16  H   UNL     1     -11.946   6.064  67.639  1.00  0.00     0.000 HD 
HETATM   17  O   UNL     1     -11.280   6.503  67.123  1.00  0.00    -0.388 OA 
BRANCH  15  18
HETATM   18  C   UNL     1      -9.645   5.335  68.505  1.00  0.00    -0.180 A  
HETATM   19  C   UNL     1      -9.249   6.346  69.400  1.00  0.00    -0.143 A  
HETATM   20  C   UNL     1      -8.814   6.037  70.694  1.00  0.00    -0.142 A  
HETATM   21  H   UNL     1      -8.334   3.389  72.588  1.00  0.00     0.000 HD 
HETATM   22  C   UNL     1      -8.799   4.694  71.091  1.00  0.00    -0.118 A  
HETATM   23  C   UNL     1      -9.638   4.003  68.940  1.00  0.00    -0.213 A  
HETATM   24  C   UNL     1      -9.217   3.684  70.229  1.00  0.00    -0.222 A  
HETATM   25  O   UNL     1      -8.343   4.300  72.318  1.00  0.00    -0.100 OA 
BRANCH  20  26
HETATM   26  N   UNL     1      -8.411   7.030  71.606  1.00  0.00    -0.108 N  
HETATM   27  H   UNL     1      -7.423   7.283  71.593  1.00  0.00     0.000 HD 
HETATM   28  O   UNL     1      -8.741   8.538  73.267  1.00  0.00    -0.337 OA 
HETATM   29  C   UNL     1      -9.195   7.695  72.506  1.00  0.00    -0.157 C  
ENDBRANCH  20  26
ENDBRANCH  15  18
ENDBRANCH  14  15
ENDBRANCH  12  14
ENDBRANCH  10  12
ENDBRANCH   9  10
ENDBRANCH   6   9
ENDBRANCH   2   3
TORSDOF 8
ENDMDL
MODEL      382
REMARK 921   NORMALIZED FREE ENERGY PREDICTED BY IDOCK:   -2.95 KCAL/MOL
REMARK 922        TOTAL FREE ENERGY PREDICTED BY IDOCK:   -6.00 KCAL/MOL
REMARK 923 INTER-LIGAND FREE ENERGY PREDICTED BY IDOCK:   -5.60 KCAL/MOL
REMARK 924 INTRA-LIGAND FREE ENERGY PREDICTED BY IDOCK:   -0.39 KCAL/MOL
REMARK 927      BINDING AFFINITY PREDICTED BY RF-SCORE:    0.00 PKD
ROOT
HETATM    1  C   UNL     1     -10.513   4.489  74.492  1.00  0.00    -0.253 C  
HETATM    2  O   UNL     1      -9.440   3.810  73.854  1.00  0.00    -0.095 OA 
ENDROOT
BRANCH   2   3
HETATM    3  C   UNL     1      -9.389   3.891  72.489  1.00  0.00    -0.116 A  
HETATM    4  C   UNL     1      -9.304   5.063  71.739  1.00  0.00    -0.184 A  
HETATM    5  C   UNL     1      -9.322   5.008  70.341  1.00  0.00    -0.216 A  
HETATM    6  C   UNL     1      -9.411   3.777  69.677  1.00  0.00    -0.245 A  
HETATM    7  C   UNL     1      -9.445   2.663  71.830  1.00  0.00    -0.205 A  
HETATM    8  C   UNL     1      -9.457   2.603  70.436  1.00  0.00    -0.185 A  
BRANCH   6   9
HETATM    9  C   UNL     1      -9.600   3.706  68.180  1.00  0.00    -0.166 C  
BRANCH   9  10
HETATM   10  C   UNL     1      -9.648   5.053  67.421  1.00  0.00    -0.145 C  
HETATM   11  C   UNL     1      -9.765   4.825  65.908  1.00  0.00    -0.203 C  
BRANCH  10  12
HETATM   12  N   UNL     1     -10.797   5.887  67.825  1.00  0.00    -0.270 NA 
HETATM   13  H   UNL     1     -10.837   5.980  68.840  1.00  0.00     0.000 HD 
BRANCH  12  14
HETATM   14  C   UNL     1     -10.815   7.211  67.180  1.00  0.00    -0.333 C  
BRANCH  14  15
HETATM   15  C   UNL     1      -9.496   8.002  67.343  1.00  0.00    -0.151 C  
HETATM   16  H   UNL     1      -8.782   9.361  68.576  1.00  0.00     0.000 HD 
HETATM   17  O   UNL     1      -9.592   8.874  68.476  1.00  0.00    -0.153 OA 
BRANCH  15  18
HETATM   18  C   UNL     1      -9.054   8.748  66.101  1.00  0.00    -0.251 A  
HETATM   19  C   UNL     1      -9.985   9.540  65.405  1.00  0.00    -0.135 A  
HETATM   20  C   UNL     1      -9.625  10.226  64.239  1.00  0.00    -0.313 A  
HETATM   21  H   UNL     1      -6.982  10.654  62.326  1.00  0.00     0.000 HD 
HETATM   22  C   UNL     1      -8.303  10.125  63.787  1.00  0.00    -0.171 A  
HETATM   23  C   UNL     1      -7.734   8.684  65.634  1.00  0.00    -0.091 A  
HETATM   24  C   UNL     1      -7.360   9.371  64.480  1.00  0.00    -0.105 A  
HETATM   25  O   UNL     1      -7.879  10.722  62.633  1.00  0.00    -0.141 OA 
BRANCH  20  26
HETATM   26  N   UNL     1     -10.539  11.021  63.525  1.00  0.00    -0.557 N  
HETATM   27  H   UNL     1     -10.867  10.647  62.635  1.00  0.00     0.000 HD 
HETATM   28  O   UNL     1     -11.825  12.858  63.187  1.00  0.00    -0.506 OA 
HETATM   29  C   UNL     1     -11.039  12.240  63.891  1.00  0.00    -0.412 C  
ENDBRANCH  20  26
ENDBRANCH  15  18
ENDBRANCH  14  15
ENDBRANCH  12  14
ENDBRANCH  10  12
ENDBRANCH   9  10
ENDBRANCH   6   9
ENDBRANCH   2   3
TORSDOF 8
ENDMDL
MODEL      383
REMARK 921   NORMALIZED FREE ENERGY PREDICTED BY IDOCK:   -2.94 KCAL/MOL
REMARK 922        TOTAL FREE ENERGY PREDICTED BY IDOCK:   -5.97 KCAL/MOL
REMARK 923 INTER-LIGAND FREE ENERGY PREDICTED BY IDOCK:   -5.05 KCAL/MOL
REMARK 924 INTRA-LIGAND FREE ENERGY PREDICTED BY IDOCK:   -0.92 KCAL/MOL
REMARK 927      BINDING AFFINITY PREDICTED BY RF-SCORE:    0.00 PKD
ROOT
HETATM    1  C   UNL     1     -10.223  14.832  68.813  1.00  0.00    -0.239 C  
HETATM    2  O   UNL     1      -9.210  14.716  67.822  1.00  0.00    -0.189 OA 
ENDROOT
BRANCH   2   3
HETATM    3  C   UNL     1      -8.899  13.450  67.409  1.00  0.00    -0.214 A  
HETATM    4  C   UNL     1      -7.783  12.710  67.800  1.00  0.00    -0.145 A  
HETATM    5  C   UNL     1      -7.549  11.444  67.253  1.00  0.00    -0.138 A  
HETATM    6  C   UNL     1      -8.438  10.896  66.319  1.00  0.00    -0.166 A  
HETATM    7  C   UNL     1      -9.802  12.892  66.505  1.00  0.00    -0.254 A  
HETATM    8  C   UNL     1      -9.576  11.627  65.961  1.00  0.00    -0.249 A  
BRANCH   6   9
HETATM    9  C   UNL     1      -8.119   9.609  65.595  1.00  0.00    -0.117 C  
BRANCH   9  10
HETATM   10  C   UNL     1      -8.939   8.362  66.001  1.00  0.00    -0.184 C  
HETATM   11  C   UNL     1      -8.331   7.088  65.400  1.00  0.00    -0.121 C  
BRANCH  10  12
HETATM   12  N   UNL     1      -8.987   8.171  67.465  1.00  0.00    -0.137 NA 
HETATM   13  H   UNL     1      -8.688   9.017  67.949  1.00  0.00     0.000 HD 
BRANCH  12  14
HETATM   14  C   UNL     1     -10.304   7.728  67.954  1.00  0.00    -0.217 C  
BRANCH  14  15
HETATM   15  C   UNL     1     -10.870   8.603  69.097  1.00  0.00    -0.039 C  
HETATM   16  H   UNL     1     -10.723  10.480  69.674  1.00  0.00     0.000 HD 
HETATM   17  O   UNL     1     -10.376   9.942  68.972  1.00  0.00    -0.188 OA 
BRANCH  15  18
HETATM   18  C   UNL     1     -10.634   8.049  70.487  1.00  0.00    -0.222 A  
HETATM   19  C   UNL     1     -10.816   6.674  70.721  1.00  0.00    -0.299 A  
HETATM   20  C   UNL     1     -10.632   6.126  71.996  1.00  0.00    -0.218 A  
HETATM   21  H   UNL     1      -9.818   7.109  75.029  1.00  0.00     0.000 HD 
HETATM   22  C   UNL     1     -10.239   6.976  73.038  1.00  0.00    -0.233 A  
HETATM   23  C   UNL     1     -10.221   8.869  71.547  1.00  0.00    -0.398 A  
HETATM   24  C   UNL     1     -10.025   8.333  72.818  1.00  0.00    -0.333 A  
HETATM   25  O   UNL     1     -10.085   6.533  74.322  1.00  0.00    -0.306 OA 
BRANCH  20  26
HETATM   26  N   UNL     1     -10.811   4.754  72.255  1.00  0.00    -0.120 N  
HETATM   27  H   UNL     1     -11.637   4.499  72.795  1.00  0.00     0.000 HD 
HETATM   28  O   UNL     1     -10.242   2.562  72.151  1.00  0.00    -0.162 OA 
HETATM   29  C   UNL     1     -10.001   3.725  71.862  1.00  0.00    -0.160 C  
ENDBRANCH  20  26
ENDBRANCH  15  18
ENDBRANCH  14  15
ENDBRANCH  12  14
ENDBRANCH  10  12
ENDBRANCH   9  10
ENDBRANCH   6   9
ENDBRANCH   2   3
TORSDOF 8
ENDMDL
MODEL      384
REMARK 921   NORMALIZED FREE ENERGY PREDICTED BY IDOCK:   -2.92 KCAL/MOL
REMARK 922        TOTAL FREE ENERGY PREDICTED BY IDOCK:   -5.94 KCAL/MOL
REMARK 923 INTER-LIGAND FREE ENERGY PREDICTED BY IDOCK:   -5.72 KCAL/MOL
REMARK 924 INTRA-LIGAND FREE ENERGY PREDICTED BY IDOCK:   -0.23 KCAL/MOL
REMARK 927      BINDING AFFINITY PREDICTED BY RF-SCORE:    0.00 PKD
ROOT
HETATM    1  C   UNL     1      -8.952   3.252  70.233  1.00  0.00    -0.102 C  
HETATM    2  O   UNL     1      -9.483   3.623  71.498  1.00  0.00    -0.127 OA 
ENDROOT
BRANCH   2   3
HETATM    3  C   UNL     1     -10.110   4.837  71.567  1.00  0.00    -0.190 A  
HETATM    4  C   UNL     1     -10.696   5.519  70.502  1.00  0.00    -0.310 A  
HETATM    5  C   UNL     1     -11.254   6.787  70.698  1.00  0.00    -0.361 A  
HETATM    6  C   UNL     1     -11.244   7.382  71.967  1.00  0.00    -0.289 A  
HETATM    7  C   UNL     1     -10.128   5.413  72.837  1.00  0.00    -0.204 A  
HETATM    8  C   UNL     1     -10.688   6.675  73.038  1.00  0.00    -0.299 A  
BRANCH   6   9
HETATM    9  C   UNL     1     -11.687   8.812  72.166  1.00  0.00    -0.433 C  
BRANCH   9  10
HETATM   10  C   UNL     1     -10.977   9.885  71.308  1.00  0.00    -0.155 C  
HETATM   11  C   UNL     1      -9.523   9.485  71.024  1.00  0.00    -0.118 C  
BRANCH  10  12
HETATM   12  N   UNL     1     -11.635  10.089  70.001  1.00  0.00    -0.361 NA 
HETATM   13  H   UNL     1     -12.629   9.868  70.059  1.00  0.00     0.000 HD 
BRANCH  12  14
HETATM   14  C   UNL     1     -11.432  11.438  69.448  1.00  0.00    -0.310 C  
BRANCH  14  15
HETATM   15  C   UNL     1     -10.785  11.444  68.042  1.00  0.00    -0.200 C  
HETATM   16  H   UNL     1      -9.644  10.237  66.984  1.00  0.00     0.000 HD 
HETATM   17  O   UNL     1     -10.042  10.234  67.847  1.00  0.00    -0.160 OA 
BRANCH  15  18
HETATM   18  C   UNL     1      -9.945  12.669  67.743  1.00  0.00    -0.218 A  
HETATM   19  C   UNL     1     -10.504  13.947  67.920  1.00  0.00    -0.242 A  
HETATM   20  C   UNL     1      -9.771  15.104  67.631  1.00  0.00    -0.211 A  
HETATM   21  H   UNL     1      -6.788  15.943  66.522  1.00  0.00     0.000 HD 
HETATM   22  C   UNL     1      -8.452  14.964  67.180  1.00  0.00    -0.220 A  
HETATM   23  C   UNL     1      -8.616  12.563  67.309  1.00  0.00    -0.191 A  
HETATM   24  C   UNL     1      -7.873  13.707  67.028  1.00  0.00     0.104 A  
HETATM   25  O   UNL     1      -7.682  16.038  66.829  1.00  0.00    -0.230 OA 
BRANCH  20  26
HETATM   26  N   UNL     1     -10.309  16.394  67.797  1.00  0.00    -0.279 N  
HETATM   27  H   UNL     1     -11.079  16.647  67.178  1.00  0.00     0.000 HD 
HETATM   28  O   UNL     1     -10.447  18.446  68.752  1.00  0.00    -0.270 OA 
HETATM   29  C   UNL     1      -9.917  17.345  68.696  1.00  0.00    -0.340 C  
ENDBRANCH  20  26
ENDBRANCH  15  18
ENDBRANCH  14  15
ENDBRANCH  12  14
ENDBRANCH  10  12
ENDBRANCH   9  10
ENDBRANCH   6   9
ENDBRANCH   2   3
TORSDOF 8
ENDMDL
MODEL      385
REMARK 921   NORMALIZED FREE ENERGY PREDICTED BY IDOCK:   -2.90 KCAL/MOL
REMARK 922        TOTAL FREE ENERGY PREDICTED BY IDOCK:   -5.92 KCAL/MOL
REMARK 923 INTER-LIGAND FREE ENERGY PREDICTED BY IDOCK:   -5.41 KCAL/MOL
REMARK 924 INTRA-LIGAND FREE ENERGY PREDICTED BY IDOCK:   -0.51 KCAL/MOL
REMARK 927      BINDING AFFINITY PREDICTED BY RF-SCORE:    0.00 PKD
ROOT
HETATM    1  C   UNL     1      -9.363  10.102  69.449  1.00  0.00    -0.219 C  
HETATM    2  O   UNL     1     -10.680   9.987  68.927  1.00  0.00    -0.203 OA 
ENDROOT
BRANCH   2   3
HETATM    3  C   UNL     1     -10.907  10.561  67.706  1.00  0.00    -0.294 A  
HETATM    4  C   UNL     1     -10.275  10.222  66.510  1.00  0.00    -0.289 A  
HETATM    5  C   UNL     1     -10.557  10.931  65.338  1.00  0.00    -0.243 A  
HETATM    6  C   UNL     1     -11.485  11.981  65.346  1.00  0.00    -0.361 A  
HETATM    7  C   UNL     1     -11.855  11.583  67.709  1.00  0.00    -0.228 A  
HETATM    8  C   UNL     1     -12.143  12.290  66.541  1.00  0.00    -0.094 A  
BRANCH   6   9
HETATM    9  C   UNL     1     -11.679  12.865  64.136  1.00  0.00    -0.468 C  
BRANCH   9  10
HETATM   10  C   UNL     1     -11.259  14.346  64.284  1.00  0.00    -0.094 C  
HETATM   11  C   UNL     1     -12.482  15.271  64.226  1.00  0.00    -0.015 C  
BRANCH  10  12
HETATM   12  N   UNL     1     -10.573  14.613  65.564  1.00  0.00    -0.331 NA 
HETATM   13  H   UNL     1     -11.092  14.210  66.343  1.00  0.00     0.000 HD 
BRANCH  12  14
HETATM   14  C   UNL     1      -9.171  14.160  65.582  1.00  0.00     0.398 C  
BRANCH  14  15
HETATM   15  C   UNL     1      -8.552  14.107  66.999  1.00  0.00    -0.184 C  
HETATM   16  H   UNL     1      -7.817  12.722  68.190  1.00  0.00     0.000 HD 
HETATM   17  O   UNL     1      -8.197  12.756  67.320  1.00  0.00    -0.178 OA 
BRANCH  15  18
HETATM   18  C   UNL     1      -9.408  14.731  68.081  1.00  0.00    -0.197 A  
HETATM   19  C   UNL     1      -9.570  16.128  68.111  1.00  0.00    -0.217 A  
HETATM   20  C   UNL     1     -10.332  16.747  69.108  1.00  0.00    -0.326 A  
HETATM   21  H   UNL     1     -12.094  15.920  71.762  1.00  0.00     0.000 HD 
HETATM   22  C   UNL     1     -10.952  15.942  70.072  1.00  0.00    -0.358 A  
HETATM   23  C   UNL     1     -10.057  13.951  69.048  1.00  0.00    -0.030 A  
HETATM   24  C   UNL     1     -10.827  14.556  70.040  1.00  0.00    -0.031 A  
HETATM   25  O   UNL     1     -11.673  16.467  71.108  1.00  0.00    -0.374 OA 
BRANCH  20  26
HETATM   26  N   UNL     1     -10.507  18.143  69.160  1.00  0.00    -0.386 N  
HETATM   27  H   UNL     1     -10.799  18.530  70.057  1.00  0.00     0.000 HD 
HETATM   28  O   UNL     1     -10.518  20.237  68.290  1.00  0.00    -0.319 OA 
HETATM   29  C   UNL     1     -10.328  19.038  68.142  1.00  0.00    -0.368 C  
ENDBRANCH  20  26
ENDBRANCH  15  18
ENDBRANCH  14  15
ENDBRANCH  12  14
ENDBRANCH  10  12
ENDBRANCH   9  10
ENDBRANCH   6   9
ENDBRANCH   2   3
TORSDOF 8
ENDMDL
MODEL      386
REMARK 921   NORMALIZED FREE ENERGY PREDICTED BY IDOCK:   -2.90 KCAL/MOL
REMARK 922        TOTAL FREE ENERGY PREDICTED BY IDOCK:   -5.91 KCAL/MOL
REMARK 923 INTER-LIGAND FREE ENERGY PREDICTED BY IDOCK:   -6.25 KCAL/MOL
REMARK 924 INTRA-LIGAND FREE ENERGY PREDICTED BY IDOCK:    0.33 KCAL/MOL
REMARK 927      BINDING AFFINITY PREDICTED BY RF-SCORE:    0.00 PKD
ROOT
HETATM    1  C   UNL     1     -12.220  15.945  72.431  1.00  0.00    -0.498 C  
HETATM    2  O   UNL     1     -12.550  16.086  71.056  1.00  0.00    -0.391 OA 
ENDROOT
BRANCH   2   3
HETATM    3  C   UNL     1     -12.344  14.992  70.261  1.00  0.00    -0.342 A  
HETATM    4  C   UNL     1     -12.278  13.667  70.689  1.00  0.00    -0.434 A  
HETATM    5  C   UNL     1     -12.000  12.644  69.777  1.00  0.00    -0.365 A  
HETATM    6  C   UNL     1     -11.799  12.933  68.420  1.00  0.00    -0.357 A  
HETATM    7  C   UNL     1     -12.177  15.278  68.906  1.00  0.00    -0.132 A  
HETATM    8  C   UNL     1     -11.905  14.260  67.992  1.00  0.00    -0.379 A  
BRANCH   6   9
HETATM    9  C   UNL     1     -11.335  11.871  67.452  1.00  0.00    -0.389 C  
BRANCH   9  10
HETATM   10  C   UNL     1      -9.973  12.110  66.760  1.00  0.00    -0.203 C  
HETATM   11  C   UNL     1      -9.965  13.450  66.014  1.00  0.00    -0.300 C  
BRANCH  10  12
HETATM   12  N   UNL     1      -8.850  12.139  67.718  1.00  0.00    -0.164 NA 
HETATM   13  H   UNL     1      -7.956  12.151  67.228  1.00  0.00     0.000 HD 
BRANCH  12  14
HETATM   14  C   UNL     1      -8.931  13.251  68.681  1.00  0.00     0.032 C  
BRANCH  14  15
HETATM   15  C   UNL     1      -7.720  14.212  68.627  1.00  0.00    -0.135 C  
HETATM   16  H   UNL     1      -6.441  14.980  69.911  1.00  0.00     0.000 HD 
HETATM   17  O   UNL     1      -7.185  14.390  69.944  1.00  0.00    -0.038 OA 
BRANCH  15  18
HETATM   18  C   UNL     1      -8.002  15.540  67.955  1.00  0.00    -0.138 A  
HETATM   19  C   UNL     1      -8.860  16.461  68.584  1.00  0.00    -0.234 A  
HETATM   20  C   UNL     1      -9.167  17.689  67.986  1.00  0.00    -0.271 A  
HETATM   21  H   UNL     1      -8.467  19.357  65.237  1.00  0.00     0.000 HD 
HETATM   22  C   UNL     1      -8.582  17.995  66.750  1.00  0.00    -0.255 A  
HETATM   23  C   UNL     1      -7.417  15.885  66.729  1.00  0.00    -0.184 A  
HETATM   24  C   UNL     1      -7.706  17.109  66.129  1.00  0.00    -0.302 A  
HETATM   25  O   UNL     1      -8.864  19.149  66.075  1.00  0.00    -0.450 OA 
BRANCH  20  26
HETATM   26  N   UNL     1     -10.024  18.625  68.594  1.00  0.00    -0.379 N  
HETATM   27  H   UNL     1     -11.012  18.562  68.346  1.00  0.00     0.000 HD 
HETATM   28  O   UNL     1     -10.508  20.381  69.943  1.00  0.00     0.074 OA 
HETATM   29  C   UNL     1      -9.682  19.608  69.479  1.00  0.00    -0.016 C  
ENDBRANCH  20  26
ENDBRANCH  15  18
ENDBRANCH  14  15
ENDBRANCH  12  14
ENDBRANCH  10  12
ENDBRANCH   9  10
ENDBRANCH   6   9
ENDBRANCH   2   3
TORSDOF 8
ENDMDL
MODEL      387
REMARK 921   NORMALIZED FREE ENERGY PREDICTED BY IDOCK:   -2.86 KCAL/MOL
REMARK 922        TOTAL FREE ENERGY PREDICTED BY IDOCK:   -5.86 KCAL/MOL
REMARK 923 INTER-LIGAND FREE ENERGY PREDICTED BY IDOCK:   -4.47 KCAL/MOL
REMARK 924 INTRA-LIGAND FREE ENERGY PREDICTED BY IDOCK:   -1.38 KCAL/MOL
REMARK 927      BINDING AFFINITY PREDICTED BY RF-SCORE:    0.00 PKD
ROOT
HETATM    1  C   UNL     1     -12.382   8.990  71.218  1.00  0.00    -0.302 C  
HETATM    2  O   UNL     1     -12.141   8.007  72.216  1.00  0.00    -0.329 OA 
ENDROOT
BRANCH   2   3
HETATM    3  C   UNL     1     -11.510   6.863  71.809  1.00  0.00    -0.275 A  
HETATM    4  C   UNL     1     -11.132   5.799  72.627  1.00  0.00    -0.325 A  
HETATM    5  C   UNL     1     -10.435   4.711  72.092  1.00  0.00    -0.219 A  
HETATM    6  C   UNL     1     -10.121   4.667  70.727  1.00  0.00    -0.264 A  
HETATM    7  C   UNL     1     -11.227   6.806  70.445  1.00  0.00    -0.378 A  
HETATM    8  C   UNL     1     -10.537   5.720  69.906  1.00  0.00    -0.388 A  
BRANCH   6   9
HETATM    9  C   UNL     1      -9.228   3.588  70.162  1.00  0.00    -0.224 C  
BRANCH   9  10
HETATM   10  C   UNL     1      -8.008   4.057  69.336  1.00  0.00    -0.055 C  
HETATM   11  C   UNL     1      -6.924   4.648  70.247  1.00  0.00    -0.045 C  
BRANCH  10  12
HETATM   12  N   UNL     1      -7.384   2.955  68.576  1.00  0.00    -0.049 NA 
HETATM   13  H   UNL     1      -7.898   2.085  68.713  1.00  0.00     0.000 HD 
BRANCH  12  14
HETATM   14  C   UNL     1      -7.226   3.249  67.142  1.00  0.00    -0.059 C  
BRANCH  14  15
HETATM   15  C   UNL     1      -8.537   3.694  66.450  1.00  0.00    -0.115 C  
HETATM   16  H   UNL     1      -9.762   2.961  65.093  1.00  0.00     0.000 HD 
HETATM   17  O   UNL     1      -8.957   2.688  65.519  1.00  0.00    -0.129 OA 
BRANCH  15  18
HETATM   18  C   UNL     1      -8.471   5.061  65.801  1.00  0.00    -0.124 A  
HETATM   19  C   UNL     1      -8.978   6.176  66.493  1.00  0.00    -0.143 A  
HETATM   20  C   UNL     1      -8.960   7.453  65.920  1.00  0.00    -0.077 A  
HETATM   21  H   UNL     1      -8.010   8.908  63.125  1.00  0.00     0.000 HD 
HETATM   22  C   UNL     1      -8.403   7.605  64.643  1.00  0.00     0.003 A  
HETATM   23  C   UNL     1      -7.902   5.249  64.534  1.00  0.00    -0.099 A  
HETATM   24  C   UNL     1      -7.869   6.517  63.957  1.00  0.00    -0.108 A  
HETATM   25  O   UNL     1      -8.388   8.806  63.991  1.00  0.00    -0.168 OA 
BRANCH  20  26
HETATM   26  N   UNL     1      -9.464   8.583  66.591  1.00  0.00    -0.189 N  
HETATM   27  H   UNL     1      -8.859   9.403  66.614  1.00  0.00     0.000 HD 
HETATM   28  O   UNL     1     -11.013   9.732  67.782  1.00  0.00    -0.274 OA 
HETATM   29  C   UNL     1     -10.673   8.703  67.215  1.00  0.00    -0.139 C  
ENDBRANCH  20  26
ENDBRANCH  15  18
ENDBRANCH  14  15
ENDBRANCH  12  14
ENDBRANCH  10  12
ENDBRANCH   9  10
ENDBRANCH   6   9
ENDBRANCH   2   3
TORSDOF 8
ENDMDL
MODEL      388
REMARK 921   NORMALIZED FREE ENERGY PREDICTED BY IDOCK:   -2.81 KCAL/MOL
REMARK 922        TOTAL FREE ENERGY PREDICTED BY IDOCK:   -5.78 KCAL/MOL
REMARK 923 INTER-LIGAND FREE ENERGY PREDICTED BY IDOCK:   -5.13 KCAL/MOL
REMARK 924 INTRA-LIGAND FREE ENERGY PREDICTED BY IDOCK:   -0.65 KCAL/MOL
REMARK 927      BINDING AFFINITY PREDICTED BY RF-SCORE:    0.00 PKD
ROOT
HETATM    1  C   UNL     1      -7.710  19.803  67.616  1.00  0.00    -0.282 C  
HETATM    2  O   UNL     1      -8.759  19.294  66.802  1.00  0.00    -0.287 OA 
ENDROOT
BRANCH   2   3
HETATM    3  C   UNL     1      -9.058  17.968  66.947  1.00  0.00    -0.269 A  
HETATM    4  C   UNL     1      -8.381  17.057  67.757  1.00  0.00    -0.199 A  
HETATM    5  C   UNL     1      -8.754  15.709  67.767  1.00  0.00    -0.173 A  
HETATM    6  C   UNL     1      -9.819  15.258  66.976  1.00  0.00    -0.233 A  
HETATM    7  C   UNL     1     -10.140  17.527  66.184  1.00  0.00    -0.317 A  
HETATM    8  C   UNL     1     -10.518  16.184  66.195  1.00  0.00    -0.334 A  
BRANCH   6   9
HETATM    9  C   UNL     1     -10.129  13.785  66.845  1.00  0.00    -0.260 C  
BRANCH   9  10
HETATM   10  C   UNL     1     -10.710  13.084  68.095  1.00  0.00    -0.242 C  
HETATM   11  C   UNL     1     -12.153  13.535  68.356  1.00  0.00    -0.293 C  
BRANCH  10  12
HETATM   12  N   UNL     1     -10.733  11.614  67.956  1.00  0.00    -0.199 NA 
HETATM   13  H   UNL     1     -10.260  11.324  67.101  1.00  0.00     0.000 HD 
BRANCH  12  14
HETATM   14  C   UNL     1     -10.179  10.907  69.124  1.00  0.00    -0.195 C  
BRANCH  14  15
HETATM   15  C   UNL     1      -8.862  10.152  68.828  1.00  0.00    -0.146 C  
HETATM   16  H   UNL     1      -7.713   9.834  67.261  1.00  0.00     0.000 HD 
HETATM   17  O   UNL     1      -8.522  10.298  67.443  1.00  0.00    -0.124 OA 
BRANCH  15  18
HETATM   18  C   UNL     1      -8.863   8.697  69.251  1.00  0.00    -0.137 A  
HETATM   19  C   UNL     1      -9.338   7.720  68.357  1.00  0.00    -0.143 A  
HETATM   20  C   UNL     1      -9.380   6.369  68.717  1.00  0.00    -0.125 A  
HETATM   21  H   UNL     1      -8.652   4.462  71.299  1.00  0.00     0.000 HD 
HETATM   22  C   UNL     1      -8.916   6.001  69.987  1.00  0.00    -0.146 A  
HETATM   23  C   UNL     1      -8.388   8.295  70.507  1.00  0.00    -0.124 A  
HETATM   24  C   UNL     1      -8.415   6.951  70.873  1.00  0.00    -0.135 A  
HETATM   25  O   UNL     1      -8.966   4.712  70.438  1.00  0.00    -0.095 OA 
BRANCH  20  26
HETATM   26  N   UNL     1      -9.853   5.374  67.842  1.00  0.00    -0.136 N  
HETATM   27  H   UNL     1      -9.690   4.407  68.123  1.00  0.00     0.000 HD 
HETATM   28  O   UNL     1     -10.869   4.620  65.960  1.00  0.00    -0.240 OA 
HETATM   29  C   UNL     1     -10.507   5.558  66.656  1.00  0.00    -0.294 C  
ENDBRANCH  20  26
ENDBRANCH  15  18
ENDBRANCH  14  15
ENDBRANCH  12  14
ENDBRANCH  10  12
ENDBRANCH   9  10
ENDBRANCH   6   9
ENDBRANCH   2   3
TORSDOF 8
ENDMDL
MODEL      389
REMARK 921   NORMALIZED FREE ENERGY PREDICTED BY IDOCK:   -2.78 KCAL/MOL
REMARK 922        TOTAL FREE ENERGY PREDICTED BY IDOCK:   -5.74 KCAL/MOL
REMARK 923 INTER-LIGAND FREE ENERGY PREDICTED BY IDOCK:   -4.87 KCAL/MOL
REMARK 924 INTRA-LIGAND FREE ENERGY PREDICTED BY IDOCK:   -0.87 KCAL/MOL
REMARK 927      BINDING AFFINITY PREDICTED BY RF-SCORE:    0.00 PKD
ROOT
HETATM    1  C   UNL     1     -10.559   4.512  73.799  1.00  0.00    -0.254 C  
HETATM    2  O   UNL     1      -9.997   5.600  73.076  1.00  0.00    -0.168 OA 
ENDROOT
BRANCH   2   3
HETATM    3  C   UNL     1     -10.151   5.577  71.717  1.00  0.00    -0.196 A  
HETATM    4  C   UNL     1      -9.350   4.881  70.813  1.00  0.00    -0.211 A  
HETATM    5  C   UNL     1      -9.578   4.991  69.437  1.00  0.00    -0.236 A  
HETATM    6  C   UNL     1     -10.622   5.790  68.950  1.00  0.00    -0.337 A  
HETATM    7  C   UNL     1     -11.210   6.345  71.236  1.00  0.00    -0.346 A  
HETATM    8  C   UNL     1     -11.445   6.454  69.865  1.00  0.00    -0.483 A  
BRANCH   6   9
HETATM    9  C   UNL     1     -10.782   6.055  67.472  1.00  0.00    -0.383 C  
BRANCH   9  10
HETATM   10  C   UNL     1      -9.567   5.729  66.572  1.00  0.00    -0.156 C  
HETATM   11  C   UNL     1      -9.916   4.633  65.557  1.00  0.00    -0.201 C  
BRANCH  10  12
HETATM   12  N   UNL     1      -9.103   6.901  65.804  1.00  0.00    -0.364 NA 
HETATM   13  H   UNL     1      -9.014   6.673  64.815  1.00  0.00     0.000 HD 
BRANCH  12  14
HETATM   14  C   UNL     1      -9.945   8.095  65.991  1.00  0.00     0.220 C  
BRANCH  14  15
HETATM   15  C   UNL     1      -9.162   9.427  65.926  1.00  0.00    -0.213 C  
HETATM   16  H   UNL     1      -7.833  10.252  64.729  1.00  0.00     0.000 HD 
HETATM   17  O   UNL     1      -8.315   9.434  64.770  1.00  0.00    -0.135 OA 
BRANCH  15  18
HETATM   18  C   UNL     1      -8.389   9.763  67.185  1.00  0.00    -0.121 A  
HETATM   19  C   UNL     1      -8.403  11.084  67.670  1.00  0.00    -0.117 A  
HETATM   20  C   UNL     1      -7.682  11.442  68.815  1.00  0.00    -0.135 A  
HETATM   21  H   UNL     1      -5.697  10.046  71.039  1.00  0.00     0.000 HD 
HETATM   22  C   UNL     1      -6.958  10.448  69.487  1.00  0.00    -0.102 A  
HETATM   23  C   UNL     1      -7.670   8.788  67.891  1.00  0.00    -0.102 A  
HETATM   24  C   UNL     1      -6.957   9.130  69.038  1.00  0.00    -0.063 A  
HETATM   25  O   UNL     1      -6.189  10.721  70.583  1.00  0.00    -0.267 OA 
BRANCH  20  26
HETATM   26  N   UNL     1      -7.679  12.756  69.318  1.00  0.00    -0.248 N  
HETATM   27  H   UNL     1      -8.097  12.890  70.238  1.00  0.00     0.000 HD 
HETATM   28  O   UNL     1      -7.235  14.978  69.232  1.00  0.00    -0.150 OA 
HETATM   29  C   UNL     1      -7.178  13.873  68.710  1.00  0.00    -0.106 C  
ENDBRANCH  20  26
ENDBRANCH  15  18
ENDBRANCH  14  15
ENDBRANCH  12  14
ENDBRANCH  10  12
ENDBRANCH   9  10
ENDBRANCH   6   9
ENDBRANCH   2   3
TORSDOF 8
ENDMDL
MODEL      390
REMARK 921   NORMALIZED FREE ENERGY PREDICTED BY IDOCK:   -2.74 KCAL/MOL
REMARK 922        TOTAL FREE ENERGY PREDICTED BY IDOCK:   -5.69 KCAL/MOL
REMARK 923 INTER-LIGAND FREE ENERGY PREDICTED BY IDOCK:   -4.32 KCAL/MOL
REMARK 924 INTRA-LIGAND FREE ENERGY PREDICTED BY IDOCK:   -1.36 KCAL/MOL
REMARK 927      BINDING AFFINITY PREDICTED BY RF-SCORE:    0.00 PKD
ROOT
HETATM    1  C   UNL     1     -13.257  12.080  63.604  1.00  0.00     0.161 C  
HETATM    2  O   UNL     1     -11.856  12.251  63.437  1.00  0.00    -0.467 OA 
ENDROOT
BRANCH   2   3
HETATM    3  C   UNL     1     -11.062  11.847  64.474  1.00  0.00    -0.325 A  
HETATM    4  C   UNL     1     -10.296  10.682  64.517  1.00  0.00    -0.352 A  
HETATM    5  C   UNL     1      -9.572  10.355  65.668  1.00  0.00    -0.281 A  
HETATM    6  C   UNL     1      -9.595  11.198  66.788  1.00  0.00    -0.215 A  
HETATM    7  C   UNL     1     -11.059  12.703  65.575  1.00  0.00    -0.329 A  
HETATM    8  C   UNL     1     -10.335  12.383  66.724  1.00  0.00    -0.239 A  
BRANCH   6   9
HETATM    9  C   UNL     1      -8.960  10.783  68.094  1.00  0.00    -0.140 C  
BRANCH   9  10
HETATM   10  C   UNL     1      -7.420  10.900  68.186  1.00  0.00    -0.091 C  
HETATM   11  C   UNL     1      -7.000  12.333  68.538  1.00  0.00    -0.092 C  
BRANCH  10  12
HETATM   12  N   UNL     1      -6.848  10.013  69.218  1.00  0.00    -0.055 NA 
HETATM   13  H   UNL     1      -6.336  10.553  69.915  1.00  0.00     0.000 HD 
BRANCH  12  14
HETATM   14  C   UNL     1      -7.847   9.143  69.862  1.00  0.00    -0.091 C  
BRANCH  14  15
HETATM   15  C   UNL     1      -7.488   7.639  69.811  1.00  0.00    -0.090 C  
HETATM   16  H   UNL     1      -5.851   6.562  69.614  1.00  0.00     0.000 HD 
HETATM   17  O   UNL     1      -6.072   7.485  69.645  1.00  0.00    -0.029 OA 
BRANCH  15  18
HETATM   18  C   UNL     1      -8.260   6.844  68.779  1.00  0.00    -0.121 A  
HETATM   19  C   UNL     1      -8.161   7.197  67.421  1.00  0.00    -0.112 A  
HETATM   20  C   UNL     1      -8.877   6.505  66.438  1.00  0.00    -0.143 A  
HETATM   21  H   UNL     1     -11.002   4.002  66.214  1.00  0.00     0.000 HD 
HETATM   22  C   UNL     1      -9.684   5.430  66.833  1.00  0.00    -0.153 A  
HETATM   23  C   UNL     1      -9.061   5.751  69.139  1.00  0.00    -0.126 A  
HETATM   24  C   UNL     1      -9.771   5.047  68.169  1.00  0.00    -0.199 A  
HETATM   25  O   UNL     1     -10.454   4.731  65.946  1.00  0.00    -0.285 OA 
BRANCH  20  26
HETATM   26  N   UNL     1      -8.795   6.842  65.075  1.00  0.00    -0.342 N  
HETATM   27  H   UNL     1      -9.619   7.283  64.667  1.00  0.00     0.000 HD 
HETATM   28  O   UNL     1      -7.771   6.966  63.056  1.00  0.00    -0.099 OA 
HETATM   29  C   UNL     1      -7.735   6.644  64.235  1.00  0.00    -0.109 C  
ENDBRANCH  20  26
ENDBRANCH  15  18
ENDBRANCH  14  15
ENDBRANCH  12  14
ENDBRANCH  10  12
ENDBRANCH   9  10
ENDBRANCH   6   9
ENDBRANCH   2   3
TORSDOF 8
ENDMDL
MODEL      391
REMARK 921   NORMALIZED FREE ENERGY PREDICTED BY IDOCK:   -2.74 KCAL/MOL
REMARK 922        TOTAL FREE ENERGY PREDICTED BY IDOCK:   -5.68 KCAL/MOL
REMARK 923 INTER-LIGAND FREE ENERGY PREDICTED BY IDOCK:   -4.60 KCAL/MOL
REMARK 924 INTRA-LIGAND FREE ENERGY PREDICTED BY IDOCK:   -1.08 KCAL/MOL
REMARK 927      BINDING AFFINITY PREDICTED BY RF-SCORE:    0.00 PKD
ROOT
HETATM    1  C   UNL     1      -9.644  20.138  66.975  1.00  0.00    -0.424 C  
HETATM    2  O   UNL     1      -8.653  19.955  67.977  1.00  0.00    -0.307 OA 
ENDROOT
BRANCH   2   3
HETATM    3  C   UNL     1      -8.219  18.675  68.183  1.00  0.00    -0.303 A  
HETATM    4  C   UNL     1      -8.756  17.523  67.608  1.00  0.00    -0.223 A  
HETATM    5  C   UNL     1      -8.255  16.264  67.952  1.00  0.00    -0.156 A  
HETATM    6  C   UNL     1      -7.200  16.141  68.866  1.00  0.00    -0.178 A  
HETATM    7  C   UNL     1      -7.147  18.557  69.068  1.00  0.00    -0.282 A  
HETATM    8  C   UNL     1      -6.641  17.302  69.410  1.00  0.00    -0.218 A  
BRANCH   6   9
HETATM    9  C   UNL     1      -6.757  14.790  69.376  1.00  0.00    -0.149 C  
BRANCH   9  10
HETATM   10  C   UNL     1      -6.296  13.764  68.315  1.00  0.00    -0.108 C  
HETATM   11  C   UNL     1      -5.135  14.322  67.482  1.00  0.00     0.237 C  
BRANCH  10  12
HETATM   12  N   UNL     1      -5.829  12.499  68.918  1.00  0.00    -0.067 NA 
HETATM   13  H   UNL     1      -5.004  12.658  69.496  1.00  0.00     0.000 HD 
BRANCH  12  14
HETATM   14  C   UNL     1      -6.873  11.795  69.681  1.00  0.00     0.026 C  
BRANCH  14  15
HETATM   15  C   UNL     1      -7.319  10.459  69.040  1.00  0.00    -0.097 C  
HETATM   16  H   UNL     1      -6.457   8.779  68.481  1.00  0.00     0.000 HD 
HETATM   17  O   UNL     1      -6.184   9.599  68.875  1.00  0.00    -0.042 OA 
BRANCH  15  18
HETATM   18  C   UNL     1      -8.095  10.611  67.748  1.00  0.00    -0.111 A  
HETATM   19  C   UNL     1      -9.162  11.527  67.690  1.00  0.00    -0.171 A  
HETATM   20  C   UNL     1      -9.920  11.681  66.524  1.00  0.00    -0.203 A  
HETATM   21  H   UNL     1     -10.070  10.446  63.476  1.00  0.00     0.000 HD 
HETATM   22  C   UNL     1      -9.582  10.914  65.401  1.00  0.00    -0.225 A  
HETATM   23  C   UNL     1      -7.770   9.874  66.602  1.00  0.00    -0.106 A  
HETATM   24  C   UNL     1      -8.511  10.026  65.432  1.00  0.00    -0.158 A  
HETATM   25  O   UNL     1     -10.300  10.966  64.238  1.00  0.00    -0.344 OA 
BRANCH  20  26
HETATM   26  N   UNL     1     -10.993  12.588  66.442  1.00  0.00    -0.264 N  
HETATM   27  H   UNL     1     -11.723  12.367  65.765  1.00  0.00     0.000 HD 
HETATM   28  O   UNL     1     -12.135  14.462  67.011  1.00  0.00    -0.418 OA 
HETATM   29  C   UNL     1     -11.166  13.732  67.168  1.00  0.00    -0.311 C  
ENDBRANCH  20  26
ENDBRANCH  15  18
ENDBRANCH  14  15
ENDBRANCH  12  14
ENDBRANCH  10  12
ENDBRANCH   9  10
ENDBRANCH   6   9
ENDBRANCH   2   3
TORSDOF 8
ENDMDL
MODEL      392
REMARK 921   NORMALIZED FREE ENERGY PREDICTED BY IDOCK:   -2.71 KCAL/MOL
REMARK 922        TOTAL FREE ENERGY PREDICTED BY IDOCK:   -5.64 KCAL/MOL
REMARK 923 INTER-LIGAND FREE ENERGY PREDICTED BY IDOCK:   -5.07 KCAL/MOL
REMARK 924 INTRA-LIGAND FREE ENERGY PREDICTED BY IDOCK:   -0.57 KCAL/MOL
REMARK 927      BINDING AFFINITY PREDICTED BY RF-SCORE:    0.00 PKD
ROOT
HETATM    1  C   UNL     1      -9.081   3.437  63.471  1.00  0.00    -0.094 C  
HETATM    2  O   UNL     1      -8.594   3.654  64.789  1.00  0.00    -0.103 OA 
ENDROOT
BRANCH   2   3
HETATM    3  C   UNL     1      -8.473   4.956  65.191  1.00  0.00    -0.139 A  
HETATM    4  C   UNL     1      -9.400   5.669  65.950  1.00  0.00    -0.119 A  
HETATM    5  C   UNL     1      -9.182   7.020  66.242  1.00  0.00    -0.166 A  
HETATM    6  C   UNL     1      -8.026   7.670  65.789  1.00  0.00    -0.116 A  
HETATM    7  C   UNL     1      -7.306   5.592  64.767  1.00  0.00    -0.064 A  
HETATM    8  C   UNL     1      -7.083   6.937  65.060  1.00  0.00    -0.064 A  
BRANCH   6   9
HETATM    9  C   UNL     1      -7.851   9.162  65.948  1.00  0.00    -0.105 C  
BRANCH   9  10
HETATM   10  C   UNL     1      -7.646   9.687  67.388  1.00  0.00    -0.095 C  
HETATM   11  C   UNL     1      -6.257   9.306  67.917  1.00  0.00    -0.050 C  
BRANCH  10  12
HETATM   12  N   UNL     1      -7.755  11.157  67.473  1.00  0.00    -0.112 NA 
HETATM   13  H   UNL     1      -8.009  11.553  66.569  1.00  0.00     0.000 HD 
BRANCH  12  14
HETATM   14  C   UNL     1      -8.681  11.615  68.523  1.00  0.00    -0.130 C  
BRANCH  14  15
HETATM   15  C   UNL     1     -10.169  11.334  68.206  1.00  0.00    -0.186 C  
HETATM   16  H   UNL     1     -11.372   9.776  68.236  1.00  0.00     0.000 HD 
HETATM   17  O   UNL     1     -10.458   9.948  68.430  1.00  0.00    -0.189 OA 
BRANCH  15  18
HETATM   18  C   UNL     1     -10.613  11.781  66.828  1.00  0.00    -0.273 A  
HETATM   19  C   UNL     1     -10.538  13.144  66.489  1.00  0.00    -0.290 A  
HETATM   20  C   UNL     1     -10.961  13.602  65.235  1.00  0.00    -0.310 A  
HETATM   21  H   UNL     1     -12.249  12.399  62.456  1.00  0.00     0.000 HD 
HETATM   22  C   UNL     1     -11.444  12.667  64.311  1.00  0.00    -0.363 A  
HETATM   23  C   UNL     1     -11.082  10.868  65.874  1.00  0.00     0.037 A  
HETATM   24  C   UNL     1     -11.496  11.310  64.619  1.00  0.00     0.024 A  
HETATM   25  O   UNL     1     -11.922  13.033  63.084  1.00  0.00    -0.534 OA 
BRANCH  20  26
HETATM   26  N   UNL     1     -10.899  14.960  64.874  1.00  0.00    -0.478 N  
HETATM   27  H   UNL     1     -10.008  15.431  65.033  1.00  0.00     0.000 HD 
HETATM   28  O   UNL     1     -11.743  16.903  64.065  1.00  0.00    -1.002 OA 
HETATM   29  C   UNL     1     -11.899  15.720  64.334  1.00  0.00    -0.148 C  
ENDBRANCH  20  26
ENDBRANCH  15  18
ENDBRANCH  14  15
ENDBRANCH  12  14
ENDBRANCH  10  12
ENDBRANCH   9  10
ENDBRANCH   6   9
ENDBRANCH   2   3
TORSDOF 8
ENDMDL
MODEL      393
REMARK 921   NORMALIZED FREE ENERGY PREDICTED BY IDOCK:   -2.69 KCAL/MOL
REMARK 922        TOTAL FREE ENERGY PREDICTED BY IDOCK:   -5.61 KCAL/MOL
REMARK 923 INTER-LIGAND FREE ENERGY PREDICTED BY IDOCK:   -5.38 KCAL/MOL
REMARK 924 INTRA-LIGAND FREE ENERGY PREDICTED BY IDOCK:   -0.23 KCAL/MOL
REMARK 927      BINDING AFFINITY PREDICTED BY RF-SCORE:    0.00 PKD
ROOT
HETATM    1  C   UNL     1      -6.710   6.517  74.409  1.00  0.00    -0.084 C  
HETATM    2  O   UNL     1      -7.598   5.419  74.245  1.00  0.00    -0.092 OA 
ENDROOT
BRANCH   2   3
HETATM    3  C   UNL     1      -8.327   5.388  73.089  1.00  0.00    -0.118 A  
HETATM    4  C   UNL     1      -7.851   5.031  71.828  1.00  0.00    -0.108 A  
HETATM    5  C   UNL     1      -8.691   5.101  70.711  1.00  0.00    -0.142 A  
HETATM    6  C   UNL     1     -10.023   5.515  70.846  1.00  0.00    -0.260 A  
HETATM    7  C   UNL     1      -9.662   5.768  73.230  1.00  0.00    -0.157 A  
HETATM    8  C   UNL     1     -10.504   5.834  72.120  1.00  0.00    -0.258 A  
BRANCH   6   9
HETATM    9  C   UNL     1     -10.895   5.757  69.636  1.00  0.00    -0.418 C  
BRANCH   9  10
HETATM   10  C   UNL     1     -10.470   6.906  68.692  1.00  0.00    -0.195 C  
HETATM   11  C   UNL     1     -10.750   6.544  67.228  1.00  0.00    -0.427 C  
BRANCH  10  12
HETATM   12  N   UNL     1     -11.191   8.163  68.975  1.00  0.00    -0.306 NA 
HETATM   13  H   UNL     1     -12.190   7.990  69.082  1.00  0.00     0.000 HD 
BRANCH  12  14
HETATM   14  C   UNL     1     -10.660   8.894  70.138  1.00  0.00    -0.222 C  
BRANCH  14  15
HETATM   15  C   UNL     1     -11.177  10.348  70.249  1.00  0.00    -0.320 C  
HETATM   16  H   UNL     1     -12.926  11.252  70.248  1.00  0.00     0.000 HD 
HETATM   17  O   UNL     1     -12.608  10.359  70.180  1.00  0.00    -0.253 OA 
BRANCH  15  18
HETATM   18  C   UNL     1     -10.563  11.310  69.252  1.00  0.00    -0.187 A  
HETATM   19  C   UNL     1      -9.219  11.141  68.870  1.00  0.00    -0.106 A  
HETATM   20  C   UNL     1      -8.607  12.022  67.971  1.00  0.00    -0.170 A  
HETATM   21  H   UNL     1      -9.353  14.714  66.231  1.00  0.00     0.000 HD 
HETATM   22  C   UNL     1      -9.368  13.070  67.438  1.00  0.00    -0.209 A  
HETATM   23  C   UNL     1     -11.304  12.356  68.686  1.00  0.00    -0.332 A  
HETATM   24  C   UNL     1     -10.707  13.233  67.782  1.00  0.00    -0.256 A  
HETATM   25  O   UNL     1      -8.836  14.003  66.593  1.00  0.00    -0.196 OA 
BRANCH  20  26
HETATM   26  N   UNL     1      -7.264  11.875  67.576  1.00  0.00    -0.115 N  
HETATM   27  H   UNL     1      -6.948  10.924  67.390  1.00  0.00     0.000 HD 
HETATM   28  O   UNL     1      -5.185  12.628  67.076  1.00  0.00    -0.334 OA 
HETATM   29  C   UNL     1      -6.336  12.865  67.414  1.00  0.00    -0.113 C  
ENDBRANCH  20  26
ENDBRANCH  15  18
ENDBRANCH  14  15
ENDBRANCH  12  14
ENDBRANCH  10  12
ENDBRANCH   9  10
ENDBRANCH   6   9
ENDBRANCH   2   3
TORSDOF 8
ENDMDL
MODEL      394
REMARK 921   NORMALIZED FREE ENERGY PREDICTED BY IDOCK:   -2.67 KCAL/MOL
REMARK 922        TOTAL FREE ENERGY PREDICTED BY IDOCK:   -5.57 KCAL/MOL
REMARK 923 INTER-LIGAND FREE ENERGY PREDICTED BY IDOCK:   -5.01 KCAL/MOL
REMARK 924 INTRA-LIGAND FREE ENERGY PREDICTED BY IDOCK:   -0.56 KCAL/MOL
REMARK 927      BINDING AFFINITY PREDICTED BY RF-SCORE:    0.00 PKD
ROOT
HETATM    1  C   UNL     1      -8.697   6.961  73.917  1.00  0.00    -0.158 C  
HETATM    2  O   UNL     1      -9.713   6.544  73.014  1.00  0.00    -0.152 OA 
ENDROOT
BRANCH   2   3
HETATM    3  C   UNL     1      -9.307   6.190  71.757  1.00  0.00    -0.151 A  
HETATM    4  C   UNL     1      -8.152   6.633  71.112  1.00  0.00    -0.112 A  
HETATM    5  C   UNL     1      -7.885   6.240  69.797  1.00  0.00    -0.110 A  
HETATM    6  C   UNL     1      -8.763   5.387  69.114  1.00  0.00    -0.104 A  
HETATM    7  C   UNL     1     -10.165   5.315  71.091  1.00  0.00    -0.294 A  
HETATM    8  C   UNL     1      -9.899   4.917  69.781  1.00  0.00    -0.292 A  
BRANCH   6   9
HETATM    9  C   UNL     1      -8.580   5.087  67.645  1.00  0.00    -0.104 C  
BRANCH   9  10
HETATM   10  C   UNL     1      -9.426   5.921  66.656  1.00  0.00    -0.151 C  
HETATM   11  C   UNL     1     -10.905   5.519  66.724  1.00  0.00    -0.252 C  
BRANCH  10  12
HETATM   12  N   UNL     1      -9.356   7.369  66.936  1.00  0.00    -0.149 NA 
HETATM   13  H   UNL     1      -9.253   7.900  66.071  1.00  0.00     0.000 HD 
BRANCH  12  14
HETATM   14  C   UNL     1     -10.496   7.869  67.722  1.00  0.00    -0.212 C  
BRANCH  14  15
HETATM   15  C   UNL     1     -10.174   9.135  68.552  1.00  0.00    -0.198 C  
HETATM   16  H   UNL     1     -10.848   9.981  70.197  1.00  0.00     0.000 HD 
HETATM   17  O   UNL     1     -11.046   9.204  69.687  1.00  0.00    -0.196 OA 
BRANCH  15  18
HETATM   18  C   UNL     1     -10.188  10.426  67.759  1.00  0.00    -0.229 A  
HETATM   19  C   UNL     1      -9.057  11.262  67.785  1.00  0.00    -0.152 A  
HETATM   20  C   UNL     1      -9.038  12.475  67.087  1.00  0.00    -0.205 A  
HETATM   21  H   UNL     1     -11.016  14.264  65.160  1.00  0.00     0.000 HD 
HETATM   22  C   UNL     1     -10.166  12.833  66.339  1.00  0.00    -0.253 A  
HETATM   23  C   UNL     1     -11.294  10.803  66.985  1.00  0.00    -0.046 A  
HETATM   24  C   UNL     1     -11.282  12.003  66.277  1.00  0.00    -0.394 A  
HETATM   25  O   UNL     1     -10.251  14.021  65.668  1.00  0.00    -0.308 OA 
BRANCH  20  26
HETATM   26  N   UNL     1      -7.920  13.330  67.101  1.00  0.00    -0.364 N  
HETATM   27  H   UNL     1      -7.998  14.187  66.555  1.00  0.00     0.000 HD 
HETATM   28  O   UNL     1      -5.821  13.943  67.700  1.00  0.00    -0.281 OA 
HETATM   29  C   UNL     1      -6.740  13.138  67.763  1.00  0.00    -0.149 C  
ENDBRANCH  20  26
ENDBRANCH  15  18
ENDBRANCH  14  15
ENDBRANCH  12  14
ENDBRANCH  10  12
ENDBRANCH   9  10
ENDBRANCH   6   9
ENDBRANCH   2   3
TORSDOF 8
ENDMDL
MODEL      395
REMARK 921   NORMALIZED FREE ENERGY PREDICTED BY IDOCK:   -2.64 KCAL/MOL
REMARK 922        TOTAL FREE ENERGY PREDICTED BY IDOCK:   -5.53 KCAL/MOL
REMARK 923 INTER-LIGAND FREE ENERGY PREDICTED BY IDOCK:   -7.06 KCAL/MOL
REMARK 924 INTRA-LIGAND FREE ENERGY PREDICTED BY IDOCK:    1.52 KCAL/MOL
REMARK 927      BINDING AFFINITY PREDICTED BY RF-SCORE:    0.00 PKD
ROOT
HETATM    1  C   UNL     1      -5.135  14.203  67.923  1.00  0.00    -0.048 C  
HETATM    2  O   UNL     1      -5.290  15.400  67.172  1.00  0.00    -0.303 OA 
ENDROOT
BRANCH   2   3
HETATM    3  C   UNL     1      -6.270  16.260  67.585  1.00  0.00    -0.148 A  
HETATM    4  C   UNL     1      -6.463  16.720  68.887  1.00  0.00    -0.178 A  
HETATM    5  C   UNL     1      -7.546  17.552  69.188  1.00  0.00    -0.069 A  
HETATM    6  C   UNL     1      -8.442  17.947  68.185  1.00  0.00    -0.268 A  
HETATM    7  C   UNL     1      -7.142  16.679  66.579  1.00  0.00    -0.212 A  
HETATM    8  C   UNL     1      -8.220  17.513  66.874  1.00  0.00    -0.253 A  
BRANCH   6   9
HETATM    9  C   UNL     1      -9.706  18.705  68.517  1.00  0.00    -0.409 C  
BRANCH   9  10
HETATM   10  C   UNL     1     -10.748  18.847  67.383  1.00  0.00    -0.444 C  
HETATM   11  C   UNL     1     -10.241  19.795  66.288  1.00  0.00    -0.615 C  
BRANCH  10  12
HETATM   12  N   UNL     1     -11.055  17.557  66.734  1.00  0.00     0.199 NA 
HETATM   13  H   UNL     1     -11.991  17.239  66.985  1.00  0.00     0.000 HD 
BRANCH  12  14
HETATM   14  C   UNL     1     -10.887  17.584  65.271  1.00  0.00     0.125 C  
BRANCH  14  15
HETATM   15  C   UNL     1     -11.087  16.206  64.596  1.00  0.00    -0.296 C  
HETATM   16  H   UNL     1     -12.221  15.458  63.170  1.00  0.00     0.000 HD 
HETATM   17  O   UNL     1     -12.098  16.304  63.585  1.00  0.00    -0.798 OA 
BRANCH  15  18
HETATM   18  C   UNL     1     -11.369  15.070  65.558  1.00  0.00    -0.312 A  
HETATM   19  C   UNL     1     -11.279  15.303  66.942  1.00  0.00    -0.256 A  
HETATM   20  C   UNL     1     -11.507  14.275  67.865  1.00  0.00    -0.315 A  
HETATM   21  H   UNL     1     -12.275  11.075  67.880  1.00  0.00     0.000 HD 
HETATM   22  C   UNL     1     -11.850  13.006  67.381  1.00  0.00    -0.357 A  
HETATM   23  C   UNL     1     -11.734  13.795  65.106  1.00  0.00    -0.354 A  
HETATM   24  C   UNL     1     -11.973  12.767  66.015  1.00  0.00    -0.491 A  
HETATM   25  O   UNL     1     -12.042  11.936  68.209  1.00  0.00    -0.485 OA 
BRANCH  20  26
HETATM   26  N   UNL     1     -11.420  14.483  69.254  1.00  0.00    -0.271 N  
HETATM   27  H   UNL     1     -11.888  13.797  69.845  1.00  0.00     0.000 HD 
HETATM   28  O   UNL     1     -10.772  15.597  71.120  1.00  0.00    -0.188 OA 
HETATM   29  C   UNL     1     -10.777  15.502  69.900  1.00  0.00    -0.311 C  
ENDBRANCH  20  26
ENDBRANCH  15  18
ENDBRANCH  14  15
ENDBRANCH  12  14
ENDBRANCH  10  12
ENDBRANCH   9  10
ENDBRANCH   6   9
ENDBRANCH   2   3
TORSDOF 8
ENDMDL
MODEL      396
REMARK 921   NORMALIZED FREE ENERGY PREDICTED BY IDOCK:   -2.59 KCAL/MOL
REMARK 922        TOTAL FREE ENERGY PREDICTED BY IDOCK:   -5.46 KCAL/MOL
REMARK 923 INTER-LIGAND FREE ENERGY PREDICTED BY IDOCK:   -5.44 KCAL/MOL
REMARK 924 INTRA-LIGAND FREE ENERGY PREDICTED BY IDOCK:   -0.02 KCAL/MOL
REMARK 927      BINDING AFFINITY PREDICTED BY RF-SCORE:    0.00 PKD
ROOT
HETATM    1  C   UNL     1      -8.422   3.508  68.439  1.00  0.00    -0.088 C  
HETATM    2  O   UNL     1      -8.923   4.353  69.466  1.00  0.00    -0.085 OA 
ENDROOT
BRANCH   2   3
HETATM    3  C   UNL     1      -8.965   5.692  69.192  1.00  0.00    -0.113 A  
HETATM    4  C   UNL     1      -9.269   6.268  67.959  1.00  0.00    -0.116 A  
HETATM    5  C   UNL     1      -9.217   7.656  67.796  1.00  0.00    -0.141 A  
HETATM    6  C   UNL     1      -8.874   8.487  68.871  1.00  0.00    -0.139 A  
HETATM    7  C   UNL     1      -8.656   6.519  70.271  1.00  0.00    -0.136 A  
HETATM    8  C   UNL     1      -8.609   7.905  70.115  1.00  0.00    -0.134 A  
BRANCH   6   9
HETATM    9  C   UNL     1      -8.650   9.968  68.677  1.00  0.00    -0.123 C  
BRANCH   9  10
HETATM   10  C   UNL     1      -7.980  10.401  67.352  1.00  0.00    -0.107 C  
HETATM   11  C   UNL     1      -7.147   9.257  66.760  1.00  0.00    -0.082 C  
BRANCH  10  12
HETATM   12  N   UNL     1      -8.964  10.799  66.326  1.00  0.00    -0.165 NA 
HETATM   13  H   UNL     1      -8.805  10.291  65.456  1.00  0.00     0.000 HD 
BRANCH  12  14
HETATM   14  C   UNL     1     -10.361  10.653  66.767  1.00  0.00    -0.245 C  
BRANCH  14  15
HETATM   15  C   UNL     1     -11.028  11.988  67.177  1.00  0.00    -0.270 C  
HETATM   16  H   UNL     1     -10.507  13.885  67.258  1.00  0.00     0.000 HD 
HETATM   17  O   UNL     1     -10.098  13.065  67.006  1.00  0.00    -0.237 OA 
BRANCH  15  18
HETATM   18  C   UNL     1     -11.631  11.987  68.567  1.00  0.00    -0.363 A  
HETATM   19  C   UNL     1     -11.551  13.152  69.352  1.00  0.00    -0.360 A  
HETATM   20  C   UNL     1     -12.074  13.187  70.650  1.00  0.00    -0.264 A  
HETATM   21  H   UNL     1     -13.619  11.189  72.760  1.00  0.00     0.000 HD 
HETATM   22  C   UNL     1     -12.700  12.037  71.149  1.00  0.00    -0.266 A  
HETATM   23  C   UNL     1     -12.282  10.860  69.087  1.00  0.00    -0.181 A  
HETATM   24  C   UNL     1     -12.814  10.886  70.374  1.00  0.00    -0.257 A  
HETATM   25  O   UNL     1     -13.193  11.969  72.422  1.00  0.00    -0.354 OA 
BRANCH  20  26
HETATM   26  N   UNL     1     -12.004  14.338  71.455  1.00  0.00    -0.404 N  
HETATM   27  H   UNL     1     -12.240  14.218  72.440  1.00  0.00     0.000 HD 
HETATM   28  O   UNL     1     -11.636  16.541  71.847  1.00  0.00    -0.419 OA 
HETATM   29  C   UNL     1     -11.654  15.601  71.065  1.00  0.00    -0.392 C  
ENDBRANCH  20  26
ENDBRANCH  15  18
ENDBRANCH  14  15
ENDBRANCH  12  14
ENDBRANCH  10  12
ENDBRANCH   9  10
ENDBRANCH   6   9
ENDBRANCH   2   3
TORSDOF 8
ENDMDL
MODEL      397
REMARK 921   NORMALIZED FREE ENERGY PREDICTED BY IDOCK:   -2.52 KCAL/MOL
REMARK 922        TOTAL FREE ENERGY PREDICTED BY IDOCK:   -5.36 KCAL/MOL
REMARK 923 INTER-LIGAND FREE ENERGY PREDICTED BY IDOCK:   -4.54 KCAL/MOL
REMARK 924 INTRA-LIGAND FREE ENERGY PREDICTED BY IDOCK:   -0.82 KCAL/MOL
REMARK 927      BINDING AFFINITY PREDICTED BY RF-SCORE:    0.00 PKD
ROOT
HETATM    1  C   UNL     1      -7.873  17.723  68.518  1.00  0.00    -0.290 C  
HETATM    2  O   UNL     1      -7.270  16.471  68.218  1.00  0.00    -0.150 OA 
ENDROOT
BRANCH   2   3
HETATM    3  C   UNL     1      -8.110  15.399  68.101  1.00  0.00    -0.136 A  
HETATM    4  C   UNL     1      -7.744  14.056  68.191  1.00  0.00    -0.143 A  
HETATM    5  C   UNL     1      -8.696  13.051  67.991  1.00  0.00    -0.187 A  
HETATM    6  C   UNL     1     -10.030  13.377  67.712  1.00  0.00    -0.233 A  
HETATM    7  C   UNL     1      -9.444  15.725  67.856  1.00  0.00    -0.212 A  
HETATM    8  C   UNL     1     -10.397  14.726  67.661  1.00  0.00    -0.237 A  
BRANCH   6   9
HETATM    9  C   UNL     1     -11.033  12.315  67.329  1.00  0.00    -0.301 C  
BRANCH   9  10
HETATM   10  C   UNL     1     -10.877  11.686  65.925  1.00  0.00    -0.287 C  
HETATM   11  C   UNL     1     -10.895  12.766  64.836  1.00  0.00    -0.326 C  
BRANCH  10  12
HETATM   12  N   UNL     1      -9.611  10.941  65.778  1.00  0.00    -0.205 NA 
HETATM   13  H   UNL     1      -8.879  11.355  66.355  1.00  0.00     0.000 HD 
BRANCH  12  14
HETATM   14  C   UNL     1      -9.742   9.501  66.057  1.00  0.00    -0.272 C  
BRANCH  14  15
HETATM   15  C   UNL     1      -9.085   9.061  67.387  1.00  0.00    -0.131 C  
HETATM   16  H   UNL     1      -7.469   8.076  67.930  1.00  0.00     0.000 HD 
HETATM   17  O   UNL     1      -7.873   8.347  67.114  1.00  0.00    -0.098 OA 
BRANCH  15  18
HETATM   18  C   UNL     1      -9.997   8.279  68.310  1.00  0.00    -0.217 A  
HETATM   19  C   UNL     1     -10.743   8.966  69.285  1.00  0.00    -0.177 A  
HETATM   20  C   UNL     1     -11.578   8.280  70.174  1.00  0.00     0.102 A  
HETATM   21  H   UNL     1     -12.495   5.190  70.838  1.00  0.00     0.000 HD 
HETATM   22  C   UNL     1     -11.675   6.887  70.059  1.00  0.00    -0.208 A  
HETATM   23  C   UNL     1     -10.131   6.888  68.208  1.00  0.00    -0.182 A  
HETATM   24  C   UNL     1     -10.968   6.195  69.080  1.00  0.00    -0.436 A  
HETATM   25  O   UNL     1     -12.429   6.135  70.916  1.00  0.00     0.244 OA 
BRANCH  20  26
HETATM   26  N   UNL     1     -12.332   8.945  71.159  1.00  0.00    -0.407 N  
HETATM   27  H   UNL     1     -11.865   9.114  72.049  1.00  0.00     0.000 HD 
HETATM   28  O   UNL     1     -14.190   9.950  71.981  1.00  0.00     0.014 OA 
HETATM   29  C   UNL     1     -13.620   9.390  71.056  1.00  0.00    -0.062 C  
ENDBRANCH  20  26
ENDBRANCH  15  18
ENDBRANCH  14  15
ENDBRANCH  12  14
ENDBRANCH  10  12
ENDBRANCH   9  10
ENDBRANCH   6   9
ENDBRANCH   2   3
TORSDOF 8
ENDMDL
MODEL      398
REMARK 921   NORMALIZED FREE ENERGY PREDICTED BY IDOCK:   -2.49 KCAL/MOL
REMARK 922        TOTAL FREE ENERGY PREDICTED BY IDOCK:   -5.31 KCAL/MOL
REMARK 923 INTER-LIGAND FREE ENERGY PREDICTED BY IDOCK:   -4.74 KCAL/MOL
REMARK 924 INTRA-LIGAND FREE ENERGY PREDICTED BY IDOCK:   -0.57 KCAL/MOL
REMARK 927      BINDING AFFINITY PREDICTED BY RF-SCORE:    0.00 PKD
ROOT
HETATM    1  C   UNL     1      -9.833   2.747  63.757  1.00  0.00    -0.143 C  
HETATM    2  O   UNL     1      -8.766   3.143  64.609  1.00  0.00    -0.097 OA 
ENDROOT
BRANCH   2   3
HETATM    3  C   UNL     1      -8.612   4.486  64.814  1.00  0.00    -0.137 A  
HETATM    4  C   UNL     1      -8.917   5.178  65.986  1.00  0.00    -0.140 A  
HETATM    5  C   UNL     1      -8.769   6.567  66.044  1.00  0.00    -0.155 A  
HETATM    6  C   UNL     1      -8.300   7.281  64.932  1.00  0.00    -0.022 A  
HETATM    7  C   UNL     1      -8.114   5.191  63.718  1.00  0.00    -0.115 A  
HETATM    8  C   UNL     1      -7.960   6.576  63.773  1.00  0.00    -0.076 A  
BRANCH   6   9
HETATM    9  C   UNL     1      -8.291   8.792  64.917  1.00  0.00    -0.179 C  
BRANCH   9  10
HETATM   10  C   UNL     1      -7.960   9.498  66.253  1.00  0.00    -0.107 C  
HETATM   11  C   UNL     1      -6.454   9.450  66.540  1.00  0.00    -0.067 C  
BRANCH  10  12
HETATM   12  N   UNL     1      -8.358  10.920  66.253  1.00  0.00    -0.160 NA 
HETATM   13  H   UNL     1      -8.112  11.363  65.368  1.00  0.00     0.000 HD 
BRANCH  12  14
HETATM   14  C   UNL     1      -9.782  11.130  66.564  1.00  0.00    -0.198 C  
BRANCH  14  15
HETATM   15  C   UNL     1     -10.029  11.747  67.961  1.00  0.00    -0.188 C  
HETATM   16  H   UNL     1      -9.247  13.188  69.051  1.00  0.00     0.000 HD 
HETATM   17  O   UNL     1      -9.095  12.809  68.193  1.00  0.00    -0.196 OA 
BRANCH  15  18
HETATM   18  C   UNL     1     -10.029  10.746  69.098  1.00  0.00    -0.206 A  
HETATM   19  C   UNL     1     -11.256  10.303  69.625  1.00  0.00    -0.322 A  
HETATM   20  C   UNL     1     -11.301   9.397  70.692  1.00  0.00    -0.292 A  
HETATM   21  H   UNL     1      -9.223   7.751  72.641  1.00  0.00     0.000 HD 
HETATM   22  C   UNL     1     -10.092   8.921  71.215  1.00  0.00    -0.295 A  
HETATM   23  C   UNL     1      -8.838  10.235  69.630  1.00  0.00    -0.124 A  
HETATM   24  C   UNL     1      -8.870   9.326  70.685  1.00  0.00    -0.287 A  
HETATM   25  O   UNL     1     -10.043   8.074  72.287  1.00  0.00    -0.204 OA 
BRANCH  20  26
HETATM   26  N   UNL     1     -12.515   8.942  71.237  1.00  0.00    -0.382 N  
HETATM   27  H   UNL     1     -13.192   9.659  71.500  1.00  0.00     0.000 HD 
HETATM   28  O   UNL     1     -13.971   7.356  71.948  1.00  0.00    -0.330 OA 
HETATM   29  C   UNL     1     -12.890   7.646  71.455  1.00  0.00    -0.319 C  
ENDBRANCH  20  26
ENDBRANCH  15  18
ENDBRANCH  14  15
ENDBRANCH  12  14
ENDBRANCH  10  12
ENDBRANCH   9  10
ENDBRANCH   6   9
ENDBRANCH   2   3
TORSDOF 8
ENDMDL
MODEL      399
REMARK 921   NORMALIZED FREE ENERGY PREDICTED BY IDOCK:   -2.48 KCAL/MOL
REMARK 922        TOTAL FREE ENERGY PREDICTED BY IDOCK:   -5.30 KCAL/MOL
REMARK 923 INTER-LIGAND FREE ENERGY PREDICTED BY IDOCK:   -4.78 KCAL/MOL
REMARK 924 INTRA-LIGAND FREE ENERGY PREDICTED BY IDOCK:   -0.52 KCAL/MOL
REMARK 927      BINDING AFFINITY PREDICTED BY RF-SCORE:    0.00 PKD
ROOT
HETATM    1  C   UNL     1     -12.667  15.005  71.345  1.00  0.00    -0.341 C  
HETATM    2  O   UNL     1     -12.985  14.653  70.005  1.00  0.00    -0.165 OA 
ENDROOT
BRANCH   2   3
HETATM    3  C   UNL     1     -12.279  13.617  69.460  1.00  0.00    -0.264 A  
HETATM    4  C   UNL     1     -12.013  12.393  70.072  1.00  0.00    -0.372 A  
HETATM    5  C   UNL     1     -11.223  11.437  69.425  1.00  0.00    -0.333 A  
HETATM    6  C   UNL     1     -10.700  11.690  68.149  1.00  0.00    -0.248 A  
HETATM    7  C   UNL     1     -11.787  13.857  68.177  1.00  0.00    -0.407 A  
HETATM    8  C   UNL     1     -11.003  12.904  67.526  1.00  0.00    -0.283 A  
BRANCH   6   9
HETATM    9  C   UNL     1      -9.712  10.746  67.506  1.00  0.00    -0.188 C  
BRANCH   9  10
HETATM   10  C   UNL     1      -8.313  10.655  68.158  1.00  0.00    -0.121 C  
HETATM   11  C   UNL     1      -7.728  12.053  68.397  1.00  0.00    -0.138 C  
BRANCH  10  12
HETATM   12  N   UNL     1      -8.343   9.967  69.464  1.00  0.00    -0.153 NA 
HETATM   13  H   UNL     1      -9.300   9.876  69.802  1.00  0.00     0.000 HD 
BRANCH  12  14
HETATM   14  C   UNL     1      -7.666   8.659  69.452  1.00  0.00    -0.091 C  
BRANCH  14  15
HETATM   15  C   UNL     1      -8.355   7.593  70.338  1.00  0.00    -0.124 C  
HETATM   16  H   UNL     1      -8.004   6.722  72.068  1.00  0.00     0.000 HD 
HETATM   17  O   UNL     1      -7.581   7.376  71.524  1.00  0.00    -0.083 OA 
BRANCH  15  18
HETATM   18  C   UNL     1      -8.665   6.292  69.628  1.00  0.00    -0.136 A  
HETATM   19  C   UNL     1      -8.110   6.051  68.357  1.00  0.00    -0.107 A  
HETATM   20  C   UNL     1      -8.390   4.873  67.656  1.00  0.00    -0.105 A  
HETATM   21  H   UNL     1     -10.151   2.118  68.031  1.00  0.00     0.000 HD 
HETATM   22  C   UNL     1      -9.223   3.920  68.257  1.00  0.00    -0.155 A  
HETATM   23  C   UNL     1      -9.478   5.310  70.210  1.00  0.00    -0.225 A  
HETATM   24  C   UNL     1      -9.756   4.128  69.526  1.00  0.00    -0.254 A  
HETATM   25  O   UNL     1      -9.586   2.765  67.623  1.00  0.00    -0.172 OA 
BRANCH  20  26
HETATM   26  N   UNL     1      -7.849   4.611  66.384  1.00  0.00    -0.098 N  
HETATM   27  H   UNL     1      -6.944   4.141  66.364  1.00  0.00     0.000 HD 
HETATM   28  O   UNL     1      -7.839   4.655  64.117  1.00  0.00    -0.081 OA 
HETATM   29  C   UNL     1      -8.401   4.917  65.171  1.00  0.00    -0.133 C  
ENDBRANCH  20  26
ENDBRANCH  15  18
ENDBRANCH  14  15
ENDBRANCH  12  14
ENDBRANCH  10  12
ENDBRANCH   9  10
ENDBRANCH   6   9
ENDBRANCH   2   3
TORSDOF 8
ENDMDL
MODEL      400
REMARK 921   NORMALIZED FREE ENERGY PREDICTED BY IDOCK:   -2.36 KCAL/MOL
REMARK 922        TOTAL FREE ENERGY PREDICTED BY IDOCK:   -5.13 KCAL/MOL
REMARK 923 INTER-LIGAND FREE ENERGY PREDICTED BY IDOCK:   -4.29 KCAL/MOL
REMARK 924 INTRA-LIGAND FREE ENERGY PREDICTED BY IDOCK:   -0.84 KCAL/MOL
REMARK 927      BINDING AFFINITY PREDICTED BY RF-SCORE:    0.00 PKD
ROOT
HETATM    1  C   UNL     1     -12.532  13.497  64.937  1.00  0.00    -0.384 C  
HETATM    2  O   UNL     1     -12.427  12.629  66.058  1.00  0.00    -0.555 OA 
ENDROOT
BRANCH   2   3
HETATM    3  C   UNL     1     -11.460  11.664  65.997  1.00  0.00    -0.125 A  
HETATM    4  C   UNL     1     -11.030  10.865  67.056  1.00  0.00    -0.310 A  
HETATM    5  C   UNL     1      -9.986   9.953  66.872  1.00  0.00    -0.268 A  
HETATM    6  C   UNL     1      -9.368   9.819  65.621  1.00  0.00    -0.285 A  
HETATM    7  C   UNL     1     -10.869  11.509  64.743  1.00  0.00    -0.360 A  
HETATM    8  C   UNL     1      -9.830  10.596  64.555  1.00  0.00    -0.388 A  
BRANCH   6   9
HETATM    9  C   UNL     1      -8.134   8.966  65.444  1.00  0.00    -0.119 C  
BRANCH   9  10
HETATM   10  C   UNL     1      -6.771   9.655  65.689  1.00  0.00    -0.086 C  
HETATM   11  C   UNL     1      -6.966  11.118  66.109  1.00  0.00    -0.000 C  
BRANCH  10  12
HETATM   12  N   UNL     1      -5.990   8.997  66.756  1.00  0.00    -0.052 NA 
HETATM   13  H   UNL     1      -5.603   9.688  67.398  1.00  0.00     0.000 HD 
BRANCH  12  14
HETATM   14  C   UNL     1      -6.749   7.970  67.488  1.00  0.00    -0.069 C  
BRANCH  14  15
HETATM   15  C   UNL     1      -7.193   8.413  68.903  1.00  0.00    -0.078 C  
HETATM   16  H   UNL     1      -6.313   8.855  70.608  1.00  0.00     0.000 HD 
HETATM   17  O   UNL     1      -6.041   8.582  69.739  1.00  0.00    -0.034 OA 
BRANCH  15  18
HETATM   18  C   UNL     1      -8.224   7.511  69.549  1.00  0.00    -0.130 A  
HETATM   19  C   UNL     1      -7.910   6.862  70.758  1.00  0.00    -0.097 A  
HETATM   20  C   UNL     1      -8.824   6.001  71.375  1.00  0.00    -0.136 A  
HETATM   21  H   UNL     1     -11.857   4.824  70.875  1.00  0.00     0.000 HD 
HETATM   22  C   UNL     1     -10.076   5.812  70.774  1.00  0.00    -0.202 A  
HETATM   23  C   UNL     1      -9.491   7.317  68.983  1.00  0.00    -0.147 A  
HETATM   24  C   UNL     1     -10.413   6.470  69.594  1.00  0.00    -0.260 A  
HETATM   25  O   UNL     1     -11.008   4.952  71.283  1.00  0.00     0.059 OA 
BRANCH  20  26
HETATM   26  N   UNL     1      -8.533   5.339  72.582  1.00  0.00    -0.117 N  
HETATM   27  H   UNL     1      -8.870   5.783  73.436  1.00  0.00     0.000 HD 
HETATM   28  O   UNL     1      -7.637   3.678  73.840  1.00  0.00    -0.067 OA 
HETATM   29  C   UNL     1      -7.848   4.166  72.738  1.00  0.00    -0.081 C  
ENDBRANCH  20  26
ENDBRANCH  15  18
ENDBRANCH  14  15
ENDBRANCH  12  14
ENDBRANCH  10  12
ENDBRANCH   9  10
ENDBRANCH   6   9
ENDBRANCH   2   3
TORSDOF 8
ENDMDL
MODEL      401
REMARK 921   NORMALIZED FREE ENERGY PREDICTED BY IDOCK:   -2.36 KCAL/MOL
REMARK 922        TOTAL FREE ENERGY PREDICTED BY IDOCK:   -5.12 KCAL/MOL
REMARK 923 INTER-LIGAND FREE ENERGY PREDICTED BY IDOCK:   -4.49 KCAL/MOL
REMARK 924 INTRA-LIGAND FREE ENERGY PREDICTED BY IDOCK:   -0.63 KCAL/MOL
REMARK 927      BINDING AFFINITY PREDICTED BY RF-SCORE:    0.00 PKD
ROOT
HETATM    1  C   UNL     1      -9.642  20.126  66.975  1.00  0.00    -0.424 C  
HETATM    2  O   UNL     1      -8.639  19.959  67.968  1.00  0.00    -0.307 OA 
ENDROOT
BRANCH   2   3
HETATM    3  C   UNL     1      -8.199  18.683  68.186  1.00  0.00    -0.303 A  
HETATM    4  C   UNL     1      -8.748  17.522  67.643  1.00  0.00    -0.223 A  
HETATM    5  C   UNL     1      -8.238  16.268  67.997  1.00  0.00    -0.157 A  
HETATM    6  C   UNL     1      -7.161  16.162  68.888  1.00  0.00    -0.178 A  
HETATM    7  C   UNL     1      -7.106  18.581  69.047  1.00  0.00    -0.282 A  
HETATM    8  C   UNL     1      -6.591  17.333  69.398  1.00  0.00    -0.218 A  
BRANCH   6   9
HETATM    9  C   UNL     1      -6.705  14.820  69.411  1.00  0.00    -0.149 C  
BRANCH   9  10
HETATM   10  C   UNL     1      -6.272  13.775  68.356  1.00  0.00    -0.100 C  
HETATM   11  C   UNL     1      -5.159  14.332  67.459  1.00  0.00     0.237 C  
BRANCH  10  12
HETATM   12  N   UNL     1      -5.755  12.535  68.970  1.00  0.00    -0.065 NA 
HETATM   13  H   UNL     1      -4.906  12.723  69.503  1.00  0.00     0.000 HD 
BRANCH  12  14
HETATM   14  C   UNL     1      -6.749  11.836  69.803  1.00  0.00     0.016 C  
BRANCH  14  15
HETATM   15  C   UNL     1      -7.163  10.452  69.248  1.00  0.00    -0.100 C  
HETATM   16  H   UNL     1      -8.110   9.768  67.663  1.00  0.00     0.000 HD 
HETATM   17  O   UNL     1      -7.855  10.618  68.004  1.00  0.00    -0.102 OA 
BRANCH  15  18
HETATM   18  C   UNL     1      -7.954   9.599  70.217  1.00  0.00    -0.198 A  
HETATM   19  C   UNL     1      -9.318   9.877  70.425  1.00  0.00    -0.064 A  
HETATM   20  C   UNL     1     -10.079   9.129  71.330  1.00  0.00    -0.322 A  
HETATM   21  H   UNL     1      -9.694   6.612  73.415  1.00  0.00     0.000 HD 
HETATM   22  C   UNL     1      -9.459   8.076  72.015  1.00  0.00    -0.197 A  
HETATM   23  C   UNL     1      -7.368   8.526  70.903  1.00  0.00    -0.068 A  
HETATM   24  C   UNL     1      -8.119   7.767  71.798  1.00  0.00    -0.118 A  
HETATM   25  O   UNL     1     -10.115   7.327  72.951  1.00  0.00    -0.190 OA 
BRANCH  20  26
HETATM   26  N   UNL     1     -11.443   9.390  71.557  1.00  0.00    -0.376 N  
HETATM   27  H   UNL     1     -11.811   9.119  72.469  1.00  0.00     0.000 HD 
HETATM   28  O   UNL     1     -13.505  10.140  70.985  1.00  0.00    -0.351 OA 
HETATM   29  C   UNL     1     -12.331   9.967  70.692  1.00  0.00    -0.253 C  
ENDBRANCH  20  26
ENDBRANCH  15  18
ENDBRANCH  14  15
ENDBRANCH  12  14
ENDBRANCH  10  12
ENDBRANCH   9  10
ENDBRANCH   6   9
ENDBRANCH   2   3
TORSDOF 8
ENDMDL
MODEL      402
REMARK 921   NORMALIZED FREE ENERGY PREDICTED BY IDOCK:   -2.35 KCAL/MOL
REMARK 922        TOTAL FREE ENERGY PREDICTED BY IDOCK:   -5.11 KCAL/MOL
REMARK 923 INTER-LIGAND FREE ENERGY PREDICTED BY IDOCK:   -4.71 KCAL/MOL
REMARK 924 INTRA-LIGAND FREE ENERGY PREDICTED BY IDOCK:   -0.40 KCAL/MOL
REMARK 927      BINDING AFFINITY PREDICTED BY RF-SCORE:    0.00 PKD
ROOT
HETATM    1  C   UNL     1      -7.950   2.917  68.431  1.00  0.00    -0.057 C  
HETATM    2  O   UNL     1      -8.324   4.047  69.208  1.00  0.00    -0.064 OA 
ENDROOT
BRANCH   2   3
HETATM    3  C   UNL     1      -8.314   5.258  68.573  1.00  0.00    -0.089 A  
HETATM    4  C   UNL     1      -9.015   5.582  67.412  1.00  0.00    -0.107 A  
HETATM    5  C   UNL     1      -8.868   6.845  66.829  1.00  0.00    -0.129 A  
HETATM    6  C   UNL     1      -8.030   7.806  67.409  1.00  0.00    -0.119 A  
HETATM    7  C   UNL     1      -7.505   6.224  69.171  1.00  0.00    -0.094 A  
HETATM    8  C   UNL     1      -7.360   7.487  68.595  1.00  0.00    -0.095 A  
BRANCH   6   9
HETATM    9  C   UNL     1      -7.729   9.110  66.709  1.00  0.00    -0.097 C  
BRANCH   9  10
HETATM   10  C   UNL     1      -7.134   9.012  65.285  1.00  0.00    -0.084 C  
HETATM   11  C   UNL     1      -6.375   7.693  65.098  1.00  0.00    -0.038 C  
BRANCH  10  12
HETATM   12  N   UNL     1      -8.171   9.070  64.236  1.00  0.00    -0.156 NA 
HETATM   13  H   UNL     1      -8.140   8.235  63.650  1.00  0.00     0.000 HD 
BRANCH  12  14
HETATM   14  C   UNL     1      -9.529   9.285  64.765  1.00  0.00     0.094 C  
BRANCH  14  15
HETATM   15  C   UNL     1     -10.104  10.687  64.455  1.00  0.00    -0.349 C  
HETATM   16  H   UNL     1      -9.575  12.246  63.375  1.00  0.00     0.000 HD 
HETATM   17  O   UNL     1      -9.223  11.385  63.566  1.00  0.00    -0.177 OA 
BRANCH  15  18
HETATM   18  C   UNL     1     -10.432  11.516  65.680  1.00  0.00    -0.317 A  
HETATM   19  C   UNL     1     -10.252  12.911  65.635  1.00  0.00    -0.295 A  
HETATM   20  C   UNL     1     -10.519  13.711  66.752  1.00  0.00    -0.270 A  
HETATM   21  H   UNL     1     -11.555  13.375  69.858  1.00  0.00     0.000 HD 
HETATM   22  C   UNL     1     -10.993  13.094  67.918  1.00  0.00    -0.249 A  
HETATM   23  C   UNL     1     -10.927  10.932  66.854  1.00  0.00    -0.286 A  
HETATM   24  C   UNL     1     -11.206  11.719  67.969  1.00  0.00    -0.324 A  
HETATM   25  O   UNL     1     -11.233  13.793  69.067  1.00  0.00    -0.252 OA 
BRANCH  20  26
HETATM   26  N   UNL     1     -10.343  15.107  66.733  1.00  0.00    -0.267 N  
HETATM   27  H   UNL     1     -10.363  15.578  67.637  1.00  0.00     0.000 HD 
HETATM   28  O   UNL     1     -10.018  17.114  65.730  1.00  0.00    -0.530 OA 
HETATM   29  C   UNL     1     -10.149  15.902  65.638  1.00  0.00    -0.358 C  
ENDBRANCH  20  26
ENDBRANCH  15  18
ENDBRANCH  14  15
ENDBRANCH  12  14
ENDBRANCH  10  12
ENDBRANCH   9  10
ENDBRANCH   6   9
ENDBRANCH   2   3
TORSDOF 8
ENDMDL
MODEL      403
REMARK 921   NORMALIZED FREE ENERGY PREDICTED BY IDOCK:   -2.34 KCAL/MOL
REMARK 922        TOTAL FREE ENERGY PREDICTED BY IDOCK:   -5.10 KCAL/MOL
REMARK 923 INTER-LIGAND FREE ENERGY PREDICTED BY IDOCK:   -4.15 KCAL/MOL
REMARK 924 INTRA-LIGAND FREE ENERGY PREDICTED BY IDOCK:   -0.95 KCAL/MOL
REMARK 927      BINDING AFFINITY PREDICTED BY RF-SCORE:    0.00 PKD
ROOT
HETATM    1  C   UNL     1      -5.163  17.004  70.598  1.00  0.00    -0.237 C  
HETATM    2  O   UNL     1      -6.203  17.375  69.704  1.00  0.00    -0.248 OA 
ENDROOT
BRANCH   2   3
HETATM    3  C   UNL     1      -6.782  16.366  68.985  1.00  0.00    -0.192 A  
HETATM    4  C   UNL     1      -6.183  15.646  67.951  1.00  0.00    -0.163 A  
HETATM    5  C   UNL     1      -6.910  14.676  67.254  1.00  0.00     0.078 A  
HETATM    6  C   UNL     1      -8.243  14.405  67.591  1.00  0.00    -0.185 A  
HETATM    7  C   UNL     1      -8.098  16.074  69.343  1.00  0.00    -0.139 A  
HETATM    8  C   UNL     1      -8.825  15.104  68.654  1.00  0.00    -0.186 A  
BRANCH   6   9
HETATM    9  C   UNL     1      -9.094  13.485  66.747  1.00  0.00    -0.223 C  
BRANCH   9  10
HETATM   10  C   UNL     1      -9.296  12.046  67.275  1.00  0.00    -0.180 C  
HETATM   11  C   UNL     1      -8.179  11.659  68.252  1.00  0.00    -0.156 C  
BRANCH  10  12
HETATM   12  N   UNL     1     -10.577  11.883  67.992  1.00  0.00    -0.200 NA 
HETATM   13  H   UNL     1     -11.122  12.744  67.959  1.00  0.00     0.000 HD 
BRANCH  12  14
HETATM   14  C   UNL     1     -11.375  10.742  67.514  1.00  0.00    -0.205 C  
BRANCH  14  15
HETATM   15  C   UNL     1     -11.155   9.444  68.327  1.00  0.00     0.061 C  
HETATM   16  H   UNL     1     -10.833   8.969  70.210  1.00  0.00     0.000 HD 
HETATM   17  O   UNL     1     -10.968   9.766  69.711  1.00  0.00    -0.237 OA 
BRANCH  15  18
HETATM   18  C   UNL     1     -10.042   8.558  67.805  1.00  0.00    -0.266 A  
HETATM   19  C   UNL     1      -9.834   8.458  66.417  1.00  0.00    -0.310 A  
HETATM   20  C   UNL     1      -8.834   7.631  65.893  1.00  0.00    -0.130 A  
HETATM   21  H   UNL     1      -6.505   5.566  66.961  1.00  0.00     0.000 HD 
HETATM   22  C   UNL     1      -8.023   6.917  66.784  1.00  0.00    -0.108 A  
HETATM   23  C   UNL     1      -9.201   7.845  68.671  1.00  0.00    -0.142 A  
HETATM   24  C   UNL     1      -8.195   7.027  68.161  1.00  0.00    -0.120 A  
HETATM   25  O   UNL     1      -7.056   6.050  66.356  1.00  0.00    -0.065 OA 
BRANCH  20  26
HETATM   26  N   UNL     1      -8.609   7.513  64.509  1.00  0.00    -0.362 N  
HETATM   27  H   UNL     1      -8.644   6.570  64.123  1.00  0.00     0.000 HD 
HETATM   28  O   UNL     1      -8.156   8.309  62.435  1.00  0.00    -0.154 OA 
HETATM   29  C   UNL     1      -8.349   8.521  63.623  1.00  0.00    -0.080 C  
ENDBRANCH  20  26
ENDBRANCH  15  18
ENDBRANCH  14  15
ENDBRANCH  12  14
ENDBRANCH  10  12
ENDBRANCH   9  10
ENDBRANCH   6   9
ENDBRANCH   2   3
TORSDOF 8
ENDMDL
MODEL      404
REMARK 921   NORMALIZED FREE ENERGY PREDICTED BY IDOCK:   -2.28 KCAL/MOL
REMARK 922        TOTAL FREE ENERGY PREDICTED BY IDOCK:   -5.00 KCAL/MOL
REMARK 923 INTER-LIGAND FREE ENERGY PREDICTED BY IDOCK:   -4.71 KCAL/MOL
REMARK 924 INTRA-LIGAND FREE ENERGY PREDICTED BY IDOCK:   -0.29 KCAL/MOL
REMARK 927      BINDING AFFINITY PREDICTED BY RF-SCORE:    0.00 PKD
ROOT
HETATM    1  C   UNL     1     -10.831   4.735  65.725  1.00  0.00    -0.069 C  
HETATM    2  O   UNL     1     -11.127   5.966  66.371  1.00  0.00    -0.140 OA 
ENDROOT
BRANCH   2   3
HETATM    3  C   UNL     1     -10.065   6.659  66.885  1.00  0.00    -0.195 A  
HETATM    4  C   UNL     1      -8.747   6.209  66.952  1.00  0.00    -0.109 A  
HETATM    5  C   UNL     1      -7.764   6.996  67.561  1.00  0.00    -0.111 A  
HETATM    6  C   UNL     1      -8.085   8.250  68.097  1.00  0.00    -0.124 A  
HETATM    7  C   UNL     1     -10.381   7.921  67.388  1.00  0.00    -0.349 A  
HETATM    8  C   UNL     1      -9.402   8.711  67.991  1.00  0.00    -0.147 A  
BRANCH   6   9
HETATM    9  C   UNL     1      -7.081   9.040  68.903  1.00  0.00    -0.069 C  
BRANCH   9  10
HETATM   10  C   UNL     1      -7.650  10.016  69.958  1.00  0.00    -0.172 C  
HETATM   11  C   UNL     1      -7.156   9.652  71.364  1.00  0.00     0.354 C  
BRANCH  10  12
HETATM   12  N   UNL     1      -7.251  11.415  69.706  1.00  0.00    -0.353 NA 
HETATM   13  H   UNL     1      -6.240  11.487  69.588  1.00  0.00     0.000 HD 
BRANCH  12  14
HETATM   14  C   UNL     1      -7.954  12.028  68.566  1.00  0.00    -0.132 C  
BRANCH  14  15
HETATM   15  C   UNL     1      -7.575  13.509  68.324  1.00  0.00    -0.135 C  
HETATM   16  H   UNL     1      -6.970  15.031  69.416  1.00  0.00     0.000 HD 
HETATM   17  O   UNL     1      -7.202  14.121  69.565  1.00  0.00    -0.072 OA 
BRANCH  15  18
HETATM   18  C   UNL     1      -8.632  14.316  67.599  1.00  0.00    -0.186 A  
HETATM   19  C   UNL     1      -9.194  13.809  66.413  1.00  0.00    -0.158 A  
HETATM   20  C   UNL     1     -10.155  14.534  65.699  1.00  0.00    -0.359 A  
HETATM   21  H   UNL     1     -11.742  17.411  65.887  1.00  0.00     0.000 HD 
HETATM   22  C   UNL     1     -10.566  15.775  66.204  1.00  0.00    -0.313 A  
HETATM   23  C   UNL     1      -9.079  15.551  68.088  1.00  0.00    -0.184 A  
HETATM   24  C   UNL     1     -10.043  16.278  67.392  1.00  0.00    -0.260 A  
HETATM   25  O   UNL     1     -11.463  16.569  65.545  1.00  0.00     0.276 OA 
BRANCH  20  26
HETATM   26  N   UNL     1     -10.729  14.048  64.510  1.00  0.00    -0.578 N  
HETATM   27  H   UNL     1     -10.093  13.601  63.850  1.00  0.00     0.000 HD 
HETATM   28  O   UNL     1     -12.439  13.664  63.072  1.00  0.00    -0.719 OA 
HETATM   29  C   UNL     1     -12.043  14.109  64.140  1.00  0.00    -0.406 C  
ENDBRANCH  20  26
ENDBRANCH  15  18
ENDBRANCH  14  15
ENDBRANCH  12  14
ENDBRANCH  10  12
ENDBRANCH   9  10
ENDBRANCH   6   9
ENDBRANCH   2   3
TORSDOF 8
ENDMDL
MODEL      405
REMARK 921   NORMALIZED FREE ENERGY PREDICTED BY IDOCK:   -2.24 KCAL/MOL
REMARK 922        TOTAL FREE ENERGY PREDICTED BY IDOCK:   -4.95 KCAL/MOL
REMARK 923 INTER-LIGAND FREE ENERGY PREDICTED BY IDOCK:   -3.42 KCAL/MOL
REMARK 924 INTRA-LIGAND FREE ENERGY PREDICTED BY IDOCK:   -1.52 KCAL/MOL
REMARK 927      BINDING AFFINITY PREDICTED BY RF-SCORE:    0.00 PKD
ROOT
HETATM    1  C   UNL     1      -7.116   6.683  69.725  1.00  0.00    -0.068 C  
HETATM    2  O   UNL     1      -6.220   7.465  68.945  1.00  0.00    -0.029 OA 
ENDROOT
BRANCH   2   3
HETATM    3  C   UNL     1      -6.601   8.752  68.682  1.00  0.00    -0.055 A  
HETATM    4  C   UNL     1      -6.318   9.471  67.521  1.00  0.00    -0.061 A  
HETATM    5  C   UNL     1      -6.715  10.807  67.404  1.00  0.00    -0.076 A  
HETATM    6  C   UNL     1      -7.414  11.436  68.443  1.00  0.00    -0.111 A  
HETATM    7  C   UNL     1      -7.325   9.367  69.703  1.00  0.00    -0.077 A  
HETATM    8  C   UNL     1      -7.728  10.697  69.589  1.00  0.00    -0.080 A  
BRANCH   6   9
HETATM    9  C   UNL     1      -7.705  12.918  68.407  1.00  0.00    -0.133 C  
BRANCH   9  10
HETATM   10  C   UNL     1      -9.188  13.332  68.264  1.00  0.00    -0.197 C  
HETATM   11  C   UNL     1      -9.446  14.687  68.935  1.00  0.00    -0.173 C  
BRANCH  10  12
HETATM   12  N   UNL     1      -9.604  13.460  66.853  1.00  0.00    -0.249 NA 
HETATM   13  H   UNL     1      -9.204  14.299  66.433  1.00  0.00     0.000 HD 
BRANCH  12  14
HETATM   14  C   UNL     1      -9.292  12.271  66.041  1.00  0.00    -0.141 C  
BRANCH  14  15
HETATM   15  C   UNL     1     -10.505  11.339  65.810  1.00  0.00    -0.254 C  
HETATM   16  H   UNL     1     -12.436  11.552  65.488  1.00  0.00     0.000 HD 
HETATM   17  O   UNL     1     -11.691  12.124  65.629  1.00  0.00    -0.375 OA 
BRANCH  15  18
HETATM   18  C   UNL     1     -10.695  10.280  66.876  1.00  0.00    -0.252 A  
HETATM   19  C   UNL     1     -10.289   8.958  66.614  1.00  0.00    -0.294 A  
HETATM   20  C   UNL     1     -10.469   7.945  67.562  1.00  0.00    -0.262 A  
HETATM   21  H   UNL     1     -11.693   7.567  70.594  1.00  0.00     0.000 HD 
HETATM   22  C   UNL     1     -11.045   8.277  68.795  1.00  0.00     0.337 A  
HETATM   23  C   UNL     1     -11.250  10.584  68.126  1.00  0.00    -0.357 A  
HETATM   24  C   UNL     1     -11.425   9.586  69.082  1.00  0.00     0.200 A  
HETATM   25  O   UNL     1     -11.302   7.341  69.757  1.00  0.00    -0.187 OA 
BRANCH  20  26
HETATM   26  N   UNL     1     -10.073   6.616  67.322  1.00  0.00    -0.153 N  
HETATM   27  H   UNL     1      -9.365   6.234  67.948  1.00  0.00     0.000 HD 
HETATM   28  O   UNL     1     -10.113   4.638  66.214  1.00  0.00    -0.220 OA 
HETATM   29  C   UNL     1     -10.534   5.779  66.344  1.00  0.00    -0.157 C  
ENDBRANCH  20  26
ENDBRANCH  15  18
ENDBRANCH  14  15
ENDBRANCH  12  14
ENDBRANCH  10  12
ENDBRANCH   9  10
ENDBRANCH   6   9
ENDBRANCH   2   3
TORSDOF 8
ENDMDL
MODEL      406
REMARK 921   NORMALIZED FREE ENERGY PREDICTED BY IDOCK:   -2.23 KCAL/MOL
REMARK 922        TOTAL FREE ENERGY PREDICTED BY IDOCK:   -4.93 KCAL/MOL
REMARK 923 INTER-LIGAND FREE ENERGY PREDICTED BY IDOCK:   -4.76 KCAL/MOL
REMARK 924 INTRA-LIGAND FREE ENERGY PREDICTED BY IDOCK:   -0.17 KCAL/MOL
REMARK 927      BINDING AFFINITY PREDICTED BY RF-SCORE:    0.00 PKD
ROOT
HETATM    1  C   UNL     1     -11.916  15.654  64.097  1.00  0.00    -0.039 C  
HETATM    2  O   UNL     1     -11.880  14.235  64.172  1.00  0.00    -0.389 OA 
ENDROOT
BRANCH   2   3
HETATM    3  C   UNL     1     -11.231  13.694  65.247  1.00  0.00    -0.299 A  
HETATM    4  C   UNL     1      -9.884  13.868  65.564  1.00  0.00    -0.213 A  
HETATM    5  C   UNL     1      -9.327  13.206  66.664  1.00  0.00    -0.242 A  
HETATM    6  C   UNL     1     -10.116  12.374  67.470  1.00  0.00    -0.205 A  
HETATM    7  C   UNL     1     -12.025  12.893  66.067  1.00  0.00    -0.505 A  
HETATM    8  C   UNL     1     -11.475  12.235  67.168  1.00  0.00    -0.419 A  
BRANCH   6   9
HETATM    9  C   UNL     1      -9.502  11.523  68.556  1.00  0.00    -0.175 C  
BRANCH   9  10
HETATM   10  C   UNL     1     -10.364  10.359  69.098  1.00  0.00    -0.222 C  
HETATM   11  C   UNL     1     -10.583   9.292  68.018  1.00  0.00    -0.262 C  
BRANCH  10  12
HETATM   12  N   UNL     1      -9.740   9.686  70.254  1.00  0.00    -0.255 NA 
HETATM   13  H   UNL     1     -10.381   9.662  71.047  1.00  0.00     0.000 HD 
BRANCH  12  14
HETATM   14  C   UNL     1      -9.241   8.335  69.946  1.00  0.00    -0.154 C  
BRANCH  14  15
HETATM   15  C   UNL     1     -10.118   7.199  70.525  1.00  0.00    -0.195 C  
HETATM   16  H   UNL     1     -11.167   6.892  72.163  1.00  0.00     0.000 HD 
HETATM   17  O   UNL     1     -10.629   7.589  71.806  1.00  0.00    -0.205 OA 
BRANCH  15  18
HETATM   18  C   UNL     1      -9.436   5.848  70.585  1.00  0.00    -0.199 A  
HETATM   19  C   UNL     1      -8.698   5.399  69.475  1.00  0.00    -0.108 A  
HETATM   20  C   UNL     1      -8.073   4.147  69.479  1.00  0.00    -0.059 A  
HETATM   21  H   UNL     1      -7.713   1.557  71.477  1.00  0.00     0.000 HD 
HETATM   22  C   UNL     1      -8.179   3.351  70.627  1.00  0.00    -0.056 A  
HETATM   23  C   UNL     1      -9.506   5.037  71.726  1.00  0.00    -0.194 A  
HETATM   24  C   UNL     1      -8.880   3.793  71.746  1.00  0.00    -0.137 A  
HETATM   25  O   UNL     1      -7.641   2.097  70.698  1.00  0.00    -0.036 OA 
BRANCH  20  26
HETATM   26  N   UNL     1      -7.332   3.676  68.380  1.00  0.00    -0.054 N  
HETATM   27  H   UNL     1      -6.346   3.476  68.549  1.00  0.00     0.000 HD 
HETATM   28  O   UNL     1      -7.051   3.052  66.218  1.00  0.00    -0.056 OA 
HETATM   29  C   UNL     1      -7.785   3.455  67.109  1.00  0.00    -0.079 C  
ENDBRANCH  20  26
ENDBRANCH  15  18
ENDBRANCH  14  15
ENDBRANCH  12  14
ENDBRANCH  10  12
ENDBRANCH   9  10
ENDBRANCH   6   9
ENDBRANCH   2   3
TORSDOF 8
ENDMDL
MODEL      407
REMARK 921   NORMALIZED FREE ENERGY PREDICTED BY IDOCK:   -2.15 KCAL/MOL
REMARK 922        TOTAL FREE ENERGY PREDICTED BY IDOCK:   -4.81 KCAL/MOL
REMARK 923 INTER-LIGAND FREE ENERGY PREDICTED BY IDOCK:   -4.36 KCAL/MOL
REMARK 924 INTRA-LIGAND FREE ENERGY PREDICTED BY IDOCK:   -0.45 KCAL/MOL
REMARK 927      BINDING AFFINITY PREDICTED BY RF-SCORE:    0.00 PKD
ROOT
HETATM    1  C   UNL     1     -10.353  11.878  65.740  1.00  0.00    -0.248 C  
HETATM    2  O   UNL     1      -8.998  11.481  65.574  1.00  0.00    -0.152 OA 
ENDROOT
BRANCH   2   3
HETATM    3  C   UNL     1      -8.651  10.260  66.082  1.00  0.00    -0.139 A  
HETATM    4  C   UNL     1      -8.458   9.090  65.347  1.00  0.00    -0.175 A  
HETATM    5  C   UNL     1      -8.164   7.888  65.999  1.00  0.00    -0.122 A  
HETATM    6  C   UNL     1      -8.044   7.845  67.395  1.00  0.00    -0.123 A  
HETATM    7  C   UNL     1      -8.500  10.225  67.468  1.00  0.00    -0.118 A  
HETATM    8  C   UNL     1      -8.201   9.030  68.122  1.00  0.00    -0.113 A  
BRANCH   6   9
HETATM    9  C   UNL     1      -7.893   6.533  68.128  1.00  0.00    -0.106 C  
BRANCH   9  10
HETATM   10  C   UNL     1      -6.451   6.092  68.473  1.00  0.00    -0.053 C  
HETATM   11  C   UNL     1      -5.434   6.770  67.545  1.00  0.00    -0.009 C  
BRANCH  10  12
HETATM   12  N   UNL     1      -6.072   6.436  69.858  1.00  0.00    -0.029 NA 
HETATM   13  H   UNL     1      -5.189   6.947  69.875  1.00  0.00     0.000 HD 
BRANCH  12  14
HETATM   14  C   UNL     1      -7.117   7.177  70.584  1.00  0.00    -0.066 C  
BRANCH  14  15
HETATM   15  C   UNL     1      -8.033   6.278  71.447  1.00  0.00    -0.109 C  
HETATM   16  H   UNL     1      -8.327   4.346  71.691  1.00  0.00     0.000 HD 
HETATM   17  O   UNL     1      -7.765   4.899  71.161  1.00  0.00    -0.078 OA 
BRANCH  15  18
HETATM   18  C   UNL     1      -9.510   6.593  71.334  1.00  0.00    -0.161 A  
HETATM   19  C   UNL     1      -9.911   7.827  70.790  1.00  0.00    -0.184 A  
HETATM   20  C   UNL     1     -11.265   8.169  70.690  1.00  0.00    -0.260 A  
HETATM   21  H   UNL     1     -14.210   6.885  71.405  1.00  0.00     0.000 HD 
HETATM   22  C   UNL     1     -12.221   7.242  71.126  1.00  0.00    -0.340 A  
HETATM   23  C   UNL     1     -10.492   5.680  71.742  1.00  0.00    -0.284 A  
HETATM   24  C   UNL     1     -11.843   6.004  71.638  1.00  0.00    -0.142 A  
HETATM   25  O   UNL     1     -13.561   7.514  71.110  1.00  0.00    -0.277 OA 
BRANCH  20  26
HETATM   26  N   UNL     1     -11.690   9.398  70.153  1.00  0.00    -0.462 N  
HETATM   27  H   UNL     1     -12.206   9.354  69.275  1.00  0.00     0.000 HD 
HETATM   28  O   UNL     1     -11.892  11.656  70.121  1.00  0.00    -0.330 OA 
HETATM   29  C   UNL     1     -11.488  10.644  70.677  1.00  0.00    -0.281 C  
ENDBRANCH  20  26
ENDBRANCH  15  18
ENDBRANCH  14  15
ENDBRANCH  12  14
ENDBRANCH  10  12
ENDBRANCH   9  10
ENDBRANCH   6   9
ENDBRANCH   2   3
TORSDOF 8
ENDMDL
MODEL      408
REMARK 921   NORMALIZED FREE ENERGY PREDICTED BY IDOCK:   -2.11 KCAL/MOL
REMARK 922        TOTAL FREE ENERGY PREDICTED BY IDOCK:   -4.76 KCAL/MOL
REMARK 923 INTER-LIGAND FREE ENERGY PREDICTED BY IDOCK:   -5.45 KCAL/MOL
REMARK 924 INTRA-LIGAND FREE ENERGY PREDICTED BY IDOCK:    0.69 KCAL/MOL
REMARK 927      BINDING AFFINITY PREDICTED BY RF-SCORE:    0.00 PKD
ROOT
HETATM    1  C   UNL     1      -6.730   9.017  67.570  1.00  0.00    -0.069 C  
HETATM    2  O   UNL     1      -6.454  10.184  66.806  1.00  0.00    -0.068 OA 
ENDROOT
BRANCH   2   3
HETATM    3  C   UNL     1      -6.898  11.371  67.319  1.00  0.00    -0.115 A  
HETATM    4  C   UNL     1      -6.568  11.901  68.566  1.00  0.00    -0.061 A  
HETATM    5  C   UNL     1      -7.142  13.102  68.997  1.00  0.00    -0.030 A  
HETATM    6  C   UNL     1      -8.044  13.795  68.178  1.00  0.00    -0.155 A  
HETATM    7  C   UNL     1      -7.770  12.076  66.490  1.00  0.00     0.161 A  
HETATM    8  C   UNL     1      -8.341  13.277  66.914  1.00  0.00    -0.018 A  
BRANCH   6   9
HETATM    9  C   UNL     1      -8.800  14.999  68.689  1.00  0.00    -0.185 C  
BRANCH   9  10
HETATM   10  C   UNL     1      -9.332  15.987  67.625  1.00  0.00    -0.214 C  
HETATM   11  C   UNL     1      -8.543  15.858  66.315  1.00  0.00    -0.348 C  
BRANCH  10  12
HETATM   12  N   UNL     1     -10.754  15.756  67.300  1.00  0.00    -0.315 NA 
HETATM   13  H   UNL     1     -11.076  16.418  66.595  1.00  0.00     0.000 HD 
BRANCH  12  14
HETATM   14  C   UNL     1     -11.043  14.372  66.887  1.00  0.00    -0.323 C  
BRANCH  14  15
HETATM   15  C   UNL     1     -11.998  13.623  67.845  1.00  0.00    -0.347 C  
HETATM   16  H   UNL     1     -12.729  13.904  69.652  1.00  0.00     0.000 HD 
HETATM   17  O   UNL     1     -12.142  14.365  69.063  1.00  0.00    -0.312 OA 
BRANCH  15  18
HETATM   18  C   UNL     1     -11.616  12.181  68.112  1.00  0.00    -0.397 A  
HETATM   19  C   UNL     1     -12.022  11.573  69.315  1.00  0.00    -0.397 A  
HETATM   20  C   UNL     1     -11.669  10.251  69.612  1.00  0.00    -0.160 A  
HETATM   21  H   UNL     1      -9.979   7.769  68.266  1.00  0.00     0.000 HD 
HETATM   22  C   UNL     1     -10.917   9.533  68.673  1.00  0.00    -0.072 A  
HETATM   23  C   UNL     1     -10.882  11.430  67.185  1.00  0.00    -0.316 A  
HETATM   24  C   UNL     1     -10.534  10.110  67.465  1.00  0.00    -0.304 A  
HETATM   25  O   UNL     1     -10.489   8.256  68.903  1.00  0.00    -0.221 OA 
BRANCH  20  26
HETATM   26  N   UNL     1     -12.060   9.623  70.808  1.00  0.00    -0.376 N  
HETATM   27  H   UNL     1     -11.332   9.120  71.315  1.00  0.00     0.000 HD 
HETATM   28  O   UNL     1     -13.545   9.020  72.412  1.00  0.00    -0.441 OA 
HETATM   29  C   UNL     1     -13.307   9.610  71.368  1.00  0.00    -0.368 C  
ENDBRANCH  20  26
ENDBRANCH  15  18
ENDBRANCH  14  15
ENDBRANCH  12  14
ENDBRANCH  10  12
ENDBRANCH   9  10
ENDBRANCH   6   9
ENDBRANCH   2   3
TORSDOF 8
ENDMDL
MODEL      409
REMARK 921   NORMALIZED FREE ENERGY PREDICTED BY IDOCK:   -2.02 KCAL/MOL
REMARK 922        TOTAL FREE ENERGY PREDICTED BY IDOCK:   -4.62 KCAL/MOL
REMARK 923 INTER-LIGAND FREE ENERGY PREDICTED BY IDOCK:   -4.01 KCAL/MOL
REMARK 924 INTRA-LIGAND FREE ENERGY PREDICTED BY IDOCK:   -0.61 KCAL/MOL
REMARK 927      BINDING AFFINITY PREDICTED BY RF-SCORE:    0.00 PKD
ROOT
HETATM    1  C   UNL     1      -7.338   6.757  69.420  1.00  0.00    -0.092 C  
HETATM    2  O   UNL     1      -6.159   7.403  68.958  1.00  0.00    -0.032 OA 
ENDROOT
BRANCH   2   3
HETATM    3  C   UNL     1      -6.206   8.766  68.856  1.00  0.00    -0.044 A  
HETATM    4  C   UNL     1      -5.555   9.540  67.897  1.00  0.00    -0.040 A  
HETATM    5  C   UNL     1      -5.638  10.936  67.943  1.00  0.00    -0.039 A  
HETATM    6  C   UNL     1      -6.386  11.574  68.941  1.00  0.00    -0.059 A  
HETATM    7  C   UNL     1      -6.978   9.397  69.832  1.00  0.00    -0.071 A  
HETATM    8  C   UNL     1      -7.067  10.789  69.878  1.00  0.00    -0.099 A  
BRANCH   6   9
HETATM    9  C   UNL     1      -6.353  13.074  69.108  1.00  0.00    -0.105 C  
BRANCH   9  10
HETATM   10  C   UNL     1      -7.687  13.827  68.895  1.00  0.00    -0.021 C  
HETATM   11  C   UNL     1      -7.627  15.233  69.507  1.00  0.00    -0.219 C  
BRANCH  10  12
HETATM   12  N   UNL     1      -8.020  13.989  67.466  1.00  0.00    -0.176 NA 
HETATM   13  H   UNL     1      -7.393  14.659  67.022  1.00  0.00     0.000 HD 
BRANCH  12  14
HETATM   14  C   UNL     1      -8.039  12.718  66.721  1.00  0.00     0.117 C  
BRANCH  14  15
HETATM   15  C   UNL     1      -9.462  12.176  66.451  1.00  0.00    -0.233 C  
HETATM   16  H   UNL     1     -10.938  12.577  65.210  1.00  0.00     0.000 HD 
HETATM   17  O   UNL     1     -10.064  12.910  65.376  1.00  0.00    -0.285 OA 
BRANCH  15  18
HETATM   18  C   UNL     1     -10.361  12.135  67.669  1.00  0.00    -0.215 A  
HETATM   19  C   UNL     1     -10.224  11.080  68.591  1.00  0.00    -0.211 A  
HETATM   20  C   UNL     1     -11.050  10.992  69.717  1.00  0.00    -0.235 A  
HETATM   21  H   UNL     1     -13.540  12.634  71.108  1.00  0.00     0.000 HD 
HETATM   22  C   UNL     1     -12.010  11.992  69.922  1.00  0.00    -0.318 A  
HETATM   23  C   UNL     1     -11.317  13.130  67.914  1.00  0.00    -0.321 A  
HETATM   24  C   UNL     1     -12.138  13.058  69.037  1.00  0.00    -0.220 A  
HETATM   25  O   UNL     1     -12.889  11.956  70.968  1.00  0.00    -0.300 OA 
BRANCH  20  26
HETATM   26  N   UNL     1     -10.934   9.945  70.651  1.00  0.00    -0.318 N  
HETATM   27  H   UNL     1     -10.584  10.199  71.574  1.00  0.00     0.000 HD 
HETATM   28  O   UNL     1     -11.090   7.790  71.338  1.00  0.00    -0.234 OA 
HETATM   29  C   UNL     1     -11.239   8.627  70.459  1.00  0.00    -0.241 C  
ENDBRANCH  20  26
ENDBRANCH  15  18
ENDBRANCH  14  15
ENDBRANCH  12  14
ENDBRANCH  10  12
ENDBRANCH   9  10
ENDBRANCH   6   9
ENDBRANCH   2   3
TORSDOF 8
ENDMDL
MODEL      410
REMARK 921   NORMALIZED FREE ENERGY PREDICTED BY IDOCK:   -2.00 KCAL/MOL
REMARK 922        TOTAL FREE ENERGY PREDICTED BY IDOCK:   -4.60 KCAL/MOL
REMARK 923 INTER-LIGAND FREE ENERGY PREDICTED BY IDOCK:   -3.84 KCAL/MOL
REMARK 924 INTRA-LIGAND FREE ENERGY PREDICTED BY IDOCK:   -0.75 KCAL/MOL
REMARK 927      BINDING AFFINITY PREDICTED BY RF-SCORE:    0.00 PKD
ROOT
HETATM    1  C   UNL     1     -10.546  16.987  65.706  1.00  0.00    -0.211 C  
HETATM    2  O   UNL     1      -9.138  16.945  65.893  1.00  0.00    -0.504 OA 
ENDROOT
BRANCH   2   3
HETATM    3  C   UNL     1      -8.631  15.823  66.487  1.00  0.00    -0.308 A  
HETATM    4  C   UNL     1      -7.400  15.721  67.134  1.00  0.00    -0.257 A  
HETATM    5  C   UNL     1      -6.973  14.492  67.648  1.00  0.00    -0.204 A  
HETATM    6  C   UNL     1      -7.780  13.352  67.534  1.00  0.00    -0.182 A  
HETATM    7  C   UNL     1      -9.450  14.697  66.401  1.00  0.00    -0.325 A  
HETATM    8  C   UNL     1      -9.030  13.470  66.917  1.00  0.00    -0.219 A  
BRANCH   6   9
HETATM    9  C   UNL     1      -7.270  11.987  67.930  1.00  0.00    -0.102 C  
BRANCH   9  10
HETATM   10  C   UNL     1      -8.044  10.768  67.377  1.00  0.00    -0.112 C  
HETATM   11  C   UNL     1      -7.078   9.670  66.911  1.00  0.00    -0.086 C  
BRANCH  10  12
HETATM   12  N   UNL     1      -8.937  10.162  68.385  1.00  0.00    -0.120 NA 
HETATM   13  H   UNL     1      -8.956   9.147  68.287  1.00  0.00     0.000 HD 
BRANCH  12  14
HETATM   14  C   UNL     1      -8.605  10.546  69.768  1.00  0.00     0.150 C  
BRANCH  14  15
HETATM   15  C   UNL     1      -7.895   9.430  70.571  1.00  0.00    -0.164 C  
HETATM   16  H   UNL     1      -6.082   8.669  70.673  1.00  0.00     0.000 HD 
HETATM   17  O   UNL     1      -6.518   9.354  70.180  1.00  0.00    -0.047 OA 
BRANCH  15  18
HETATM   18  C   UNL     1      -8.571   8.076  70.496  1.00  0.00    -0.134 A  
HETATM   19  C   UNL     1      -8.266   7.213  69.428  1.00  0.00    -0.132 A  
HETATM   20  C   UNL     1      -8.887   5.964  69.308  1.00  0.00    -0.118 A  
HETATM   21  H   UNL     1     -11.119   4.136  70.892  1.00  0.00     0.000 HD 
HETATM   22  C   UNL     1      -9.808   5.578  70.291  1.00  0.00    -0.198 A  
HETATM   23  C   UNL     1      -9.482   7.653  71.474  1.00  0.00    -0.166 A  
HETATM   24  C   UNL     1     -10.098   6.407  71.371  1.00  0.00    -0.214 A  
HETATM   25  O   UNL     1     -10.494   4.398  70.225  1.00  0.00     0.037 OA 
BRANCH  20  26
HETATM   26  N   UNL     1      -8.601   5.084  68.248  1.00  0.00    -0.102 N  
HETATM   27  H   UNL     1      -9.239   5.110  67.453  1.00  0.00     0.000 HD 
HETATM   28  O   UNL     1      -7.409   3.466  67.196  1.00  0.00    -0.062 OA 
HETATM   29  C   UNL     1      -7.563   4.199  68.164  1.00  0.00    -0.067 C  
ENDBRANCH  20  26
ENDBRANCH  15  18
ENDBRANCH  14  15
ENDBRANCH  12  14
ENDBRANCH  10  12
ENDBRANCH   9  10
ENDBRANCH   6   9
ENDBRANCH   2   3
TORSDOF 8
ENDMDL
MODEL      411
REMARK 921   NORMALIZED FREE ENERGY PREDICTED BY IDOCK:   -1.87 KCAL/MOL
REMARK 922        TOTAL FREE ENERGY PREDICTED BY IDOCK:   -4.40 KCAL/MOL
REMARK 923 INTER-LIGAND FREE ENERGY PREDICTED BY IDOCK:   -4.29 KCAL/MOL
REMARK 924 INTRA-LIGAND FREE ENERGY PREDICTED BY IDOCK:   -0.11 KCAL/MOL
REMARK 927      BINDING AFFINITY PREDICTED BY RF-SCORE:    0.00 PKD
ROOT
HETATM    1  C   UNL     1      -8.425   3.461  68.426  1.00  0.00    -0.084 C  
HETATM    2  O   UNL     1      -8.725   4.228  69.585  1.00  0.00    -0.071 OA 
ENDROOT
BRANCH   2   3
HETATM    3  C   UNL     1      -8.543   5.580  69.488  1.00  0.00    -0.105 A  
HETATM    4  C   UNL     1      -7.353   6.227  69.157  1.00  0.00    -0.089 A  
HETATM    5  C   UNL     1      -7.287   7.624  69.153  1.00  0.00    -0.089 A  
HETATM    6  C   UNL     1      -8.416   8.393  69.466  1.00  0.00    -0.124 A  
HETATM    7  C   UNL     1      -9.677   6.343  69.768  1.00  0.00    -0.172 A  
HETATM    8  C   UNL     1      -9.616   7.737  69.760  1.00  0.00    -0.167 A  
BRANCH   6   9
HETATM    9  C   UNL     1      -8.324   9.891  69.631  1.00  0.00    -0.181 C  
BRANCH   9  10
HETATM   10  C   UNL     1      -7.013  10.444  70.238  1.00  0.00    -0.096 C  
HETATM   11  C   UNL     1      -6.290   9.365  71.055  1.00  0.00    -0.082 C  
BRANCH  10  12
HETATM   12  N   UNL     1      -6.068  10.914  69.206  1.00  0.00    -0.044 NA 
HETATM   13  H   UNL     1      -5.196  10.386  69.247  1.00  0.00     0.000 HD 
BRANCH  12  14
HETATM   14  C   UNL     1      -6.628  10.891  67.844  1.00  0.00    -0.063 C  
BRANCH  14  15
HETATM   15  C   UNL     1      -6.898  12.296  67.257  1.00  0.00    -0.140 C  
HETATM   16  H   UNL     1      -6.544  14.161  67.782  1.00  0.00     0.000 HD 
HETATM   17  O   UNL     1      -6.378  13.297  68.142  1.00  0.00    -0.084 OA 
BRANCH  15  18
HETATM   18  C   UNL     1      -8.347  12.562  66.905  1.00  0.00    -0.097 A  
HETATM   19  C   UNL     1      -8.845  13.876  66.982  1.00  0.00    -0.231 A  
HETATM   20  C   UNL     1     -10.184  14.161  66.689  1.00  0.00    -0.270 A  
HETATM   21  H   UNL     1     -12.918  12.576  65.772  1.00  0.00     0.000 HD 
HETATM   22  C   UNL     1     -11.020  13.108  66.295  1.00  0.00    -0.280 A  
HETATM   23  C   UNL     1      -9.205  11.534  66.489  1.00  0.00    -0.203 A  
HETATM   24  C   UNL     1     -10.537  11.808  66.185  1.00  0.00    -0.301 A  
HETATM   25  O   UNL     1     -12.351  13.290  66.039  1.00  0.00    -0.420 OA 
BRANCH  20  26
HETATM   26  N   UNL     1     -10.705  15.466  66.762  1.00  0.00    -0.308 N  
HETATM   27  H   UNL     1     -11.721  15.550  66.740  1.00  0.00     0.000 HD 
HETATM   28  O   UNL     1     -10.555  17.724  66.903  1.00  0.00    -0.323 OA 
HETATM   29  C   UNL     1     -10.002  16.634  66.857  1.00  0.00    -0.271 C  
ENDBRANCH  20  26
ENDBRANCH  15  18
ENDBRANCH  14  15
ENDBRANCH  12  14
ENDBRANCH  10  12
ENDBRANCH   9  10
ENDBRANCH   6   9
ENDBRANCH   2   3
TORSDOF 8
ENDMDL
MODEL      412
REMARK 921   NORMALIZED FREE ENERGY PREDICTED BY IDOCK:   -1.75 KCAL/MOL
REMARK 922        TOTAL FREE ENERGY PREDICTED BY IDOCK:   -4.23 KCAL/MOL
REMARK 923 INTER-LIGAND FREE ENERGY PREDICTED BY IDOCK:   -3.88 KCAL/MOL
REMARK 924 INTRA-LIGAND FREE ENERGY PREDICTED BY IDOCK:   -0.36 KCAL/MOL
REMARK 927      BINDING AFFINITY PREDICTED BY RF-SCORE:    0.00 PKD
ROOT
HETATM    1  C   UNL     1      -9.225   5.545  71.764  1.00  0.00    -0.142 C  
HETATM    2  O   UNL     1      -7.844   5.841  71.930  1.00  0.00    -0.103 OA 
ENDROOT
BRANCH   2   3
HETATM    3  C   UNL     1      -7.393   6.999  71.359  1.00  0.00    -0.080 A  
HETATM    4  C   UNL     1      -7.803   8.291  71.687  1.00  0.00    -0.139 A  
HETATM    5  C   UNL     1      -7.306   9.390  70.981  1.00  0.00    -0.050 A  
HETATM    6  C   UNL     1      -6.379   9.212  69.945  1.00  0.00    -0.042 A  
HETATM    7  C   UNL     1      -6.446   6.822  70.350  1.00  0.00    -0.043 A  
HETATM    8  C   UNL     1      -5.943   7.917  69.646  1.00  0.00    -0.026 A  
BRANCH   6   9
HETATM    9  C   UNL     1      -5.957  10.363  69.062  1.00  0.00    -0.040 C  
BRANCH   9  10
HETATM   10  C   UNL     1      -5.998  11.774  69.695  1.00  0.00    -0.112 C  
HETATM   11  C   UNL     1      -5.145  11.828  70.969  1.00  0.00    -0.131 C  
BRANCH  10  12
HETATM   12  N   UNL     1      -5.485  12.816  68.784  1.00  0.00    -0.065 NA 
HETATM   13  H   UNL     1      -4.541  12.590  68.472  1.00  0.00     0.000 HD 
BRANCH  12  14
HETATM   14  C   UNL     1      -6.367  13.074  67.633  1.00  0.00    -0.161 C  
BRANCH  14  15
HETATM   15  C   UNL     1      -7.020  14.476  67.649  1.00  0.00    -0.184 C  
HETATM   16  H   UNL     1      -7.034  16.037  68.850  1.00  0.00     0.000 HD 
HETATM   17  O   UNL     1      -6.633  15.175  68.840  1.00  0.00    -0.098 OA 
BRANCH  15  18
HETATM   18  C   UNL     1      -8.524  14.471  67.469  1.00  0.00    -0.201 A  
HETATM   19  C   UNL     1      -9.128  13.421  66.755  1.00  0.00    -0.221 A  
HETATM   20  C   UNL     1     -10.512  13.391  66.544  1.00  0.00    -0.283 A  
HETATM   21  H   UNL     1     -13.171  15.199  67.246  1.00  0.00     0.000 HD 
HETATM   22  C   UNL     1     -11.292  14.424  67.081  1.00  0.00    -0.343 A  
HETATM   23  C   UNL     1      -9.334  15.479  68.011  1.00  0.00    -0.193 A  
HETATM   24  C   UNL     1     -10.713  15.455  67.817  1.00  0.00    -0.289 A  
HETATM   25  O   UNL     1     -12.642  14.498  66.882  1.00  0.00    -0.094 OA 
BRANCH  20  26
HETATM   26  N   UNL     1     -11.139  12.353  65.831  1.00  0.00    -0.300 N  
HETATM   27  H   UNL     1     -11.121  11.430  66.264  1.00  0.00     0.000 HD 
HETATM   28  O   UNL     1     -12.275  11.472  64.078  1.00  0.00    -0.170 OA 
HETATM   29  C   UNL     1     -11.769  12.443  64.621  1.00  0.00    -0.365 C  
ENDBRANCH  20  26
ENDBRANCH  15  18
ENDBRANCH  14  15
ENDBRANCH  12  14
ENDBRANCH  10  12
ENDBRANCH   9  10
ENDBRANCH   6   9
ENDBRANCH   2   3
TORSDOF 8
ENDMDL
MODEL      413
REMARK 921   NORMALIZED FREE ENERGY PREDICTED BY IDOCK:   -1.72 KCAL/MOL
REMARK 922        TOTAL FREE ENERGY PREDICTED BY IDOCK:   -4.19 KCAL/MOL
REMARK 923 INTER-LIGAND FREE ENERGY PREDICTED BY IDOCK:   -3.49 KCAL/MOL
REMARK 924 INTRA-LIGAND FREE ENERGY PREDICTED BY IDOCK:   -0.70 KCAL/MOL
REMARK 927      BINDING AFFINITY PREDICTED BY RF-SCORE:    0.00 PKD
ROOT
HETATM    1  C   UNL     1      -9.644  20.130  66.975  1.00  0.00    -0.424 C  
HETATM    2  O   UNL     1      -8.658  19.952  67.983  1.00  0.00    -0.307 OA 
ENDROOT
BRANCH   2   3
HETATM    3  C   UNL     1      -8.250  18.668  68.221  1.00  0.00    -0.323 A  
HETATM    4  C   UNL     1      -8.818  17.514  67.682  1.00  0.00    -0.228 A  
HETATM    5  C   UNL     1      -8.342  16.253  68.057  1.00  0.00    -0.165 A  
HETATM    6  C   UNL     1      -7.281  16.132  68.965  1.00  0.00    -0.195 A  
HETATM    7  C   UNL     1      -7.174  18.551  69.100  1.00  0.00    -0.203 A  
HETATM    8  C   UNL     1      -6.692  17.295  69.472  1.00  0.00    -0.130 A  
BRANCH   6   9
HETATM    9  C   UNL     1      -6.864  14.786  69.509  1.00  0.00    -0.169 C  
BRANCH   9  10
HETATM   10  C   UNL     1      -6.448  13.717  68.472  1.00  0.00    -0.090 C  
HETATM   11  C   UNL     1      -5.299  14.226  67.592  1.00  0.00     0.085 C  
BRANCH  10  12
HETATM   12  N   UNL     1      -5.988  12.465  69.106  1.00  0.00    -0.075 NA 
HETATM   13  H   UNL     1      -5.141  12.626  69.651  1.00  0.00     0.000 HD 
BRANCH  12  14
HETATM   14  C   UNL     1      -7.021  11.811  69.927  1.00  0.00     0.320 C  
BRANCH  14  15
HETATM   15  C   UNL     1      -7.481  10.441  69.374  1.00  0.00    -0.135 C  
HETATM   16  H   UNL     1      -6.637   8.722  68.918  1.00  0.00     0.000 HD 
HETATM   17  O   UNL     1      -6.355   9.563  69.258  1.00  0.00    -0.043 OA 
BRANCH  15  18
HETATM   18  C   UNL     1      -8.263  10.518  68.078  1.00  0.00    -0.112 A  
HETATM   19  C   UNL     1      -7.574  10.730  66.870  1.00  0.00    -0.123 A  
HETATM   20  C   UNL     1      -8.260  10.832  65.654  1.00  0.00    -0.127 A  
HETATM   21  H   UNL     1     -11.352  10.741  64.531  1.00  0.00     0.000 HD 
HETATM   22  C   UNL     1      -9.655  10.697  65.661  1.00  0.00    -0.218 A  
HETATM   23  C   UNL     1      -9.656  10.368  68.048  1.00  0.00    -0.156 A  
HETATM   24  C   UNL     1     -10.349  10.457  66.843  1.00  0.00    -0.297 A  
HETATM   25  O   UNL     1     -10.406  10.832  64.527  1.00  0.00    -0.345 OA 
BRANCH  20  26
HETATM   26  N   UNL     1      -7.594  11.047  64.434  1.00  0.00    -0.081 N  
HETATM   27  H   UNL     1      -8.130  11.509  63.700  1.00  0.00     0.000 HD 
HETATM   28  O   UNL     1      -5.825  10.928  63.021  1.00  0.00    -0.094 OA 
HETATM   29  C   UNL     1      -6.308  10.705  64.122  1.00  0.00     0.147 C  
ENDBRANCH  20  26
ENDBRANCH  15  18
ENDBRANCH  14  15
ENDBRANCH  12  14
ENDBRANCH  10  12
ENDBRANCH   9  10
ENDBRANCH   6   9
ENDBRANCH   2   3
TORSDOF 8
ENDMDL
MODEL      414
REMARK 921   NORMALIZED FREE ENERGY PREDICTED BY IDOCK:   -1.71 KCAL/MOL
REMARK 922        TOTAL FREE ENERGY PREDICTED BY IDOCK:   -4.18 KCAL/MOL
REMARK 923 INTER-LIGAND FREE ENERGY PREDICTED BY IDOCK:   -3.62 KCAL/MOL
REMARK 924 INTRA-LIGAND FREE ENERGY PREDICTED BY IDOCK:   -0.56 KCAL/MOL
REMARK 927      BINDING AFFINITY PREDICTED BY RF-SCORE:    0.00 PKD
ROOT
HETATM    1  C   UNL     1      -7.526  14.909  68.436  1.00  0.00    -0.115 C  
HETATM    2  O   UNL     1      -7.233  13.542  68.692  1.00  0.00    -0.100 OA 
ENDROOT
BRANCH   2   3
HETATM    3  C   UNL     1      -7.891  12.620  67.925  1.00  0.00    -0.154 A  
HETATM    4  C   UNL     1      -9.274  12.496  67.799  1.00  0.00    -0.198 A  
HETATM    5  C   UNL     1      -9.822  11.467  67.026  1.00  0.00    -0.214 A  
HETATM    6  C   UNL     1      -8.991  10.556  66.359  1.00  0.00    -0.174 A  
HETATM    7  C   UNL     1      -7.063  11.736  67.235  1.00  0.00    -0.140 A  
HETATM    8  C   UNL     1      -7.605  10.710  66.460  1.00  0.00    -0.134 A  
BRANCH   6   9
HETATM    9  C   UNL     1      -9.559   9.343  65.660  1.00  0.00    -0.345 C  
BRANCH   9  10
HETATM   10  C   UNL     1      -8.583   8.528  64.780  1.00  0.00    -0.078 C  
HETATM   11  C   UNL     1      -7.734   9.456  63.901  1.00  0.00    -0.121 C  
BRANCH  10  12
HETATM   12  N   UNL     1      -7.648   7.713  65.581  1.00  0.00    -0.086 NA 
HETATM   13  H   UNL     1      -6.920   8.297  65.993  1.00  0.00     0.000 HD 
BRANCH  12  14
HETATM   14  C   UNL     1      -8.315   6.905  66.616  1.00  0.00    -0.118 C  
BRANCH  14  15
HETATM   15  C   UNL     1      -7.450   6.670  67.877  1.00  0.00    -0.098 C  
HETATM   16  H   UNL     1      -6.629   5.128  68.786  1.00  0.00     0.000 HD 
HETATM   17  O   UNL     1      -7.161   5.272  68.011  1.00  0.00    -0.064 OA 
BRANCH  15  18
HETATM   18  C   UNL     1      -8.030   7.244  69.153  1.00  0.00    -0.119 A  
HETATM   19  C   UNL     1      -7.945   6.501  70.344  1.00  0.00    -0.115 A  
HETATM   20  C   UNL     1      -8.490   6.984  71.539  1.00  0.00    -0.116 A  
HETATM   21  H   UNL     1     -10.128   9.619  72.637  1.00  0.00     0.000 HD 
HETATM   22  C   UNL     1      -9.108   8.241  71.532  1.00  0.00    -0.177 A  
HETATM   23  C   UNL     1      -8.638   8.507  69.183  1.00  0.00    -0.133 A  
HETATM   24  C   UNL     1      -9.175   9.003  70.368  1.00  0.00    -0.243 A  
HETATM   25  O   UNL     1      -9.709   8.766  72.642  1.00  0.00    -0.207 OA 
BRANCH  20  26
HETATM   26  N   UNL     1      -8.419   6.257  72.742  1.00  0.00    -0.123 N  
HETATM   27  H   UNL     1      -7.602   6.429  73.328  1.00  0.00     0.000 HD 
HETATM   28  O   UNL     1      -9.161   4.759  74.274  1.00  0.00    -0.111 OA 
HETATM   29  C   UNL     1      -9.323   5.347  73.214  1.00  0.00    -0.135 C  
ENDBRANCH  20  26
ENDBRANCH  15  18
ENDBRANCH  14  15
ENDBRANCH  12  14
ENDBRANCH  10  12
ENDBRANCH   9  10
ENDBRANCH   6   9
ENDBRANCH   2   3
TORSDOF 8
ENDMDL
MODEL      415
REMARK 921   NORMALIZED FREE ENERGY PREDICTED BY IDOCK:   -1.64 KCAL/MOL
REMARK 922        TOTAL FREE ENERGY PREDICTED BY IDOCK:   -4.07 KCAL/MOL
REMARK 923 INTER-LIGAND FREE ENERGY PREDICTED BY IDOCK:   -3.88 KCAL/MOL
REMARK 924 INTRA-LIGAND FREE ENERGY PREDICTED BY IDOCK:   -0.19 KCAL/MOL
REMARK 927      BINDING AFFINITY PREDICTED BY RF-SCORE:    0.00 PKD
ROOT
HETATM    1  C   UNL     1      -7.478   7.878  74.489  1.00  0.00    -0.182 C  
HETATM    2  O   UNL     1      -8.204   7.315  73.405  1.00  0.00    -0.105 OA 
ENDROOT
BRANCH   2   3
HETATM    3  C   UNL     1      -7.480   6.960  72.301  1.00  0.00    -0.087 A  
HETATM    4  C   UNL     1      -6.092   7.002  72.182  1.00  0.00    -0.041 A  
HETATM    5  C   UNL     1      -5.477   6.669  70.970  1.00  0.00    -0.026 A  
HETATM    6  C   UNL     1      -6.245   6.273  69.866  1.00  0.00    -0.031 A  
HETATM    7  C   UNL     1      -8.244   6.535  71.214  1.00  0.00    -0.121 A  
HETATM    8  C   UNL     1      -7.635   6.196  70.005  1.00  0.00    -0.095 A  
BRANCH   6   9
HETATM    9  C   UNL     1      -5.618   6.071  68.507  1.00  0.00    -0.012 C  
BRANCH   9  10
HETATM   10  C   UNL     1      -6.458   5.300  67.463  1.00  0.00    -0.052 C  
HETATM   11  C   UNL     1      -7.016   4.001  68.060  1.00  0.00    -0.051 C  
BRANCH  10  12
HETATM   12  N   UNL     1      -7.610   6.084  66.975  1.00  0.00    -0.094 NA 
HETATM   13  H   UNL     1      -7.304   6.809  66.326  1.00  0.00     0.000 HD 
BRANCH  12  14
HETATM   14  C   UNL     1      -8.668   5.257  66.371  1.00  0.00    -0.118 C  
BRANCH  14  15
HETATM   15  C   UNL     1     -10.088   5.583  66.892  1.00  0.00    -0.203 C  
HETATM   16  H   UNL     1     -11.928   5.486  66.198  1.00  0.00     0.000 HD 
HETATM   17  O   UNL     1     -11.056   5.285  65.878  1.00  0.00    -0.057 OA 
BRANCH  15  18
HETATM   18  C   UNL     1     -10.253   6.993  67.422  1.00  0.00    -0.278 A  
HETATM   19  C   UNL     1     -10.577   7.185  68.778  1.00  0.00    -0.219 A  
HETATM   20  C   UNL     1     -10.763   8.469  69.302  1.00  0.00    -0.133 A  
HETATM   21  H   UNL     1     -10.695  11.600  68.290  1.00  0.00     0.000 HD 
HETATM   22  C   UNL     1     -10.597   9.569  68.451  1.00  0.00    -0.219 A  
HETATM   23  C   UNL     1     -10.075   8.115  66.601  1.00  0.00    -0.344 A  
HETATM   24  C   UNL     1     -10.247   9.398  67.114  1.00  0.00    -0.319 A  
HETATM   25  O   UNL     1     -10.807  10.854  68.868  1.00  0.00    -0.189 OA 
BRANCH  20  26
HETATM   26  N   UNL     1     -11.090   8.686  70.654  1.00  0.00    -0.246 N  
HETATM   27  H   UNL     1     -10.788   9.573  71.056  1.00  0.00     0.000 HD 
HETATM   28  O   UNL     1     -11.992   8.123  72.656  1.00  0.00    -0.381 OA 
HETATM   29  C   UNL     1     -11.768   7.841  71.487  1.00  0.00    -0.280 C  
ENDBRANCH  20  26
ENDBRANCH  15  18
ENDBRANCH  14  15
ENDBRANCH  12  14
ENDBRANCH  10  12
ENDBRANCH   9  10
ENDBRANCH   6   9
ENDBRANCH   2   3
TORSDOF 8
ENDMDL
MODEL      416
REMARK 921   NORMALIZED FREE ENERGY PREDICTED BY IDOCK:   -1.53 KCAL/MOL
REMARK 922        TOTAL FREE ENERGY PREDICTED BY IDOCK:   -3.90 KCAL/MOL
REMARK 923 INTER-LIGAND FREE ENERGY PREDICTED BY IDOCK:   -3.28 KCAL/MOL
REMARK 924 INTRA-LIGAND FREE ENERGY PREDICTED BY IDOCK:   -0.62 KCAL/MOL
REMARK 927      BINDING AFFINITY PREDICTED BY RF-SCORE:    0.00 PKD
ROOT
HETATM    1  C   UNL     1      -7.974   2.967  68.444  1.00  0.00    -0.057 C  
HETATM    2  O   UNL     1      -8.381   3.868  69.466  1.00  0.00    -0.057 OA 
ENDROOT
BRANCH   2   3
HETATM    3  C   UNL     1      -8.527   5.179  69.105  1.00  0.00    -0.090 A  
HETATM    4  C   UNL     1      -9.367   5.666  68.104  1.00  0.00    -0.119 A  
HETATM    5  C   UNL     1      -9.376   7.030  67.793  1.00  0.00    -0.127 A  
HETATM    6  C   UNL     1      -8.554   7.926  68.491  1.00  0.00    -0.128 A  
HETATM    7  C   UNL     1      -7.733   6.073  69.823  1.00  0.00    -0.096 A  
HETATM    8  C   UNL     1      -7.743   7.435  69.519  1.00  0.00    -0.108 A  
BRANCH   6   9
HETATM    9  C   UNL     1      -8.425   9.368  68.061  1.00  0.00    -0.120 C  
BRANCH   9  10
HETATM   10  C   UNL     1      -7.996   9.621  66.597  1.00  0.00    -0.109 C  
HETATM   11  C   UNL     1      -7.308   8.383  66.006  1.00  0.00    -0.073 C  
BRANCH  10  12
HETATM   12  N   UNL     1      -9.141   9.941  65.721  1.00  0.00    -0.157 NA 
HETATM   13  H   UNL     1      -9.248   9.234  64.994  1.00  0.00     0.000 HD 
BRANCH  12  14
HETATM   14  C   UNL     1     -10.404  10.131  66.455  1.00  0.00    -0.188 C  
BRANCH  14  15
HETATM   15  C   UNL     1     -10.909  11.594  66.457  1.00  0.00    -0.284 C  
HETATM   16  H   UNL     1     -10.375  13.296  65.624  1.00  0.00     0.000 HD 
HETATM   17  O   UNL     1     -10.065  12.398  65.622  1.00  0.00    -0.252 OA 
BRANCH  15  18
HETATM   18  C   UNL     1     -11.070  12.200  67.836  1.00  0.00    -0.295 A  
HETATM   19  C   UNL     1     -11.683  11.445  68.852  1.00  0.00    -0.409 A  
HETATM   20  C   UNL     1     -11.874  11.977  70.133  1.00  0.00    -0.301 A  
HETATM   21  H   UNL     1     -11.302  14.771  71.774  1.00  0.00     0.000 HD 
HETATM   22  C   UNL     1     -11.420  13.277  70.391  1.00  0.00     0.238 A  
HETATM   23  C   UNL     1     -10.609  13.490  68.132  1.00  0.00    -0.253 A  
HETATM   24  C   UNL     1     -10.784  14.026  69.406  1.00  0.00    -0.085 A  
HETATM   25  O   UNL     1     -11.610  13.889  71.598  1.00  0.00     0.446 OA 
BRANCH  20  26
HETATM   26  N   UNL     1     -12.487  11.242  71.165  1.00  0.00    -0.385 N  
HETATM   27  H   UNL     1     -13.389  11.588  71.493  1.00  0.00     0.000 HD 
HETATM   28  O   UNL     1     -12.619   9.559  72.678  1.00  0.00    -0.179 OA 
HETATM   29  C   UNL     1     -12.009  10.118  71.777  1.00  0.00    -0.091 C  
ENDBRANCH  20  26
ENDBRANCH  15  18
ENDBRANCH  14  15
ENDBRANCH  12  14
ENDBRANCH  10  12
ENDBRANCH   9  10
ENDBRANCH   6   9
ENDBRANCH   2   3
TORSDOF 8
ENDMDL
MODEL      417
REMARK 921   NORMALIZED FREE ENERGY PREDICTED BY IDOCK:   -1.49 KCAL/MOL
REMARK 922        TOTAL FREE ENERGY PREDICTED BY IDOCK:   -3.85 KCAL/MOL
REMARK 923 INTER-LIGAND FREE ENERGY PREDICTED BY IDOCK:   -3.02 KCAL/MOL
REMARK 924 INTRA-LIGAND FREE ENERGY PREDICTED BY IDOCK:   -0.84 KCAL/MOL
REMARK 927      BINDING AFFINITY PREDICTED BY RF-SCORE:    0.00 PKD
ROOT
HETATM    1  C   UNL     1     -10.896   4.583  65.460  1.00  0.00    -0.041 C  
HETATM    2  O   UNL     1     -10.833   5.868  66.063  1.00  0.00     0.083 OA 
ENDROOT
BRANCH   2   3
HETATM    3  C   UNL     1      -9.640   6.219  66.634  1.00  0.00    -0.157 A  
HETATM    4  C   UNL     1      -8.448   5.501  66.552  1.00  0.00    -0.113 A  
HETATM    5  C   UNL     1      -7.311   5.942  67.236  1.00  0.00    -0.077 A  
HETATM    6  C   UNL     1      -7.348   7.116  68.000  1.00  0.00    -0.097 A  
HETATM    7  C   UNL     1      -9.671   7.406  67.367  1.00  0.00    -0.196 A  
HETATM    8  C   UNL     1      -8.537   7.852  68.047  1.00  0.00    -0.126 A  
BRANCH   6   9
HETATM    9  C   UNL     1      -6.186   7.518  68.878  1.00  0.00    -0.035 C  
BRANCH   9  10
HETATM   10  C   UNL     1      -6.534   8.183  70.230  1.00  0.00    -0.036 C  
HETATM   11  C   UNL     1      -6.055   7.320  71.404  1.00  0.00    -0.036 C  
BRANCH  10  12
HETATM   12  N   UNL     1      -5.909   9.512  70.383  1.00  0.00    -0.043 NA 
HETATM   13  H   UNL     1      -4.898   9.451  70.262  1.00  0.00     0.000 HD 
BRANCH  12  14
HETATM   14  C   UNL     1      -6.481  10.535  69.490  1.00  0.00    -0.072 C  
BRANCH  14  15
HETATM   15  C   UNL     1      -6.011  11.973  69.810  1.00  0.00    -0.136 C  
HETATM   16  H   UNL     1      -5.495  12.989  71.416  1.00  0.00     0.000 HD 
HETATM   17  O   UNL     1      -5.784  12.106  71.219  1.00  0.00    -0.381 OA 
BRANCH  15  18
HETATM   18  C   UNL     1      -6.925  13.063  69.289  1.00  0.00     0.033 A  
HETATM   19  C   UNL     1      -8.157  12.709  68.707  1.00  0.00     0.096 A  
HETATM   20  C   UNL     1      -9.020  13.682  68.191  1.00  0.00    -0.191 A  
HETATM   21  H   UNL     1      -9.144  16.950  67.824  1.00  0.00     0.000 HD 
HETATM   22  C   UNL     1      -8.641  15.028  68.283  1.00  0.00    -0.156 A  
HETATM   23  C   UNL     1      -6.585  14.419  69.384  1.00  0.00    -0.137 A  
HETATM   24  C   UNL     1      -7.440  15.398  68.882  1.00  0.00    -0.152 A  
HETATM   25  O   UNL     1      -9.400  16.037  67.761  1.00  0.00    -0.209 OA 
BRANCH  20  26
HETATM   26  N   UNL     1     -10.255  13.352  67.602  1.00  0.00    -0.226 N  
HETATM   27  H   UNL     1     -11.090  13.666  68.095  1.00  0.00     0.000 HD 
HETATM   28  O   UNL     1     -11.581  12.412  66.022  1.00  0.00    -0.362 OA 
HETATM   29  C   UNL     1     -10.460  12.657  66.443  1.00  0.00    -0.249 C  
ENDBRANCH  20  26
ENDBRANCH  15  18
ENDBRANCH  14  15
ENDBRANCH  12  14
ENDBRANCH  10  12
ENDBRANCH   9  10
ENDBRANCH   6   9
ENDBRANCH   2   3
TORSDOF 8
ENDMDL
MODEL      418
REMARK 921   NORMALIZED FREE ENERGY PREDICTED BY IDOCK:   -1.42 KCAL/MOL
REMARK 922        TOTAL FREE ENERGY PREDICTED BY IDOCK:   -3.75 KCAL/MOL
REMARK 923 INTER-LIGAND FREE ENERGY PREDICTED BY IDOCK:   -3.54 KCAL/MOL
REMARK 924 INTRA-LIGAND FREE ENERGY PREDICTED BY IDOCK:   -0.21 KCAL/MOL
REMARK 927      BINDING AFFINITY PREDICTED BY RF-SCORE:    0.00 PKD
ROOT
HETATM    1  C   UNL     1     -10.897   4.580  65.460  1.00  0.00    -0.041 C  
HETATM    2  O   UNL     1     -10.949   5.903  65.979  1.00  0.00     0.139 OA 
ENDROOT
BRANCH   2   3
HETATM    3  C   UNL     1      -9.792   6.398  66.512  1.00  0.00    -0.116 A  
HETATM    4  C   UNL     1      -8.546   5.772  66.493  1.00  0.00    -0.121 A  
HETATM    5  C   UNL     1      -7.450   6.362  67.131  1.00  0.00    -0.084 A  
HETATM    6  C   UNL     1      -7.584   7.594  67.785  1.00  0.00    -0.117 A  
HETATM    7  C   UNL     1      -9.920   7.640  67.134  1.00  0.00    -0.297 A  
HETATM    8  C   UNL     1      -8.828   8.234  67.768  1.00  0.00    -0.137 A  
BRANCH   6   9
HETATM    9  C   UNL     1      -6.462   8.165  68.620  1.00  0.00    -0.053 C  
BRANCH   9  10
HETATM   10  C   UNL     1      -6.870   8.938  69.896  1.00  0.00    -0.046 C  
HETATM   11  C   UNL     1      -6.290   8.269  71.149  1.00  0.00    -0.037 C  
BRANCH  10  12
HETATM   12  N   UNL     1      -6.390  10.334  69.888  1.00  0.00    -0.069 NA 
HETATM   13  H   UNL     1      -5.380  10.368  69.750  1.00  0.00     0.000 HD 
BRANCH  12  14
HETATM   14  C   UNL     1      -7.080  11.185  68.903  1.00  0.00    -0.101 C  
BRANCH  14  15
HETATM   15  C   UNL     1      -6.756  12.691  69.045  1.00  0.00    -0.097 C  
HETATM   16  H   UNL     1      -6.309  13.929  70.509  1.00  0.00     0.000 HD 
HETATM   17  O   UNL     1      -6.508  13.004  70.421  1.00  0.00     0.071 OA 
BRANCH  15  18
HETATM   18  C   UNL     1      -7.793  13.615  68.441  1.00  0.00    -0.140 A  
HETATM   19  C   UNL     1      -8.070  14.843  69.069  1.00  0.00    -0.165 A  
HETATM   20  C   UNL     1      -9.037  15.716  68.558  1.00  0.00    -0.196 A  
HETATM   21  H   UNL     1     -11.169  15.871  66.056  1.00  0.00     0.000 HD 
HETATM   22  C   UNL     1      -9.716  15.350  67.388  1.00  0.00    -0.215 A  
HETATM   23  C   UNL     1      -8.474  13.288  67.261  1.00  0.00    -0.203 A  
HETATM   24  C   UNL     1      -9.433  14.153  66.737  1.00  0.00    -0.290 A  
HETATM   25  O   UNL     1     -10.709  16.119  66.849  1.00  0.00    -0.314 OA 
BRANCH  20  26
HETATM   26  N   UNL     1      -9.334  16.948  69.171  1.00  0.00    -0.183 N  
HETATM   27  H   UNL     1      -9.349  16.955  70.190  1.00  0.00     0.000 HD 
HETATM   28  O   UNL     1      -9.860  19.153  69.180  1.00  0.00    -0.389 OA 
HETATM   29  C   UNL     1      -9.602  18.136  68.551  1.00  0.00    -0.339 C  
ENDBRANCH  20  26
ENDBRANCH  15  18
ENDBRANCH  14  15
ENDBRANCH  12  14
ENDBRANCH  10  12
ENDBRANCH   9  10
ENDBRANCH   6   9
ENDBRANCH   2   3
TORSDOF 8
ENDMDL
MODEL      419
REMARK 921   NORMALIZED FREE ENERGY PREDICTED BY IDOCK:   -1.42 KCAL/MOL
REMARK 922        TOTAL FREE ENERGY PREDICTED BY IDOCK:   -3.74 KCAL/MOL
REMARK 923 INTER-LIGAND FREE ENERGY PREDICTED BY IDOCK:   -3.82 KCAL/MOL
REMARK 924 INTRA-LIGAND FREE ENERGY PREDICTED BY IDOCK:    0.09 KCAL/MOL
REMARK 927      BINDING AFFINITY PREDICTED BY RF-SCORE:    0.00 PKD
ROOT
HETATM    1  C   UNL     1      -9.096   5.796  71.844  1.00  0.00    -0.138 C  
HETATM    2  O   UNL     1      -7.709   6.092  71.943  1.00  0.00    -0.095 OA 
ENDROOT
BRANCH   2   3
HETATM    3  C   UNL     1      -7.279   7.228  71.316  1.00  0.00    -0.072 A  
HETATM    4  C   UNL     1      -7.420   8.532  71.791  1.00  0.00    -0.127 A  
HETATM    5  C   UNL     1      -6.988   9.615  71.018  1.00  0.00     0.018 A  
HETATM    6  C   UNL     1      -6.395   9.406  69.766  1.00  0.00    -0.040 A  
HETATM    7  C   UNL     1      -6.659   7.017  70.084  1.00  0.00    -0.047 A  
HETATM    8  C   UNL     1      -6.222   8.094  69.313  1.00  0.00    -0.038 A  
BRANCH   6   9
HETATM    9  C   UNL     1      -6.075  10.561  68.847  1.00  0.00    -0.040 C  
BRANCH   9  10
HETATM   10  C   UNL     1      -5.977  11.960  69.499  1.00  0.00    -0.098 C  
HETATM   11  C   UNL     1      -5.144  11.907  70.786  1.00  0.00    -0.128 C  
BRANCH  10  12
HETATM   12  N   UNL     1      -5.341  12.953  68.610  1.00  0.00    -0.063 NA 
HETATM   13  H   UNL     1      -4.462  12.595  68.238  1.00  0.00     0.000 HD 
BRANCH  12  14
HETATM   14  C   UNL     1      -6.220  13.411  67.520  1.00  0.00    -0.085 C  
BRANCH  14  15
HETATM   15  C   UNL     1      -6.681  14.881  67.668  1.00  0.00    -0.177 C  
HETATM   16  H   UNL     1      -6.216  16.422  68.802  1.00  0.00     0.000 HD 
HETATM   17  O   UNL     1      -5.934  15.519  68.711  1.00  0.00    -0.097 OA 
BRANCH  15  18
HETATM   18  C   UNL     1      -8.173  15.054  67.864  1.00  0.00    -0.146 A  
HETATM   19  C   UNL     1      -8.684  15.197  69.168  1.00  0.00    -0.216 A  
HETATM   20  C   UNL     1     -10.058  15.335  69.395  1.00  0.00    -0.264 A  
HETATM   21  H   UNL     1     -12.862  15.440  67.677  1.00  0.00     0.000 HD 
HETATM   22  C   UNL     1     -10.920  15.349  68.291  1.00  0.00    -0.288 A  
HETATM   23  C   UNL     1      -9.060  15.093  66.780  1.00  0.00    -0.282 A  
HETATM   24  C   UNL     1     -10.428  15.240  66.993  1.00  0.00    -0.292 A  
HETATM   25  O   UNL     1     -12.277  15.430  68.426  1.00  0.00    -0.115 OA 
BRANCH  20  26
HETATM   26  N   UNL     1     -10.592  15.476  70.689  1.00  0.00    -0.392 N  
HETATM   27  H   UNL     1     -10.190  16.213  71.268  1.00  0.00     0.000 HD 
HETATM   28  O   UNL     1     -11.977  14.934  72.401  1.00  0.00    -0.341 OA 
HETATM   29  C   UNL     1     -11.591  14.736  71.258  1.00  0.00    -0.259 C  
ENDBRANCH  20  26
ENDBRANCH  15  18
ENDBRANCH  14  15
ENDBRANCH  12  14
ENDBRANCH  10  12
ENDBRANCH   9  10
ENDBRANCH   6   9
ENDBRANCH   2   3
TORSDOF 8
ENDMDL
MODEL      420
REMARK 921   NORMALIZED FREE ENERGY PREDICTED BY IDOCK:   -1.37 KCAL/MOL
REMARK 922        TOTAL FREE ENERGY PREDICTED BY IDOCK:   -3.67 KCAL/MOL
REMARK 923 INTER-LIGAND FREE ENERGY PREDICTED BY IDOCK:   -3.21 KCAL/MOL
REMARK 924 INTRA-LIGAND FREE ENERGY PREDICTED BY IDOCK:   -0.46 KCAL/MOL
REMARK 927      BINDING AFFINITY PREDICTED BY RF-SCORE:    0.00 PKD
ROOT
HETATM    1  C   UNL     1     -12.653  13.950  72.146  1.00  0.00    -0.152 C  
HETATM    2  O   UNL     1     -13.190  13.557  70.890  1.00  0.00    -0.149 OA 
ENDROOT
BRANCH   2   3
HETATM    3  C   UNL     1     -12.533  12.555  70.229  1.00  0.00    -0.084 A  
HETATM    4  C   UNL     1     -12.164  11.323  70.767  1.00  0.00    -0.479 A  
HETATM    5  C   UNL     1     -11.439  10.407  69.997  1.00  0.00    -0.382 A  
HETATM    6  C   UNL     1     -11.086  10.708  68.675  1.00  0.00    -0.315 A  
HETATM    7  C   UNL     1     -12.212  12.843  68.903  1.00  0.00    -0.044 A  
HETATM    8  C   UNL     1     -11.493  11.930  68.131  1.00  0.00    -0.384 A  
BRANCH   6   9
HETATM    9  C   UNL     1     -10.165   9.809  67.885  1.00  0.00    -0.237 C  
BRANCH   9  10
HETATM   10  C   UNL     1      -8.681   9.780  68.321  1.00  0.00    -0.119 C  
HETATM   11  C   UNL     1      -8.198  11.183  68.710  1.00  0.00    -0.135 C  
BRANCH  10  12
HETATM   12  N   UNL     1      -8.452   8.903  69.486  1.00  0.00    -0.124 NA 
HETATM   13  H   UNL     1      -9.329   8.496  69.810  1.00  0.00     0.000 HD 
BRANCH  12  14
HETATM   14  C   UNL     1      -7.449   7.853  69.240  1.00  0.00    -0.092 C  
BRANCH  14  15
HETATM   15  C   UNL     1      -6.715   7.381  70.518  1.00  0.00    -0.047 C  
HETATM   16  H   UNL     1      -4.981   7.724  71.385  1.00  0.00     0.000 HD 
HETATM   17  O   UNL     1      -5.432   8.014  70.600  1.00  0.00    -0.026 OA 
BRANCH  15  18
HETATM   18  C   UNL     1      -6.605   5.877  70.659  1.00  0.00    -0.047 A  
HETATM   19  C   UNL     1      -6.959   5.055  69.573  1.00  0.00    -0.054 A  
HETATM   20  C   UNL     1      -6.895   3.660  69.669  1.00  0.00    -0.041 A  
HETATM   21  H   UNL     1      -6.099   1.357  71.880  1.00  0.00     0.000 HD 
HETATM   22  C   UNL     1      -6.448   3.093  70.870  1.00  0.00    -0.027 A  
HETATM   23  C   UNL     1      -6.143   5.279  71.839  1.00  0.00    -0.026 A  
HETATM   24  C   UNL     1      -6.065   3.892  71.944  1.00  0.00    -0.013 A  
HETATM   25  O   UNL     1      -6.402   1.742  71.066  1.00  0.00    -0.018 OA 
BRANCH  20  26
HETATM   26  N   UNL     1      -7.247   2.819  68.598  1.00  0.00    -0.048 N  
HETATM   27  H   UNL     1      -6.476   2.397  68.081  1.00  0.00     0.000 HD 
HETATM   28  O   UNL     1      -8.705   1.764  67.218  1.00  0.00    -0.091 OA 
HETATM   29  C   UNL     1      -8.507   2.502  68.173  1.00  0.00    -0.075 C  
ENDBRANCH  20  26
ENDBRANCH  15  18
ENDBRANCH  14  15
ENDBRANCH  12  14
ENDBRANCH  10  12
ENDBRANCH   9  10
ENDBRANCH   6   9
ENDBRANCH   2   3
TORSDOF 8
ENDMDL
MODEL      421
REMARK 921   NORMALIZED FREE ENERGY PREDICTED BY IDOCK:   -1.31 KCAL/MOL
REMARK 922        TOTAL FREE ENERGY PREDICTED BY IDOCK:   -3.58 KCAL/MOL
REMARK 923 INTER-LIGAND FREE ENERGY PREDICTED BY IDOCK:   -3.38 KCAL/MOL
REMARK 924 INTRA-LIGAND FREE ENERGY PREDICTED BY IDOCK:   -0.19 KCAL/MOL
REMARK 927      BINDING AFFINITY PREDICTED BY RF-SCORE:    0.00 PKD
ROOT
HETATM    1  C   UNL     1     -10.040   4.847  67.575  1.00  0.00    -0.132 C  
HETATM    2  O   UNL     1      -8.899   4.742  68.416  1.00  0.00    -0.100 OA 
ENDROOT
BRANCH   2   3
HETATM    3  C   UNL     1      -8.708   5.752  69.318  1.00  0.00    -0.113 A  
HETATM    4  C   UNL     1      -9.587   6.805  69.570  1.00  0.00    -0.148 A  
HETATM    5  C   UNL     1      -9.241   7.811  70.478  1.00  0.00    -0.162 A  
HETATM    6  C   UNL     1      -8.015   7.768  71.157  1.00  0.00    -0.090 A  
HETATM    7  C   UNL     1      -7.502   5.691  70.017  1.00  0.00    -0.070 A  
HETATM    8  C   UNL     1      -7.155   6.689  70.927  1.00  0.00    -0.069 A  
BRANCH   6   9
HETATM    9  C   UNL     1      -7.551   8.924  72.011  1.00  0.00     0.064 C  
BRANCH   9  10
HETATM   10  C   UNL     1      -6.031   9.205  72.033  1.00  0.00    -0.040 C  
HETATM   11  C   UNL     1      -5.235   7.904  72.194  1.00  0.00    -0.035 C  
BRANCH  10  12
HETATM   12  N   UNL     1      -5.560   9.852  70.792  1.00  0.00    -0.066 NA 
HETATM   13  H   UNL     1      -5.672   9.227  69.994  1.00  0.00     0.000 HD 
BRANCH  12  14
HETATM   14  C   UNL     1      -6.198  11.153  70.530  1.00  0.00    -0.021 C  
BRANCH  14  15
HETATM   15  C   UNL     1      -6.074  11.624  69.062  1.00  0.00    -0.057 C  
HETATM   16  H   UNL     1      -5.517  13.264  68.125  1.00  0.00     0.000 HD 
HETATM   17  O   UNL     1      -5.594  12.974  69.026  1.00  0.00    -0.068 OA 
BRANCH  15  18
HETATM   18  C   UNL     1      -7.336  11.459  68.240  1.00  0.00    -0.089 A  
HETATM   19  C   UNL     1      -7.790  12.533  67.453  1.00  0.00    -0.175 A  
HETATM   20  C   UNL     1      -8.964  12.432  66.698  1.00  0.00    -0.184 A  
HETATM   21  H   UNL     1     -11.336  10.235  66.077  1.00  0.00     0.000 HD 
HETATM   22  C   UNL     1      -9.674  11.224  66.726  1.00  0.00    -0.193 A  
HETATM   23  C   UNL     1      -8.057  10.258  68.230  1.00  0.00    -0.107 A  
HETATM   24  C   UNL     1      -9.222  10.141  67.475  1.00  0.00    -0.150 A  
HETATM   25  O   UNL     1     -10.854  11.055  66.058  1.00  0.00    -0.217 OA 
BRANCH  20  26
HETATM   26  N   UNL     1      -9.440  13.493  65.906  1.00  0.00    -0.499 N  
HETATM   27  H   UNL     1      -9.667  13.268  64.937  1.00  0.00     0.000 HD 
HETATM   28  O   UNL     1     -10.042  15.643  65.514  1.00  0.00    -0.343 OA 
HETATM   29  C   UNL     1      -9.632  14.790  66.289  1.00  0.00    -0.312 C  
ENDBRANCH  20  26
ENDBRANCH  15  18
ENDBRANCH  14  15
ENDBRANCH  12  14
ENDBRANCH  10  12
ENDBRANCH   9  10
ENDBRANCH   6   9
ENDBRANCH   2   3
TORSDOF 8
ENDMDL
MODEL      422
REMARK 921   NORMALIZED FREE ENERGY PREDICTED BY IDOCK:   -1.26 KCAL/MOL
REMARK 922        TOTAL FREE ENERGY PREDICTED BY IDOCK:   -3.51 KCAL/MOL
REMARK 923 INTER-LIGAND FREE ENERGY PREDICTED BY IDOCK:   -3.60 KCAL/MOL
REMARK 924 INTRA-LIGAND FREE ENERGY PREDICTED BY IDOCK:    0.08 KCAL/MOL
REMARK 927      BINDING AFFINITY PREDICTED BY RF-SCORE:    0.00 PKD
ROOT
HETATM    1  C   UNL     1      -7.609   7.238  74.560  1.00  0.00    -0.129 C  
HETATM    2  O   UNL     1      -8.282   6.772  73.398  1.00  0.00    -0.112 OA 
ENDROOT
BRANCH   2   3
HETATM    3  C   UNL     1      -7.497   6.433  72.330  1.00  0.00    -0.096 A  
HETATM    4  C   UNL     1      -6.105   6.487  72.285  1.00  0.00    -0.039 A  
HETATM    5  C   UNL     1      -5.424   6.170  71.105  1.00  0.00    -0.018 A  
HETATM    6  C   UNL     1      -6.130   5.779  69.958  1.00  0.00    -0.026 A  
HETATM    7  C   UNL     1      -8.199   6.013  71.200  1.00  0.00    -0.123 A  
HETATM    8  C   UNL     1      -7.524   5.690  70.022  1.00  0.00    -0.070 A  
BRANCH   6   9
HETATM    9  C   UNL     1      -5.430   5.595  68.632  1.00  0.00    -0.007 C  
BRANCH   9  10
HETATM   10  C   UNL     1      -6.249   4.930  67.501  1.00  0.00    -0.039 C  
HETATM   11  C   UNL     1      -6.561   3.466  67.839  1.00  0.00    -0.038 C  
BRANCH  10  12
HETATM   12  N   UNL     1      -7.540   5.607  67.267  1.00  0.00    -0.088 NA 
HETATM   13  H   UNL     1      -7.395   6.540  66.884  1.00  0.00     0.000 HD 
BRANCH  12  14
HETATM   14  C   UNL     1      -8.462   4.832  66.420  1.00  0.00    -0.110 C  
BRANCH  14  15
HETATM   15  C   UNL     1      -9.908   4.769  66.968  1.00  0.00    -0.200 C  
HETATM   16  H   UNL     1     -11.719   4.590  66.217  1.00  0.00     0.000 HD 
HETATM   17  O   UNL     1     -10.831   4.628  65.880  1.00  0.00    -0.274 OA 
BRANCH  15  18
HETATM   18  C   UNL     1     -10.286   5.921  67.875  1.00  0.00    -0.262 A  
HETATM   19  C   UNL     1      -9.906   7.229  67.522  1.00  0.00    -0.198 A  
HETATM   20  C   UNL     1     -10.214   8.319  68.344  1.00  0.00    -0.209 A  
HETATM   21  H   UNL     1     -11.717   8.924  71.209  1.00  0.00     0.000 HD 
HETATM   22  C   UNL     1     -10.931   8.084  69.524  1.00  0.00    -0.054 A  
HETATM   23  C   UNL     1     -11.020   5.722  69.052  1.00  0.00    -0.280 A  
HETATM   24  C   UNL     1     -11.341   6.800  69.874  1.00  0.00    -0.374 A  
HETATM   25  O   UNL     1     -11.231   9.083  70.408  1.00  0.00    -0.254 OA 
BRANCH  20  26
HETATM   26  N   UNL     1      -9.843   9.636  68.013  1.00  0.00    -0.146 N  
HETATM   27  H   UNL     1      -8.856   9.869  68.124  1.00  0.00     0.000 HD 
HETATM   28  O   UNL     1     -10.233  11.756  67.311  1.00  0.00    -0.200 OA 
HETATM   29  C   UNL     1     -10.656  10.636  67.560  1.00  0.00    -0.252 C  
ENDBRANCH  20  26
ENDBRANCH  15  18
ENDBRANCH  14  15
ENDBRANCH  12  14
ENDBRANCH  10  12
ENDBRANCH   9  10
ENDBRANCH   6   9
ENDBRANCH   2   3
TORSDOF 8
ENDMDL
MODEL      423
REMARK 921   NORMALIZED FREE ENERGY PREDICTED BY IDOCK:   -1.25 KCAL/MOL
REMARK 922        TOTAL FREE ENERGY PREDICTED BY IDOCK:   -3.49 KCAL/MOL
REMARK 923 INTER-LIGAND FREE ENERGY PREDICTED BY IDOCK:   -3.09 KCAL/MOL
REMARK 924 INTRA-LIGAND FREE ENERGY PREDICTED BY IDOCK:   -0.40 KCAL/MOL
REMARK 927      BINDING AFFINITY PREDICTED BY RF-SCORE:    0.00 PKD
ROOT
HETATM    1  C   UNL     1      -7.795  14.358  67.679  1.00  0.00    -0.181 C  
HETATM    2  O   UNL     1      -7.356  13.047  68.010  1.00  0.00    -0.096 OA 
ENDROOT
BRANCH   2   3
HETATM    3  C   UNL     1      -7.859  12.024  67.255  1.00  0.00    -0.170 A  
HETATM    4  C   UNL     1      -9.210  11.738  67.056  1.00  0.00    -0.187 A  
HETATM    5  C   UNL     1      -9.591  10.620  66.307  1.00  0.00    -0.228 A  
HETATM    6  C   UNL     1      -8.624   9.781  65.735  1.00  0.00    -0.147 A  
HETATM    7  C   UNL     1      -6.896  11.210  66.659  1.00  0.00    -0.137 A  
HETATM    8  C   UNL     1      -7.272  10.097  65.906  1.00  0.00    -0.121 A  
BRANCH   6   9
HETATM    9  C   UNL     1      -9.009   8.482  65.067  1.00  0.00    -0.004 C  
BRANCH   9  10
HETATM   10  C   UNL     1      -7.897   7.749  64.281  1.00  0.00    -0.138 C  
HETATM   11  C   UNL     1      -7.149   8.719  63.358  1.00  0.00    -0.089 C  
BRANCH  10  12
HETATM   12  N   UNL     1      -6.892   7.132  65.170  1.00  0.00    -0.050 NA 
HETATM   13  H   UNL     1      -6.218   7.826  65.490  1.00  0.00     0.000 HD 
BRANCH  12  14
HETATM   14  C   UNL     1      -7.483   6.414  66.312  1.00  0.00    -0.085 C  
BRANCH  14  15
HETATM   15  C   UNL     1      -6.586   6.403  67.572  1.00  0.00    -0.054 C  
HETATM   16  H   UNL     1      -5.733   5.043  68.713  1.00  0.00     0.000 HD 
HETATM   17  O   UNL     1      -6.284   5.050  67.939  1.00  0.00    -0.032 OA 
BRANCH  15  18
HETATM   18  C   UNL     1      -7.139   7.188  68.744  1.00  0.00    -0.088 A  
HETATM   19  C   UNL     1      -6.871   8.565  68.838  1.00  0.00    -0.061 A  
HETATM   20  C   UNL     1      -7.342   9.323  69.917  1.00  0.00    -0.074 A  
HETATM   21  H   UNL     1      -9.090   8.900  72.673  1.00  0.00     0.000 HD 
HETATM   22  C   UNL     1      -8.110   8.682  70.898  1.00  0.00    -0.136 A  
HETATM   23  C   UNL     1      -7.928   6.580  69.731  1.00  0.00    -0.120 A  
HETATM   24  C   UNL     1      -8.411   7.326  70.804  1.00  0.00    -0.132 A  
HETATM   25  O   UNL     1      -8.568   9.335  72.008  1.00  0.00    -0.231 OA 
BRANCH  20  26
HETATM   26  N   UNL     1      -7.084  10.701  70.034  1.00  0.00    -0.279 N  
HETATM   27  H   UNL     1      -7.775  11.328  69.622  1.00  0.00     0.000 HD 
HETATM   28  O   UNL     1      -5.876  12.509  70.677  1.00  0.00    -0.188 OA 
HETATM   29  C   UNL     1      -6.012  11.294  70.639  1.00  0.00    -0.059 C  
ENDBRANCH  20  26
ENDBRANCH  15  18
ENDBRANCH  14  15
ENDBRANCH  12  14
ENDBRANCH  10  12
ENDBRANCH   9  10
ENDBRANCH   6   9
ENDBRANCH   2   3
TORSDOF 8
ENDMDL
MODEL      424
REMARK 921   NORMALIZED FREE ENERGY PREDICTED BY IDOCK:   -1.23 KCAL/MOL
REMARK 922        TOTAL FREE ENERGY PREDICTED BY IDOCK:   -3.47 KCAL/MOL
REMARK 923 INTER-LIGAND FREE ENERGY PREDICTED BY IDOCK:   -2.54 KCAL/MOL
REMARK 924 INTRA-LIGAND FREE ENERGY PREDICTED BY IDOCK:   -0.93 KCAL/MOL
REMARK 927      BINDING AFFINITY PREDICTED BY RF-SCORE:    0.00 PKD
ROOT
HETATM    1  C   UNL     1     -10.135   4.781  67.351  1.00  0.00    -0.126 C  
HETATM    2  O   UNL     1      -9.045   4.359  68.160  1.00  0.00    -0.114 OA 
ENDROOT
BRANCH   2   3
HETATM    3  C   UNL     1      -8.793   5.098  69.283  1.00  0.00    -0.095 A  
HETATM    4  C   UNL     1      -9.553   6.171  69.746  1.00  0.00    -0.174 A  
HETATM    5  C   UNL     1      -9.149   6.884  70.880  1.00  0.00    -0.153 A  
HETATM    6  C   UNL     1      -7.986   6.522  71.573  1.00  0.00    -0.104 A  
HETATM    7  C   UNL     1      -7.653   4.716  69.990  1.00  0.00    -0.054 A  
HETATM    8  C   UNL     1      -7.250   5.421  71.124  1.00  0.00    -0.078 A  
BRANCH   6   9
HETATM    9  C   UNL     1      -7.443   7.376  72.695  1.00  0.00    -0.084 C  
BRANCH   9  10
HETATM   10  C   UNL     1      -5.916   7.619  72.706  1.00  0.00    -0.044 C  
HETATM   11  C   UNL     1      -5.150   6.292  72.637  1.00  0.00    -0.030 C  
BRANCH  10  12
HETATM   12  N   UNL     1      -5.467   8.441  71.565  1.00  0.00    -0.034 NA 
HETATM   13  H   UNL     1      -5.416   7.880  70.714  1.00  0.00     0.000 HD 
BRANCH  12  14
HETATM   14  C   UNL     1      -6.290   9.643  71.349  1.00  0.00     0.076 C  
BRANCH  14  15
HETATM   15  C   UNL     1      -6.228  10.189  69.903  1.00  0.00    -0.063 C  
HETATM   16  H   UNL     1      -6.072  11.953  69.043  1.00  0.00     0.000 HD 
HETATM   17  O   UNL     1      -6.110  11.618  69.931  1.00  0.00    -0.118 OA 
BRANCH  15  18
HETATM   18  C   UNL     1      -7.369   9.742  69.014  1.00  0.00    -0.078 A  
HETATM   19  C   UNL     1      -7.162   8.686  68.107  1.00  0.00    -0.087 A  
HETATM   20  C   UNL     1      -8.182   8.257  67.250  1.00  0.00    -0.120 A  
HETATM   21  H   UNL     1     -11.311   8.998  66.547  1.00  0.00     0.000 HD 
HETATM   22  C   UNL     1      -9.430   8.890  67.327  1.00  0.00    -0.154 A  
HETATM   23  C   UNL     1      -8.634  10.341  69.080  1.00  0.00    -0.167 A  
HETATM   24  C   UNL     1      -9.661   9.916  68.239  1.00  0.00    -0.151 A  
HETATM   25  O   UNL     1     -10.464   8.568  66.494  1.00  0.00    -0.256 OA 
BRANCH  20  26
HETATM   26  N   UNL     1      -7.998   7.206  66.333  1.00  0.00    -0.109 N  
HETATM   27  H   UNL     1      -7.905   6.271  66.729  1.00  0.00     0.000 HD 
HETATM   28  O   UNL     1      -7.756   6.317  64.262  1.00  0.00    -0.094 OA 
HETATM   29  C   UNL     1      -7.931   7.297  64.971  1.00  0.00    -0.129 C  
ENDBRANCH  20  26
ENDBRANCH  15  18
ENDBRANCH  14  15
ENDBRANCH  12  14
ENDBRANCH  10  12
ENDBRANCH   9  10
ENDBRANCH   6   9
ENDBRANCH   2   3
TORSDOF 8
ENDMDL
MODEL      425
REMARK 921   NORMALIZED FREE ENERGY PREDICTED BY IDOCK:   -1.10 KCAL/MOL
REMARK 922        TOTAL FREE ENERGY PREDICTED BY IDOCK:   -3.27 KCAL/MOL
REMARK 923 INTER-LIGAND FREE ENERGY PREDICTED BY IDOCK:   -2.66 KCAL/MOL
REMARK 924 INTRA-LIGAND FREE ENERGY PREDICTED BY IDOCK:   -0.61 KCAL/MOL
REMARK 927      BINDING AFFINITY PREDICTED BY RF-SCORE:    0.00 PKD
ROOT
HETATM    1  C   UNL     1      -9.646  20.069  66.982  1.00  0.00    -0.411 C  
HETATM    2  O   UNL     1      -8.665  19.741  67.958  1.00  0.00    -0.312 OA 
ENDROOT
BRANCH   2   3
HETATM    3  C   UNL     1      -8.302  18.426  68.044  1.00  0.00    -0.272 A  
HETATM    4  C   UNL     1      -8.903  17.363  67.370  1.00  0.00    -0.230 A  
HETATM    5  C   UNL     1      -8.473  16.051  67.595  1.00  0.00    -0.169 A  
HETATM    6  C   UNL     1      -7.424  15.788  68.487  1.00  0.00    -0.129 A  
HETATM    7  C   UNL     1      -7.237  18.169  68.906  1.00  0.00    -0.268 A  
HETATM    8  C   UNL     1      -6.801  16.863  69.129  1.00  0.00    -0.238 A  
BRANCH   6   9
HETATM    9  C   UNL     1      -7.056  14.374  68.869  1.00  0.00    -0.116 C  
BRANCH   9  10
HETATM   10  C   UNL     1      -6.638  13.429  67.718  1.00  0.00    -0.164 C  
HETATM   11  C   UNL     1      -5.511  14.049  66.883  1.00  0.00     1.657 C  
BRANCH  10  12
HETATM   12  N   UNL     1      -6.150  12.125  68.207  1.00  0.00    -0.050 NA 
HETATM   13  H   UNL     1      -5.321  12.244  68.789  1.00  0.00     0.000 HD 
BRANCH  12  14
HETATM   14  C   UNL     1      -7.177  11.344  68.918  1.00  0.00    -0.113 C  
BRANCH  14  15
HETATM   15  C   UNL     1      -7.512   9.993  68.242  1.00  0.00    -0.079 C  
HETATM   16  H   UNL     1      -8.345   9.399  66.560  1.00  0.00     0.000 HD 
HETATM   17  O   UNL     1      -8.139  10.229  66.975  1.00  0.00    -0.119 OA 
BRANCH  15  18
HETATM   18  C   UNL     1      -8.325   9.047  69.100  1.00  0.00    -0.123 A  
HETATM   19  C   UNL     1      -8.496   7.714  68.684  1.00  0.00    -0.129 A  
HETATM   20  C   UNL     1      -9.261   6.813  69.434  1.00  0.00    -0.143 A  
HETATM   21  H   UNL     1     -11.034   6.768  72.206  1.00  0.00     0.000 HD 
HETATM   22  C   UNL     1      -9.840   7.262  70.628  1.00  0.00    -0.179 A  
HETATM   23  C   UNL     1      -8.902   9.459  70.310  1.00  0.00    -0.269 A  
HETATM   24  C   UNL     1      -9.656   8.569  71.070  1.00  0.00    -0.241 A  
HETATM   25  O   UNL     1     -10.641   6.463  71.396  1.00  0.00    -0.219 OA 
BRANCH  20  26
HETATM   26  N   UNL     1      -9.448   5.476  69.036  1.00  0.00    -0.124 N  
HETATM   27  H   UNL     1     -10.250   4.992  69.438  1.00  0.00     0.000 HD 
HETATM   28  O   UNL     1      -8.918   3.587  67.901  1.00  0.00    -0.113 OA 
HETATM   29  C   UNL     1      -8.673   4.754  68.172  1.00  0.00    -0.102 C  
ENDBRANCH  20  26
ENDBRANCH  15  18
ENDBRANCH  14  15
ENDBRANCH  12  14
ENDBRANCH  10  12
ENDBRANCH   9  10
ENDBRANCH   6   9
ENDBRANCH   2   3
TORSDOF 8
ENDMDL
MODEL      426
REMARK 921   NORMALIZED FREE ENERGY PREDICTED BY IDOCK:   -1.04 KCAL/MOL
REMARK 922        TOTAL FREE ENERGY PREDICTED BY IDOCK:   -3.19 KCAL/MOL
REMARK 923 INTER-LIGAND FREE ENERGY PREDICTED BY IDOCK:   -3.35 KCAL/MOL
REMARK 924 INTRA-LIGAND FREE ENERGY PREDICTED BY IDOCK:    0.17 KCAL/MOL
REMARK 927      BINDING AFFINITY PREDICTED BY RF-SCORE:    0.00 PKD
ROOT
HETATM    1  C   UNL     1      -6.084   9.852  65.027  1.00  0.00    -0.100 C  
HETATM    2  O   UNL     1      -6.139   9.656  66.434  1.00  0.00    -0.058 OA 
ENDROOT
BRANCH   2   3
HETATM    3  C   UNL     1      -6.423  10.757  67.194  1.00  0.00    -0.074 A  
HETATM    4  C   UNL     1      -7.618  11.002  67.869  1.00  0.00    -0.095 A  
HETATM    5  C   UNL     1      -7.802  12.202  68.565  1.00  0.00    -0.122 A  
HETATM    6  C   UNL     1      -6.785  13.165  68.606  1.00  0.00    -0.096 A  
HETATM    7  C   UNL     1      -5.398  11.700  67.261  1.00  0.00    -0.087 A  
HETATM    8  C   UNL     1      -5.575  12.896  67.959  1.00  0.00    -0.101 A  
BRANCH   6   9
HETATM    9  C   UNL     1      -7.023  14.530  69.207  1.00  0.00    -0.141 C  
BRANCH   9  10
HETATM   10  C   UNL     1      -8.390  15.190  68.914  1.00  0.00    -0.190 C  
HETATM   11  C   UNL     1      -9.312  15.109  70.138  1.00  0.00     0.385 C  
BRANCH  10  12
HETATM   12  N   UNL     1      -8.263  16.618  68.560  1.00  0.00    -0.220 NA 
HETATM   13  H   UNL     1      -7.756  16.729  67.682  1.00  0.00     0.000 HD 
BRANCH  12  14
HETATM   14  C   UNL     1      -9.554  17.326  68.510  1.00  0.00    -0.291 C  
BRANCH  14  15
HETATM   15  C   UNL     1      -9.906  17.882  67.110  1.00  0.00    -0.308 C  
HETATM   16  H   UNL     1     -11.033  19.323  66.381  1.00  0.00     0.000 HD 
HETATM   17  O   UNL     1     -10.817  18.981  67.241  1.00  0.00    -0.472 OA 
BRANCH  15  18
HETATM   18  C   UNL     1     -10.420  16.845  66.134  1.00  0.00    -0.276 A  
HETATM   19  C   UNL     1     -10.017  15.504  66.277  1.00  0.00    -0.313 A  
HETATM   20  C   UNL     1     -10.450  14.519  65.382  1.00  0.00    -0.380 A  
HETATM   21  H   UNL     1     -12.333  14.256  62.696  1.00  0.00     0.000 HD 
HETATM   22  C   UNL     1     -11.315  14.891  64.345  1.00  0.00    -0.201 A  
HETATM   23  C   UNL     1     -11.302  17.181  65.097  1.00  0.00     0.582 A  
HETATM   24  C   UNL     1     -11.747  16.207  64.207  1.00  0.00     0.003 A  
HETATM   25  O   UNL     1     -11.746  14.003  63.400  1.00  0.00     0.056 OA 
BRANCH  20  26
HETATM   26  N   UNL     1     -10.058  13.173  65.504  1.00  0.00    -0.368 N  
HETATM   27  H   UNL     1      -9.728  12.878  66.423  1.00  0.00     0.000 HD 
HETATM   28  O   UNL     1      -9.698  11.070  64.737  1.00  0.00    -0.228 OA 
HETATM   29  C   UNL     1     -10.072  12.215  64.529  1.00  0.00    -0.259 C  
ENDBRANCH  20  26
ENDBRANCH  15  18
ENDBRANCH  14  15
ENDBRANCH  12  14
ENDBRANCH  10  12
ENDBRANCH   9  10
ENDBRANCH   6   9
ENDBRANCH   2   3
TORSDOF 8
ENDMDL
MODEL      427
REMARK 921   NORMALIZED FREE ENERGY PREDICTED BY IDOCK:   -0.38 KCAL/MOL
REMARK 922        TOTAL FREE ENERGY PREDICTED BY IDOCK:   -2.21 KCAL/MOL
REMARK 923 INTER-LIGAND FREE ENERGY PREDICTED BY IDOCK:   -4.44 KCAL/MOL
REMARK 924 INTRA-LIGAND FREE ENERGY PREDICTED BY IDOCK:    2.22 KCAL/MOL
REMARK 927      BINDING AFFINITY PREDICTED BY RF-SCORE:    0.00 PKD
ROOT
HETATM    1  C   UNL     1      -8.071  12.716  67.287  1.00  0.00    -0.178 C  
HETATM    2  O   UNL     1      -6.905  13.446  67.646  1.00  0.00    -0.145 OA 
ENDROOT
BRANCH   2   3
HETATM    3  C   UNL     1      -7.094  14.733  68.069  1.00  0.00    -0.138 A  
HETATM    4  C   UNL     1      -7.537  15.125  69.332  1.00  0.00    -0.210 A  
HETATM    5  C   UNL     1      -7.747  16.478  69.617  1.00  0.00     0.323 A  
HETATM    6  C   UNL     1      -7.501  17.458  68.646  1.00  0.00    -0.263 A  
HETATM    7  C   UNL     1      -6.817  15.709  67.112  1.00  0.00    -0.127 A  
HETATM    8  C   UNL     1      -7.019  17.060  67.394  1.00  0.00    -0.182 A  
BRANCH   6   9
HETATM    9  C   UNL     1      -7.878  18.902  68.876  1.00  0.00    -0.314 C  
BRANCH   9  10
HETATM   10  C   UNL     1      -8.844  19.540  67.851  1.00  0.00    -0.323 C  
HETATM   11  C   UNL     1      -8.136  19.792  66.513  1.00  0.00    -0.351 C  
BRANCH  10  12
HETATM   12  N   UNL     1     -10.013  18.683  67.568  1.00  0.00    -0.323 NA 
HETATM   13  H   UNL     1     -10.611  19.109  66.860  1.00  0.00     0.000 HD 
BRANCH  12  14
HETATM   14  C   UNL     1      -9.652  17.307  67.188  1.00  0.00    -0.257 C  
BRANCH  14  15
HETATM   15  C   UNL     1      -9.908  16.986  65.696  1.00  0.00     0.011 C  
HETATM   16  H   UNL     1     -10.829  17.844  64.182  1.00  0.00     0.000 HD 
HETATM   17  O   UNL     1     -10.671  18.041  65.099  1.00  0.00    -0.612 OA 
BRANCH  15  18
HETATM   18  C   UNL     1     -10.538  15.631  65.445  1.00  0.00    -0.436 A  
HETATM   19  C   UNL     1      -9.923  14.742  64.545  1.00  0.00     0.729 A  
HETATM   20  C   UNL     1     -10.485  13.491  64.266  1.00  0.00    -0.237 A  
HETATM   21  H   UNL     1     -13.116  11.704  65.114  1.00  0.00     0.000 HD 
HETATM   22  C   UNL     1     -11.670  13.129  64.920  1.00  0.00    -0.340 A  
HETATM   23  C   UNL     1     -11.712  15.232  66.099  1.00  0.00     0.109 A  
HETATM   24  C   UNL     1     -12.276  13.985  65.837  1.00  0.00    -0.481 A  
HETATM   25  O   UNL     1     -12.312  11.949  64.670  1.00  0.00    -0.248 OA 
BRANCH  20  26
HETATM   26  N   UNL     1      -9.890  12.585  63.368  1.00  0.00    -0.350 N  
HETATM   27  H   UNL     1     -10.118  12.710  62.382  1.00  0.00     0.000 HD 
HETATM   28  O   UNL     1      -8.585  10.817  62.809  1.00  0.00    -0.196 OA 
HETATM   29  C   UNL     1      -9.041  11.558  63.669  1.00  0.00     0.100 C  
ENDBRANCH  20  26
ENDBRANCH  15  18
ENDBRANCH  14  15
ENDBRANCH  12  14
ENDBRANCH  10  12
ENDBRANCH   9  10
ENDBRANCH   6   9
ENDBRANCH   2   3
TORSDOF 8
ENDMDL
MODEL      428
REMARK 921   NORMALIZED FREE ENERGY PREDICTED BY IDOCK:    0.31 KCAL/MOL
REMARK 922        TOTAL FREE ENERGY PREDICTED BY IDOCK:   -1.20 KCAL/MOL
REMARK 923 INTER-LIGAND FREE ENERGY PREDICTED BY IDOCK:   -1.56 KCAL/MOL
REMARK 924 INTRA-LIGAND FREE ENERGY PREDICTED BY IDOCK:    0.35 KCAL/MOL
REMARK 927      BINDING AFFINITY PREDICTED BY RF-SCORE:    0.00 PKD
ROOT
HETATM    1  C   UNL     1      -7.202   7.474  67.934  1.00  0.00    -0.090 C  
HETATM    2  O   UNL     1      -7.273   8.491  66.943  1.00  0.00    -0.074 OA 
ENDROOT
BRANCH   2   3
HETATM    3  C   UNL     1      -6.834   9.733  67.308  1.00  0.00    -0.083 A  
HETATM    4  C   UNL     1      -6.045  10.585  66.536  1.00  0.00    -0.079 A  
HETATM    5  C   UNL     1      -5.613  11.810  67.055  1.00  0.00    -0.131 A  
HETATM    6  C   UNL     1      -5.978  12.205  68.349  1.00  0.00    -0.050 A  
HETATM    7  C   UNL     1      -7.226  10.139  68.584  1.00  0.00    -0.080 A  
HETATM    8  C   UNL     1      -6.802  11.363  69.103  1.00  0.00    -0.111 A  
BRANCH   6   9
HETATM    9  C   UNL     1      -5.388  13.440  68.988  1.00  0.00    -0.069 C  
BRANCH   9  10
HETATM   10  C   UNL     1      -6.055  13.932  70.294  1.00  0.00    -0.141 C  
HETATM   11  C   UNL     1      -5.351  15.186  70.829  1.00  0.00    -0.137 C  
BRANCH  10  12
HETATM   12  N   UNL     1      -7.477  14.280  70.105  1.00  0.00    -0.167 NA 
HETATM   13  H   UNL     1      -7.901  14.560  70.989  1.00  0.00     0.000 HD 
BRANCH  12  14
HETATM   14  C   UNL     1      -7.697  15.307  69.072  1.00  0.00    -0.183 C  
BRANCH  14  15
HETATM   15  C   UNL     1      -9.190  15.570  68.763  1.00  0.00    -0.210 C  
HETATM   16  H   UNL     1     -10.532  14.890  67.494  1.00  0.00     0.000 HD 
HETATM   17  O   UNL     1      -9.616  14.729  67.684  1.00  0.00    -0.206 OA 
BRANCH  15  18
HETATM   18  C   UNL     1      -9.530  17.023  68.504  1.00  0.00    -0.269 A  
HETATM   19  C   UNL     1     -10.017  17.402  67.240  1.00  0.00    -0.302 A  
HETATM   20  C   UNL     1     -10.321  18.737  66.951  1.00  0.00    -0.404 A  
HETATM   21  H   UNL     1     -10.259  21.676  68.432  1.00  0.00     0.000 HD 
HETATM   22  C   UNL     1     -10.149  19.695  67.959  1.00  0.00    -0.437 A  
HETATM   23  C   UNL     1      -9.389  18.002  69.498  1.00  0.00     0.524 A  
HETATM   24  C   UNL     1      -9.697  19.333  69.226  1.00  0.00    -0.292 A  
HETATM   25  O   UNL     1     -10.375  21.026  67.748  1.00  0.00     0.112 OA 
BRANCH  20  26
HETATM   26  N   UNL     1     -10.806  19.140  65.693  1.00  0.00    -0.321 N  
HETATM   27  H   UNL     1     -11.083  18.395  65.054  1.00  0.00     0.000 HD 
HETATM   28  O   UNL     1     -11.371  20.662  64.110  1.00  0.00     1.116 OA 
HETATM   29  C   UNL     1     -10.947  20.419  65.231  1.00  0.00     0.530 C  
ENDBRANCH  20  26
ENDBRANCH  15  18
ENDBRANCH  14  15
ENDBRANCH  12  14
ENDBRANCH  10  12
ENDBRANCH   9  10
ENDBRANCH   6   9
ENDBRANCH   2   3
TORSDOF 8
ENDMDL
MODEL      429
REMARK 921   NORMALIZED FREE ENERGY PREDICTED BY IDOCK:    0.46 KCAL/MOL
REMARK 922        TOTAL FREE ENERGY PREDICTED BY IDOCK:   -0.98 KCAL/MOL
REMARK 923 INTER-LIGAND FREE ENERGY PREDICTED BY IDOCK:   -0.27 KCAL/MOL
REMARK 924 INTRA-LIGAND FREE ENERGY PREDICTED BY IDOCK:   -0.71 KCAL/MOL
REMARK 927      BINDING AFFINITY PREDICTED BY RF-SCORE:    0.00 PKD
ROOT
HETATM    1  C   UNL     1     -11.297  20.750  68.840  1.00  0.00     2.250 C  
HETATM    2  O   UNL     1      -9.957  20.781  69.316  1.00  0.00     0.475 OA 
ENDROOT
BRANCH   2   3
HETATM    3  C   UNL     1      -9.220  19.642  69.145  1.00  0.00    -0.108 A  
HETATM    4  C   UNL     1      -9.709  18.402  68.737  1.00  0.00    -0.369 A  
HETATM    5  C   UNL     1      -8.854  17.297  68.660  1.00  0.00    -0.261 A  
HETATM    6  C   UNL     1      -7.495  17.424  68.977  1.00  0.00    -0.185 A  
HETATM    7  C   UNL     1      -7.861  19.778  69.428  1.00  0.00     0.039 A  
HETATM    8  C   UNL     1      -7.004  18.680  69.348  1.00  0.00    -0.154 A  
BRANCH   6   9
HETATM    9  C   UNL     1      -6.593  16.215  69.062  1.00  0.00    -0.160 C  
BRANCH   9  10
HETATM   10  C   UNL     1      -6.564  15.283  67.828  1.00  0.00    -0.162 C  
HETATM   11  C   UNL     1      -5.444  15.689  66.861  1.00  0.00     0.785 C  
BRANCH  10  12
HETATM   12  N   UNL     1      -6.331  13.871  68.194  1.00  0.00    -0.111 NA 
HETATM   13  H   UNL     1      -5.609  13.797  68.909  1.00  0.00     0.000 HD 
BRANCH  12  14
HETATM   14  C   UNL     1      -7.554  13.166  68.613  1.00  0.00    -0.089 C  
BRANCH  14  15
HETATM   15  C   UNL     1      -8.547  12.898  67.457  1.00  0.00    -0.188 C  
HETATM   16  H   UNL     1     -10.288  13.605  66.870  1.00  0.00     0.000 HD 
HETATM   17  O   UNL     1      -9.679  13.769  67.580  1.00  0.00    -0.221 OA 
BRANCH  15  18
HETATM   18  C   UNL     1      -8.970  11.451  67.314  1.00  0.00    -0.159 A  
HETATM   19  C   UNL     1      -9.071  10.647  68.465  1.00  0.00    -0.159 A  
HETATM   20  C   UNL     1      -9.435   9.298  68.375  1.00  0.00    -0.138 A  
HETATM   21  H   UNL     1     -10.226   7.086  66.071  1.00  0.00     0.000 HD 
HETATM   22  C   UNL     1      -9.719   8.765  67.111  1.00  0.00    -0.191 A  
HETATM   23  C   UNL     1      -9.280  10.893  66.067  1.00  0.00    -0.210 A  
HETATM   24  C   UNL     1      -9.653   9.554  65.966  1.00  0.00    -0.316 A  
HETATM   25  O   UNL     1     -10.033   7.448  66.928  1.00  0.00    -0.199 OA 
BRANCH  20  26
HETATM   26  N   UNL     1      -9.540   8.474  69.511  1.00  0.00    -0.169 N  
HETATM   27  H   UNL     1     -10.314   7.811  69.519  1.00  0.00     0.000 HD 
HETATM   28  O   UNL     1      -8.906   7.709  71.549  1.00  0.00    -0.122 OA 
HETATM   29  C   UNL     1      -8.719   8.462  70.604  1.00  0.00    -0.146 C  
ENDBRANCH  20  26
ENDBRANCH  15  18
ENDBRANCH  14  15
ENDBRANCH  12  14
ENDBRANCH  10  12
ENDBRANCH   9  10
ENDBRANCH   6   9
ENDBRANCH   2   3
TORSDOF 8
ENDMDL
MODEL      430
REMARK 921   NORMALIZED FREE ENERGY PREDICTED BY IDOCK:    1.49 KCAL/MOL
REMARK 922        TOTAL FREE ENERGY PREDICTED BY IDOCK:    0.53 KCAL/MOL
REMARK 923 INTER-LIGAND FREE ENERGY PREDICTED BY IDOCK:    0.82 KCAL/MOL
REMARK 924 INTRA-LIGAND FREE ENERGY PREDICTED BY IDOCK:   -0.28 KCAL/MOL
REMARK 927      BINDING AFFINITY PREDICTED BY RF-SCORE:    0.00 PKD
ROOT
HETATM    1  C   UNL     1     -11.576  20.942  68.682  1.00  0.00     3.261 C  
HETATM    2  O   UNL     1     -10.362  21.038  69.416  1.00  0.00     0.541 OA 
ENDROOT
BRANCH   2   3
HETATM    3  C   UNL     1      -9.381  20.139  69.098  1.00  0.00     0.276 A  
HETATM    4  C   UNL     1      -9.483  19.111  68.162  1.00  0.00    -0.400 A  
HETATM    5  C   UNL     1      -8.421  18.219  67.976  1.00  0.00    -0.273 A  
HETATM    6  C   UNL     1      -7.238  18.355  68.714  1.00  0.00    -0.300 A  
HETATM    7  C   UNL     1      -8.192  20.296  69.810  1.00  0.00     0.999 A  
HETATM    8  C   UNL     1      -7.129  19.412  69.624  1.00  0.00    -0.162 A  
BRANCH   6   9
HETATM    9  C   UNL     1      -6.149  17.310  68.650  1.00  0.00    -0.165 C  
BRANCH   9  10
HETATM   10  C   UNL     1      -6.093  16.443  67.371  1.00  0.00    -0.167 C  
HETATM   11  C   UNL     1      -5.297  17.150  66.266  1.00  0.00    -0.065 C  
BRANCH  10  12
HETATM   12  N   UNL     1      -5.447  15.136  67.603  1.00  0.00    -0.322 NA 
HETATM   13  H   UNL     1      -4.553  15.254  68.078  1.00  0.00     0.000 HD 
BRANCH  12  14
HETATM   14  C   UNL     1      -6.302  14.182  68.329  1.00  0.00    -0.118 C  
BRANCH  14  15
HETATM   15  C   UNL     1      -7.771  14.646  68.474  1.00  0.00    -0.126 C  
HETATM   16  H   UNL     1      -8.886  15.459  69.879  1.00  0.00     0.000 HD 
HETATM   17  O   UNL     1      -7.984  15.174  69.790  1.00  0.00    -0.192 OA 
BRANCH  15  18
HETATM   18  C   UNL     1      -8.800  13.591  68.123  1.00  0.00    -0.179 A  
HETATM   19  C   UNL     1      -8.384  12.410  67.482  1.00  0.00    -0.173 A  
HETATM   20  C   UNL     1      -9.306  11.421  67.119  1.00  0.00    -0.172 A  
HETATM   21  H   UNL     1     -12.547  10.868  67.272  1.00  0.00     0.000 HD 
HETATM   22  C   UNL     1     -10.658  11.622  67.426  1.00  0.00    -0.220 A  
HETATM   23  C   UNL     1     -10.157  13.754  68.434  1.00  0.00    -0.241 A  
HETATM   24  C   UNL     1     -11.082  12.772  68.087  1.00  0.00    -0.288 A  
HETATM   25  O   UNL     1     -11.629  10.732  67.063  1.00  0.00    -0.322 OA 
BRANCH  20  26
HETATM   26  N   UNL     1      -8.915  10.233  66.475  1.00  0.00    -0.143 N  
HETATM   27  H   UNL     1      -9.495   9.412  66.646  1.00  0.00     0.000 HD 
HETATM   28  O   UNL     1      -7.583   8.971  65.143  1.00  0.00    -0.095 OA 
HETATM   29  C   UNL     1      -7.843  10.055  65.645  1.00  0.00    -0.138 C  
ENDBRANCH  20  26
ENDBRANCH  15  18
ENDBRANCH  14  15
ENDBRANCH  12  14
ENDBRANCH  10  12
ENDBRANCH   9  10
ENDBRANCH   6   9
ENDBRANCH   2   3
TORSDOF 8
ENDMDL
MODEL      431
REMARK 921   NORMALIZED FREE ENERGY PREDICTED BY IDOCK:    3.46 KCAL/MOL
REMARK 922        TOTAL FREE ENERGY PREDICTED BY IDOCK:    3.42 KCAL/MOL
REMARK 923 INTER-LIGAND FREE ENERGY PREDICTED BY IDOCK:    3.69 KCAL/MOL
REMARK 924 INTRA-LIGAND FREE ENERGY PREDICTED BY IDOCK:   -0.27 KCAL/MOL
REMARK 927      BINDING AFFINITY PREDICTED BY RF-SCORE:    0.00 PKD
ROOT
HETATM    1  C   UNL     1     -11.907  12.647  72.613  1.00  0.00     4.415 C  
HETATM    2  O   UNL     1     -12.379  13.061  71.338  1.00  0.00    -0.227 OA 
ENDROOT
BRANCH   2   3
HETATM    3  C   UNL     1     -12.157  12.204  70.295  1.00  0.00    -0.302 A  
HETATM    4  C   UNL     1     -13.012  11.188  69.871  1.00  0.00     0.224 A  
HETATM    5  C   UNL     1     -12.635  10.340  68.824  1.00  0.00     1.732 A  
HETATM    6  C   UNL     1     -11.403  10.508  68.179  1.00  0.00    -0.324 A  
HETATM    7  C   UNL     1     -10.945  12.394  69.632  1.00  0.00     0.115 A  
HETATM    8  C   UNL     1     -10.567  11.554  68.584  1.00  0.00    -0.236 A  
BRANCH   6   9
HETATM    9  C   UNL     1     -10.906   9.505  67.164  1.00  0.00    -0.156 C  
BRANCH   9  10
HETATM   10  C   UNL     1      -9.509   8.893  67.420  1.00  0.00    -0.145 C  
HETATM   11  C   UNL     1      -8.400   9.841  66.947  1.00  0.00    -0.120 C  
BRANCH  10  12
HETATM   12  N   UNL     1      -9.266   8.619  68.850  1.00  0.00    -0.145 NA 
HETATM   13  H   UNL     1     -10.146   8.583  69.365  1.00  0.00     0.000 HD 
BRANCH  12  14
HETATM   14  C   UNL     1      -8.472   7.401  69.087  1.00  0.00    -0.133 C  
BRANCH  14  15
HETATM   15  C   UNL     1      -7.314   7.599  70.094  1.00  0.00    -0.076 C  
HETATM   16  H   UNL     1      -5.350   7.718  70.014  1.00  0.00     0.000 HD 
HETATM   17  O   UNL     1      -6.062   7.597  69.396  1.00  0.00    -0.030 OA 
BRANCH  15  18
HETATM   18  C   UNL     1      -7.311   6.618  71.248  1.00  0.00    -0.083 A  
HETATM   19  C   UNL     1      -8.081   5.444  71.156  1.00  0.00    -0.111 A  
HETATM   20  C   UNL     1      -8.125   4.523  72.209  1.00  0.00    -0.101 A  
HETATM   21  H   UNL     1      -6.876   4.142  75.230  1.00  0.00     0.000 HD 
HETATM   22  C   UNL     1      -7.367   4.785  73.357  1.00  0.00    -0.082 A  
HETATM   23  C   UNL     1      -6.548   6.841  72.402  1.00  0.00    -0.058 A  
HETATM   24  C   UNL     1      -6.576   5.926  73.453  1.00  0.00    -0.074 A  
HETATM   25  O   UNL     1      -7.391   3.964  74.450  1.00  0.00    -0.060 OA 
BRANCH  20  26
HETATM   26  N   UNL     1      -8.890   3.344  72.141  1.00  0.00    -0.092 N  
HETATM   27  H   UNL     1      -8.423   2.523  71.756  1.00  0.00     0.000 HD 
HETATM   28  O   UNL     1     -10.767   2.104  72.420  1.00  0.00    -0.095 OA 
HETATM   29  C   UNL     1     -10.188   3.175  72.533  1.00  0.00    -0.144 C  
ENDBRANCH  20  26
ENDBRANCH  15  18
ENDBRANCH  14  15
ENDBRANCH  12  14
ENDBRANCH  10  12
ENDBRANCH   9  10
ENDBRANCH   6   9
ENDBRANCH   2   3
TORSDOF 8
ENDMDL
MODEL      432
REMARK 921   NORMALIZED FREE ENERGY PREDICTED BY IDOCK:    8.12 KCAL/MOL
REMARK 922        TOTAL FREE ENERGY PREDICTED BY IDOCK:   10.26 KCAL/MOL
REMARK 923 INTER-LIGAND FREE ENERGY PREDICTED BY IDOCK:    5.23 KCAL/MOL
REMARK 924 INTRA-LIGAND FREE ENERGY PREDICTED BY IDOCK:    5.03 KCAL/MOL
REMARK 927      BINDING AFFINITY PREDICTED BY RF-SCORE:    0.00 PKD
ROOT
HETATM    1  C   UNL     1      -6.341   9.099  66.382  1.00  0.00    -0.065 C  
HETATM    2  O   UNL     1      -6.404  10.313  65.646  1.00  0.00    -0.100 OA 
ENDROOT
BRANCH   2   3
HETATM    3  C   UNL     1      -6.176  11.467  66.345  1.00  0.00    -0.066 A  
HETATM    4  C   UNL     1      -5.345  12.515  65.950  1.00  0.00     2.868 A  
HETATM    5  C   UNL     1      -5.150  13.615  66.791  1.00  0.00     1.735 A  
HETATM    6  C   UNL     1      -5.797  13.688  68.032  1.00  0.00    -0.132 A  
HETATM    7  C   UNL     1      -6.846  11.552  67.565  1.00  0.00    -0.098 A  
HETATM    8  C   UNL     1      -6.659  12.651  68.404  1.00  0.00    -0.081 A  
BRANCH   6   9
HETATM    9  C   UNL     1      -5.473  14.781  69.022  1.00  0.00    -0.093 C  
BRANCH   9  10
HETATM   10  C   UNL     1      -6.438  14.942  70.220  1.00  0.00    -0.124 C  
HETATM   11  C   UNL     1      -7.865  15.231  69.738  1.00  0.00    -0.057 C  
BRANCH  10  12
HETATM   12  N   UNL     1      -6.499  13.730  71.061  1.00  0.00    -0.449 NA 
HETATM   13  H   UNL     1      -7.173  13.849  71.817  1.00  0.00     0.000 HD 
BRANCH  12  14
HETATM   14  C   UNL     1      -6.782  12.502  70.299  1.00  0.00     0.735 C  
BRANCH  14  15
HETATM   15  C   UNL     1      -6.604  11.204  71.121  1.00  0.00     1.571 C  
HETATM   16  H   UNL     1      -5.114  10.018  71.624  1.00  0.00     0.000 HD 
HETATM   17  O   UNL     1      -5.224  10.816  71.119  1.00  0.00    -0.094 OA 
BRANCH  15  18
HETATM   18  C   UNL     1      -7.504  10.063  70.695  1.00  0.00     0.173 A  
HETATM   19  C   UNL     1      -8.690  10.346  69.993  1.00  0.00     0.267 A  
HETATM   20  C   UNL     1      -9.562   9.324  69.603  1.00  0.00    -0.183 A  
HETATM   21  H   UNL     1      -9.803   6.048  69.813  1.00  0.00     0.000 HD 
HETATM   22  C   UNL     1      -9.219   8.000  69.907  1.00  0.00    -0.152 A  
HETATM   23  C   UNL     1      -7.179   8.727  70.967  1.00  0.00    -0.088 A  
HETATM   24  C   UNL     1      -8.034   7.699  70.574  1.00  0.00    -0.100 A  
HETATM   25  O   UNL     1     -10.036   6.946  69.607  1.00  0.00    -0.168 OA 
BRANCH  20  26
HETATM   26  N   UNL     1     -10.755   9.583  68.903  1.00  0.00    -0.296 N  
HETATM   27  H   UNL     1     -10.916   9.031  68.060  1.00  0.00     0.000 HD 
HETATM   28  O   UNL     1     -12.724  10.647  68.540  1.00  0.00     0.433 OA 
HETATM   29  C   UNL     1     -11.724  10.492  69.226  1.00  0.00    -0.209 C  
ENDBRANCH  20  26
ENDBRANCH  15  18
ENDBRANCH  14  15
ENDBRANCH  12  14
ENDBRANCH  10  12
ENDBRANCH   9  10
ENDBRANCH   6   9
ENDBRANCH   2   3
TORSDOF 8
ENDMDL
MODEL      433
REMARK 921   NORMALIZED FREE ENERGY PREDICTED BY IDOCK:    8.24 KCAL/MOL
REMARK 922        TOTAL FREE ENERGY PREDICTED BY IDOCK:   10.44 KCAL/MOL
REMARK 923 INTER-LIGAND FREE ENERGY PREDICTED BY IDOCK:    1.96 KCAL/MOL
REMARK 924 INTRA-LIGAND FREE ENERGY PREDICTED BY IDOCK:    8.48 KCAL/MOL
REMARK 927      BINDING AFFINITY PREDICTED BY RF-SCORE:    0.00 PKD
ROOT
HETATM    1  C   UNL     1      -9.306  11.772  66.313  1.00  0.00    -0.225 C  
HETATM    2  O   UNL     1      -8.305  12.778  66.234  1.00  0.00     0.254 OA 
ENDROOT
BRANCH   2   3
HETATM    3  C   UNL     1      -8.741  14.066  66.084  1.00  0.00     0.545 A  
HETATM    4  C   UNL     1      -7.945  15.210  66.111  1.00  0.00     1.169 A  
HETATM    5  C   UNL     1      -8.527  16.477  66.006  1.00  0.00    -0.206 A  
HETATM    6  C   UNL     1      -9.914  16.615  65.858  1.00  0.00    -0.320 A  
HETATM    7  C   UNL     1     -10.118  14.199  65.904  1.00  0.00    -0.337 A  
HETATM    8  C   UNL     1     -10.702  15.461  65.793  1.00  0.00    -0.360 A  
BRANCH   6   9
HETATM    9  C   UNL     1     -10.578  17.970  65.911  1.00  0.00    -0.225 C  
BRANCH   9  10
HETATM   10  C   UNL     1     -10.382  18.790  67.208  1.00  0.00    -0.416 C  
HETATM   11  C   UNL     1     -11.477  18.463  68.232  1.00  0.00     1.389 C  
BRANCH  10  12
HETATM   12  N   UNL     1      -9.084  18.517  67.857  1.00  0.00    -0.285 NA 
HETATM   13  H   UNL     1      -9.089  18.838  68.824  1.00  0.00     0.000 HD 
BRANCH  12  14
HETATM   14  C   UNL     1      -8.676  17.104  67.778  1.00  0.00    -0.220 C  
BRANCH  14  15
HETATM   15  C   UNL     1      -9.063  16.273  69.024  1.00  0.00    -0.255 C  
HETATM   16  H   UNL     1      -9.520  16.638  70.905  1.00  0.00     0.000 HD 
HETATM   17  O   UNL     1      -9.282  17.148  70.139  1.00  0.00     1.360 OA 
BRANCH  15  18
HETATM   18  C   UNL     1      -8.089  15.165  69.368  1.00  0.00    -0.200 A  
HETATM   19  C   UNL     1      -8.499  13.825  69.244  1.00  0.00     0.538 A  
HETATM   20  C   UNL     1      -7.639  12.772  69.575  1.00  0.00     0.733 A  
HETATM   21  H   UNL     1      -4.580  12.323  70.702  1.00  0.00     0.000 HD 
HETATM   22  C   UNL     1      -6.345  13.079  70.014  1.00  0.00     0.007 A  
HETATM   23  C   UNL     1      -6.782  15.439  69.791  1.00  0.00    -0.170 A  
HETATM   24  C   UNL     1      -5.913  14.398  70.113  1.00  0.00    -0.151 A  
HETATM   25  O   UNL     1      -5.458  12.114  70.404  1.00  0.00    -0.117 OA 
BRANCH  20  26
HETATM   26  N   UNL     1      -8.028  11.424  69.462  1.00  0.00    -0.315 N  
HETATM   27  H   UNL     1      -8.398  10.987  70.306  1.00  0.00     0.000 HD 
HETATM   28  O   UNL     1      -8.319   9.464  68.360  1.00  0.00    -0.116 OA 
HETATM   29  C   UNL     1      -7.964  10.634  68.349  1.00  0.00    -0.120 C  
ENDBRANCH  20  26
ENDBRANCH  15  18
ENDBRANCH  14  15
ENDBRANCH  12  14
ENDBRANCH  10  12
ENDBRANCH   9  10
ENDBRANCH   6   9
ENDBRANCH   2   3
TORSDOF 8
ENDMDL
MODEL      434
REMARK 921   NORMALIZED FREE ENERGY PREDICTED BY IDOCK:    8.53 KCAL/MOL
REMARK 922        TOTAL FREE ENERGY PREDICTED BY IDOCK:   10.85 KCAL/MOL
REMARK 923 INTER-LIGAND FREE ENERGY PREDICTED BY IDOCK:    6.14 KCAL/MOL
REMARK 924 INTRA-LIGAND FREE ENERGY PREDICTED BY IDOCK:    4.72 KCAL/MOL
REMARK 927      BINDING AFFINITY PREDICTED BY RF-SCORE:    0.00 PKD
ROOT
HETATM    1  C   UNL     1      -6.419   8.290  67.133  1.00  0.00    -0.058 C  
HETATM    2  O   UNL     1      -6.479   9.502  66.393  1.00  0.00    -0.068 OA 
ENDROOT
BRANCH   2   3
HETATM    3  C   UNL     1      -6.239  10.656  67.086  1.00  0.00    -0.062 A  
HETATM    4  C   UNL     1      -5.406  11.698  66.682  1.00  0.00    -0.099 A  
HETATM    5  C   UNL     1      -5.199  12.800  67.517  1.00  0.00    -0.072 A  
HETATM    6  C   UNL     1      -5.835  12.880  68.763  1.00  0.00    -0.069 A  
HETATM    7  C   UNL     1      -6.899  10.749  68.312  1.00  0.00    -0.067 A  
HETATM    8  C   UNL     1      -6.699  11.849  69.146  1.00  0.00    -0.105 A  
BRANCH   6   9
HETATM    9  C   UNL     1      -5.497  13.975  69.748  1.00  0.00    -0.097 C  
BRANCH   9  10
HETATM   10  C   UNL     1      -6.451  14.143  70.954  1.00  0.00     0.176 C  
HETATM   11  C   UNL     1      -7.882  14.434  70.485  1.00  0.00     1.610 C  
BRANCH  10  12
HETATM   12  N   UNL     1      -6.508  12.934  71.800  1.00  0.00     1.297 NA 
HETATM   13  H   UNL     1      -7.174  13.058  72.562  1.00  0.00     0.000 HD 
BRANCH  12  14
HETATM   14  C   UNL     1      -6.802  11.704  71.044  1.00  0.00     2.664 C  
BRANCH  14  15
HETATM   15  C   UNL     1      -6.619  10.408  71.869  1.00  0.00     1.738 C  
HETATM   16  H   UNL     1      -5.129   9.219  72.359  1.00  0.00     0.000 HD 
HETATM   17  O   UNL     1      -5.241  10.015  71.853  1.00  0.00    -0.086 OA 
BRANCH  15  18
HETATM   18  C   UNL     1      -7.529   9.269  71.457  1.00  0.00     0.154 A  
HETATM   19  C   UNL     1      -7.035   7.951  71.479  1.00  0.00    -0.060 A  
HETATM   20  C   UNL     1      -7.834   6.873  71.083  1.00  0.00    -0.100 A  
HETATM   21  H   UNL     1     -10.877   6.315  69.960  1.00  0.00     0.000 HD 
HETATM   22  C   UNL     1      -9.151   7.129  70.681  1.00  0.00    -0.158 A  
HETATM   23  C   UNL     1      -8.857   9.490  71.069  1.00  0.00     0.090 A  
HETATM   24  C   UNL     1      -9.665   8.423  70.682  1.00  0.00    -0.203 A  
HETATM   25  O   UNL     1      -9.983   6.141  70.232  1.00  0.00    -0.175 OA 
BRANCH  20  26
HETATM   26  N   UNL     1      -7.362   5.547  71.094  1.00  0.00    -0.082 N  
HETATM   27  H   UNL     1      -7.955   4.859  71.557  1.00  0.00     0.000 HD 
HETATM   28  O   UNL     1      -5.873   3.902  70.628  1.00  0.00    -0.013 OA 
HETATM   29  C   UNL     1      -6.197   5.079  70.554  1.00  0.00    -0.019 C  
ENDBRANCH  20  26
ENDBRANCH  15  18
ENDBRANCH  14  15
ENDBRANCH  12  14
ENDBRANCH  10  12
ENDBRANCH   9  10
ENDBRANCH   6   9
ENDBRANCH   2   3
TORSDOF 8
ENDMDL
MODEL      435
REMARK 921   NORMALIZED FREE ENERGY PREDICTED BY IDOCK:   12.25 KCAL/MOL
REMARK 922        TOTAL FREE ENERGY PREDICTED BY IDOCK:   16.33 KCAL/MOL
REMARK 923 INTER-LIGAND FREE ENERGY PREDICTED BY IDOCK:   15.79 KCAL/MOL
REMARK 924 INTRA-LIGAND FREE ENERGY PREDICTED BY IDOCK:    0.54 KCAL/MOL
REMARK 927      BINDING AFFINITY PREDICTED BY RF-SCORE:    0.00 PKD
ROOT
HETATM    1  C   UNL     1      -8.965   6.207  67.753  1.00  0.00    -0.115 C  
HETATM    2  O   UNL     1      -7.918   6.222  68.715  1.00  0.00    -0.100 OA 
ENDROOT
BRANCH   2   3
HETATM    3  C   UNL     1      -7.977   7.201  69.668  1.00  0.00    -0.124 A  
HETATM    4  C   UNL     1      -9.031   8.092  69.866  1.00  0.00    -0.143 A  
HETATM    5  C   UNL     1      -8.937   9.090  70.842  1.00  0.00    -0.300 A  
HETATM    6  C   UNL     1      -7.792   9.198  71.643  1.00  0.00     0.154 A  
HETATM    7  C   UNL     1      -6.850   7.287  70.486  1.00  0.00    -0.053 A  
HETATM    8  C   UNL     1      -6.755   8.277  71.465  1.00  0.00    -0.063 A  
BRANCH   6   9
HETATM    9  C   UNL     1      -7.601  10.365  72.583  1.00  0.00     6.119 C  
BRANCH   9  10
HETATM   10  C   UNL     1      -6.156  10.887  72.757  1.00  0.00     2.372 C  
HETATM   11  C   UNL     1      -5.134   9.802  72.395  1.00  0.00    -0.057 C  
BRANCH  10  12
HETATM   12  N   UNL     1      -5.872  12.056  71.900  1.00  0.00     0.214 NA 
HETATM   13  H   UNL     1      -5.913  11.799  70.914  1.00  0.00     0.000 HD 
BRANCH  12  14
HETATM   14  C   UNL     1      -6.743  13.210  72.176  1.00  0.00     4.389 C  
BRANCH  14  15
HETATM   15  C   UNL     1      -6.770  14.257  71.037  1.00  0.00     0.642 C  
HETATM   16  H   UNL     1      -6.561  16.208  70.877  1.00  0.00     0.000 HD 
HETATM   17  O   UNL     1      -6.544  15.565  71.577  1.00  0.00     1.239 OA 
BRANCH  15  18
HETATM   18  C   UNL     1      -8.016  14.216  70.176  1.00  0.00     1.298 A  
HETATM   19  C   UNL     1      -8.689  15.416  69.882  1.00  0.00     0.153 A  
HETATM   20  C   UNL     1      -9.858  15.420  69.112  1.00  0.00    -0.247 A  
HETATM   21  H   UNL     1     -11.820  13.279  67.563  1.00  0.00     0.000 HD 
HETATM   22  C   UNL     1     -10.337  14.200  68.617  1.00  0.00    -0.243 A  
HETATM   23  C   UNL     1      -8.510  13.014  69.650  1.00  0.00     1.801 A  
HETATM   24  C   UNL     1      -9.666  13.007  68.874  1.00  0.00     0.177 A  
HETATM   25  O   UNL     1     -11.496  14.107  67.899  1.00  0.00    -0.278 OA 
BRANCH  20  26
HETATM   26  N   UNL     1     -10.550  16.607  68.807  1.00  0.00    -0.318 N  
HETATM   27  H   UNL     1     -11.523  16.655  69.110  1.00  0.00     0.000 HD 
HETATM   28  O   UNL     1     -10.757  18.685  67.924  1.00  0.00    -0.383 OA 
HETATM   29  C   UNL     1     -10.065  17.703  68.150  1.00  0.00    -0.347 C  
ENDBRANCH  20  26
ENDBRANCH  15  18
ENDBRANCH  14  15
ENDBRANCH  12  14
ENDBRANCH  10  12
ENDBRANCH   9  10
ENDBRANCH   6   9
ENDBRANCH   2   3
TORSDOF 8
ENDMDL
MODEL      436
REMARK 921   NORMALIZED FREE ENERGY PREDICTED BY IDOCK:   31.86 KCAL/MOL
REMARK 922        TOTAL FREE ENERGY PREDICTED BY IDOCK:   45.10 KCAL/MOL
REMARK 923 INTER-LIGAND FREE ENERGY PREDICTED BY IDOCK:   44.25 KCAL/MOL
REMARK 924 INTRA-LIGAND FREE ENERGY PREDICTED BY IDOCK:    0.85 KCAL/MOL
REMARK 927      BINDING AFFINITY PREDICTED BY RF-SCORE:    0.00 PKD
ROOT
HETATM    1  C   UNL     1     -11.321  12.837  66.121  1.00  0.00    -0.328 C  
HETATM    2  O   UNL     1     -11.220  13.797  67.164  1.00  0.00    -0.295 OA 
ENDROOT
BRANCH   2   3
HETATM    3  C   UNL     1     -10.041  13.828  67.857  1.00  0.00    -0.246 A  
HETATM    4  C   UNL     1      -9.732  13.068  68.984  1.00  0.00     0.322 A  
HETATM    5  C   UNL     1      -8.507  13.240  69.637  1.00  0.00     1.661 A  
HETATM    6  C   UNL     1      -7.569  14.166  69.159  1.00  0.00    -0.003 A  
HETATM    7  C   UNL     1      -9.096  14.726  67.361  1.00  0.00    -0.202 A  
HETATM    8  C   UNL     1      -7.871  14.897  68.006  1.00  0.00    -0.131 A  
BRANCH   6   9
HETATM    9  C   UNL     1      -6.316  14.487  69.940  1.00  0.00    -0.157 C  
BRANCH   9  10
HETATM   10  C   UNL     1      -6.479  14.675  71.467  1.00  0.00     0.695 C  
HETATM   11  C   UNL     1      -5.165  14.373  72.199  1.00  0.00    -0.193 C  
BRANCH  10  12
HETATM   12  N   UNL     1      -6.870  16.053  71.827  1.00  0.00     3.528 NA 
HETATM   13  H   UNL     1      -7.226  16.552  71.013  1.00  0.00     0.000 HD 
BRANCH  12  14
HETATM   14  C   UNL     1      -7.833  16.116  72.940  1.00  0.00    14.324 C  
BRANCH  14  15
HETATM   15  C   UNL     1      -9.290  16.374  72.490  1.00  0.00    10.880 C  
HETATM   16  H   UNL     1     -10.877  15.285  72.076  1.00  0.00     0.000 HD 
HETATM   17  O   UNL     1      -9.982  15.127  72.353  1.00  0.00     2.397 OA 
BRANCH  15  18
HETATM   18  C   UNL     1      -9.420  17.224  71.242  1.00  0.00     6.437 A  
HETATM   19  C   UNL     1      -8.362  17.251  70.314  1.00  0.00     3.005 A  
HETATM   20  C   UNL     1      -8.431  18.042  69.161  1.00  0.00     0.123 A  
HETATM   21  H   UNL     1     -10.508  20.141  67.710  1.00  0.00     0.000 HD 
HETATM   22  C   UNL     1      -9.591  18.795  68.936  1.00  0.00    -0.322 A  
HETATM   23  C   UNL     1     -10.574  17.973  70.978  1.00  0.00     2.506 A  
HETATM   24  C   UNL     1     -10.659  18.756  69.829  1.00  0.00     1.245 A  
HETATM   25  O   UNL     1      -9.722  19.630  67.863  1.00  0.00    -0.337 OA 
BRANCH  20  26
HETATM   26  N   UNL     1      -7.386  18.087  68.221  1.00  0.00    -0.249 N  
HETATM   27  H   UNL     1      -6.443  18.188  68.595  1.00  0.00     0.000 HD 
HETATM   28  O   UNL     1      -6.516  18.072  66.127  1.00  0.00    -0.199 OA 
HETATM   29  C   UNL     1      -7.493  18.011  66.860  1.00  0.00    -0.210 C  
ENDBRANCH  20  26
ENDBRANCH  15  18
ENDBRANCH  14  15
ENDBRANCH  12  14
ENDBRANCH  10  12
ENDBRANCH   9  10
ENDBRANCH   6   9
ENDBRANCH   2   3
TORSDOF 8
ENDMDL
