MODEL        1
REMARK 921   NORMALIZED FREE ENERGY PREDICTED BY IDOCK:   -8.80 KCAL/MOL
REMARK 922        TOTAL FREE ENERGY PREDICTED BY IDOCK:  -14.17 KCAL/MOL
REMARK 923 INTER-LIGAND FREE ENERGY PREDICTED BY IDOCK:  -12.92 KCAL/MOL
REMARK 924 INTRA-LIGAND FREE ENERGY PREDICTED BY IDOCK:   -1.25 KCAL/MOL
REMARK 927      BINDING AFFINITY PREDICTED BY RF-SCORE:    0.00 PKD
ROOT
HETATM    1  C   UNL     1      -6.148  19.475  70.166  1.00  0.00    -0.285 C  
HETATM    2  C   UNL     1      -6.931  19.025  68.940  1.00  0.00    -0.357 C  
HETATM    3  C   UNL     1      -8.411  19.408  69.037  1.00  0.00    -0.248 C  
HETATM    4  C   UNL     1      -9.193  18.911  67.821  1.00  0.00    -0.293 C  
HETATM    5  N   UNL     1      -8.962  17.471  67.521  1.00  0.00    -0.229 N  
HETATM    6  C   UNL     1      -7.540  17.064  67.470  1.00  0.00    -0.165 C  
HETATM    7  C   UNL     1     -10.036  16.595  67.728  1.00  0.00    -0.262 C  
HETATM    8  O   UNL     1     -11.094  17.059  68.173  1.00  0.00    -0.334 OA 
HETATM    9  O   UNL     1      -7.423  18.239  65.366  1.00  0.00    -0.502 OA 
HETATM   10  C   UNL     1      -6.818  17.505  68.749  1.00  0.00    -0.233 C  
HETATM   11  C   UNL     1      -6.729  17.529  66.257  1.00  0.00    -0.274 C  
HETATM   12  O   UNL     1      -5.543  17.286  66.100  1.00  0.00    -0.273 OA 
ENDROOT
BRANCH   7  13
HETATM   13  C   UNL     1     -10.038  15.077  67.324  1.00  0.00    -0.235 C  
BRANCH  13  14
HETATM   14  C   UNL     1     -10.010  14.687  65.823  1.00  0.00    -0.365 C  
BRANCH  14  15
HETATM   15  C   UNL     1     -11.201  15.265  65.031  1.00  0.00    -0.409 C  
BRANCH  15  16
HETATM   16  C   UNL     1     -11.927  14.234  64.155  1.00  0.00    -0.373 C  
BRANCH  16  17
HETATM   17  N   UNL     1     -11.121  13.028  64.099  1.00  0.00    -0.383 NA 
HETATM   18  H2  UNL     1      -9.547  11.161  63.931  1.00  0.00     0.000 HD 
HETATM   19  H1  UNL     1     -10.737  10.104  63.079  1.00  0.00     0.000 HD 
HETATM   20  N   UNL     1     -12.600  11.545  62.986  1.00  0.00    -0.904 NA 
HETATM   21  N   UNL     1     -10.466  10.981  63.526  1.00  0.00    -0.349 NA 
HETATM   22  C   UNL     1     -11.479  11.868  63.509  1.00  0.00    -0.430 C  
HETATM   23  H   UNL     1     -10.204  13.061  64.546  1.00  0.00     0.000 HD 
HETATM   24  H1  UNL     1     -12.871  10.668  62.539  1.00  0.00     0.000 HD 
HETATM   25  H2  UNL     1     -13.324  12.262  63.018  1.00  0.00     0.000 HD 
ENDBRANCH  16  17
ENDBRANCH  15  16
ENDBRANCH  14  15
ENDBRANCH  13  14
BRANCH  13  26
HETATM   26  N   UNL     1     -11.119  14.296  67.987  1.00  0.00    -0.261 N  
HETATM   27  H   UNL     1     -11.939  14.765  68.370  1.00  0.00     0.000 HD 
BRANCH  26  28
HETATM   28  S   UNL     1     -10.958  12.600  68.094  1.00  0.00    -0.251 S  
HETATM   29  O   UNL     1      -9.562  12.292  68.266  1.00  0.00    -0.211 OA 
HETATM   30  O   UNL     1     -11.687  12.080  66.955  1.00  0.00    -0.518 OA 
BRANCH  28  31
HETATM   31  C   UNL     1     -11.860  12.222  69.574  1.00  0.00    -0.315 A  
HETATM   32  C   UNL     1     -13.364  13.831  72.697  1.00  0.00    -0.618 C  
HETATM   33  C   UNL     1     -12.133  10.868  69.826  1.00  0.00    -0.409 A  
HETATM   34  C   UNL     1     -13.177  16.216  73.489  1.00  0.00    -0.526 C  
HETATM   35  C   UNL     1     -12.825  10.494  70.974  1.00  0.00    -0.502 A  
HETATM   36  C   UNL     1     -12.592  15.148  72.569  1.00  0.00    -0.439 C  
HETATM   37  C   UNL     1     -12.627  15.576  71.108  1.00  0.00    -0.448 C  
HETATM   38  H   UNL     1     -11.297  14.867  69.548  1.00  0.00     0.000 HD 
HETATM   39  N   UNL     1     -11.965  14.584  70.265  1.00  0.00    -0.294 NA 
HETATM   40  C   UNL     1     -13.246  11.470  71.870  1.00  0.00    -0.479 A  
HETATM   41  C   UNL     1     -12.276  13.230  70.468  1.00  0.00    -0.340 A  
HETATM   42  C   UNL     1     -12.968  12.829  71.635  1.00  0.00    -0.402 A  
ENDBRANCH  28  31
ENDBRANCH  26  28
ENDBRANCH  13  26
ENDBRANCH   7  13
TORSDOF 8
ENDMDL
MODEL        2
REMARK 921   NORMALIZED FREE ENERGY PREDICTED BY IDOCK:   -8.55 KCAL/MOL
REMARK 922        TOTAL FREE ENERGY PREDICTED BY IDOCK:  -13.79 KCAL/MOL
REMARK 923 INTER-LIGAND FREE ENERGY PREDICTED BY IDOCK:  -12.34 KCAL/MOL
REMARK 924 INTRA-LIGAND FREE ENERGY PREDICTED BY IDOCK:   -1.45 KCAL/MOL
REMARK 927      BINDING AFFINITY PREDICTED BY RF-SCORE:    0.00 PKD
ROOT
HETATM    1  C   UNL     1      -5.637  19.217  70.077  1.00  0.00    -0.260 C  
HETATM    2  C   UNL     1      -6.417  19.044  68.781  1.00  0.00    -0.281 C  
HETATM    3  C   UNL     1      -7.797  19.704  68.854  1.00  0.00    -0.299 C  
HETATM    4  C   UNL     1      -8.586  19.483  67.563  1.00  0.00    -0.307 C  
HETATM    5  N   UNL     1      -8.622  18.058  67.132  1.00  0.00    -0.235 N  
HETATM    6  C   UNL     1      -7.307  17.382  67.100  1.00  0.00    -0.172 C  
HETATM    7  C   UNL     1      -9.857  17.400  67.207  1.00  0.00    -0.278 C  
HETATM    8  O   UNL     1     -10.830  18.025  67.652  1.00  0.00    -0.390 OA 
HETATM    9  O   UNL     1      -6.837  18.693  65.129  1.00  0.00    -0.522 OA 
HETATM   10  C   UNL     1      -6.591  17.555  68.445  1.00  0.00    -0.190 C  
HETATM   11  C   UNL     1      -6.349  17.782  65.973  1.00  0.00    -0.234 C  
HETATM   12  O   UNL     1      -5.226  17.322  65.843  1.00  0.00    -0.324 OA 
ENDROOT
BRANCH   7  13
HETATM   13  C   UNL     1     -10.131  15.955  66.655  1.00  0.00    -0.279 C  
BRANCH  13  14
HETATM   14  C   UNL     1     -10.294  15.740  65.127  1.00  0.00    -0.331 C  
BRANCH  14  15
HETATM   15  C   UNL     1     -11.768  15.774  64.672  1.00  0.00    -0.147 C  
BRANCH  15  16
HETATM   16  C   UNL     1     -12.326  14.403  64.261  1.00  0.00    -0.373 C  
BRANCH  16  17
HETATM   17  N   UNL     1     -11.213  13.491  64.074  1.00  0.00    -0.576 NA 
HETATM   18  H2  UNL     1      -9.190  12.175  63.665  1.00  0.00     0.000 HD 
HETATM   19  H1  UNL     1     -10.107  10.812  62.918  1.00  0.00     0.000 HD 
HETATM   20  N   UNL     1     -12.310  11.634  63.085  1.00  0.00    -0.966 NA 
HETATM   21  N   UNL     1     -10.056  11.730  63.360  1.00  0.00    -0.424 NA 
HETATM   22  C   UNL     1     -11.280  12.276  63.489  1.00  0.00    -0.460 C  
HETATM   23  H   UNL     1     -10.300  13.795  64.414  1.00  0.00     0.000 HD 
HETATM   24  H1  UNL     1     -12.361  10.716  62.643  1.00  0.00     0.000 HD 
HETATM   25  H2  UNL     1     -13.204  12.104  63.225  1.00  0.00     0.000 HD 
ENDBRANCH  16  17
ENDBRANCH  15  16
ENDBRANCH  14  15
ENDBRANCH  13  14
BRANCH  13  26
HETATM   26  N   UNL     1     -11.258  15.268  67.344  1.00  0.00    -0.328 N  
HETATM   27  H   UNL     1     -12.161  15.730  67.450  1.00  0.00     0.000 HD 
BRANCH  26  28
HETATM   28  S   UNL     1     -11.009  13.693  67.954  1.00  0.00    -0.267 S  
HETATM   29  O   UNL     1      -9.596  13.510  68.159  1.00  0.00    -0.205 OA 
HETATM   30  O   UNL     1     -11.736  12.821  67.055  1.00  0.00    -0.342 OA 
BRANCH  28  31
HETATM   31  C   UNL     1     -11.856  13.747  69.512  1.00  0.00    -0.339 A  
HETATM   32  C   UNL     1     -13.202  11.512  72.305  1.00  0.00    -0.097 C  
HETATM   33  C   UNL     1     -12.283  15.006  69.963  1.00  0.00    -0.373 A  
HETATM   34  C   UNL     1     -13.307   8.997  72.401  1.00  0.00    -0.516 C  
HETATM   35  C   UNL     1     -12.965  15.124  71.169  1.00  0.00    -0.488 A  
HETATM   36  C   UNL     1     -13.142  10.213  71.495  1.00  0.00    -0.529 C  
HETATM   37  C   UNL     1     -11.817  10.187  70.744  1.00  0.00    -0.351 C  
HETATM   38  H   UNL     1     -11.416  11.162  68.848  1.00  0.00     0.000 HD 
HETATM   39  N   UNL     1     -11.733  11.304  69.807  1.00  0.00    -0.317 NA 
HETATM   40  C   UNL     1     -13.220  13.988  71.929  1.00  0.00    -0.477 A  
HETATM   41  C   UNL     1     -12.102  12.579  70.264  1.00  0.00    -0.294 A  
HETATM   42  C   UNL     1     -12.807  12.719  71.483  1.00  0.00    -0.369 A  
ENDBRANCH  28  31
ENDBRANCH  26  28
ENDBRANCH  13  26
ENDBRANCH   7  13
TORSDOF 8
ENDMDL
MODEL        3
REMARK 921   NORMALIZED FREE ENERGY PREDICTED BY IDOCK:   -8.50 KCAL/MOL
REMARK 922        TOTAL FREE ENERGY PREDICTED BY IDOCK:  -13.72 KCAL/MOL
REMARK 923 INTER-LIGAND FREE ENERGY PREDICTED BY IDOCK:  -12.45 KCAL/MOL
REMARK 924 INTRA-LIGAND FREE ENERGY PREDICTED BY IDOCK:   -1.27 KCAL/MOL
REMARK 927      BINDING AFFINITY PREDICTED BY RF-SCORE:    0.00 PKD
ROOT
HETATM    1  C   UNL     1     -10.371  20.097  69.088  1.00  0.00    -0.078 C  
HETATM    2  C   UNL     1      -9.808  18.983  68.216  1.00  0.00    -0.440 C  
HETATM    3  C   UNL     1     -10.106  19.217  66.731  1.00  0.00    -0.480 C  
HETATM    4  C   UNL     1      -9.574  18.069  65.872  1.00  0.00     0.076 C  
HETATM    5  N   UNL     1      -9.986  16.726  66.364  1.00  0.00    -0.289 N  
HETATM    6  C   UNL     1      -9.755  16.491  67.806  1.00  0.00    -0.235 C  
HETATM    7  C   UNL     1     -10.892  16.006  65.574  1.00  0.00    -0.292 C  
HETATM    8  O   UNL     1     -11.317  16.537  64.538  1.00  0.00    -0.763 OA 
HETATM    9  O   UNL     1      -7.409  16.343  67.264  1.00  0.00    -0.142 OA 
HETATM   10  C   UNL     1     -10.382  17.621  68.632  1.00  0.00    -0.359 C  
HETATM   11  C   UNL     1      -8.303  16.298  68.254  1.00  0.00    -0.185 C  
HETATM   12  O   UNL     1      -7.968  16.121  69.414  1.00  0.00    -0.227 OA 
ENDROOT
BRANCH   7  13
HETATM   13  C   UNL     1     -11.323  14.520  65.841  1.00  0.00    -0.341 C  
BRANCH  13  14
HETATM   14  C   UNL     1     -12.571  13.945  65.120  1.00  0.00    -0.466 C  
BRANCH  14  15
HETATM   15  C   UNL     1     -12.241  13.351  63.735  1.00  0.00    -0.482 C  
BRANCH  15  16
HETATM   16  C   UNL     1     -12.169  11.816  63.716  1.00  0.00    -0.343 C  
BRANCH  16  17
HETATM   17  N   UNL     1     -11.006  11.421  62.943  1.00  0.00    -0.756 NA 
HETATM   18  H2  UNL     1      -9.204  10.549  61.535  1.00  0.00     0.000 HD 
HETATM   19  H1  UNL     1      -7.970  10.706  62.843  1.00  0.00     0.000 HD 
HETATM   20  N   UNL     1      -9.295  11.593  64.578  1.00  0.00    -0.424 NA 
HETATM   21  N   UNL     1      -8.920  10.800  62.482  1.00  0.00    -0.281 NA 
HETATM   22  C   UNL     1      -9.749  11.298  63.420  1.00  0.00    -0.360 C  
HETATM   23  H   UNL     1     -11.151  11.219  61.953  1.00  0.00     0.000 HD 
HETATM   24  H1  UNL     1      -8.345  11.500  64.939  1.00  0.00     0.000 HD 
HETATM   25  H2  UNL     1      -9.978  11.975  65.233  1.00  0.00     0.000 HD 
ENDBRANCH  16  17
ENDBRANCH  15  16
ENDBRANCH  14  15
ENDBRANCH  13  14
BRANCH  13  26
HETATM   26  N   UNL     1     -11.431  14.192  67.289  1.00  0.00    -0.331 N  
HETATM   27  H   UNL     1     -11.993  14.771  67.913  1.00  0.00     0.000 HD 
BRANCH  26  28
HETATM   28  S   UNL     1     -10.594  12.829  67.887  1.00  0.00    -0.227 S  
HETATM   29  O   UNL     1      -9.283  13.254  68.303  1.00  0.00    -0.206 OA 
HETATM   30  O   UNL     1     -10.744  11.816  66.862  1.00  0.00    -0.229 OA 
BRANCH  28  31
HETATM   31  C   UNL     1     -11.569  12.369  69.296  1.00  0.00    -0.319 A  
HETATM   32  C   UNL     1     -13.194  13.793  72.449  1.00  0.00    -0.580 C  
HETATM   33  C   UNL     1     -11.873  11.006  69.444  1.00  0.00    -0.407 A  
HETATM   34  C   UNL     1     -13.010  16.116  73.407  1.00  0.00    -0.611 C  
HETATM   35  C   UNL     1     -12.623  10.570  70.531  1.00  0.00    -0.423 A  
HETATM   36  C   UNL     1     -12.398  15.102  72.445  1.00  0.00    -0.447 C  
HETATM   37  C   UNL     1     -12.359  15.626  71.016  1.00  0.00    -0.428 C  
HETATM   38  H   UNL     1     -10.968  15.000  69.473  1.00  0.00     0.000 HD 
HETATM   39  N   UNL     1     -11.673  14.682  70.139  1.00  0.00    -0.282 NA 
HETATM   40  C   UNL     1     -13.071  11.491  71.471  1.00  0.00    -0.429 A  
HETATM   41  C   UNL     1     -12.012  13.323  70.236  1.00  0.00    -0.300 A  
HETATM   42  C   UNL     1     -12.763  12.857  71.341  1.00  0.00    -0.366 A  
ENDBRANCH  28  31
ENDBRANCH  26  28
ENDBRANCH  13  26
ENDBRANCH   7  13
TORSDOF 8
ENDMDL
MODEL        4
REMARK 921   NORMALIZED FREE ENERGY PREDICTED BY IDOCK:   -8.41 KCAL/MOL
REMARK 922        TOTAL FREE ENERGY PREDICTED BY IDOCK:  -13.60 KCAL/MOL
REMARK 923 INTER-LIGAND FREE ENERGY PREDICTED BY IDOCK:  -12.30 KCAL/MOL
REMARK 924 INTRA-LIGAND FREE ENERGY PREDICTED BY IDOCK:   -1.30 KCAL/MOL
REMARK 927      BINDING AFFINITY PREDICTED BY RF-SCORE:    0.00 PKD
ROOT
HETATM    1  C   UNL     1     -10.191  20.000  69.232  1.00  0.00    -0.175 C  
HETATM    2  C   UNL     1      -9.678  18.921  68.289  1.00  0.00    -0.412 C  
HETATM    3  C   UNL     1      -9.858  19.315  66.819  1.00  0.00    -0.430 C  
HETATM    4  C   UNL     1      -9.380  18.203  65.885  1.00  0.00     0.161 C  
HETATM    5  N   UNL     1      -9.943  16.867  66.223  1.00  0.00    -0.296 N  
HETATM    6  C   UNL     1      -9.826  16.482  67.647  1.00  0.00    -0.247 C  
HETATM    7  C   UNL     1     -10.859  16.312  65.320  1.00  0.00    -0.297 C  
HETATM    8  O   UNL     1     -11.168  16.972  64.318  1.00  0.00    -1.186 OA 
HETATM    9  O   UNL     1      -7.473  16.158  67.221  1.00  0.00    -0.148 OA 
HETATM   10  C   UNL     1     -10.398  17.588  68.542  1.00  0.00    -0.380 C  
HETATM   11  C   UNL     1      -8.428  16.110  68.152  1.00  0.00    -0.175 C  
HETATM   12  O   UNL     1      -8.185  15.798  69.307  1.00  0.00    -0.228 OA 
ENDROOT
BRANCH   7  13
HETATM   13  C   UNL     1     -11.439  14.856  65.420  1.00  0.00    -0.320 C  
BRANCH  13  14
HETATM   14  C   UNL     1     -12.567  14.416  64.450  1.00  0.00    -0.196 C  
BRANCH  14  15
HETATM   15  C   UNL     1     -12.055  13.515  63.307  1.00  0.00    -0.223 C  
BRANCH  15  16
HETATM   16  C   UNL     1     -12.343  12.020  63.513  1.00  0.00    -0.551 C  
BRANCH  16  17
HETATM   17  N   UNL     1     -11.233  11.260  62.967  1.00  0.00    -0.835 NA 
HETATM   18  H2  UNL     1      -9.550   9.778  61.986  1.00  0.00     0.000 HD 
HETATM   19  H1  UNL     1      -8.361  10.089  63.308  1.00  0.00     0.000 HD 
HETATM   20  N   UNL     1      -9.585  11.600  64.640  1.00  0.00    -0.397 NA 
HETATM   21  N   UNL     1      -9.266  10.227  62.857  1.00  0.00    -0.272 NA 
HETATM   22  C   UNL     1     -10.036  11.078  63.563  1.00  0.00    -0.370 C  
HETATM   23  H   UNL     1     -11.371  10.825  62.054  1.00  0.00     0.000 HD 
HETATM   24  H1  UNL     1      -8.680  11.462  65.090  1.00  0.00     0.000 HD 
HETATM   25  H2  UNL     1     -10.219  12.242  65.115  1.00  0.00     0.000 HD 
ENDBRANCH  16  17
ENDBRANCH  15  16
ENDBRANCH  14  15
ENDBRANCH  13  14
BRANCH  13  26
HETATM   26  N   UNL     1     -11.841  14.479  66.803  1.00  0.00    -0.392 N  
HETATM   27  H   UNL     1     -12.459  15.081  67.347  1.00  0.00     0.000 HD 
BRANCH  26  28
HETATM   28  S   UNL     1     -11.249  13.019  67.461  1.00  0.00    -0.300 S  
HETATM   29  O   UNL     1      -9.811  13.087  67.480  1.00  0.00    -0.203 OA 
HETATM   30  O   UNL     1     -11.922  11.972  66.720  1.00  0.00    -0.616 OA 
BRANCH  28  31
HETATM   31  C   UNL     1     -11.890  13.056  69.114  1.00  0.00    -0.310 A  
HETATM   32  C   UNL     1     -12.834  10.795  72.048  1.00  0.00    -0.357 C  
HETATM   33  C   UNL     1     -12.275  14.308  69.621  1.00  0.00    -0.371 A  
HETATM   34  C   UNL     1     -12.887   8.278  72.146  1.00  0.00    -0.348 C  
HETATM   35  C   UNL     1     -12.798  14.413  70.906  1.00  0.00    -0.419 A  
HETATM   36  C   UNL     1     -12.857   9.499  71.231  1.00  0.00    -0.414 C  
HETATM   37  C   UNL     1     -11.640   9.495  70.317  1.00  0.00    -0.169 C  
HETATM   38  H   UNL     1     -11.500  10.480  68.389  1.00  0.00     0.000 HD 
HETATM   39  N   UNL     1     -11.694  10.615  69.381  1.00  0.00    -0.281 NA 
HETATM   40  C   UNL     1     -12.936  13.271  71.687  1.00  0.00    -0.441 A  
HETATM   41  C   UNL     1     -12.021  11.883  69.887  1.00  0.00    -0.325 A  
HETATM   42  C   UNL     1     -12.565  12.010  71.187  1.00  0.00    -0.372 A  
ENDBRANCH  28  31
ENDBRANCH  26  28
ENDBRANCH  13  26
ENDBRANCH   7  13
TORSDOF 8
ENDMDL
MODEL        5
REMARK 921   NORMALIZED FREE ENERGY PREDICTED BY IDOCK:   -8.31 KCAL/MOL
REMARK 922        TOTAL FREE ENERGY PREDICTED BY IDOCK:  -13.44 KCAL/MOL
REMARK 923 INTER-LIGAND FREE ENERGY PREDICTED BY IDOCK:  -11.51 KCAL/MOL
REMARK 924 INTRA-LIGAND FREE ENERGY PREDICTED BY IDOCK:   -1.93 KCAL/MOL
REMARK 927      BINDING AFFINITY PREDICTED BY RF-SCORE:    0.00 PKD
ROOT
HETATM    1  C   UNL     1     -10.599   7.946  67.010  1.00  0.00    -0.381 C  
HETATM    2  C   UNL     1     -10.035   9.235  66.428  1.00  0.00    -0.356 C  
HETATM    3  C   UNL     1      -8.576   9.455  66.839  1.00  0.00    -0.132 C  
HETATM    4  C   UNL     1      -8.037  10.774  66.286  1.00  0.00    -0.159 C  
HETATM    5  N   UNL     1      -8.924  11.937  66.567  1.00  0.00    -0.203 N  
HETATM    6  C   UNL     1     -10.349  11.733  66.225  1.00  0.00    -0.224 C  
HETATM    7  C   UNL     1      -8.450  12.898  67.470  1.00  0.00    -0.186 C  
HETATM    8  O   UNL     1      -7.346  12.711  68.000  1.00  0.00    -0.091 OA 
HETATM    9  O   UNL     1      -9.676  11.917  63.915  1.00  0.00    -0.249 OA 
HETATM   10  C   UNL     1     -10.869  10.446  66.875  1.00  0.00    -0.229 C  
HETATM   11  C   UNL     1     -10.709  11.718  64.736  1.00  0.00    -0.302 C  
HETATM   12  O   UNL     1     -11.839  11.535  64.313  1.00  0.00    -0.184 OA 
ENDROOT
BRANCH   7  13
HETATM   13  C   UNL     1      -9.164  14.263  67.775  1.00  0.00    -0.194 C  
BRANCH  13  14
HETATM   14  C   UNL     1      -8.318  15.559  67.885  1.00  0.00    -0.148 C  
BRANCH  14  15
HETATM   15  C   UNL     1      -8.450  16.467  66.645  1.00  0.00    -0.306 C  
BRANCH  15  16
HETATM   16  C   UNL     1      -9.836  16.425  65.985  1.00  0.00    -0.335 C  
BRANCH  16  17
HETATM   17  N   UNL     1     -10.240  17.785  65.679  1.00  0.00    -0.600 NA 
HETATM   18  H2  UNL     1     -10.725  20.075  64.963  1.00  0.00     0.000 HD 
HETATM   19  H1  UNL     1     -10.844  20.687  66.657  1.00  0.00     0.000 HD 
HETATM   20  N   UNL     1     -10.432  18.702  67.859  1.00  0.00    -0.396 NA 
HETATM   21  N   UNL     1     -10.692  19.944  65.974  1.00  0.00    -0.413 NA 
HETATM   22  C   UNL     1     -10.442  18.768  66.583  1.00  0.00    -0.426 C  
HETATM   23  H   UNL     1     -10.384  18.018  64.696  1.00  0.00     0.000 HD 
HETATM   24  H1  UNL     1     -10.585  19.445  68.542  1.00  0.00     0.000 HD 
HETATM   25  H2  UNL     1     -10.247  17.778  68.250  1.00  0.00     0.000 HD 
ENDBRANCH  16  17
ENDBRANCH  15  16
ENDBRANCH  14  15
ENDBRANCH  13  14
BRANCH  13  26
HETATM   26  N   UNL     1     -10.073  14.199  68.953  1.00  0.00    -0.358 N  
HETATM   27  H   UNL     1      -9.760  13.778  69.828  1.00  0.00     0.000 HD 
BRANCH  26  28
HETATM   28  S   UNL     1     -11.647  14.844  68.812  1.00  0.00    -0.331 S  
HETATM   29  O   UNL     1     -12.253  14.292  67.628  1.00  0.00    -0.337 OA 
HETATM   30  O   UNL     1     -11.481  16.277  68.948  1.00  0.00    -0.340 OA 
BRANCH  28  31
HETATM   31  C   UNL     1     -12.450  14.218  70.264  1.00  0.00    -0.361 A  
HETATM   32  C   UNL     1     -13.165  10.984  72.172  1.00  0.00    -0.316 C  
HETATM   33  C   UNL     1     -13.157  15.141  71.051  1.00  0.00    -0.513 A  
HETATM   34  C   UNL     1     -12.661   8.609  71.496  1.00  0.00    -0.351 C  
HETATM   35  C   UNL     1     -13.822  14.720  72.197  1.00  0.00    -0.578 A  
HETATM   36  C   UNL     1     -12.811  10.048  71.011  1.00  0.00    -0.455 C  
HETATM   37  C   UNL     1     -11.535  10.565  70.361  1.00  0.00    -0.341 C  
HETATM   38  H   UNL     1     -11.417  12.140  68.874  1.00  0.00     0.000 HD 
HETATM   39  N   UNL     1     -11.740  11.902  69.812  1.00  0.00    -0.327 NA 
HETATM   40  C   UNL     1     -13.782  13.380  72.562  1.00  0.00    -0.636 A  
HETATM   41  C   UNL     1     -12.394  12.852  70.613  1.00  0.00    -0.302 A  
HETATM   42  C   UNL     1     -13.086  12.442  71.777  1.00  0.00    -0.446 A  
ENDBRANCH  28  31
ENDBRANCH  26  28
ENDBRANCH  13  26
ENDBRANCH   7  13
TORSDOF 8
ENDMDL
MODEL        6
REMARK 921   NORMALIZED FREE ENERGY PREDICTED BY IDOCK:   -8.29 KCAL/MOL
REMARK 922        TOTAL FREE ENERGY PREDICTED BY IDOCK:  -13.42 KCAL/MOL
REMARK 923 INTER-LIGAND FREE ENERGY PREDICTED BY IDOCK:  -11.04 KCAL/MOL
REMARK 924 INTRA-LIGAND FREE ENERGY PREDICTED BY IDOCK:   -2.38 KCAL/MOL
REMARK 927      BINDING AFFINITY PREDICTED BY RF-SCORE:    0.00 PKD
ROOT
HETATM    1  C   UNL     1     -11.259  16.173  70.531  1.00  0.00    -0.381 C  
HETATM    2  C   UNL     1     -10.928  15.540  69.187  1.00  0.00    -0.259 C  
HETATM    3  C   UNL     1     -12.156  14.882  68.549  1.00  0.00    -0.193 C  
HETATM    4  C   UNL     1     -11.799  14.212  67.222  1.00  0.00    -0.419 C  
HETATM    5  N   UNL     1     -10.615  13.314  67.315  1.00  0.00    -0.247 N  
HETATM    6  C   UNL     1      -9.430  13.910  67.972  1.00  0.00    -0.208 C  
HETATM    7  C   UNL     1     -10.844  11.939  67.178  1.00  0.00    -0.255 C  
HETATM    8  O   UNL     1     -12.010  11.551  67.019  1.00  0.00    -0.556 OA 
HETATM    9  O   UNL     1      -9.152  15.221  65.965  1.00  0.00    -0.310 OA 
HETATM   10  C   UNL     1      -9.818  14.489  69.337  1.00  0.00     0.061 C  
HETATM   11  C   UNL     1      -8.661  14.973  67.181  1.00  0.00    -0.220 C  
HETATM   12  O   UNL     1      -7.682  15.563  67.611  1.00  0.00    -0.133 OA 
ENDROOT
BRANCH   7  13
HETATM   13  C   UNL     1      -9.713  10.852  67.090  1.00  0.00    -0.174 C  
BRANCH  13  14
HETATM   14  C   UNL     1      -8.919  10.682  65.768  1.00  0.00    -0.200 C  
BRANCH  14  15
HETATM   15  C   UNL     1      -9.683   9.857  64.713  1.00  0.00    -0.305 C  
BRANCH  15  16
HETATM   16  C   UNL     1      -9.884  10.586  63.376  1.00  0.00    -0.264 C  
BRANCH  16  17
HETATM   17  N   UNL     1     -11.136  11.317  63.435  1.00  0.00    -0.776 NA 
HETATM   18  H2  UNL     1     -13.321  12.413  63.301  1.00  0.00     0.000 HD 
HETATM   19  H1  UNL     1     -12.643  14.037  63.700  1.00  0.00     0.000 HD 
HETATM   20  N   UNL     1     -10.364  13.498  63.962  1.00  0.00    -0.691 NA 
HETATM   21  N   UNL     1     -12.547  13.035  63.533  1.00  0.00    -0.734 NA 
HETATM   22  C   UNL     1     -11.264  12.643  63.657  1.00  0.00    -0.466 C  
HETATM   23  H   UNL     1     -11.995  10.783  63.297  1.00  0.00     0.000 HD 
HETATM   24  H1  UNL     1     -10.460  14.500  64.130  1.00  0.00     0.000 HD 
HETATM   25  H2  UNL     1      -9.418  13.127  64.049  1.00  0.00     0.000 HD 
ENDBRANCH  16  17
ENDBRANCH  15  16
ENDBRANCH  14  15
ENDBRANCH  13  14
BRANCH  13  26
HETATM   26  N   UNL     1     -10.159   9.504  67.541  1.00  0.00    -0.190 N  
HETATM   27  H   UNL     1     -10.898   9.008  67.044  1.00  0.00     0.000 HD 
BRANCH  26  28
HETATM   28  S   UNL     1      -9.410   8.807  68.907  1.00  0.00    -0.145 S  
HETATM   29  O   UNL     1      -8.506   9.777  69.467  1.00  0.00    -0.139 OA 
HETATM   30  O   UNL     1      -8.915   7.524  68.452  1.00  0.00    -0.129 OA 
BRANCH  28  31
HETATM   31  C   UNL     1     -10.780   8.539  70.001  1.00  0.00    -0.232 A  
HETATM   32  C   UNL     1     -13.449  10.387  72.020  1.00  0.00    -0.360 C  
HETATM   33  C   UNL     1     -11.048   7.213  70.377  1.00  0.00    -0.309 A  
HETATM   34  C   UNL     1     -13.719  12.866  72.382  1.00  0.00    -0.530 C  
HETATM   35  C   UNL     1     -12.099   6.927  71.242  1.00  0.00    -0.419 A  
HETATM   36  C   UNL     1     -12.767  11.756  71.946  1.00  0.00    -0.215 C  
HETATM   37  C   UNL     1     -12.271  11.960  70.520  1.00  0.00    -0.336 C  
HETATM   38  H   UNL     1     -10.409  11.202  69.705  1.00  0.00     0.000 HD 
HETATM   39  N   UNL     1     -11.281  10.946  70.168  1.00  0.00    -0.274 NA 
HETATM   40  C   UNL     1     -12.885   7.963  71.732  1.00  0.00    -0.351 A  
HETATM   41  C   UNL     1     -11.564   9.608  70.486  1.00  0.00    -0.272 A  
HETATM   42  C   UNL     1     -12.621   9.298  71.373  1.00  0.00    -0.411 A  
ENDBRANCH  28  31
ENDBRANCH  26  28
ENDBRANCH  13  26
ENDBRANCH   7  13
TORSDOF 8
ENDMDL
MODEL        7
REMARK 921   NORMALIZED FREE ENERGY PREDICTED BY IDOCK:   -8.19 KCAL/MOL
REMARK 922        TOTAL FREE ENERGY PREDICTED BY IDOCK:  -13.28 KCAL/MOL
REMARK 923 INTER-LIGAND FREE ENERGY PREDICTED BY IDOCK:  -12.51 KCAL/MOL
REMARK 924 INTRA-LIGAND FREE ENERGY PREDICTED BY IDOCK:   -0.77 KCAL/MOL
REMARK 927      BINDING AFFINITY PREDICTED BY RF-SCORE:    0.00 PKD
ROOT
HETATM    1  C   UNL     1      -6.507  20.018  65.325  1.00  0.00    -0.310 C  
HETATM    2  C   UNL     1      -7.572  19.401  66.220  1.00  0.00    -0.299 C  
HETATM    3  C   UNL     1      -7.102  19.290  67.674  1.00  0.00    -0.251 C  
HETATM    4  C   UNL     1      -8.164  18.627  68.551  1.00  0.00    -0.341 C  
HETATM    5  N   UNL     1      -8.681  17.350  67.987  1.00  0.00    -0.234 N  
HETATM    6  C   UNL     1      -9.096  17.417  66.568  1.00  0.00    -0.266 C  
HETATM    7  C   UNL     1      -8.347  16.171  68.666  1.00  0.00    -0.211 C  
HETATM    8  O   UNL     1      -7.624  16.255  69.668  1.00  0.00    -0.106 OA 
HETATM    9  O   UNL     1     -11.015  18.664  67.334  1.00  0.00    -0.399 OA 
HETATM   10  C   UNL     1      -7.967  18.005  65.714  1.00  0.00     0.101 C  
HETATM   11  C   UNL     1     -10.394  18.170  66.261  1.00  0.00    -0.397 C  
HETATM   12  O   UNL     1     -10.840  18.323  65.135  1.00  0.00    -0.656 OA 
ENDROOT
BRANCH   7  13
HETATM   13  C   UNL     1      -8.921  14.750  68.320  1.00  0.00    -0.181 C  
BRANCH  13  14
HETATM   14  C   UNL     1      -9.354  14.436  66.863  1.00  0.00    -0.269 C  
BRANCH  14  15
HETATM   15  C   UNL     1      -9.183  12.947  66.497  1.00  0.00    -0.186 C  
BRANCH  15  16
HETATM   16  C   UNL     1     -10.386  12.345  65.755  1.00  0.00    -0.263 C  
BRANCH  16  17
HETATM   17  N   UNL     1     -10.989  13.383  64.940  1.00  0.00    -0.325 NA 
HETATM   18  H2  UNL     1     -11.881  15.317  63.735  1.00  0.00     0.000 HD 
HETATM   19  H1  UNL     1     -13.529  14.594  63.589  1.00  0.00     0.000 HD 
HETATM   20  N   UNL     1     -13.188  12.531  64.677  1.00  0.00    -0.785 NA 
HETATM   21  N   UNL     1     -12.555  14.568  63.894  1.00  0.00    -0.789 NA 
HETATM   22  C   UNL     1     -12.277  13.417  64.536  1.00  0.00    -0.398 C  
HETATM   23  H   UNL     1     -10.388  14.153  64.646  1.00  0.00     0.000 HD 
HETATM   24  H1  UNL     1     -14.162  12.557  64.372  1.00  0.00     0.000 HD 
HETATM   25  H2  UNL     1     -12.903  11.681  65.163  1.00  0.00     0.000 HD 
ENDBRANCH  16  17
ENDBRANCH  15  16
ENDBRANCH  14  15
ENDBRANCH  13  14
BRANCH  13  26
HETATM   26  N   UNL     1     -10.017  14.323  69.233  1.00  0.00    -0.427 N  
HETATM   27  H   UNL     1      -9.845  13.632  69.963  1.00  0.00     0.000 HD 
BRANCH  26  28
HETATM   28  S   UNL     1     -11.567  15.011  69.034  1.00  0.00    -0.334 S  
HETATM   29  O   UNL     1     -12.110  14.539  67.786  1.00  0.00    -0.338 OA 
HETATM   30  O   UNL     1     -11.382  16.429  69.261  1.00  0.00    -0.300 OA 
BRANCH  28  31
HETATM   31  C   UNL     1     -12.470  14.323  70.397  1.00  0.00    -0.362 A  
HETATM   32  C   UNL     1     -13.250  11.019  72.153  1.00  0.00    -0.316 C  
HETATM   33  C   UNL     1     -13.264  15.205  71.146  1.00  0.00    -0.535 A  
HETATM   34  C   UNL     1     -12.628   8.678  71.460  1.00  0.00    -0.360 C  
HETATM   35  C   UNL     1     -14.010  14.736  72.222  1.00  0.00    -0.598 A  
HETATM   36  C   UNL     1     -12.776  10.126  71.002  1.00  0.00    -0.481 C  
HETATM   37  C   UNL     1     -11.465  10.693  70.474  1.00  0.00    -0.317 C  
HETATM   38  H   UNL     1     -11.269  12.312  69.044  1.00  0.00     0.000 HD 
HETATM   39  N   UNL     1     -11.661  12.040  69.945  1.00  0.00    -0.316 NA 
HETATM   40  C   UNL     1     -13.963  13.386  72.553  1.00  0.00    -0.519 A  
HETATM   41  C   UNL     1     -12.405  12.950  70.713  1.00  0.00    -0.299 A  
HETATM   42  C   UNL     1     -13.180  12.490  71.804  1.00  0.00    -0.444 A  
ENDBRANCH  28  31
ENDBRANCH  26  28
ENDBRANCH  13  26
ENDBRANCH   7  13
TORSDOF 8
ENDMDL
MODEL        8
REMARK 921   NORMALIZED FREE ENERGY PREDICTED BY IDOCK:   -8.02 KCAL/MOL
REMARK 922        TOTAL FREE ENERGY PREDICTED BY IDOCK:  -13.03 KCAL/MOL
REMARK 923 INTER-LIGAND FREE ENERGY PREDICTED BY IDOCK:  -10.71 KCAL/MOL
REMARK 924 INTRA-LIGAND FREE ENERGY PREDICTED BY IDOCK:   -2.31 KCAL/MOL
REMARK 927      BINDING AFFINITY PREDICTED BY RF-SCORE:    0.00 PKD
ROOT
HETATM    1  C   UNL     1     -10.837   5.779  71.008  1.00  0.00    -0.316 C  
HETATM    2  C   UNL     1      -9.919   6.372  69.948  1.00  0.00    -0.198 C  
HETATM    3  C   UNL     1      -8.820   7.241  70.568  1.00  0.00    -0.153 C  
HETATM    4  C   UNL     1      -7.935   7.866  69.490  1.00  0.00    -0.116 C  
HETATM    5  N   UNL     1      -8.707   8.548  68.414  1.00  0.00    -0.142 N  
HETATM    6  C   UNL     1      -9.807   7.747  67.833  1.00  0.00    -0.160 C  
HETATM    7  C   UNL     1      -8.616   9.944  68.350  1.00  0.00    -0.116 C  
HETATM    8  O   UNL     1      -7.930  10.528  69.201  1.00  0.00    -0.124 OA 
HETATM    9  O   UNL     1      -8.094   6.446  66.739  1.00  0.00    -0.107 OA 
HETATM   10  C   UNL     1     -10.719   7.216  68.944  1.00  0.00    -0.199 C  
HETATM   11  C   UNL     1      -9.409   6.584  66.919  1.00  0.00    -0.146 C  
HETATM   12  O   UNL     1     -10.212   5.829  66.393  1.00  0.00    -0.180 OA 
ENDROOT
BRANCH   7  13
HETATM   13  C   UNL     1      -9.226  10.825  67.202  1.00  0.00    -0.147 C  
BRANCH  13  14
HETATM   14  C   UNL     1      -8.527  10.864  65.817  1.00  0.00    -0.155 C  
BRANCH  14  15
HETATM   15  C   UNL     1      -9.374  10.217  64.702  1.00  0.00    -0.320 C  
BRANCH  15  16
HETATM   16  C   UNL     1      -9.751  11.180  63.565  1.00  0.00    -0.334 C  
BRANCH  16  17
HETATM   17  N   UNL     1     -11.193  11.153  63.401  1.00  0.00    -0.718 NA 
HETATM   18  H2  UNL     1     -13.580  10.930  62.909  1.00  0.00     0.000 HD 
HETATM   19  H1  UNL     1     -13.886  12.700  63.096  1.00  0.00     0.000 HD 
HETATM   20  N   UNL     1     -11.719  13.455  63.631  1.00  0.00    -0.682 NA 
HETATM   21  N   UNL     1     -13.273  11.884  63.101  1.00  0.00    -0.431 NA 
HETATM   22  C   UNL     1     -12.005  12.231  63.394  1.00  0.00    -0.494 C  
HETATM   23  H   UNL     1     -11.631  10.239  63.279  1.00  0.00     0.000 HD 
HETATM   24  H1  UNL     1     -12.332  14.270  63.626  1.00  0.00     0.000 HD 
HETATM   25  H2  UNL     1     -10.742  13.642  63.856  1.00  0.00     0.000 HD 
ENDBRANCH  16  17
ENDBRANCH  15  16
ENDBRANCH  14  15
ENDBRANCH  13  14
BRANCH  13  26
HETATM   26  N   UNL     1      -9.504  12.226  67.622  1.00  0.00    -0.183 N  
HETATM   27  H   UNL     1      -8.813  12.757  68.153  1.00  0.00     0.000 HD 
BRANCH  26  28
HETATM   28  S   UNL     1     -11.001  12.929  67.198  1.00  0.00    -0.270 S  
HETATM   29  O   UNL     1     -11.793  11.928  66.531  1.00  0.00    -0.579 OA 
HETATM   30  O   UNL     1     -10.660  14.163  66.520  1.00  0.00    -0.278 OA 
BRANCH  28  31
HETATM   31  C   UNL     1     -11.704  13.317  68.780  1.00  0.00    -0.329 A  
HETATM   32  C   UNL     1     -13.093  11.704  71.954  1.00  0.00    -0.490 C  
HETATM   33  C   UNL     1     -11.929  14.674  69.063  1.00  0.00    -0.318 A  
HETATM   34  C   UNL     1     -13.510   9.265  72.432  1.00  0.00    -0.526 C  
HETATM   35  C   UNL     1     -12.489  15.053  70.278  1.00  0.00    -0.385 A  
HETATM   36  C   UNL     1     -13.265  10.308  71.346  1.00  0.00    -0.464 C  
HETATM   37  C   UNL     1     -12.021   9.994  70.527  1.00  0.00    -0.272 C  
HETATM   38  H   UNL     1     -11.654  10.629  68.484  1.00  0.00     0.000 HD 
HETATM   39  N   UNL     1     -11.872  10.946  69.429  1.00  0.00    -0.317 NA 
HETATM   40  C   UNL     1     -12.824  14.081  71.213  1.00  0.00    -0.430 A  
HETATM   41  C   UNL     1     -12.036  12.312  69.712  1.00  0.00    -0.295 A  
HETATM   42  C   UNL     1     -12.615  12.717  70.938  1.00  0.00    -0.342 A  
ENDBRANCH  28  31
ENDBRANCH  26  28
ENDBRANCH  13  26
ENDBRANCH   7  13
TORSDOF 8
ENDMDL
MODEL        9
REMARK 921   NORMALIZED FREE ENERGY PREDICTED BY IDOCK:   -7.99 KCAL/MOL
REMARK 922        TOTAL FREE ENERGY PREDICTED BY IDOCK:  -12.98 KCAL/MOL
REMARK 923 INTER-LIGAND FREE ENERGY PREDICTED BY IDOCK:  -11.07 KCAL/MOL
REMARK 924 INTRA-LIGAND FREE ENERGY PREDICTED BY IDOCK:   -1.91 KCAL/MOL
REMARK 927      BINDING AFFINITY PREDICTED BY RF-SCORE:    0.00 PKD
ROOT
HETATM    1  C   UNL     1      -9.258   7.268  74.161  1.00  0.00    -0.272 C  
HETATM    2  C   UNL     1      -9.511   7.136  72.666  1.00  0.00    -0.174 C  
HETATM    3  C   UNL     1      -8.203   7.101  71.867  1.00  0.00    -0.104 C  
HETATM    4  C   UNL     1      -8.474   7.015  70.365  1.00  0.00    -0.141 C  
HETATM    5  N   UNL     1      -9.447   8.033  69.882  1.00  0.00    -0.160 N  
HETATM    6  C   UNL     1     -10.699   8.121  70.666  1.00  0.00    -0.224 C  
HETATM    7  C   UNL     1      -8.951   9.048  69.054  1.00  0.00    -0.140 C  
HETATM    8  O   UNL     1      -7.739   9.057  68.798  1.00  0.00    -0.092 OA 
HETATM    9  O   UNL     1     -11.322   6.025  69.645  1.00  0.00    -0.411 OA 
HETATM   10  C   UNL     1     -10.378   8.296  72.155  1.00  0.00    -0.370 C  
HETATM   11  C   UNL     1     -11.700   6.972  70.506  1.00  0.00    -0.312 C  
HETATM   12  O   UNL     1     -12.758   6.906  71.111  1.00  0.00    -0.369 OA 
ENDROOT
BRANCH   7  13
HETATM   13  C   UNL     1      -9.841  10.115  68.322  1.00  0.00    -0.145 C  
BRANCH  13  14
HETATM   14  C   UNL     1      -9.351  10.729  66.983  1.00  0.00    -0.174 C  
BRANCH  14  15
HETATM   15  C   UNL     1     -10.127  10.196  65.761  1.00  0.00    -0.324 C  
BRANCH  15  16
HETATM   16  C   UNL     1     -10.391  11.253  64.679  1.00  0.00    -0.315 C  
BRANCH  16  17
HETATM   17  N   UNL     1     -11.422  12.154  65.160  1.00  0.00    -0.332 NA 
HETATM   18  H2  UNL     1     -13.244  13.464  66.139  1.00  0.00     0.000 HD 
HETATM   19  H1  UNL     1     -13.761  14.127  64.541  1.00  0.00     0.000 HD 
HETATM   20  N   UNL     1     -12.186  13.098  63.121  1.00  0.00    -0.893 NA 
HETATM   21  N   UNL     1     -13.155  13.550  65.126  1.00  0.00    -0.713 NA 
HETATM   22  C   UNL     1     -12.224  12.917  64.386  1.00  0.00    -0.417 C  
HETATM   23  H   UNL     1     -11.553  12.216  66.170  1.00  0.00     0.000 HD 
HETATM   24  H1  UNL     1     -12.792  13.674  62.536  1.00  0.00     0.000 HD 
HETATM   25  H2  UNL     1     -11.449  12.595  62.627  1.00  0.00     0.000 HD 
ENDBRANCH  16  17
ENDBRANCH  15  16
ENDBRANCH  14  15
ENDBRANCH  13  14
BRANCH  13  26
HETATM   26  N   UNL     1     -10.276  11.226  69.212  1.00  0.00    -0.419 N  
HETATM   27  H   UNL     1      -9.596  11.737  69.776  1.00  0.00     0.000 HD 
BRANCH  26  28
HETATM   28  S   UNL     1     -11.933  11.631  69.272  1.00  0.00    -0.288 S  
HETATM   29  O   UNL     1     -12.558  10.811  70.276  1.00  0.00    -0.325 OA 
HETATM   30  O   UNL     1     -12.385  11.574  67.897  1.00  0.00    -0.390 OA 
BRANCH  28  31
HETATM   31  C   UNL     1     -11.896  13.325  69.795  1.00  0.00    -0.325 A  
HETATM   32  C   UNL     1     -10.671  16.792  68.749  1.00  0.00    -0.341 C  
HETATM   33  C   UNL     1     -12.434  13.615  71.059  1.00  0.00    -0.456 A  
HETATM   34  C   UNL     1      -9.240  17.430  66.776  1.00  0.00    -0.274 C  
HETATM   35  C   UNL     1     -12.428  14.919  71.542  1.00  0.00    -0.397 A  
HETATM   36  C   UNL     1      -9.705  16.286  67.673  1.00  0.00    -0.234 C  
HETATM   37  C   UNL     1     -10.410  15.194  66.881  1.00  0.00    -0.272 C  
HETATM   38  H   UNL     1     -10.557  13.106  67.455  1.00  0.00     0.000 HD 
HETATM   39  N   UNL     1     -10.747  14.066  67.745  1.00  0.00    -0.241 NA 
HETATM   40  C   UNL     1     -11.887  15.936  70.765  1.00  0.00    -0.423 A  
HETATM   41  C   UNL     1     -11.341  14.340  68.988  1.00  0.00    -0.272 A  
HETATM   42  C   UNL     1     -11.334  15.658  69.501  1.00  0.00    -0.329 A  
ENDBRANCH  28  31
ENDBRANCH  26  28
ENDBRANCH  13  26
ENDBRANCH   7  13
TORSDOF 8
ENDMDL
MODEL       10
REMARK 921   NORMALIZED FREE ENERGY PREDICTED BY IDOCK:   -7.96 KCAL/MOL
REMARK 922        TOTAL FREE ENERGY PREDICTED BY IDOCK:  -12.93 KCAL/MOL
REMARK 923 INTER-LIGAND FREE ENERGY PREDICTED BY IDOCK:  -11.26 KCAL/MOL
REMARK 924 INTRA-LIGAND FREE ENERGY PREDICTED BY IDOCK:   -1.67 KCAL/MOL
REMARK 927      BINDING AFFINITY PREDICTED BY RF-SCORE:    0.00 PKD
ROOT
HETATM    1  C   UNL     1     -10.244  19.569  68.271  1.00  0.00    -0.552 C  
HETATM    2  C   UNL     1     -10.099  18.108  68.673  1.00  0.00    -0.406 C  
HETATM    3  C   UNL     1      -8.656  17.616  68.518  1.00  0.00    -0.285 C  
HETATM    4  C   UNL     1      -8.534  16.136  68.882  1.00  0.00    -0.241 C  
HETATM    5  N   UNL     1      -9.540  15.277  68.198  1.00  0.00    -0.202 N  
HETATM    6  C   UNL     1     -10.936  15.756  68.290  1.00  0.00    -0.325 C  
HETATM    7  C   UNL     1      -9.064  14.386  67.226  1.00  0.00    -0.214 C  
HETATM    8  O   UNL     1      -7.851  14.387  66.973  1.00  0.00    -0.135 OA 
HETATM    9  O   UNL     1     -10.878  15.055  70.598  1.00  0.00    -0.209 OA 
HETATM   10  C   UNL     1     -11.024  17.216  67.832  1.00  0.00    -0.208 C  
HETATM   11  C   UNL     1     -11.628  15.621  69.650  1.00  0.00    -0.356 C  
HETATM   12  O   UNL     1     -12.767  15.997  69.872  1.00  0.00    -0.155 OA 
ENDROOT
BRANCH   7  13
HETATM   13  C   UNL     1      -9.939  13.296  66.512  1.00  0.00    -0.280 C  
BRANCH  13  14
HETATM   14  C   UNL     1     -10.814  13.696  65.295  1.00  0.00    -0.324 C  
BRANCH  14  15
HETATM   15  C   UNL     1     -12.091  12.840  65.169  1.00  0.00    -0.498 C  
BRANCH  15  16
HETATM   16  C   UNL     1     -12.230  12.121  63.818  1.00  0.00    -0.531 C  
BRANCH  16  17
HETATM   17  N   UNL     1     -10.919  12.044  63.202  1.00  0.00    -0.692 NA 
HETATM   18  H2  UNL     1      -8.831  11.996  61.925  1.00  0.00     0.000 HD 
HETATM   19  H1  UNL     1      -8.308  10.426  62.647  1.00  0.00     0.000 HD 
HETATM   20  N   UNL     1     -10.121   9.993  64.089  1.00  0.00    -0.447 NA 
HETATM   21  N   UNL     1      -8.968  11.197  62.545  1.00  0.00    -0.329 NA 
HETATM   22  C   UNL     1     -10.045  11.024  63.336  1.00  0.00    -0.370 C  
HETATM   23  H   UNL     1     -10.632  12.829  62.616  1.00  0.00     0.000 HD 
HETATM   24  H1  UNL     1      -9.461   9.222  64.191  1.00  0.00     0.000 HD 
HETATM   25  H2  UNL     1     -10.959   9.933  64.668  1.00  0.00     0.000 HD 
ENDBRANCH  16  17
ENDBRANCH  15  16
ENDBRANCH  14  15
ENDBRANCH  13  14
BRANCH  13  26
HETATM   26  N   UNL     1     -10.785  12.513  67.455  1.00  0.00    -0.222 N  
HETATM   27  H   UNL     1     -11.700  12.859  67.743  1.00  0.00     0.000 HD 
BRANCH  26  28
HETATM   28  S   UNL     1     -10.193  11.024  68.046  1.00  0.00    -0.187 S  
HETATM   29  O   UNL     1      -8.801  11.192  68.370  1.00  0.00    -0.145 OA 
HETATM   30  O   UNL     1     -10.602  10.040  67.065  1.00  0.00    -0.240 OA 
BRANCH  28  31
HETATM   31  C   UNL     1     -11.146  10.792  69.524  1.00  0.00    -0.278 A  
HETATM   32  C   UNL     1     -11.915   8.238  72.261  1.00  0.00    -0.448 C  
HETATM   33  C   UNL     1     -12.008  11.836  69.898  1.00  0.00    -0.405 A  
HETATM   34  C   UNL     1     -11.183   5.833  72.426  1.00  0.00    -0.343 C  
HETATM   35  C   UNL     1     -12.796  11.720  71.038  1.00  0.00    -0.309 A  
HETATM   36  C   UNL     1     -11.352   7.034  71.500  1.00  0.00    -0.290 C  
HETATM   37  C   UNL     1     -10.033   7.452  70.865  1.00  0.00    -0.184 C  
HETATM   38  H   UNL     1      -9.811   8.504  68.980  1.00  0.00     0.000 HD 
HETATM   39  N   UNL     1     -10.243   8.532  69.904  1.00  0.00    -0.199 NA 
HETATM   40  C   UNL     1     -12.724  10.565  71.808  1.00  0.00    -0.508 A  
HETATM   41  C   UNL     1     -11.055   9.610  70.288  1.00  0.00    -0.276 A  
HETATM   42  C   UNL     1     -11.873   9.507  71.439  1.00  0.00    -0.464 A  
ENDBRANCH  28  31
ENDBRANCH  26  28
ENDBRANCH  13  26
ENDBRANCH   7  13
TORSDOF 8
ENDMDL
MODEL       11
REMARK 921   NORMALIZED FREE ENERGY PREDICTED BY IDOCK:   -7.85 KCAL/MOL
REMARK 922        TOTAL FREE ENERGY PREDICTED BY IDOCK:  -12.76 KCAL/MOL
REMARK 923 INTER-LIGAND FREE ENERGY PREDICTED BY IDOCK:  -11.23 KCAL/MOL
REMARK 924 INTRA-LIGAND FREE ENERGY PREDICTED BY IDOCK:   -1.53 KCAL/MOL
REMARK 927      BINDING AFFINITY PREDICTED BY RF-SCORE:    0.00 PKD
ROOT
HETATM    1  C   UNL     1     -10.625  19.594  66.422  1.00  0.00    -0.592 C  
HETATM    2  C   UNL     1     -10.179  18.139  66.423  1.00  0.00    -0.405 C  
HETATM    3  C   UNL     1     -10.904  17.321  65.348  1.00  0.00    -0.024 C  
HETATM    4  C   UNL     1     -10.480  15.852  65.391  1.00  0.00    -0.405 C  
HETATM    5  N   UNL     1     -10.554  15.257  66.754  1.00  0.00    -0.299 N  
HETATM    6  C   UNL     1      -9.905  16.052  67.819  1.00  0.00    -0.231 C  
HETATM    7  C   UNL     1     -11.538  14.283  66.971  1.00  0.00    -0.386 C  
HETATM    8  O   UNL     1     -12.300  13.998  66.037  1.00  0.00    -0.445 OA 
HETATM    9  O   UNL     1      -7.802  15.348  66.868  1.00  0.00    -0.217 OA 
HETATM   10  C   UNL     1     -10.426  17.493  67.795  1.00  0.00    -0.381 C  
HETATM   11  C   UNL     1      -8.374  16.078  67.828  1.00  0.00    -0.150 C  
HETATM   12  O   UNL     1      -7.711  16.712  68.634  1.00  0.00    -0.200 OA 
ENDROOT
BRANCH   7  13
HETATM   13  C   UNL     1     -11.673  13.432  68.284  1.00  0.00    -0.356 C  
BRANCH  13  14
HETATM   14  C   UNL     1     -12.510  13.984  69.469  1.00  0.00    -0.159 C  
BRANCH  14  15
HETATM   15  C   UNL     1     -11.640  14.395  70.675  1.00  0.00    -0.243 C  
BRANCH  15  16
HETATM   16  C   UNL     1     -11.684  15.897  70.994  1.00  0.00    -0.432 C  
BRANCH  16  17
HETATM   17  N   UNL     1     -11.809  16.058  72.430  1.00  0.00    -0.507 NA 
HETATM   18  H2  UNL     1     -11.775  16.191  74.874  1.00  0.00     0.000 HD 
HETATM   19  H1  UNL     1     -13.525  15.774  75.022  1.00  0.00     0.000 HD 
HETATM   20  N   UNL     1     -14.100  15.529  72.749  1.00  0.00    -0.509 NA 
HETATM   21  N   UNL     1     -12.682  15.950  74.474  1.00  0.00    -0.648 NA 
HETATM   22  C   UNL     1     -12.924  15.824  73.155  1.00  0.00    -0.544 C  
HETATM   23  H   UNL     1     -10.982  16.375  72.937  1.00  0.00     0.000 HD 
HETATM   24  H1  UNL     1     -14.943  15.352  73.296  1.00  0.00     0.000 HD 
HETATM   25  H2  UNL     1     -14.211  15.461  71.737  1.00  0.00     0.000 HD 
ENDBRANCH  16  17
ENDBRANCH  15  16
ENDBRANCH  14  15
ENDBRANCH  13  14
BRANCH  13  26
HETATM   26  N   UNL     1     -10.364  12.964  68.818  1.00  0.00    -0.405 N  
HETATM   27  H   UNL     1      -9.931  13.430  69.615  1.00  0.00     0.000 HD 
BRANCH  26  28
HETATM   28  S   UNL     1      -9.602  11.632  68.070  1.00  0.00    -0.189 S  
HETATM   29  O   UNL     1      -8.290  12.047  67.645  1.00  0.00    -0.142 OA 
HETATM   30  O   UNL     1     -10.563  11.141  67.103  1.00  0.00    -0.219 OA 
BRANCH  28  31
HETATM   31  C   UNL     1      -9.478  10.465  69.400  1.00  0.00    -0.183 A  
HETATM   32  C   UNL     1     -11.531   8.768  72.141  1.00  0.00    -0.421 C  
HETATM   33  C   UNL     1      -8.203   9.946  69.677  1.00  0.00    -0.178 A  
HETATM   34  C   UNL     1     -13.918   9.203  72.822  1.00  0.00    -0.240 C  
HETATM   35  C   UNL     1      -8.026   9.036  70.714  1.00  0.00    -0.172 A  
HETATM   36  C   UNL     1     -12.707   9.748  72.070  1.00  0.00    -0.463 C  
HETATM   37  C   UNL     1     -13.018  10.006  70.603  1.00  0.00    -0.184 C  
HETATM   38  H   UNL     1     -12.002  11.434  69.323  1.00  0.00     0.000 HD 
HETATM   39  N   UNL     1     -11.877  10.626  69.934  1.00  0.00    -0.296 NA 
HETATM   40  C   UNL     1      -9.121   8.640  71.474  1.00  0.00    -0.308 A  
HETATM   41  C   UNL     1     -10.604  10.079  70.157  1.00  0.00    -0.296 A  
HETATM   42  C   UNL     1     -10.401   9.161  71.214  1.00  0.00    -0.405 A  
ENDBRANCH  28  31
ENDBRANCH  26  28
ENDBRANCH  13  26
ENDBRANCH   7  13
TORSDOF 8
ENDMDL
MODEL       12
REMARK 921   NORMALIZED FREE ENERGY PREDICTED BY IDOCK:   -7.84 KCAL/MOL
REMARK 922        TOTAL FREE ENERGY PREDICTED BY IDOCK:  -12.76 KCAL/MOL
REMARK 923 INTER-LIGAND FREE ENERGY PREDICTED BY IDOCK:  -11.04 KCAL/MOL
REMARK 924 INTRA-LIGAND FREE ENERGY PREDICTED BY IDOCK:   -1.71 KCAL/MOL
REMARK 927      BINDING AFFINITY PREDICTED BY RF-SCORE:    0.00 PKD
ROOT
HETATM    1  C   UNL     1      -9.447  20.837  67.444  1.00  0.00    -0.451 C  
HETATM    2  C   UNL     1      -8.559  19.603  67.378  1.00  0.00    -0.353 C  
HETATM    3  C   UNL     1      -8.854  18.754  66.137  1.00  0.00    -0.143 C  
HETATM    4  C   UNL     1      -7.987  17.495  66.108  1.00  0.00    -0.226 C  
HETATM    5  N   UNL     1      -8.017  16.728  67.384  1.00  0.00    -0.165 N  
HETATM    6  C   UNL     1      -7.784  17.534  68.602  1.00  0.00    -0.275 C  
HETATM    7  C   UNL     1      -8.651  15.479  67.363  1.00  0.00    -0.178 C  
HETATM    8  O   UNL     1      -9.171  15.102  66.303  1.00  0.00    -0.282 OA 
HETATM    9  O   UNL     1      -5.473  17.647  67.915  1.00  0.00    -0.132 OA 
HETATM   10  C   UNL     1      -8.736  18.735  68.633  1.00  0.00    -0.360 C  
HETATM   11  C   UNL     1      -6.354  18.030  68.842  1.00  0.00    -0.224 C  
HETATM   12  O   UNL     1      -6.026  18.723  69.792  1.00  0.00    -0.251 OA 
ENDROOT
BRANCH   7  13
HETATM   13  C   UNL     1      -8.651  14.460  68.557  1.00  0.00    -0.175 C  
BRANCH  13  14
HETATM   14  C   UNL     1      -7.643  13.280  68.554  1.00  0.00    -0.128 C  
BRANCH  14  15
HETATM   15  C   UNL     1      -8.336  11.902  68.571  1.00  0.00    -0.118 C  
BRANCH  15  16
HETATM   16  C   UNL     1      -8.713  11.375  67.178  1.00  0.00    -0.155 C  
BRANCH  16  17
HETATM   17  N   UNL     1     -10.132  11.598  66.972  1.00  0.00    -0.207 NA 
HETATM   18  H2  UNL     1     -12.564  11.714  66.718  1.00  0.00     0.000 HD 
HETATM   19  H1  UNL     1     -12.458  12.510  65.102  1.00  0.00     0.000 HD 
HETATM   20  N   UNL     1     -10.120  12.656  64.848  1.00  0.00    -0.432 NA 
HETATM   21  N   UNL     1     -12.036  12.101  65.936  1.00  0.00    -0.571 NA 
HETATM   22  C   UNL     1     -10.691  12.139  65.868  1.00  0.00    -0.266 C  
HETATM   23  H   UNL     1     -10.761  11.323  67.726  1.00  0.00     0.000 HD 
HETATM   24  H1  UNL     1     -10.542  13.065  64.014  1.00  0.00     0.000 HD 
HETATM   25  H2  UNL     1      -9.100  12.660  64.870  1.00  0.00     0.000 HD 
ENDBRANCH  16  17
ENDBRANCH  15  16
ENDBRANCH  14  15
ENDBRANCH  13  14
BRANCH  13  26
HETATM   26  N   UNL     1     -10.003  13.916  68.865  1.00  0.00    -0.410 N  
HETATM   27  H   UNL     1     -10.133  12.921  69.049  1.00  0.00     0.000 HD 
BRANCH  26  28
HETATM   28  S   UNL     1     -11.330  14.989  68.902  1.00  0.00    -0.316 S  
HETATM   29  O   UNL     1     -12.071  14.827  67.678  1.00  0.00    -0.299 OA 
HETATM   30  O   UNL     1     -10.765  16.276  69.250  1.00  0.00    -0.263 OA 
BRANCH  28  31
HETATM   31  C   UNL     1     -12.273  14.384  70.277  1.00  0.00    -0.334 A  
HETATM   32  C   UNL     1     -13.308  11.163  72.057  1.00  0.00    -0.384 C  
HETATM   33  C   UNL     1     -12.984  15.332  71.029  1.00  0.00    -0.526 A  
HETATM   34  C   UNL     1     -12.890   8.776  71.369  1.00  0.00    -0.319 C  
HETATM   35  C   UNL     1     -13.756  14.931  72.115  1.00  0.00    -0.550 A  
HETATM   36  C   UNL     1     -12.922  10.230  70.905  1.00  0.00    -0.456 C  
HETATM   37  C   UNL     1     -11.574  10.683  70.362  1.00  0.00    -0.351 C  
HETATM   38  H   UNL     1     -11.257  12.275  68.922  1.00  0.00     0.000 HD 
HETATM   39  N   UNL     1     -11.662  12.039  69.829  1.00  0.00    -0.323 NA 
HETATM   40  C   UNL     1     -13.818  13.584  72.452  1.00  0.00    -0.687 A  
HETATM   41  C   UNL     1     -12.320  13.011  70.599  1.00  0.00    -0.310 A  
HETATM   42  C   UNL     1     -13.119  12.622  71.700  1.00  0.00    -0.421 A  
ENDBRANCH  28  31
ENDBRANCH  26  28
ENDBRANCH  13  26
ENDBRANCH   7  13
TORSDOF 8
ENDMDL
MODEL       13
REMARK 921   NORMALIZED FREE ENERGY PREDICTED BY IDOCK:   -7.81 KCAL/MOL
REMARK 922        TOTAL FREE ENERGY PREDICTED BY IDOCK:  -12.72 KCAL/MOL
REMARK 923 INTER-LIGAND FREE ENERGY PREDICTED BY IDOCK:  -11.55 KCAL/MOL
REMARK 924 INTRA-LIGAND FREE ENERGY PREDICTED BY IDOCK:   -1.16 KCAL/MOL
REMARK 927      BINDING AFFINITY PREDICTED BY RF-SCORE:    0.00 PKD
ROOT
HETATM    1  C   UNL     1      -6.240  19.828  69.884  1.00  0.00    -0.375 C  
HETATM    2  C   UNL     1      -7.014  19.249  68.708  1.00  0.00    -0.365 C  
HETATM    3  C   UNL     1      -8.404  19.880  68.576  1.00  0.00    -0.179 C  
HETATM    4  C   UNL     1      -9.186  19.257  67.419  1.00  0.00    -0.300 C  
HETATM    5  N   UNL     1      -9.201  17.768  67.451  1.00  0.00    -0.246 N  
HETATM    6  C   UNL     1      -7.876  17.135  67.629  1.00  0.00    -0.176 C  
HETATM    7  C   UNL     1     -10.426  17.147  67.730  1.00  0.00    -0.362 C  
HETATM    8  O   UNL     1     -11.409  17.865  67.960  1.00  0.00     0.132 OA 
HETATM    9  O   UNL     1      -7.420  17.775  65.347  1.00  0.00    -0.374 OA 
HETATM   10  C   UNL     1      -7.166  17.727  68.851  1.00  0.00    -0.256 C  
HETATM   11  C   UNL     1      -6.921  17.178  66.432  1.00  0.00    -0.261 C  
HETATM   12  O   UNL     1      -5.790  16.717  66.448  1.00  0.00    -0.314 OA 
ENDROOT
BRANCH   7  13
HETATM   13  C   UNL     1     -10.677  15.599  67.654  1.00  0.00    -0.302 C  
BRANCH  13  14
HETATM   14  C   UNL     1     -10.691  14.894  66.272  1.00  0.00    -0.320 C  
BRANCH  14  15
HETATM   15  C   UNL     1     -12.106  14.465  65.834  1.00  0.00    -0.358 C  
BRANCH  15  16
HETATM   16  C   UNL     1     -12.212  14.086  64.349  1.00  0.00    -0.426 C  
BRANCH  16  17
HETATM   17  N   UNL     1     -10.995  13.395  63.964  1.00  0.00    -0.556 NA 
HETATM   18  H2  UNL     1      -8.857  12.474  63.207  1.00  0.00     0.000 HD 
HETATM   19  H1  UNL     1      -9.617  10.965  62.572  1.00  0.00     0.000 HD 
HETATM   20  N   UNL     1     -11.878  11.367  63.105  1.00  0.00    -0.867 NA 
HETATM   21  N   UNL     1      -9.664  11.877  63.028  1.00  0.00    -0.347 NA 
HETATM   22  C   UNL     1     -10.932  12.188  63.362  1.00  0.00    -0.412 C  
HETATM   23  H   UNL     1     -10.110  13.861  64.166  1.00  0.00     0.000 HD 
HETATM   24  H1  UNL     1     -11.830  10.455  62.650  1.00  0.00     0.000 HD 
HETATM   25  H2  UNL     1     -12.809  11.664  63.395  1.00  0.00     0.000 HD 
ENDBRANCH  16  17
ENDBRANCH  15  16
ENDBRANCH  14  15
ENDBRANCH  13  14
BRANCH  13  26
HETATM   26  N   UNL     1     -11.884  15.164  68.411  1.00  0.00    -0.495 N  
HETATM   27  H   UNL     1     -12.734  14.886  67.919  1.00  0.00     0.000 HD 
BRANCH  26  28
HETATM   28  S   UNL     1     -11.819  15.137  70.116  1.00  0.00    -0.340 S  
HETATM   29  O   UNL     1     -12.861  15.994  70.618  1.00  0.00    -0.376 OA 
HETATM   30  O   UNL     1     -10.433  15.402  70.445  1.00  0.00    -0.294 OA 
BRANCH  28  31
HETATM   31  C   UNL     1     -12.183  13.441  70.487  1.00  0.00    -0.352 A  
HETATM   32  C   UNL     1     -11.476   9.868  69.328  1.00  0.00    -0.046 C  
HETATM   33  C   UNL     1     -13.089  13.197  71.532  1.00  0.00    -0.404 A  
HETATM   34  C   UNL     1     -10.222   9.091  67.285  1.00  0.00    -0.323 C  
HETATM   35  C   UNL     1     -13.433  11.893  71.871  1.00  0.00    -0.289 A  
HETATM   36  C   UNL     1     -10.932  10.266  67.952  1.00  0.00    -0.350 C  
HETATM   37  C   UNL     1     -10.005  11.459  68.138  1.00  0.00    -0.189 C  
HETATM   38  H   UNL     1     -10.622  13.535  68.281  1.00  0.00     0.000 HD 
HETATM   39  N   UNL     1     -10.736  12.602  68.678  1.00  0.00    -0.245 NA 
HETATM   40  C   UNL     1     -12.872  10.830  71.171  1.00  0.00    -0.513 A  
HETATM   41  C   UNL     1     -11.601  12.381  69.762  1.00  0.00    -0.232 A  
HETATM   42  C   UNL     1     -11.972  11.062  70.115  1.00  0.00    -0.443 A  
ENDBRANCH  28  31
ENDBRANCH  26  28
ENDBRANCH  13  26
ENDBRANCH   7  13
TORSDOF 8
ENDMDL
MODEL       14
REMARK 921   NORMALIZED FREE ENERGY PREDICTED BY IDOCK:   -7.78 KCAL/MOL
REMARK 922        TOTAL FREE ENERGY PREDICTED BY IDOCK:  -12.67 KCAL/MOL
REMARK 923 INTER-LIGAND FREE ENERGY PREDICTED BY IDOCK:  -10.37 KCAL/MOL
REMARK 924 INTRA-LIGAND FREE ENERGY PREDICTED BY IDOCK:   -2.30 KCAL/MOL
REMARK 927      BINDING AFFINITY PREDICTED BY RF-SCORE:    0.00 PKD
ROOT
HETATM    1  C   UNL     1     -11.134  16.084  70.119  1.00  0.00    -0.372 C  
HETATM    2  C   UNL     1     -10.974  15.375  68.782  1.00  0.00    -0.264 C  
HETATM    3  C   UNL     1     -12.135  14.413  68.505  1.00  0.00    -0.278 C  
HETATM    4  C   UNL     1     -11.938  13.675  67.180  1.00  0.00    -0.393 C  
HETATM    5  N   UNL     1     -10.594  13.049  67.048  1.00  0.00    -0.256 N  
HETATM    6  C   UNL     1      -9.456  13.943  67.358  1.00  0.00    -0.226 C  
HETATM    7  C   UNL     1     -10.536  11.650  67.064  1.00  0.00    -0.224 C  
HETATM    8  O   UNL     1     -11.592  11.020  67.217  1.00  0.00    -0.496 OA 
HETATM    9  O   UNL     1      -9.924  15.036  65.258  1.00  0.00    -0.341 OA 
HETATM   10  C   UNL     1      -9.653  14.592  68.733  1.00  0.00    -0.210 C  
HETATM   11  C   UNL     1      -9.136  15.038  66.335  1.00  0.00    -0.277 C  
HETATM   12  O   UNL     1      -8.242  15.857  66.475  1.00  0.00    -0.270 OA 
ENDROOT
BRANCH   7  13
HETATM   13  C   UNL     1      -9.240  10.808  66.783  1.00  0.00    -0.157 C  
BRANCH  13  14
HETATM   14  C   UNL     1      -8.457  11.030  65.462  1.00  0.00    -0.069 C  
BRANCH  14  15
HETATM   15  C   UNL     1      -9.138  10.371  64.245  1.00  0.00    -0.270 C  
BRANCH  15  16
HETATM   16  C   UNL     1      -9.881  11.359  63.333  1.00  0.00    -0.396 C  
BRANCH  16  17
HETATM   17  N   UNL     1     -11.290  11.330  63.676  1.00  0.00    -0.574 NA 
HETATM   18  H2  UNL     1     -13.687  11.055  64.089  1.00  0.00     0.000 HD 
HETATM   19  H1  UNL     1     -14.020  12.822  63.926  1.00  0.00     0.000 HD 
HETATM   20  N   UNL     1     -11.848  13.629  63.496  1.00  0.00    -0.720 NA 
HETATM   21  N   UNL     1     -13.392  12.018  63.925  1.00  0.00    -0.564 NA 
HETATM   22  C   UNL     1     -12.122  12.394  63.678  1.00  0.00    -0.556 C  
HETATM   23  H   UNL     1     -11.688  10.428  63.939  1.00  0.00     0.000 HD 
HETATM   24  H1  UNL     1     -12.477  14.433  63.497  1.00  0.00     0.000 HD 
HETATM   25  H2  UNL     1     -10.866  13.841  63.325  1.00  0.00     0.000 HD 
ENDBRANCH  16  17
ENDBRANCH  15  16
ENDBRANCH  14  15
ENDBRANCH  13  14
BRANCH  13  26
HETATM   26  N   UNL     1      -9.442   9.343  66.964  1.00  0.00    -0.150 N  
HETATM   27  H   UNL     1     -10.230   8.869  66.524  1.00  0.00     0.000 HD 
BRANCH  26  28
HETATM   28  S   UNL     1      -8.327   8.474  67.921  1.00  0.00    -0.127 S  
HETATM   29  O   UNL     1      -7.683   9.401  68.814  1.00  0.00    -0.079 OA 
HETATM   30  O   UNL     1      -7.543   7.701  66.979  1.00  0.00    -0.099 OA 
BRANCH  28  31
HETATM   31  C   UNL     1      -9.381   7.373  68.831  1.00  0.00    -0.145 A  
HETATM   32  C   UNL     1     -12.281   7.326  71.319  1.00  0.00    -0.389 C  
HETATM   33  C   UNL     1      -9.117   5.999  68.717  1.00  0.00    -0.124 A  
HETATM   34  C   UNL     1     -13.366   9.260  72.515  1.00  0.00    -0.463 C  
HETATM   35  C   UNL     1      -9.894   5.077  69.412  1.00  0.00    -0.273 A  
HETATM   36  C   UNL     1     -12.139   8.793  71.737  1.00  0.00    -0.418 C  
HETATM   37  C   UNL     1     -11.914   9.622  70.480  1.00  0.00    -0.172 C  
HETATM   38  H   UNL     1     -10.010   9.922  69.483  1.00  0.00     0.000 HD 
HETATM   39  N   UNL     1     -10.677   9.224  69.814  1.00  0.00    -0.227 NA 
HETATM   40  C   UNL     1     -10.934   5.524  70.218  1.00  0.00    -0.206 A  
HETATM   41  C   UNL     1     -10.430   7.852  69.643  1.00  0.00    -0.226 A  
HETATM   42  C   UNL     1     -11.201   6.899  70.349  1.00  0.00    -0.359 A  
ENDBRANCH  28  31
ENDBRANCH  26  28
ENDBRANCH  13  26
ENDBRANCH   7  13
TORSDOF 8
ENDMDL
MODEL       15
REMARK 921   NORMALIZED FREE ENERGY PREDICTED BY IDOCK:   -7.78 KCAL/MOL
REMARK 922        TOTAL FREE ENERGY PREDICTED BY IDOCK:  -12.67 KCAL/MOL
REMARK 923 INTER-LIGAND FREE ENERGY PREDICTED BY IDOCK:  -10.66 KCAL/MOL
REMARK 924 INTRA-LIGAND FREE ENERGY PREDICTED BY IDOCK:   -2.01 KCAL/MOL
REMARK 927      BINDING AFFINITY PREDICTED BY RF-SCORE:    0.00 PKD
ROOT
HETATM    1  C   UNL     1      -8.274   9.518  63.096  1.00  0.00    -0.160 C  
HETATM    2  C   UNL     1      -9.196  10.273  64.044  1.00  0.00    -0.311 C  
HETATM    3  C   UNL     1      -9.792  11.521  63.385  1.00  0.00    -0.422 C  
HETATM    4  C   UNL     1     -10.679  12.293  64.362  1.00  0.00    -0.331 C  
HETATM    5  N   UNL     1     -10.021  12.560  65.671  1.00  0.00    -0.259 N  
HETATM    6  C   UNL     1      -9.393  11.380  66.305  1.00  0.00    -0.212 C  
HETATM    7  C   UNL     1      -9.694  13.891  65.962  1.00  0.00    -0.250 C  
HETATM    8  O   UNL     1      -9.942  14.756  65.110  1.00  0.00    -0.355 OA 
HETATM    9  O   UNL     1     -11.633  10.627  66.796  1.00  0.00    -0.088 OA 
HETATM   10  C   UNL     1      -8.445  10.690  65.318  1.00  0.00    -0.152 C  
HETATM   11  C   UNL     1     -10.336  10.331  66.904  1.00  0.00    -0.239 C  
HETATM   12  O   UNL     1      -9.955   9.300  67.434  1.00  0.00    -0.173 OA 
ENDROOT
BRANCH   7  13
HETATM   13  C   UNL     1      -9.143  14.391  67.344  1.00  0.00    -0.198 C  
BRANCH  13  14
HETATM   14  C   UNL     1      -7.726  13.956  67.803  1.00  0.00    -0.177 C  
BRANCH  14  15
HETATM   15  C   UNL     1      -6.778  15.151  68.032  1.00  0.00    -0.153 C  
BRANCH  15  16
HETATM   16  C   UNL     1      -6.852  16.226  66.936  1.00  0.00    -0.160 C  
BRANCH  16  17
HETATM   17  N   UNL     1      -7.472  17.412  67.498  1.00  0.00    -0.180 NA 
HETATM   18  H2  UNL     1      -8.450  19.308  68.696  1.00  0.00     0.000 HD 
HETATM   19  H1  UNL     1      -9.922  19.339  67.651  1.00  0.00     0.000 HD 
HETATM   20  N   UNL     1      -9.443  17.557  66.185  1.00  0.00    -0.474 NA 
HETATM   21  N   UNL     1      -9.017  18.955  67.925  1.00  0.00    -0.291 NA 
HETATM   22  C   UNL     1      -8.669  17.920  67.135  1.00  0.00    -0.243 C  
HETATM   23  H   UNL     1      -6.959  17.904  68.229  1.00  0.00     0.000 HD 
HETATM   24  H1  UNL     1     -10.348  17.941  65.911  1.00  0.00     0.000 HD 
HETATM   25  H2  UNL     1      -9.110  16.774  65.622  1.00  0.00     0.000 HD 
ENDBRANCH  16  17
ENDBRANCH  15  16
ENDBRANCH  14  15
ENDBRANCH  13  14
BRANCH  13  26
HETATM   26  N   UNL     1     -10.088  14.160  68.471  1.00  0.00    -0.240 N  
HETATM   27  H   UNL     1      -9.830  13.554  69.250  1.00  0.00     0.000 HD 
BRANCH  26  28
HETATM   28  S   UNL     1     -11.612  14.929  68.435  1.00  0.00    -0.320 S  
HETATM   29  O   UNL     1     -12.376  14.359  67.356  1.00  0.00    -0.300 OA 
HETATM   30  O   UNL     1     -11.320  16.347  68.455  1.00  0.00    -0.366 OA 
BRANCH  28  31
HETATM   31  C   UNL     1     -12.313  14.464  69.997  1.00  0.00    -0.336 A  
HETATM   32  C   UNL     1     -13.049  11.431  72.204  1.00  0.00    -0.276 C  
HETATM   33  C   UNL     1     -12.881  15.488  70.771  1.00  0.00    -0.513 A  
HETATM   34  C   UNL     1     -12.766   8.985  71.670  1.00  0.00    -0.421 C  
HETATM   35  C   UNL     1     -13.461  15.198  72.002  1.00  0.00    -0.520 A  
HETATM   36  C   UNL     1     -12.868  10.394  71.091  1.00  0.00    -0.511 C  
HETATM   37  C   UNL     1     -11.628  10.771  70.292  1.00  0.00    -0.338 C  
HETATM   38  H   UNL     1     -11.551  12.226  68.684  1.00  0.00     0.000 HD 
HETATM   39  N   UNL     1     -11.798  12.078  69.663  1.00  0.00    -0.328 NA 
HETATM   40  C   UNL     1     -13.472  13.887  72.463  1.00  0.00    -0.676 A  
HETATM   41  C   UNL     1     -12.312  13.126  70.443  1.00  0.00    -0.279 A  
HETATM   42  C   UNL     1     -12.916  12.849  71.693  1.00  0.00    -0.410 A  
ENDBRANCH  28  31
ENDBRANCH  26  28
ENDBRANCH  13  26
ENDBRANCH   7  13
TORSDOF 8
ENDMDL
MODEL       16
REMARK 921   NORMALIZED FREE ENERGY PREDICTED BY IDOCK:   -7.71 KCAL/MOL
REMARK 922        TOTAL FREE ENERGY PREDICTED BY IDOCK:  -12.56 KCAL/MOL
REMARK 923 INTER-LIGAND FREE ENERGY PREDICTED BY IDOCK:  -11.28 KCAL/MOL
REMARK 924 INTRA-LIGAND FREE ENERGY PREDICTED BY IDOCK:   -1.28 KCAL/MOL
REMARK 927      BINDING AFFINITY PREDICTED BY RF-SCORE:    0.00 PKD
ROOT
HETATM    1  C   UNL     1      -5.728  19.649  65.934  1.00  0.00    -0.180 C  
HETATM    2  C   UNL     1      -6.770  19.214  66.955  1.00  0.00    -0.204 C  
HETATM    3  C   UNL     1      -6.223  18.149  67.910  1.00  0.00    -0.174 C  
HETATM    4  C   UNL     1      -7.294  17.690  68.900  1.00  0.00    -0.239 C  
HETATM    5  N   UNL     1      -8.577  17.311  68.247  1.00  0.00    -0.239 N  
HETATM    6  C   UNL     1      -9.102  18.301  67.281  1.00  0.00    -0.256 C  
HETATM    7  C   UNL     1      -8.929  15.955  68.270  1.00  0.00    -0.184 C  
HETATM    8  O   UNL     1      -8.147  15.154  68.801  1.00  0.00    -0.144 OA 
HETATM    9  O   UNL     1      -9.672  19.656  69.195  1.00  0.00    -0.403 OA 
HETATM   10  C   UNL     1      -8.022  18.664  66.256  1.00  0.00    -0.276 C  
HETATM   11  C   UNL     1      -9.688  19.592  67.862  1.00  0.00    -0.356 C  
HETATM   12  O   UNL     1     -10.133  20.502  67.181  1.00  0.00    -0.425 OA 
ENDROOT
BRANCH   7  13
HETATM   13  C   UNL     1     -10.306  15.383  67.776  1.00  0.00    -0.253 C  
BRANCH  13  14
HETATM   14  C   UNL     1     -11.613  15.819  68.489  1.00  0.00    -0.367 C  
BRANCH  14  15
HETATM   15  C   UNL     1     -11.436  15.991  70.012  1.00  0.00    -0.334 C  
BRANCH  15  16
HETATM   16  C   UNL     1     -12.578  15.391  70.845  1.00  0.00    -0.438 C  
BRANCH  16  17
HETATM   17  N   UNL     1     -12.142  15.307  72.227  1.00  0.00    -0.368 NA 
HETATM   18  H2  UNL     1     -11.319  14.906  74.497  1.00  0.00     0.000 HD 
HETATM   19  H1  UNL     1     -12.781  15.635  75.264  1.00  0.00     0.000 HD 
HETATM   20  N   UNL     1     -14.008  16.251  73.348  1.00  0.00    -0.654 NA 
HETATM   21  N   UNL     1     -12.232  15.359  74.450  1.00  0.00    -0.645 NA 
HETATM   22  C   UNL     1     -12.869  15.672  73.305  1.00  0.00    -0.527 C  
HETATM   23  H   UNL     1     -11.206  14.940  72.399  1.00  0.00     0.000 HD 
HETATM   24  H1  UNL     1     -14.557  16.528  74.163  1.00  0.00     0.000 HD 
HETATM   25  H2  UNL     1     -14.426  16.467  72.444  1.00  0.00     0.000 HD 
ENDBRANCH  16  17
ENDBRANCH  15  16
ENDBRANCH  14  15
ENDBRANCH  13  14
BRANCH  13  26
HETATM   26  N   UNL     1     -10.315  13.899  67.655  1.00  0.00    -0.240 N  
HETATM   27  H   UNL     1      -9.944  13.314  68.403  1.00  0.00     0.000 HD 
BRANCH  26  28
HETATM   28  S   UNL     1     -10.958  13.195  66.238  1.00  0.00    -0.283 S  
HETATM   29  O   UNL     1     -10.221  13.704  65.111  1.00  0.00    -0.338 OA 
HETATM   30  O   UNL     1     -12.389  13.402  66.330  1.00  0.00    -0.387 OA 
BRANCH  28  31
HETATM   31  C   UNL     1     -10.610  11.472  66.475  1.00  0.00    -0.258 A  
HETATM   32  C   UNL     1     -10.647   8.710  69.116  1.00  0.00    -0.193 C  
HETATM   33  C   UNL     1     -10.072  10.774  65.382  1.00  0.00    -0.347 A  
HETATM   34  C   UNL     1     -11.119   8.894  71.585  1.00  0.00    -0.420 C  
HETATM   35  C   UNL     1      -9.762   9.423  65.497  1.00  0.00    -0.300 A  
HETATM   36  C   UNL     1     -10.748   9.657  70.316  1.00  0.00    -0.335 C  
HETATM   37  C   UNL     1     -11.770  10.735  69.982  1.00  0.00    -0.336 C  
HETATM   38  H   UNL     1     -11.383  12.537  68.838  1.00  0.00     0.000 HD 
HETATM   39  N   UNL     1     -11.335  11.518  68.829  1.00  0.00    -0.238 NA 
HETATM   40  C   UNL     1      -9.989   8.766  66.700  1.00  0.00    -0.355 A  
HETATM   41  C   UNL     1     -10.850  10.828  67.707  1.00  0.00    -0.269 A  
HETATM   42  C   UNL     1     -10.518   9.456  67.807  1.00  0.00    -0.310 A  
ENDBRANCH  28  31
ENDBRANCH  26  28
ENDBRANCH  13  26
ENDBRANCH   7  13
TORSDOF 8
ENDMDL
MODEL       17
REMARK 921   NORMALIZED FREE ENERGY PREDICTED BY IDOCK:   -7.69 KCAL/MOL
REMARK 922        TOTAL FREE ENERGY PREDICTED BY IDOCK:  -12.53 KCAL/MOL
REMARK 923 INTER-LIGAND FREE ENERGY PREDICTED BY IDOCK:  -10.73 KCAL/MOL
REMARK 924 INTRA-LIGAND FREE ENERGY PREDICTED BY IDOCK:   -1.80 KCAL/MOL
REMARK 927      BINDING AFFINITY PREDICTED BY RF-SCORE:    0.00 PKD
ROOT
HETATM    1  C   UNL     1      -6.108  19.522  65.862  1.00  0.00    -0.202 C  
HETATM    2  C   UNL     1      -7.351  19.054  66.606  1.00  0.00    -0.235 C  
HETATM    3  C   UNL     1      -7.031  18.634  68.044  1.00  0.00    -0.247 C  
HETATM    4  C   UNL     1      -8.280  18.124  68.763  1.00  0.00    -0.225 C  
HETATM    5  N   UNL     1      -9.028  17.095  67.989  1.00  0.00    -0.228 N  
HETATM    6  C   UNL     1      -9.307  17.455  66.581  1.00  0.00    -0.265 C  
HETATM    7  C   UNL     1      -9.022  15.788  68.492  1.00  0.00    -0.194 C  
HETATM    8  O   UNL     1      -8.378  15.559  69.525  1.00  0.00    -0.250 OA 
HETATM    9  O   UNL     1     -10.947  18.999  67.448  1.00  0.00    -0.459 OA 
HETATM   10  C   UNL     1      -8.012  17.874  65.876  1.00  0.00    -0.058 C  
HETATM   11  C   UNL     1     -10.374  18.527  66.339  1.00  0.00    -0.423 C  
HETATM   12  O   UNL     1     -10.686  18.936  65.231  1.00  0.00    -0.517 OA 
ENDROOT
BRANCH   7  13
HETATM   13  C   UNL     1      -9.875  14.605  67.909  1.00  0.00    -0.217 C  
BRANCH  13  14
HETATM   14  C   UNL     1     -11.399  14.797  67.690  1.00  0.00    -0.352 C  
BRANCH  14  15
HETATM   15  C   UNL     1     -11.850  14.425  66.263  1.00  0.00    -0.391 C  
BRANCH  15  16
HETATM   16  C   UNL     1     -10.793  14.700  65.182  1.00  0.00    -0.401 C  
BRANCH  16  17
HETATM   17  N   UNL     1     -10.407  13.434  64.585  1.00  0.00    -0.520 NA 
HETATM   18  H2  UNL     1      -9.503  11.413  63.543  1.00  0.00     0.000 HD 
HETATM   19  H1  UNL     1     -10.970  11.162  62.521  1.00  0.00     0.000 HD 
HETATM   20  N   UNL     1     -12.285  12.995  63.203  1.00  0.00    -0.855 NA 
HETATM   21  N   UNL     1     -10.434  11.677  63.220  1.00  0.00    -0.395 NA 
HETATM   22  C   UNL     1     -11.116  12.752  63.661  1.00  0.00    -0.393 C  
HETATM   23  H   UNL     1      -9.524  13.025  64.891  1.00  0.00     0.000 HD 
HETATM   24  H1  UNL     1     -12.821  12.479  62.504  1.00  0.00     0.000 HD 
HETATM   25  H2  UNL     1     -12.746  13.818  63.590  1.00  0.00     0.000 HD 
ENDBRANCH  16  17
ENDBRANCH  15  16
ENDBRANCH  14  15
ENDBRANCH  13  14
BRANCH  13  26
HETATM   26  N   UNL     1      -9.667  13.320  68.632  1.00  0.00    -0.400 N  
HETATM   27  H   UNL     1     -10.047  13.184  69.569  1.00  0.00     0.000 HD 
BRANCH  26  28
HETATM   28  S   UNL     1      -8.782  12.079  67.864  1.00  0.00    -0.178 S  
HETATM   29  O   UNL     1      -7.433  12.543  67.672  1.00  0.00    -0.115 OA 
HETATM   30  O   UNL     1      -9.590  11.688  66.727  1.00  0.00    -0.186 OA 
BRANCH  28  31
HETATM   31  C   UNL     1      -8.820  10.778  69.070  1.00  0.00    -0.127 A  
HETATM   32  C   UNL     1     -11.136   9.007  71.542  1.00  0.00    -0.419 C  
HETATM   33  C   UNL     1      -7.608  10.123  69.339  1.00  0.00    -0.133 A  
HETATM   34  C   UNL     1     -13.506   9.583  72.174  1.00  0.00    -0.535 C  
HETATM   35  C   UNL     1      -7.558   9.101  70.282  1.00  0.00    -0.108 A  
HETATM   36  C   UNL     1     -12.219  10.090  71.528  1.00  0.00    -0.496 C  
HETATM   37  C   UNL     1     -12.439  10.520  70.085  1.00  0.00    -0.226 C  
HETATM   38  H   UNL     1     -11.246  11.972  68.999  1.00  0.00     0.000 HD 
HETATM   39  N   UNL     1     -11.220  11.099  69.528  1.00  0.00    -0.262 NA 
HETATM   40  C   UNL     1      -8.716   8.731  70.956  1.00  0.00    -0.248 A  
HETATM   41  C   UNL     1     -10.009  10.421  69.741  1.00  0.00    -0.124 A  
HETATM   42  C   UNL     1      -9.935   9.388  70.704  1.00  0.00    -0.349 A  
ENDBRANCH  28  31
ENDBRANCH  26  28
ENDBRANCH  13  26
ENDBRANCH   7  13
TORSDOF 8
ENDMDL
MODEL       18
REMARK 921   NORMALIZED FREE ENERGY PREDICTED BY IDOCK:   -7.64 KCAL/MOL
REMARK 922        TOTAL FREE ENERGY PREDICTED BY IDOCK:  -12.47 KCAL/MOL
REMARK 923 INTER-LIGAND FREE ENERGY PREDICTED BY IDOCK:   -9.89 KCAL/MOL
REMARK 924 INTRA-LIGAND FREE ENERGY PREDICTED BY IDOCK:   -2.57 KCAL/MOL
REMARK 927      BINDING AFFINITY PREDICTED BY RF-SCORE:    0.00 PKD
ROOT
HETATM    1  C   UNL     1      -9.031   5.928  65.875  1.00  0.00    -0.149 C  
HETATM    2  C   UNL     1      -8.428   7.316  65.716  1.00  0.00    -0.148 C  
HETATM    3  C   UNL     1      -7.357   7.597  66.776  1.00  0.00    -0.089 C  
HETATM    4  C   UNL     1      -6.793   9.011  66.632  1.00  0.00    -0.080 C  
HETATM    5  N   UNL     1      -7.846  10.060  66.549  1.00  0.00    -0.110 N  
HETATM    6  C   UNL     1      -8.920   9.789  65.568  1.00  0.00    -0.176 C  
HETATM    7  C   UNL     1      -7.960  10.939  67.634  1.00  0.00    -0.114 C  
HETATM    8  O   UNL     1      -7.206  10.775  68.603  1.00  0.00    -0.078 OA 
HETATM    9  O   UNL     1      -7.295  10.300  63.858  1.00  0.00    -0.130 OA 
HETATM   10  C   UNL     1      -9.516   8.397  65.806  1.00  0.00    -0.088 C  
HETATM   11  C   UNL     1      -8.556   9.925  64.086  1.00  0.00    -0.191 C  
HETATM   12  O   UNL     1      -9.336   9.709  63.172  1.00  0.00    -0.215 OA 
ENDROOT
BRANCH   7  13
HETATM   13  C   UNL     1      -8.897  12.199  67.666  1.00  0.00    -0.172 C  
BRANCH  13  14
HETATM   14  C   UNL     1      -8.283  13.611  67.481  1.00  0.00    -0.189 C  
BRANCH  14  15
HETATM   15  C   UNL     1      -9.299  14.638  66.940  1.00  0.00    -0.258 C  
BRANCH  15  16
HETATM   16  C   UNL     1      -9.945  14.235  65.606  1.00  0.00    -0.320 C  
BRANCH  16  17
HETATM   17  N   UNL     1     -11.356  13.984  65.836  1.00  0.00    -0.312 NA 
HETATM   18  H2  UNL     1     -13.656  13.319  66.344  1.00  0.00     0.000 HD 
HETATM   19  H1  UNL     1     -14.268  13.831  64.725  1.00  0.00     0.000 HD 
HETATM   20  N   UNL     1     -12.277  14.630  63.747  1.00  0.00    -1.048 NA 
HETATM   21  N   UNL     1     -13.523  13.712  65.412  1.00  0.00    -0.389 NA 
HETATM   22  C   UNL     1     -12.341  14.141  64.927  1.00  0.00    -0.430 C  
HETATM   23  H   UNL     1     -11.626  13.660  66.765  1.00  0.00     0.000 HD 
HETATM   24  H1  UNL     1     -13.023  14.749  63.060  1.00  0.00     0.000 HD 
HETATM   25  H2  UNL     1     -11.354  14.944  63.451  1.00  0.00     0.000 HD 
ENDBRANCH  16  17
ENDBRANCH  15  16
ENDBRANCH  14  15
ENDBRANCH  13  14
BRANCH  13  26
HETATM   26  N   UNL     1      -9.792  12.233  68.856  1.00  0.00    -0.422 N  
HETATM   27  H   UNL     1      -9.406  12.341  69.794  1.00  0.00     0.000 HD 
BRANCH  26  28
HETATM   28  S   UNL     1     -11.477  12.090  68.619  1.00  0.00    -0.323 S  
HETATM   29  O   UNL     1     -11.698  11.454  67.347  1.00  0.00    -0.574 OA 
HETATM   30  O   UNL     1     -12.008  13.412  68.879  1.00  0.00    -0.330 OA 
BRANCH  28  31
HETATM   31  C   UNL     1     -11.958  11.008  69.940  1.00  0.00    -0.351 A  
HETATM   32  C   UNL     1     -11.552   7.431  71.226  1.00  0.00    -0.306 C  
HETATM   33  C   UNL     1     -12.853  11.522  70.893  1.00  0.00    -0.293 A  
HETATM   34  C   UNL     1     -10.415   5.476  70.116  1.00  0.00    -0.370 C  
HETATM   35  C   UNL     1     -13.285  10.728  71.950  1.00  0.00    -0.524 A  
HETATM   36  C   UNL     1     -11.017   6.862  69.908  1.00  0.00    -0.318 C  
HETATM   37  C   UNL     1      -9.997   7.846  69.350  1.00  0.00    -0.189 C  
HETATM   38  H   UNL     1     -10.453   9.615  68.178  1.00  0.00     0.000 HD 
HETATM   39  N   UNL     1     -10.626   9.132  69.060  1.00  0.00    -0.220 NA 
HETATM   40  C   UNL     1     -12.824   9.421  72.060  1.00  0.00    -0.496 A  
HETATM   41  C   UNL     1     -11.477   9.685  70.030  1.00  0.00    -0.145 A  
HETATM   42  C   UNL     1     -11.937   8.890  71.106  1.00  0.00    -0.344 A  
ENDBRANCH  28  31
ENDBRANCH  26  28
ENDBRANCH  13  26
ENDBRANCH   7  13
TORSDOF 8
ENDMDL
MODEL       19
REMARK 921   NORMALIZED FREE ENERGY PREDICTED BY IDOCK:   -7.64 KCAL/MOL
REMARK 922        TOTAL FREE ENERGY PREDICTED BY IDOCK:  -12.46 KCAL/MOL
REMARK 923 INTER-LIGAND FREE ENERGY PREDICTED BY IDOCK:  -11.35 KCAL/MOL
REMARK 924 INTRA-LIGAND FREE ENERGY PREDICTED BY IDOCK:   -1.11 KCAL/MOL
REMARK 927      BINDING AFFINITY PREDICTED BY RF-SCORE:    0.00 PKD
ROOT
HETATM    1  C   UNL     1     -10.379  18.824  68.379  1.00  0.00    -0.360 C  
HETATM    2  C   UNL     1     -10.346  17.404  68.927  1.00  0.00    -0.340 C  
HETATM    3  C   UNL     1      -8.967  16.758  68.753  1.00  0.00    -0.254 C  
HETATM    4  C   UNL     1      -8.961  15.318  69.267  1.00  0.00    -0.241 C  
HETATM    5  N   UNL     1     -10.083  14.497  68.733  1.00  0.00    -0.238 N  
HETATM    6  C   UNL     1     -11.420  15.120  68.844  1.00  0.00    -0.320 C  
HETATM    7  C   UNL     1      -9.753  13.470  67.839  1.00  0.00    -0.225 C  
HETATM    8  O   UNL     1      -8.563  13.324  67.525  1.00  0.00    -0.176 OA 
HETATM    9  O   UNL     1     -11.286  14.656  71.208  1.00  0.00    -0.129 OA 
HETATM   10  C   UNL     1     -11.400  16.527  68.236  1.00  0.00    -0.180 C  
HETATM   11  C   UNL     1     -12.037  15.194  70.244  1.00  0.00    -0.341 C  
HETATM   12  O   UNL     1     -13.120  15.702  70.483  1.00  0.00    -0.436 OA 
ENDROOT
BRANCH   7  13
HETATM   13  C   UNL     1     -10.769  12.404  67.293  1.00  0.00    -0.230 C  
BRANCH  13  14
HETATM   14  C   UNL     1     -11.937  12.861  66.379  1.00  0.00    -0.462 C  
BRANCH  14  15
HETATM   15  C   UNL     1     -11.932  12.157  65.006  1.00  0.00    -0.343 C  
BRANCH  15  16
HETATM   16  C   UNL     1     -11.650  13.097  63.824  1.00  0.00    -0.425 C  
BRANCH  16  17
HETATM   17  N   UNL     1     -10.931  14.256  64.321  1.00  0.00    -0.589 NA 
HETATM   18  H2  UNL     1      -9.654  16.054  65.382  1.00  0.00     0.000 HD 
HETATM   19  H1  UNL     1     -10.888  17.307  64.975  1.00  0.00     0.000 HD 
HETATM   20  N   UNL     1     -12.475  15.990  63.833  1.00  0.00    -0.861 NA 
HETATM   21  N   UNL     1     -10.538  16.349  64.966  1.00  0.00    -0.685 NA 
HETATM   22  C   UNL     1     -11.394  15.524  64.333  1.00  0.00    -0.252 C  
HETATM   23  H   UNL     1      -9.994  14.099  64.693  1.00  0.00     0.000 HD 
HETATM   24  H1  UNL     1     -12.825  16.949  63.842  1.00  0.00     0.000 HD 
HETATM   25  H2  UNL     1     -13.069  15.311  63.360  1.00  0.00     0.000 HD 
ENDBRANCH  16  17
ENDBRANCH  15  16
ENDBRANCH  14  15
ENDBRANCH  13  14
BRANCH  13  26
HETATM   26  N   UNL     1     -11.328  11.526  68.358  1.00  0.00    -0.252 N  
HETATM   27  H   UNL     1     -12.200  11.770  68.828  1.00  0.00     0.000 HD 
BRANCH  26  28
HETATM   28  S   UNL     1     -10.482  10.104  68.779  1.00  0.00    -0.216 S  
HETATM   29  O   UNL     1      -9.134  10.472  69.128  1.00  0.00    -0.178 OA 
HETATM   30  O   UNL     1     -10.730   9.182  67.690  1.00  0.00    -0.262 OA 
BRANCH  28  31
HETATM   31  C   UNL     1     -11.360   9.547  70.216  1.00  0.00    -0.236 A  
HETATM   32  C   UNL     1     -11.590   6.637  72.683  1.00  0.00    -0.173 C  
HETATM   33  C   UNL     1     -12.408  10.358  70.678  1.00  0.00    -0.438 A  
HETATM   34  C   UNL     1     -10.395   4.419  72.624  1.00  0.00    -0.248 C  
HETATM   35  C   UNL     1     -13.149   9.979  71.792  1.00  0.00    -0.562 A  
HETATM   36  C   UNL     1     -10.805   5.647  71.816  1.00  0.00    -0.301 C  
HETATM   37  C   UNL     1      -9.599   6.378  71.241  1.00  0.00    -0.170 C  
HETATM   38  H   UNL     1      -9.602   7.631  69.470  1.00  0.00     0.000 HD 
HETATM   39  N   UNL     1     -10.024   7.483  70.387  1.00  0.00    -0.184 NA 
HETATM   40  C   UNL     1     -12.845   8.791  72.447  1.00  0.00    -0.434 A  
HETATM   41  C   UNL     1     -11.032   8.337  70.863  1.00  0.00    -0.246 A  
HETATM   42  C   UNL     1     -11.805   7.963  71.988  1.00  0.00    -0.364 A  
ENDBRANCH  28  31
ENDBRANCH  26  28
ENDBRANCH  13  26
ENDBRANCH   7  13
TORSDOF 8
ENDMDL
MODEL       20
REMARK 921   NORMALIZED FREE ENERGY PREDICTED BY IDOCK:   -7.62 KCAL/MOL
REMARK 922        TOTAL FREE ENERGY PREDICTED BY IDOCK:  -12.43 KCAL/MOL
REMARK 923 INTER-LIGAND FREE ENERGY PREDICTED BY IDOCK:  -10.84 KCAL/MOL
REMARK 924 INTRA-LIGAND FREE ENERGY PREDICTED BY IDOCK:   -1.58 KCAL/MOL
REMARK 927      BINDING AFFINITY PREDICTED BY RF-SCORE:    0.00 PKD
ROOT
HETATM    1  C   UNL     1     -10.732   7.808  72.340  1.00  0.00    -0.347 C  
HETATM    2  C   UNL     1     -10.091   8.109  70.993  1.00  0.00    -0.221 C  
HETATM    3  C   UNL     1      -8.913   9.081  71.126  1.00  0.00    -0.303 C  
HETATM    4  C   UNL     1      -8.309   9.409  69.761  1.00  0.00    -0.157 C  
HETATM    5  N   UNL     1      -9.323   9.827  68.753  1.00  0.00    -0.146 N  
HETATM    6  C   UNL     1     -10.495   8.932  68.639  1.00  0.00    -0.193 C  
HETATM    7  C   UNL     1      -9.297  11.165  68.337  1.00  0.00    -0.185 C  
HETATM    8  O   UNL     1      -8.461  11.922  68.850  1.00  0.00    -0.022 OA 
HETATM    9  O   UNL     1      -9.022   7.372  67.536  1.00  0.00    -0.126 OA 
HETATM   10  C   UNL     1     -11.121   8.703  70.020  1.00  0.00    -0.161 C  
HETATM   11  C   UNL     1     -10.269   7.575  67.966  1.00  0.00    -0.195 C  
HETATM   12  O   UNL     1     -11.141   6.731  67.828  1.00  0.00    -0.255 OA 
ENDROOT
BRANCH   7  13
HETATM   13  C   UNL     1     -10.175  11.754  67.177  1.00  0.00    -0.212 C  
BRANCH  13  14
HETATM   14  C   UNL     1     -10.509  10.869  65.947  1.00  0.00    -0.285 C  
BRANCH  14  15
HETATM   15  C   UNL     1      -9.443  10.961  64.837  1.00  0.00    -0.277 C  
BRANCH  15  16
HETATM   16  C   UNL     1      -9.948  11.608  63.538  1.00  0.00    -0.405 C  
BRANCH  16  17
HETATM   17  N   UNL     1     -11.382  11.403  63.450  1.00  0.00    -0.801 NA 
HETATM   18  H2  UNL     1     -13.743  10.841  63.133  1.00  0.00     0.000 HD 
HETATM   19  H1  UNL     1     -14.229  12.567  62.923  1.00  0.00     0.000 HD 
HETATM   20  N   UNL     1     -12.141  13.633  63.170  1.00  0.00    -0.959 NA 
HETATM   21  N   UNL     1     -13.533  11.839  63.087  1.00  0.00    -0.143 NA 
HETATM   22  C   UNL     1     -12.302  12.367  63.233  1.00  0.00    -0.391 C  
HETATM   23  H   UNL     1     -11.724  10.448  63.562  1.00  0.00     0.000 HD 
HETATM   24  H1  UNL     1     -12.837  14.362  63.005  1.00  0.00     0.000 HD 
HETATM   25  H2  UNL     1     -11.185  13.962  63.300  1.00  0.00     0.000 HD 
ENDBRANCH  16  17
ENDBRANCH  15  16
ENDBRANCH  14  15
ENDBRANCH  13  14
BRANCH  13  26
HETATM   26  N   UNL     1      -9.686  13.071  66.683  1.00  0.00    -0.250 N  
HETATM   27  H   UNL     1      -8.686  13.261  66.611  1.00  0.00     0.000 HD 
BRANCH  26  28
HETATM   28  S   UNL     1     -10.831  14.258  66.239  1.00  0.00    -0.316 S  
HETATM   29  O   UNL     1     -12.134  13.647  66.244  1.00  0.00    -0.395 OA 
HETATM   30  O   UNL     1     -10.307  14.853  65.027  1.00  0.00    -0.390 OA 
BRANCH  28  31
HETATM   31  C   UNL     1     -10.696  15.434  67.561  1.00  0.00    -0.295 A  
HETATM   32  C   UNL     1     -11.652  16.000  71.218  1.00  0.00    -0.506 C  
HETATM   33  C   UNL     1     -10.082  16.660  67.263  1.00  0.00    -0.279 A  
HETATM   34  C   UNL     1     -13.102  14.578  72.708  1.00  0.00    -0.589 C  
HETATM   35  C   UNL     1      -9.952  17.636  68.246  1.00  0.00    -0.339 A  
HETATM   36  C   UNL     1     -12.703  14.887  71.268  1.00  0.00    -0.412 C  
HETATM   37  C   UNL     1     -12.131  13.666  70.562  1.00  0.00    -0.339 C  
HETATM   38  H   UNL     1     -12.145  13.318  68.420  1.00  0.00     0.000 HD 
HETATM   39  N   UNL     1     -11.859  13.962  69.158  1.00  0.00    -0.337 NA 
HETATM   40  C   UNL     1     -10.433  17.389  69.527  1.00  0.00     0.028 A  
HETATM   41  C   UNL     1     -11.192  15.159  68.852  1.00  0.00    -0.283 A  
HETATM   42  C   UNL     1     -11.060  16.168  69.835  1.00  0.00    -0.357 A  
ENDBRANCH  28  31
ENDBRANCH  26  28
ENDBRANCH  13  26
ENDBRANCH   7  13
TORSDOF 8
ENDMDL
MODEL       21
REMARK 921   NORMALIZED FREE ENERGY PREDICTED BY IDOCK:   -7.61 KCAL/MOL
REMARK 922        TOTAL FREE ENERGY PREDICTED BY IDOCK:  -12.42 KCAL/MOL
REMARK 923 INTER-LIGAND FREE ENERGY PREDICTED BY IDOCK:  -10.73 KCAL/MOL
REMARK 924 INTRA-LIGAND FREE ENERGY PREDICTED BY IDOCK:   -1.69 KCAL/MOL
REMARK 927      BINDING AFFINITY PREDICTED BY RF-SCORE:    0.00 PKD
ROOT
HETATM    1  C   UNL     1     -10.588   5.055  70.959  1.00  0.00    -0.146 C  
HETATM    2  C   UNL     1     -10.213   6.526  71.070  1.00  0.00    -0.218 C  
HETATM    3  C   UNL     1     -11.190   7.299  71.962  1.00  0.00    -0.285 C  
HETATM    4  C   UNL     1     -10.827   8.782  72.027  1.00  0.00    -0.358 C  
HETATM    5  N   UNL     1     -10.619   9.398  70.687  1.00  0.00    -0.265 N  
HETATM    6  C   UNL     1      -9.718   8.645  69.787  1.00  0.00    -0.176 C  
HETATM    7  C   UNL     1     -11.568  10.338  70.263  1.00  0.00    -0.316 C  
HETATM    8  O   UNL     1     -12.529  10.578  71.006  1.00  0.00    -0.329 OA 
HETATM    9  O   UNL     1      -7.909   9.410  71.189  1.00  0.00    -0.325 OA 
HETATM   10  C   UNL     1     -10.173   7.185  69.683  1.00  0.00    -0.215 C  
HETATM   11  C   UNL     1      -8.223   8.676  70.120  1.00  0.00    -0.123 C  
HETATM   12  O   UNL     1      -7.372   8.081  69.478  1.00  0.00    -0.081 OA 
ENDROOT
BRANCH   7  13
HETATM   13  C   UNL     1     -11.441  11.206  68.960  1.00  0.00    -0.296 C  
BRANCH  13  14
HETATM   14  C   UNL     1     -11.204  10.505  67.596  1.00  0.00    -0.338 C  
BRANCH  14  15
HETATM   15  C   UNL     1      -9.896  10.953  66.913  1.00  0.00    -0.222 C  
BRANCH  15  16
HETATM   16  C   UNL     1     -10.071  11.378  65.447  1.00  0.00    -0.261 C  
BRANCH  16  17
HETATM   17  N   UNL     1     -11.143  12.354  65.377  1.00  0.00    -0.296 NA 
HETATM   18  H2  UNL     1     -12.996  13.946  65.531  1.00  0.00     0.000 HD 
HETATM   19  H1  UNL     1     -13.714  13.416  63.962  1.00  0.00     0.000 HD 
HETATM   20  N   UNL     1     -12.172  11.750  63.326  1.00  0.00    -0.912 NA 
HETATM   21  N   UNL     1     -13.005  13.363  64.694  1.00  0.00    -0.645 NA 
HETATM   22  C   UNL     1     -12.082  12.424  64.409  1.00  0.00    -0.426 C  
HETATM   23  H   UNL     1     -11.191  13.048  66.124  1.00  0.00     0.000 HD 
HETATM   24  H1  UNL     1     -12.882  11.802  62.595  1.00  0.00     0.000 HD 
HETATM   25  H2  UNL     1     -11.434  11.064  63.172  1.00  0.00     0.000 HD 
ENDBRANCH  16  17
ENDBRANCH  15  16
ENDBRANCH  14  15
ENDBRANCH  13  14
BRANCH  13  26
HETATM   26  N   UNL     1     -10.458  12.317  69.089  1.00  0.00    -0.429 N  
HETATM   27  H   UNL     1      -9.477  12.123  69.289  1.00  0.00     0.000 HD 
BRANCH  26  28
HETATM   28  S   UNL     1     -11.004  13.923  68.894  1.00  0.00    -0.259 S  
HETATM   29  O   UNL     1     -11.293  14.459  70.199  1.00  0.00    -0.241 OA 
HETATM   30  O   UNL     1     -12.043  13.848  67.888  1.00  0.00    -0.366 OA 
BRANCH  28  31
HETATM   31  C   UNL     1      -9.585  14.728  68.198  1.00  0.00    -0.209 A  
HETATM   32  C   UNL     1      -8.411  18.055  66.726  1.00  0.00    -0.271 C  
HETATM   33  C   UNL     1      -8.430  13.950  68.026  1.00  0.00    -0.173 A  
HETATM   34  C   UNL     1      -9.764  20.117  66.209  1.00  0.00    -0.515 C  
HETATM   35  C   UNL     1      -7.283  14.510  67.473  1.00  0.00    -0.210 A  
HETATM   36  C   UNL     1      -9.817  18.620  66.502  1.00  0.00    -0.388 C  
HETATM   37  C   UNL     1     -10.651  18.312  67.738  1.00  0.00    -0.393 C  
HETATM   38  H   UNL     1     -11.677  16.443  68.142  1.00  0.00     0.000 HD 
HETATM   39  N   UNL     1     -10.774  16.870  67.932  1.00  0.00    -0.355 NA 
HETATM   40  C   UNL     1      -7.286  15.847  67.094  1.00  0.00    -0.254 A  
HETATM   41  C   UNL     1      -9.614  16.087  67.820  1.00  0.00    -0.219 A  
HETATM   42  C   UNL     1      -8.441  16.636  67.251  1.00  0.00    -0.214 A  
ENDBRANCH  28  31
ENDBRANCH  26  28
ENDBRANCH  13  26
ENDBRANCH   7  13
TORSDOF 8
ENDMDL
MODEL       22
REMARK 921   NORMALIZED FREE ENERGY PREDICTED BY IDOCK:   -7.59 KCAL/MOL
REMARK 922        TOTAL FREE ENERGY PREDICTED BY IDOCK:  -12.38 KCAL/MOL
REMARK 923 INTER-LIGAND FREE ENERGY PREDICTED BY IDOCK:  -10.09 KCAL/MOL
REMARK 924 INTRA-LIGAND FREE ENERGY PREDICTED BY IDOCK:   -2.30 KCAL/MOL
REMARK 927      BINDING AFFINITY PREDICTED BY RF-SCORE:    0.00 PKD
ROOT
HETATM    1  C   UNL     1      -7.971   4.275  71.407  1.00  0.00    -0.081 C  
HETATM    2  C   UNL     1      -9.082   5.305  71.256  1.00  0.00    -0.169 C  
HETATM    3  C   UNL     1      -9.820   5.155  69.922  1.00  0.00    -0.289 C  
HETATM    4  C   UNL     1     -10.903   6.223  69.765  1.00  0.00    -0.336 C  
HETATM    5  N   UNL     1     -10.411   7.604  70.029  1.00  0.00    -0.217 N  
HETATM    6  C   UNL     1      -9.651   7.765  71.288  1.00  0.00    -0.157 C  
HETATM    7  C   UNL     1     -10.336   8.475  68.934  1.00  0.00    -0.210 C  
HETATM    8  O   UNL     1     -10.652   8.043  67.817  1.00  0.00    -0.223 OA 
HETATM    9  O   UNL     1     -11.767   7.553  72.428  1.00  0.00    -0.300 OA 
HETATM   10  C   UNL     1      -8.522   6.731  71.360  1.00  0.00    -0.120 C  
HETATM   11  C   UNL     1     -10.453   7.717  72.592  1.00  0.00    -0.287 C  
HETATM   12  O   UNL     1      -9.951   7.811  73.701  1.00  0.00    -0.301 OA 
ENDROOT
BRANCH   7  13
HETATM   13  C   UNL     1      -9.994  10.005  69.035  1.00  0.00    -0.196 C  
BRANCH  13  14
HETATM   14  C   UNL     1      -8.511  10.458  69.009  1.00  0.00    -0.155 C  
BRANCH  14  15
HETATM   15  C   UNL     1      -8.207  11.446  67.864  1.00  0.00    -0.132 C  
BRANCH  15  16
HETATM   16  C   UNL     1      -8.565  10.913  66.468  1.00  0.00    -0.156 C  
BRANCH  16  17
HETATM   17  N   UNL     1      -9.037  12.023  65.660  1.00  0.00    -0.430 NA 
HETATM   18  H2  UNL     1      -9.602  14.030  64.379  1.00  0.00     0.000 HD 
HETATM   19  H1  UNL     1     -11.335  13.987  64.884  1.00  0.00     0.000 HD 
HETATM   20  N   UNL     1     -11.336  12.064  66.246  1.00  0.00    -0.347 NA 
HETATM   21  N   UNL     1     -10.384  13.617  64.889  1.00  0.00    -0.393 NA 
HETATM   22  C   UNL     1     -10.296  12.512  65.655  1.00  0.00    -0.271 C  
HETATM   23  H   UNL     1      -8.360  12.471  65.043  1.00  0.00     0.000 HD 
HETATM   24  H1  UNL     1     -12.287  12.434  66.242  1.00  0.00     0.000 HD 
HETATM   25  H2  UNL     1     -11.197  11.219  66.800  1.00  0.00     0.000 HD 
ENDBRANCH  16  17
ENDBRANCH  15  16
ENDBRANCH  14  15
ENDBRANCH  13  14
BRANCH  13  26
HETATM   26  N   UNL     1     -10.668  10.682  70.177  1.00  0.00    -0.463 N  
HETATM   27  H   UNL     1     -10.136  10.970  70.998  1.00  0.00     0.000 HD 
BRANCH  26  28
HETATM   28  S   UNL     1     -12.349  10.969  70.086  1.00  0.00    -0.291 S  
HETATM   29  O   UNL     1     -13.014  10.000  70.917  1.00  0.00    -0.356 OA 
HETATM   30  O   UNL     1     -12.642  11.042  68.669  1.00  0.00    -0.304 OA 
BRANCH  28  31
HETATM   31  C   UNL     1     -12.499  12.591  70.788  1.00  0.00    -0.268 A  
HETATM   32  C   UNL     1     -11.276  16.190  70.388  1.00  0.00    -0.394 C  
HETATM   33  C   UNL     1     -13.285  12.714  71.945  1.00  0.00    -0.504 A  
HETATM   34  C   UNL     1      -9.527  17.096  68.817  1.00  0.00    -0.263 C  
HETATM   35  C   UNL     1     -13.438  13.953  72.559  1.00  0.00    -0.676 A  
HETATM   36  C   UNL     1     -10.096  15.842  69.475  1.00  0.00    -0.277 C  
HETATM   37  C   UNL     1     -10.579  14.830  68.445  1.00  0.00    -0.242 C  
HETATM   38  H   UNL     1     -10.727  12.686  68.747  1.00  0.00     0.000 HD 
HETATM   39  N   UNL     1     -11.018  13.600  69.097  1.00  0.00    -0.229 NA 
HETATM   40  C   UNL     1     -12.811  15.070  72.020  1.00  0.00    -0.410 A  
HETATM   41  C   UNL     1     -11.852  13.709  70.221  1.00  0.00    -0.266 A  
HETATM   42  C   UNL     1     -12.012  14.958  70.867  1.00  0.00    -0.374 A  
ENDBRANCH  28  31
ENDBRANCH  26  28
ENDBRANCH  13  26
ENDBRANCH   7  13
TORSDOF 8
ENDMDL
MODEL       23
REMARK 921   NORMALIZED FREE ENERGY PREDICTED BY IDOCK:   -7.58 KCAL/MOL
REMARK 922        TOTAL FREE ENERGY PREDICTED BY IDOCK:  -12.37 KCAL/MOL
REMARK 923 INTER-LIGAND FREE ENERGY PREDICTED BY IDOCK:  -11.10 KCAL/MOL
REMARK 924 INTRA-LIGAND FREE ENERGY PREDICTED BY IDOCK:   -1.27 KCAL/MOL
REMARK 927      BINDING AFFINITY PREDICTED BY RF-SCORE:    0.00 PKD
ROOT
HETATM    1  C   UNL     1     -10.153   6.471  74.159  1.00  0.00    -0.374 C  
HETATM    2  C   UNL     1     -10.950   6.880  72.929  1.00  0.00    -0.315 C  
HETATM    3  C   UNL     1     -10.469   6.152  71.669  1.00  0.00    -0.267 C  
HETATM    4  C   UNL     1     -11.248   6.606  70.435  1.00  0.00    -0.344 C  
HETATM    5  N   UNL     1     -11.310   8.086  70.288  1.00  0.00    -0.201 N  
HETATM    6  C   UNL     1     -11.724   8.818  71.505  1.00  0.00    -0.309 C  
HETATM    7  C   UNL     1     -10.601   8.652  69.220  1.00  0.00    -0.192 C  
HETATM    8  O   UNL     1      -9.946   7.899  68.485  1.00  0.00    -0.176 OA 
HETATM    9  O   UNL     1     -13.949   7.985  71.078  1.00  0.00    -0.117 OA 
HETATM   10  C   UNL     1     -10.857   8.396  72.697  1.00  0.00    -0.308 C  
HETATM   11  C   UNL     1     -13.200   8.717  71.905  1.00  0.00    -0.375 C  
HETATM   12  O   UNL     1     -13.672   9.249  72.898  1.00  0.00    -0.327 OA 
ENDROOT
BRANCH   7  13
HETATM   13  C   UNL     1     -10.668  10.166  68.808  1.00  0.00    -0.220 C  
BRANCH  13  14
HETATM   14  C   UNL     1     -11.962  10.976  69.087  1.00  0.00    -0.394 C  
BRANCH  14  15
HETATM   15  C   UNL     1     -11.738  12.140  70.074  1.00  0.00    -0.330 C  
BRANCH  15  16
HETATM   16  C   UNL     1     -11.842  13.532  69.432  1.00  0.00    -0.335 C  
BRANCH  16  17
HETATM   17  N   UNL     1     -11.527  14.527  70.440  1.00  0.00    -0.422 NA 
HETATM   18  H2  UNL     1     -10.840  16.007  72.264  1.00  0.00     0.000 HD 
HETATM   19  H1  UNL     1     -12.500  16.687  72.472  1.00  0.00     0.000 HD 
HETATM   20  N   UNL     1     -13.661  15.501  70.798  1.00  0.00    -0.847 NA 
HETATM   21  N   UNL     1     -11.828  16.069  72.016  1.00  0.00    -0.496 NA 
HETATM   22  C   UNL     1     -12.416  15.345  71.043  1.00  0.00    -0.411 C  
HETATM   23  H   UNL     1     -10.549  14.617  70.716  1.00  0.00     0.000 HD 
HETATM   24  H1  UNL     1     -14.333  16.119  71.255  1.00  0.00     0.000 HD 
HETATM   25  H2  UNL     1     -14.035  14.928  70.042  1.00  0.00     0.000 HD 
ENDBRANCH  16  17
ENDBRANCH  15  16
ENDBRANCH  14  15
ENDBRANCH  13  14
BRANCH  13  26
HETATM   26  N   UNL     1     -10.263  10.409  67.396  1.00  0.00    -0.202 N  
HETATM   27  H   UNL     1     -10.638   9.834  66.642  1.00  0.00     0.000 HD 
BRANCH  26  28
HETATM   28  S   UNL     1      -9.157  11.667  67.064  1.00  0.00    -0.185 S  
HETATM   29  O   UNL     1      -8.172  11.165  66.142  1.00  0.00    -0.169 OA 
HETATM   30  O   UNL     1      -8.756  12.169  68.362  1.00  0.00    -0.176 OA 
BRANCH  28  31
HETATM   31  C   UNL     1     -10.183  12.878  66.271  1.00  0.00    -0.278 A  
HETATM   32  C   UNL     1     -10.481  16.633  65.619  1.00  0.00    -0.313 C  
HETATM   33  C   UNL     1     -11.370  12.420  65.679  1.00  0.00    -0.387 A  
HETATM   34  C   UNL     1      -9.063  18.509  66.523  1.00  0.00    -0.299 C  
HETATM   35  C   UNL     1     -12.230  13.314  65.050  1.00  0.00    -0.477 A  
HETATM   36  C   UNL     1      -9.471  17.048  66.693  1.00  0.00    -0.279 C  
HETATM   37  C   UNL     1      -8.275  16.110  66.605  1.00  0.00    -0.286 C  
HETATM   38  H   UNL     1      -8.138  14.143  67.510  1.00  0.00     0.000 HD 
HETATM   39  N   UNL     1      -8.679  14.733  66.878  1.00  0.00    -0.236 NA 
HETATM   40  C   UNL     1     -11.907  14.665  65.010  1.00  0.00    -0.377 A  
HETATM   41  C   UNL     1      -9.832  14.244  66.244  1.00  0.00    -0.307 A  
HETATM   42  C   UNL     1     -10.726  15.139  65.610  1.00  0.00    -0.374 A  
ENDBRANCH  28  31
ENDBRANCH  26  28
ENDBRANCH  13  26
ENDBRANCH   7  13
TORSDOF 8
ENDMDL
MODEL       24
REMARK 921   NORMALIZED FREE ENERGY PREDICTED BY IDOCK:   -7.47 KCAL/MOL
REMARK 922        TOTAL FREE ENERGY PREDICTED BY IDOCK:  -12.21 KCAL/MOL
REMARK 923 INTER-LIGAND FREE ENERGY PREDICTED BY IDOCK:  -10.03 KCAL/MOL
REMARK 924 INTRA-LIGAND FREE ENERGY PREDICTED BY IDOCK:   -2.18 KCAL/MOL
REMARK 927      BINDING AFFINITY PREDICTED BY RF-SCORE:    0.00 PKD
ROOT
HETATM    1  C   UNL     1     -10.913   4.918  73.044  1.00  0.00    -0.358 C  
HETATM    2  C   UNL     1     -10.026   5.473  71.939  1.00  0.00    -0.227 C  
HETATM    3  C   UNL     1      -8.915   6.370  72.495  1.00  0.00    -0.136 C  
HETATM    4  C   UNL     1      -8.061   6.956  71.371  1.00  0.00    -0.109 C  
HETATM    5  N   UNL     1      -8.865   7.593  70.291  1.00  0.00    -0.144 N  
HETATM    6  C   UNL     1      -9.976   6.766  69.770  1.00  0.00    -0.177 C  
HETATM    7  C   UNL     1      -8.782   8.986  70.170  1.00  0.00    -0.173 C  
HETATM    8  O   UNL     1      -8.077   9.604  70.980  1.00  0.00    -0.287 OA 
HETATM    9  O   UNL     1      -8.286   5.430  68.682  1.00  0.00    -0.094 OA 
HETATM   10  C   UNL     1     -10.856   6.275  70.924  1.00  0.00    -0.329 C  
HETATM   11  C   UNL     1      -9.596   5.570  68.891  1.00  0.00    -0.136 C  
HETATM   12  O   UNL     1     -10.409   4.792  68.416  1.00  0.00    -0.041 OA 
ENDROOT
BRANCH   7  13
HETATM   13  C   UNL     1      -9.426   9.819  69.005  1.00  0.00    -0.173 C  
BRANCH  13  14
HETATM   14  C   UNL     1      -8.552  10.242  67.795  1.00  0.00    -0.118 C  
BRANCH  14  15
HETATM   15  C   UNL     1      -8.802  11.699  67.356  1.00  0.00    -0.160 C  
BRANCH  15  16
HETATM   16  C   UNL     1      -9.314  11.839  65.915  1.00  0.00    -0.202 C  
BRANCH  16  17
HETATM   17  N   UNL     1     -10.716  12.211  65.960  1.00  0.00    -0.264 NA 
HETATM   18  H2  UNL     1     -13.130  12.580  66.130  1.00  0.00     0.000 HD 
HETATM   19  H1  UNL     1     -13.213  13.432  64.540  1.00  0.00     0.000 HD 
HETATM   20  N   UNL     1     -10.948  13.355  63.894  1.00  0.00    -0.546 NA 
HETATM   21  N   UNL     1     -12.703  12.946  65.279  1.00  0.00    -0.688 NA 
HETATM   22  C   UNL     1     -11.392  12.853  64.983  1.00  0.00    -0.305 C  
HETATM   23  H   UNL     1     -11.236  11.967  66.804  1.00  0.00     0.000 HD 
HETATM   24  H1  UNL     1     -11.458  13.840  63.156  1.00  0.00     0.000 HD 
HETATM   25  H2  UNL     1      -9.945  13.257  63.742  1.00  0.00     0.000 HD 
ENDBRANCH  16  17
ENDBRANCH  15  16
ENDBRANCH  14  15
ENDBRANCH  13  14
BRANCH  13  26
HETATM   26  N   UNL     1     -10.170  11.018  69.483  1.00  0.00    -0.440 N  
HETATM   27  H   UNL     1      -9.674  11.880  69.711  1.00  0.00     0.000 HD 
BRANCH  26  28
HETATM   28  S   UNL     1     -11.867  10.922  69.642  1.00  0.00    -0.359 S  
HETATM   29  O   UNL     1     -12.174   9.800  70.490  1.00  0.00    -0.230 OA 
HETATM   30  O   UNL     1     -12.376  10.977  68.287  1.00  0.00    -0.479 OA 
BRANCH  28  31
HETATM   31  C   UNL     1     -12.261  12.443  70.466  1.00  0.00    -0.295 A  
HETATM   32  C   UNL     1     -11.638  16.211  70.328  1.00  0.00    -0.271 C  
HETATM   33  C   UNL     1     -13.032  12.353  71.636  1.00  0.00    -0.409 A  
HETATM   34  C   UNL     1     -10.088  17.500  68.816  1.00  0.00    -0.363 C  
HETATM   35  C   UNL     1     -13.370  13.502  72.342  1.00  0.00    -0.641 A  
HETATM   36  C   UNL     1     -10.436  16.126  69.382  1.00  0.00    -0.283 C  
HETATM   37  C   UNL     1     -10.771  15.127  68.283  1.00  0.00    -0.251 C  
HETATM   38  H   UNL     1     -10.568  12.971  68.424  1.00  0.00     0.000 HD 
HETATM   39  N   UNL     1     -10.994  13.798  68.844  1.00  0.00    -0.249 NA 
HETATM   40  C   UNL     1     -12.940  14.742  71.883  1.00  0.00    -0.405 A  
HETATM   41  C   UNL     1     -11.813  13.689  69.980  1.00  0.00    -0.308 A  
HETATM   42  C   UNL     1     -12.157  14.845  70.719  1.00  0.00    -0.377 A  
ENDBRANCH  28  31
ENDBRANCH  26  28
ENDBRANCH  13  26
ENDBRANCH   7  13
TORSDOF 8
ENDMDL
MODEL       25
REMARK 921   NORMALIZED FREE ENERGY PREDICTED BY IDOCK:   -7.45 KCAL/MOL
REMARK 922        TOTAL FREE ENERGY PREDICTED BY IDOCK:  -12.18 KCAL/MOL
REMARK 923 INTER-LIGAND FREE ENERGY PREDICTED BY IDOCK:  -10.70 KCAL/MOL
REMARK 924 INTRA-LIGAND FREE ENERGY PREDICTED BY IDOCK:   -1.48 KCAL/MOL
REMARK 927      BINDING AFFINITY PREDICTED BY RF-SCORE:    0.00 PKD
ROOT
HETATM    1  C   UNL     1     -10.762  18.565  67.442  1.00  0.00    -0.424 C  
HETATM    2  C   UNL     1     -10.523  17.430  68.428  1.00  0.00    -0.384 C  
HETATM    3  C   UNL     1      -9.059  16.974  68.426  1.00  0.00    -0.256 C  
HETATM    4  C   UNL     1      -8.843  15.805  69.387  1.00  0.00    -0.237 C  
HETATM    5  N   UNL     1      -9.819  14.696  69.195  1.00  0.00    -0.172 N  
HETATM    6  C   UNL     1     -11.237  15.116  69.143  1.00  0.00    -0.279 C  
HETATM    7  C   UNL     1      -9.324  13.491  68.680  1.00  0.00    -0.035 C  
HETATM    8  O   UNL     1      -8.121  13.427  68.389  1.00  0.00    -0.144 OA 
HETATM    9  O   UNL     1     -11.069  15.489  71.521  1.00  0.00    -0.359 OA 
HETATM   10  C   UNL     1     -11.422  16.227  68.104  1.00  0.00    -0.173 C  
HETATM   11  C   UNL     1     -11.878  15.558  70.462  1.00  0.00    -0.356 C  
HETATM   12  O   UNL     1     -13.030  15.951  70.559  1.00  0.00    -0.438 OA 
ENDROOT
BRANCH   7  13
HETATM   13  C   UNL     1     -10.158  12.166  68.554  1.00  0.00    -0.187 C  
BRANCH  13  14
HETATM   14  C   UNL     1     -11.640  12.151  69.013  1.00  0.00    -0.374 C  
BRANCH  14  15
HETATM   15  C   UNL     1     -12.162  10.729  69.302  1.00  0.00    -0.185 C  
BRANCH  15  16
HETATM   16  C   UNL     1     -12.672  10.530  70.738  1.00  0.00    -0.381 C  
BRANCH  16  17
HETATM   17  N   UNL     1     -13.184   9.178  70.860  1.00  0.00    -0.539 NA 
HETATM   18  H2  UNL     1     -14.156   6.932  70.811  1.00  0.00     0.000 HD 
HETATM   19  H1  UNL     1     -14.756   7.045  72.510  1.00  0.00     0.000 HD 
HETATM   20  N   UNL     1     -14.009   9.206  73.085  1.00  0.00    -1.161 NA 
HETATM   21  N   UNL     1     -14.275   7.428  71.695  1.00  0.00    -0.447 NA 
HETATM   22  C   UNL     1     -13.819   8.672  71.939  1.00  0.00    -0.432 C  
HETATM   23  H   UNL     1     -13.051   8.555  70.062  1.00  0.00     0.000 HD 
HETATM   24  H1  UNL     1     -14.490   8.823  73.900  1.00  0.00     0.000 HD 
HETATM   25  H2  UNL     1     -13.627  10.144  73.201  1.00  0.00     0.000 HD 
ENDBRANCH  16  17
ENDBRANCH  15  16
ENDBRANCH  14  15
ENDBRANCH  13  14
BRANCH  13  26
HETATM   26  N   UNL     1      -9.475  10.984  69.149  1.00  0.00    -0.401 N  
HETATM   27  H   UNL     1      -9.394  10.885  70.161  1.00  0.00     0.000 HD 
BRANCH  26  28
HETATM   28  S   UNL     1      -8.829   9.798  68.105  1.00  0.00    -0.118 S  
HETATM   29  O   UNL     1      -7.420   9.682  68.376  1.00  0.00    -0.079 OA 
HETATM   30  O   UNL     1      -9.292  10.167  66.783  1.00  0.00    -0.155 OA 
BRANCH  28  31
HETATM   31  C   UNL     1      -9.679   8.329  68.622  1.00  0.00    -0.156 A  
HETATM   32  C   UNL     1     -10.626   6.314  71.729  1.00  0.00    -0.266 C  
HETATM   33  C   UNL     1     -10.186   7.496  67.612  1.00  0.00    -0.275 A  
HETATM   34  C   UNL     1      -9.934   6.687  74.123  1.00  0.00    -0.361 C  
HETATM   35  C   UNL     1     -10.853   6.321  67.942  1.00  0.00    -0.417 A  
HETATM   36  C   UNL     1      -9.629   7.008  72.662  1.00  0.00    -0.165 C  
HETATM   37  C   UNL     1      -9.686   8.504  72.385  1.00  0.00    -0.287 C  
HETATM   38  H   UNL     1      -8.627   9.541  70.800  1.00  0.00     0.000 HD 
HETATM   39  N   UNL     1      -9.285   8.789  71.011  1.00  0.00    -0.201 NA 
HETATM   40  C   UNL     1     -11.016   5.976  69.278  1.00  0.00    -0.436 A  
HETATM   41  C   UNL     1      -9.831   8.001  69.985  1.00  0.00    -0.185 A  
HETATM   42  C   UNL     1     -10.503   6.796  70.300  1.00  0.00    -0.238 A  
ENDBRANCH  28  31
ENDBRANCH  26  28
ENDBRANCH  13  26
ENDBRANCH   7  13
TORSDOF 8
ENDMDL
MODEL       26
REMARK 921   NORMALIZED FREE ENERGY PREDICTED BY IDOCK:   -7.45 KCAL/MOL
REMARK 922        TOTAL FREE ENERGY PREDICTED BY IDOCK:  -12.18 KCAL/MOL
REMARK 923 INTER-LIGAND FREE ENERGY PREDICTED BY IDOCK:  -11.34 KCAL/MOL
REMARK 924 INTRA-LIGAND FREE ENERGY PREDICTED BY IDOCK:   -0.84 KCAL/MOL
REMARK 927      BINDING AFFINITY PREDICTED BY RF-SCORE:    0.00 PKD
ROOT
HETATM    1  C   UNL     1     -10.670   5.468  71.044  1.00  0.00    -0.275 C  
HETATM    2  C   UNL     1      -9.944   6.000  69.816  1.00  0.00    -0.223 C  
HETATM    3  C   UNL     1      -8.829   6.981  70.194  1.00  0.00    -0.145 C  
HETATM    4  C   UNL     1      -8.140   7.541  68.950  1.00  0.00    -0.127 C  
HETATM    5  N   UNL     1      -9.092   8.073  67.936  1.00  0.00    -0.132 N  
HETATM    6  C   UNL     1     -10.207   7.164  67.590  1.00  0.00    -0.198 C  
HETATM    7  C   UNL     1      -9.101   9.459  67.734  1.00  0.00    -0.125 C  
HETATM    8  O   UNL     1      -8.345  10.158  68.423  1.00  0.00    -0.108 OA 
HETATM    9  O   UNL     1      -8.578   5.851  66.388  1.00  0.00    -0.120 OA 
HETATM   10  C   UNL     1     -10.925   6.699  68.862  1.00  0.00    -0.325 C  
HETATM   11  C   UNL     1      -9.863   5.938  66.738  1.00  0.00    -0.160 C  
HETATM   12  O   UNL     1     -10.679   5.095  66.401  1.00  0.00    -0.308 OA 
ENDROOT
BRANCH   7  13
HETATM   13  C   UNL     1      -9.915  10.190  66.608  1.00  0.00    -0.216 C  
BRANCH  13  14
HETATM   14  C   UNL     1      -9.199  11.217  65.691  1.00  0.00    -0.238 C  
BRANCH  14  15
HETATM   15  C   UNL     1      -8.993  10.694  64.254  1.00  0.00    -0.214 C  
BRANCH  15  16
HETATM   16  C   UNL     1      -9.761  11.487  63.185  1.00  0.00    -0.390 C  
BRANCH  16  17
HETATM   17  N   UNL     1     -11.177  11.424  63.496  1.00  0.00    -0.712 NA 
HETATM   18  H2  UNL     1     -13.593  11.160  63.790  1.00  0.00     0.000 HD 
HETATM   19  H1  UNL     1     -13.834  12.899  64.210  1.00  0.00     0.000 HD 
HETATM   20  N   UNL     1     -11.616  13.684  64.071  1.00  0.00    -0.585 NA 
HETATM   21  N   UNL     1     -13.246  12.106  63.949  1.00  0.00    -0.681 NA 
HETATM   22  C   UNL     1     -11.954  12.473  63.842  1.00  0.00    -0.480 C  
HETATM   23  H   UNL     1     -11.624  10.508  63.450  1.00  0.00     0.000 HD 
HETATM   24  H1  UNL     1     -12.203  14.477  64.332  1.00  0.00     0.000 HD 
HETATM   25  H2  UNL     1     -10.620  13.886  63.981  1.00  0.00     0.000 HD 
ENDBRANCH  16  17
ENDBRANCH  15  16
ENDBRANCH  14  15
ENDBRANCH  13  14
BRANCH  13  26
HETATM   26  N   UNL     1     -11.175  10.810  67.104  1.00  0.00    -0.231 N  
HETATM   27  H   UNL     1     -12.073  10.347  66.962  1.00  0.00     0.000 HD 
BRANCH  26  28
HETATM   28  S   UNL     1     -11.089  12.310  67.914  1.00  0.00    -0.262 S  
HETATM   29  O   UNL     1     -11.845  13.273  67.157  1.00  0.00    -0.354 OA 
HETATM   30  O   UNL     1      -9.678  12.522  68.166  1.00  0.00    -0.212 OA 
BRANCH  28  31
HETATM   31  C   UNL     1     -11.901  11.962  69.452  1.00  0.00    -0.327 A  
HETATM   32  C   UNL     1     -13.141  13.621  72.665  1.00  0.00    -0.452 C  
HETATM   33  C   UNL     1     -12.200  10.618  69.726  1.00  0.00    -0.318 A  
HETATM   34  C   UNL     1     -12.826  15.998  73.436  1.00  0.00    -0.671 C  
HETATM   35  C   UNL     1     -12.825  10.267  70.918  1.00  0.00    -0.463 A  
HETATM   36  C   UNL     1     -12.338  14.912  72.482  1.00  0.00    -0.419 C  
HETATM   37  C   UNL     1     -12.457  15.340  71.026  1.00  0.00    -0.384 C  
HETATM   38  H   UNL     1     -11.257  14.588  69.382  1.00  0.00     0.000 HD 
HETATM   39  N   UNL     1     -11.885  14.327  70.142  1.00  0.00    -0.295 NA 
HETATM   40  C   UNL     1     -13.154  11.256  71.838  1.00  0.00    -0.510 A  
HETATM   41  C   UNL     1     -12.224  12.984  70.370  1.00  0.00    -0.310 A  
HETATM   42  C   UNL     1     -12.849  12.606  71.581  1.00  0.00    -0.367 A  
ENDBRANCH  28  31
ENDBRANCH  26  28
ENDBRANCH  13  26
ENDBRANCH   7  13
TORSDOF 8
ENDMDL
MODEL       27
REMARK 921   NORMALIZED FREE ENERGY PREDICTED BY IDOCK:   -7.42 KCAL/MOL
REMARK 922        TOTAL FREE ENERGY PREDICTED BY IDOCK:  -12.14 KCAL/MOL
REMARK 923 INTER-LIGAND FREE ENERGY PREDICTED BY IDOCK:  -10.52 KCAL/MOL
REMARK 924 INTRA-LIGAND FREE ENERGY PREDICTED BY IDOCK:   -1.62 KCAL/MOL
REMARK 927      BINDING AFFINITY PREDICTED BY RF-SCORE:    0.00 PKD
ROOT
HETATM    1  C   UNL     1      -7.559   4.224  71.600  1.00  0.00    -0.073 C  
HETATM    2  C   UNL     1      -8.872   4.954  71.354  1.00  0.00    -0.153 C  
HETATM    3  C   UNL     1      -9.372   4.761  69.919  1.00  0.00    -0.207 C  
HETATM    4  C   UNL     1     -10.666   5.537  69.674  1.00  0.00    -0.278 C  
HETATM    5  N   UNL     1     -10.588   6.962  70.098  1.00  0.00    -0.212 N  
HETATM    6  C   UNL     1     -10.062   7.179  71.463  1.00  0.00    -0.186 C  
HETATM    7  C   UNL     1     -10.606   7.931  69.086  1.00  0.00    -0.173 C  
HETATM    8  O   UNL     1     -10.655   7.549  67.908  1.00  0.00    -0.219 OA 
HETATM    9  O   UNL     1     -12.175   6.333  72.262  1.00  0.00    -0.286 OA 
HETATM   10  C   UNL     1      -8.720   6.457  71.633  1.00  0.00    -0.133 C  
HETATM   11  C   UNL     1     -10.980   6.801  72.629  1.00  0.00    -0.257 C  
HETATM   12  O   UNL     1     -10.665   6.905  73.803  1.00  0.00    -0.347 OA 
ENDROOT
BRANCH   7  13
HETATM   13  C   UNL     1     -10.690   9.479  69.336  1.00  0.00    -0.225 C  
BRANCH  13  14
HETATM   14  C   UNL     1     -11.148  10.005  70.722  1.00  0.00    -0.407 C  
BRANCH  14  15
HETATM   15  C   UNL     1     -12.674   9.905  70.925  1.00  0.00    -0.376 C  
BRANCH  15  16
HETATM   16  C   UNL     1     -13.247  10.961  71.882  1.00  0.00    -0.403 C  
BRANCH  16  17
HETATM   17  N   UNL     1     -12.724  12.260  71.499  1.00  0.00    -0.293 NA 
HETATM   18  H2  UNL     1     -11.589  14.347  70.912  1.00  0.00     0.000 HD 
HETATM   19  H1  UNL     1     -12.810  15.368  71.763  1.00  0.00     0.000 HD 
HETATM   20  N   UNL     1     -14.270  13.705  72.573  1.00  0.00    -0.726 NA 
HETATM   21  N   UNL     1     -12.438  14.466  71.464  1.00  0.00    -0.340 NA 
HETATM   22  C   UNL     1     -13.216  13.453  71.894  1.00  0.00    -0.431 C  
HETATM   23  H   UNL     1     -11.915  12.272  70.877  1.00  0.00     0.000 HD 
HETATM   24  H1  UNL     1     -14.641  14.607  72.872  1.00  0.00     0.000 HD 
HETATM   25  H2  UNL     1     -14.815  12.890  72.856  1.00  0.00     0.000 HD 
ENDBRANCH  16  17
ENDBRANCH  15  16
ENDBRANCH  14  15
ENDBRANCH  13  14
BRANCH  13  26
HETATM   26  N   UNL     1     -11.461  10.202  68.286  1.00  0.00    -0.532 N  
HETATM   27  H   UNL     1     -12.168   9.717  67.735  1.00  0.00     0.000 HD 
BRANCH  26  28
HETATM   28  S   UNL     1     -11.137  11.857  68.024  1.00  0.00    -0.261 S  
HETATM   29  O   UNL     1      -9.798  12.130  68.478  1.00  0.00    -0.209 OA 
HETATM   30  O   UNL     1     -12.263  12.559  68.605  1.00  0.00    -0.173 OA 
BRANCH  28  31
HETATM   31  C   UNL     1     -11.227  11.990  66.257  1.00  0.00    -0.342 A  
HETATM   32  C   UNL     1      -9.736  10.576  63.034  1.00  0.00    -0.337 C  
HETATM   33  C   UNL     1     -12.083  12.972  65.734  1.00  0.00    -0.510 A  
HETATM   34  C   UNL     1      -7.821   8.962  62.757  1.00  0.00    -0.130 C  
HETATM   35  C   UNL     1     -12.196  13.143  64.358  1.00  0.00    -0.462 A  
HETATM   36  C   UNL     1      -8.520   9.931  63.707  1.00  0.00    -0.182 C  
HETATM   37  C   UNL     1      -8.996   9.238  64.977  1.00  0.00    -0.197 C  
HETATM   38  H   UNL     1      -9.311  10.193  66.900  1.00  0.00     0.000 HD 
HETATM   39  N   UNL     1      -9.563  10.207  65.911  1.00  0.00    -0.201 NA 
HETATM   40  C   UNL     1     -11.457  12.335  63.503  1.00  0.00    -0.558 A  
HETATM   41  C   UNL     1     -10.466  11.157  65.410  1.00  0.00    -0.259 A  
HETATM   42  C   UNL     1     -10.587  11.354  64.014  1.00  0.00    -0.444 A  
ENDBRANCH  28  31
ENDBRANCH  26  28
ENDBRANCH  13  26
ENDBRANCH   7  13
TORSDOF 8
ENDMDL
MODEL       28
REMARK 921   NORMALIZED FREE ENERGY PREDICTED BY IDOCK:   -7.39 KCAL/MOL
REMARK 922        TOTAL FREE ENERGY PREDICTED BY IDOCK:  -12.09 KCAL/MOL
REMARK 923 INTER-LIGAND FREE ENERGY PREDICTED BY IDOCK:  -10.07 KCAL/MOL
REMARK 924 INTRA-LIGAND FREE ENERGY PREDICTED BY IDOCK:   -2.03 KCAL/MOL
REMARK 927      BINDING AFFINITY PREDICTED BY RF-SCORE:    0.00 PKD
ROOT
HETATM    1  C   UNL     1      -7.863   4.556  70.840  1.00  0.00    -0.068 C  
HETATM    2  C   UNL     1      -8.813   5.742  70.754  1.00  0.00    -0.142 C  
HETATM    3  C   UNL     1      -9.901   5.526  69.697  1.00  0.00    -0.258 C  
HETATM    4  C   UNL     1     -10.820   6.743  69.592  1.00  0.00    -0.271 C  
HETATM    5  N   UNL     1     -10.081   8.028  69.442  1.00  0.00    -0.192 N  
HETATM    6  C   UNL     1      -8.992   8.239  70.420  1.00  0.00    -0.146 C  
HETATM    7  C   UNL     1     -10.184   8.683  68.207  1.00  0.00    -0.198 C  
HETATM    8  O   UNL     1     -10.851   8.146  67.312  1.00  0.00    -0.248 OA 
HETATM    9  O   UNL     1     -10.724   8.622  72.056  1.00  0.00    -0.311 OA 
HETATM   10  C   UNL     1      -8.047   7.033  70.427  1.00  0.00    -0.119 C  
HETATM   11  C   UNL     1      -9.406   8.554  71.861  1.00  0.00    -0.267 C  
HETATM   12  O   UNL     1      -8.612   8.726  72.773  1.00  0.00    -0.412 OA 
ENDROOT
BRANCH   7  13
HETATM   13  C   UNL     1      -9.611  10.114  67.908  1.00  0.00    -0.148 C  
BRANCH  13  14
HETATM   14  C   UNL     1      -8.092  10.289  67.647  1.00  0.00    -0.106 C  
BRANCH  14  15
HETATM   15  C   UNL     1      -7.793  11.037  66.331  1.00  0.00    -0.150 C  
BRANCH  15  16
HETATM   16  C   UNL     1      -8.678  10.603  65.153  1.00  0.00    -0.186 C  
BRANCH  16  17
HETATM   17  N   UNL     1      -9.616  11.672  64.866  1.00  0.00    -0.370 NA 
HETATM   18  H2  UNL     1     -11.273  13.462  64.652  1.00  0.00     0.000 HD 
HETATM   19  H1  UNL     1     -11.918  12.816  63.095  1.00  0.00     0.000 HD 
HETATM   20  N   UNL     1     -10.538  10.926  62.811  1.00  0.00    -0.757 NA 
HETATM   21  N   UNL     1     -11.282  12.781  63.893  1.00  0.00    -0.412 NA 
HETATM   22  C   UNL     1     -10.457  11.719  63.810  1.00  0.00    -0.416 C  
HETATM   23  H   UNL     1      -9.643  12.456  65.518  1.00  0.00     0.000 HD 
HETATM   24  H1  UNL     1     -11.174  10.961  62.013  1.00  0.00     0.000 HD 
HETATM   25  H2  UNL     1      -9.876  10.151  62.810  1.00  0.00     0.000 HD 
ENDBRANCH  16  17
ENDBRANCH  15  16
ENDBRANCH  14  15
ENDBRANCH  13  14
BRANCH  13  26
HETATM   26  N   UNL     1     -10.032  11.135  68.908  1.00  0.00    -0.280 N  
HETATM   27  H   UNL     1      -9.359  11.526  69.566  1.00  0.00     0.000 HD 
BRANCH  26  28
HETATM   28  S   UNL     1     -11.664  11.637  68.930  1.00  0.00    -0.346 S  
HETATM   29  O   UNL     1     -12.326  10.960  70.014  1.00  0.00    -0.325 OA 
HETATM   30  O   UNL     1     -12.129  11.469  67.569  1.00  0.00    -0.614 OA 
BRANCH  28  31
HETATM   31  C   UNL     1     -11.526  13.371  69.281  1.00  0.00    -0.290 A  
HETATM   32  C   UNL     1      -9.847  16.582  68.063  1.00  0.00    -0.240 C  
HETATM   33  C   UNL     1     -12.185  13.845  70.425  1.00  0.00    -0.438 A  
HETATM   34  C   UNL     1      -8.127  16.872  66.245  1.00  0.00    -0.351 C  
HETATM   35  C   UNL     1     -12.112  15.191  70.771  1.00  0.00    -0.387 A  
HETATM   36  C   UNL     1      -8.809  15.879  67.182  1.00  0.00    -0.228 C  
HETATM   37  C   UNL     1      -9.514  14.768  66.417  1.00  0.00    -0.301 C  
HETATM   38  H   UNL     1      -9.936  12.778  67.174  1.00  0.00     0.000 HD 
HETATM   39  N   UNL     1     -10.065  13.777  67.338  1.00  0.00    -0.242 NA 
HETATM   40  C   UNL     1     -11.381  16.065  69.974  1.00  0.00    -0.353 A  
HETATM   41  C   UNL     1     -10.778  14.238  68.456  1.00  0.00    -0.255 A  
HETATM   42  C   UNL     1     -10.706  15.601  68.830  1.00  0.00    -0.238 A  
ENDBRANCH  28  31
ENDBRANCH  26  28
ENDBRANCH  13  26
ENDBRANCH   7  13
TORSDOF 8
ENDMDL
MODEL       29
REMARK 921   NORMALIZED FREE ENERGY PREDICTED BY IDOCK:   -7.38 KCAL/MOL
REMARK 922        TOTAL FREE ENERGY PREDICTED BY IDOCK:  -12.09 KCAL/MOL
REMARK 923 INTER-LIGAND FREE ENERGY PREDICTED BY IDOCK:  -11.43 KCAL/MOL
REMARK 924 INTRA-LIGAND FREE ENERGY PREDICTED BY IDOCK:   -0.66 KCAL/MOL
REMARK 927      BINDING AFFINITY PREDICTED BY RF-SCORE:    0.00 PKD
ROOT
HETATM    1  C   UNL     1     -10.523  18.860  66.150  1.00  0.00    -0.521 C  
HETATM    2  C   UNL     1     -10.107  17.427  66.449  1.00  0.00    -0.330 C  
HETATM    3  C   UNL     1     -10.618  16.451  65.384  1.00  0.00    -0.338 C  
HETATM    4  C   UNL     1     -10.232  15.011  65.721  1.00  0.00    -0.338 C  
HETATM    5  N   UNL     1     -10.581  14.618  67.114  1.00  0.00    -0.279 N  
HETATM    6  C   UNL     1     -10.142  15.569  68.159  1.00  0.00    -0.218 C  
HETATM    7  C   UNL     1     -11.601  13.672  67.274  1.00  0.00    -0.356 C  
HETATM    8  O   UNL     1     -12.169  13.244  66.260  1.00  0.00    -0.409 OA 
HETATM    9  O   UNL     1      -7.903  14.766  67.752  1.00  0.00    -0.125 OA 
HETATM   10  C   UNL     1     -10.627  16.983  67.825  1.00  0.00    -0.350 C  
HETATM   11  C   UNL     1      -8.641  15.619  68.465  1.00  0.00    -0.180 C  
HETATM   12  O   UNL     1      -8.140  16.372  69.284  1.00  0.00    -0.228 OA 
ENDROOT
BRANCH   7  13
HETATM   13  C   UNL     1     -12.004  13.018  68.645  1.00  0.00    -0.263 C  
BRANCH  13  14
HETATM   14  C   UNL     1     -12.702  13.883  69.727  1.00  0.00     0.055 C  
BRANCH  14  15
HETATM   15  C   UNL     1     -12.298  13.486  71.162  1.00  0.00    -0.377 C  
BRANCH  15  16
HETATM   16  C   UNL     1     -13.479  13.401  72.142  1.00  0.00    -0.552 C  
BRANCH  16  17
HETATM   17  N   UNL     1     -13.680  14.711  72.733  1.00  0.00    -0.534 NA 
HETATM   18  H2  UNL     1     -14.059  17.015  73.468  1.00  0.00     0.000 HD 
HETATM   19  H1  UNL     1     -12.692  16.970  74.646  1.00  0.00     0.000 HD 
HETATM   20  N   UNL     1     -11.918  14.768  74.320  1.00  0.00    -0.585 NA 
HETATM   21  N   UNL     1     -13.282  16.543  73.931  1.00  0.00    -0.492 NA 
HETATM   22  C   UNL     1     -12.900  15.276  73.679  1.00  0.00    -0.525 C  
HETATM   23  H   UNL     1     -14.481  15.252  72.405  1.00  0.00     0.000 HD 
HETATM   24  H1  UNL     1     -11.327  15.195  75.035  1.00  0.00     0.000 HD 
HETATM   25  H2  UNL     1     -11.692  13.802  74.084  1.00  0.00     0.000 HD 
ENDBRANCH  16  17
ENDBRANCH  15  16
ENDBRANCH  14  15
ENDBRANCH  13  14
BRANCH  13  26
HETATM   26  N   UNL     1     -10.886  12.277  69.291  1.00  0.00    -0.435 N  
HETATM   27  H   UNL     1     -10.345  12.704  70.044  1.00  0.00     0.000 HD 
BRANCH  26  28
HETATM   28  S   UNL     1     -10.526  10.698  68.750  1.00  0.00    -0.208 S  
HETATM   29  O   UNL     1      -9.095  10.540  68.749  1.00  0.00    -0.150 OA 
HETATM   30  O   UNL     1     -11.280  10.539  67.524  1.00  0.00    -0.320 OA 
BRANCH  28  31
HETATM   31  C   UNL     1     -11.257   9.685  70.010  1.00  0.00    -0.231 A  
HETATM   32  C   UNL     1     -11.161   6.166  71.499  1.00  0.00    -0.346 C  
HETATM   33  C   UNL     1     -12.294  10.255  70.765  1.00  0.00    -0.445 A  
HETATM   34  C   UNL     1      -9.888   4.147  70.695  1.00  0.00    -0.249 C  
HETATM   35  C   UNL     1     -12.923   9.517  71.762  1.00  0.00    -0.502 A  
HETATM   36  C   UNL     1     -10.413   5.530  70.323  1.00  0.00    -0.365 C  
HETATM   37  C   UNL     1      -9.290   6.473  69.913  1.00  0.00    -0.152 C  
HETATM   38  H   UNL     1      -9.493   8.192  68.604  1.00  0.00     0.000 HD 
HETATM   39  N   UNL     1      -9.830   7.752  69.461  1.00  0.00    -0.176 NA 
HETATM   40  C   UNL     1     -12.517   8.210  72.008  1.00  0.00    -0.375 A  
HETATM   41  C   UNL     1     -10.827   8.361  70.240  1.00  0.00    -0.239 A  
HETATM   42  C   UNL     1     -11.487   7.623  71.251  1.00  0.00    -0.293 A  
ENDBRANCH  28  31
ENDBRANCH  26  28
ENDBRANCH  13  26
ENDBRANCH   7  13
TORSDOF 8
ENDMDL
MODEL       30
REMARK 921   NORMALIZED FREE ENERGY PREDICTED BY IDOCK:   -7.35 KCAL/MOL
REMARK 922        TOTAL FREE ENERGY PREDICTED BY IDOCK:  -12.03 KCAL/MOL
REMARK 923 INTER-LIGAND FREE ENERGY PREDICTED BY IDOCK:   -9.87 KCAL/MOL
REMARK 924 INTRA-LIGAND FREE ENERGY PREDICTED BY IDOCK:   -2.17 KCAL/MOL
REMARK 927      BINDING AFFINITY PREDICTED BY RF-SCORE:    0.00 PKD
ROOT
HETATM    1  C   UNL     1      -9.594   6.711  67.473  1.00  0.00    -0.142 C  
HETATM    2  C   UNL     1      -8.910   7.992  67.017  1.00  0.00    -0.143 C  
HETATM    3  C   UNL     1      -7.786   8.409  67.972  1.00  0.00    -0.111 C  
HETATM    4  C   UNL     1      -7.139   9.720  67.526  1.00  0.00    -0.088 C  
HETATM    5  N   UNL     1      -8.126  10.800  67.250  1.00  0.00    -0.116 N  
HETATM    6  C   UNL     1      -9.249  10.410  66.370  1.00  0.00    -0.161 C  
HETATM    7  C   UNL     1      -8.145  11.889  68.132  1.00  0.00    -0.155 C  
HETATM    8  O   UNL     1      -7.368  11.876  69.098  1.00  0.00    -0.077 OA 
HETATM    9  O   UNL     1      -7.657  10.445  64.557  1.00  0.00    -0.126 OA 
HETATM   10  C   UNL     1      -9.923   9.141  66.905  1.00  0.00    -0.304 C  
HETATM   11  C   UNL     1      -8.930  10.213  64.885  1.00  0.00    -0.197 C  
HETATM   12  O   UNL     1      -9.755   9.868  64.053  1.00  0.00    -0.206 OA 
ENDROOT
BRANCH   7  13
HETATM   13  C   UNL     1      -8.998  13.191  67.923  1.00  0.00    -0.200 C  
BRANCH  13  14
HETATM   14  C   UNL     1      -8.310  14.478  67.396  1.00  0.00    -0.217 C  
BRANCH  14  15
HETATM   15  C   UNL     1      -9.128  15.186  66.297  1.00  0.00    -0.313 C  
BRANCH  15  16
HETATM   16  C   UNL     1      -9.469  14.290  65.097  1.00  0.00     0.528 C  
BRANCH  16  17
HETATM   17  N   UNL     1     -10.906  14.320  64.895  1.00  0.00    -0.396 NA 
HETATM   18  H2  UNL     1     -13.305  14.110  64.455  1.00  0.00     0.000 HD 
HETATM   19  H1  UNL     1     -13.422  15.765  63.743  1.00  0.00     0.000 HD 
HETATM   20  N   UNL     1     -11.185  16.480  63.952  1.00  0.00    -1.400 NA 
HETATM   21  N   UNL     1     -12.898  15.003  64.174  1.00  0.00    -0.524 NA 
HETATM   22  C   UNL     1     -11.599  15.329  64.325  1.00  0.00    -0.197 C  
HETATM   23  H   UNL     1     -11.439  13.509  65.211  1.00  0.00     0.000 HD 
HETATM   24  H1  UNL     1     -11.709  17.242  63.521  1.00  0.00     0.000 HD 
HETATM   25  H2  UNL     1     -10.193  16.661  64.106  1.00  0.00     0.000 HD 
ENDBRANCH  16  17
ENDBRANCH  15  16
ENDBRANCH  14  15
ENDBRANCH  13  14
BRANCH  13  26
HETATM   26  N   UNL     1      -9.815  13.554  69.114  1.00  0.00    -0.378 N  
HETATM   27  H   UNL     1      -9.441  13.439  70.056  1.00  0.00     0.000 HD 
BRANCH  26  28
HETATM   28  S   UNL     1     -11.390  14.167  68.873  1.00  0.00    -0.296 S  
HETATM   29  O   UNL     1     -11.891  13.639  67.631  1.00  0.00    -0.340 OA 
HETATM   30  O   UNL     1     -11.272  15.598  69.064  1.00  0.00    -0.263 OA 
BRANCH  28  31
HETATM   31  C   UNL     1     -12.284  13.476  70.241  1.00  0.00    -0.347 A  
HETATM   32  C   UNL     1     -12.978  10.182  72.051  1.00  0.00    -0.508 C  
HETATM   33  C   UNL     1     -13.112  14.347  70.967  1.00  0.00    -0.417 A  
HETATM   34  C   UNL     1     -12.278   7.849  71.405  1.00  0.00    -0.337 C  
HETATM   35  C   UNL     1     -13.853  13.874  72.045  1.00  0.00    -0.588 A  
HETATM   36  C   UNL     1     -12.467   9.283  70.920  1.00  0.00    -0.189 C  
HETATM   37  C   UNL     1     -11.169   9.881  70.393  1.00  0.00    -0.313 C  
HETATM   38  H   UNL     1     -11.009  11.479  68.935  1.00  0.00     0.000 HD 
HETATM   39  N   UNL     1     -11.401  11.211  69.838  1.00  0.00    -0.279 NA 
HETATM   40  C   UNL     1     -13.767  12.533  72.401  1.00  0.00    -0.284 A  
HETATM   41  C   UNL     1     -12.180  12.111  70.583  1.00  0.00    -0.300 A  
HETATM   42  C   UNL     1     -12.950  11.647  71.675  1.00  0.00    -0.483 A  
ENDBRANCH  28  31
ENDBRANCH  26  28
ENDBRANCH  13  26
ENDBRANCH   7  13
TORSDOF 8
ENDMDL
MODEL       31
REMARK 921   NORMALIZED FREE ENERGY PREDICTED BY IDOCK:   -7.27 KCAL/MOL
REMARK 922        TOTAL FREE ENERGY PREDICTED BY IDOCK:  -11.92 KCAL/MOL
REMARK 923 INTER-LIGAND FREE ENERGY PREDICTED BY IDOCK:  -10.16 KCAL/MOL
REMARK 924 INTRA-LIGAND FREE ENERGY PREDICTED BY IDOCK:   -1.76 KCAL/MOL
REMARK 927      BINDING AFFINITY PREDICTED BY RF-SCORE:    0.00 PKD
ROOT
HETATM    1  C   UNL     1      -8.880  16.763  66.088  1.00  0.00    -0.298 C  
HETATM    2  C   UNL     1     -10.101  15.905  66.389  1.00  0.00    -0.306 C  
HETATM    3  C   UNL     1     -10.670  16.192  67.783  1.00  0.00    -0.325 C  
HETATM    4  C   UNL     1     -11.867  15.291  68.088  1.00  0.00    -0.195 C  
HETATM    5  N   UNL     1     -11.599  13.849  67.833  1.00  0.00    -0.322 N  
HETATM    6  C   UNL     1     -11.003  13.549  66.513  1.00  0.00    -0.291 C  
HETATM    7  C   UNL     1     -11.533  13.004  68.949  1.00  0.00    -0.299 C  
HETATM    8  O   UNL     1     -11.669  13.506  70.073  1.00  0.00    -0.286 OA 
HETATM    9  O   UNL     1     -13.176  14.028  65.578  1.00  0.00    -0.710 OA 
HETATM   10  C   UNL     1      -9.756  14.411  66.288  1.00  0.00    -0.330 C  
HETATM   11  C   UNL     1     -11.920  13.676  65.292  1.00  0.00    -0.376 C  
HETATM   12  O   UNL     1     -11.553  13.483  64.144  1.00  0.00    -0.384 OA 
ENDROOT
BRANCH   7  13
HETATM   13  C   UNL     1     -11.417  11.440  68.877  1.00  0.00    -0.298 C  
BRANCH  13  14
HETATM   14  C   UNL     1     -12.391  10.563  69.707  1.00  0.00    -0.200 C  
BRANCH  14  15
HETATM   15  C   UNL     1     -11.857  10.248  71.119  1.00  0.00    -0.455 C  
BRANCH  15  16
HETATM   16  C   UNL     1     -12.918   9.686  72.077  1.00  0.00    -0.428 C  
BRANCH  16  17
HETATM   17  N   UNL     1     -12.500   8.362  72.500  1.00  0.00    -0.555 NA 
HETATM   18  H2  UNL     1     -11.554   6.249  73.295  1.00  0.00     0.000 HD 
HETATM   19  H1  UNL     1     -12.125   5.333  71.848  1.00  0.00     0.000 HD 
HETATM   20  N   UNL     1     -13.207   7.052  70.653  1.00  0.00    -0.399 NA 
HETATM   21  N   UNL     1     -12.032   6.189  72.396  1.00  0.00    -0.256 NA 
HETATM   22  C   UNL     1     -12.623   7.229  71.776  1.00  0.00    -0.341 C  
HETATM   23  H   UNL     1     -12.076   8.281  73.425  1.00  0.00     0.000 HD 
HETATM   24  H1  UNL     1     -13.300   6.196  70.105  1.00  0.00     0.000 HD 
HETATM   25  H2  UNL     1     -13.641   7.881  70.247  1.00  0.00     0.000 HD 
ENDBRANCH  16  17
ENDBRANCH  15  16
ENDBRANCH  14  15
ENDBRANCH  13  14
BRANCH  13  26
HETATM   26  N   UNL     1     -10.032  10.944  69.108  1.00  0.00    -0.335 N  
HETATM   27  H   UNL     1      -9.577  11.076  70.012  1.00  0.00     0.000 HD 
BRANCH  26  28
HETATM   28  S   UNL     1      -9.221  10.149  67.834  1.00  0.00    -0.138 S  
HETATM   29  O   UNL     1      -7.805  10.243  68.076  1.00  0.00    -0.098 OA 
HETATM   30  O   UNL     1      -9.794  10.697  66.622  1.00  0.00    -0.188 OA 
BRANCH  28  31
HETATM   31  C   UNL     1      -9.767   8.471  68.020  1.00  0.00    -0.154 A  
HETATM   32  C   UNL     1      -9.613   5.482  70.398  1.00  0.00    -0.224 C  
HETATM   33  C   UNL     1     -10.478   7.909  66.948  1.00  0.00    -0.388 A  
HETATM   34  C   UNL     1      -8.288   5.226  72.526  1.00  0.00    -0.118 C  
HETATM   35  C   UNL     1     -10.927   6.594  67.017  1.00  0.00    -0.463 A  
HETATM   36  C   UNL     1      -8.445   6.020  71.232  1.00  0.00    -0.128 C  
HETATM   37  C   UNL     1      -8.697   7.498  71.498  1.00  0.00    -0.116 C  
HETATM   38  H   UNL     1      -8.227   9.127  70.145  1.00  0.00     0.000 HD 
HETATM   39  N   UNL     1      -8.735   8.248  70.246  1.00  0.00    -0.137 NA 
HETATM   40  C   UNL     1     -10.669   5.839  68.155  1.00  0.00    -0.288 A  
HETATM   41  C   UNL     1      -9.492   7.725  69.185  1.00  0.00    -0.151 A  
HETATM   42  C   UNL     1      -9.947   6.387  69.232  1.00  0.00    -0.178 A  
ENDBRANCH  28  31
ENDBRANCH  26  28
ENDBRANCH  13  26
ENDBRANCH   7  13
TORSDOF 8
ENDMDL
MODEL       32
REMARK 921   NORMALIZED FREE ENERGY PREDICTED BY IDOCK:   -7.23 KCAL/MOL
REMARK 922        TOTAL FREE ENERGY PREDICTED BY IDOCK:  -11.86 KCAL/MOL
REMARK 923 INTER-LIGAND FREE ENERGY PREDICTED BY IDOCK:  -10.48 KCAL/MOL
REMARK 924 INTRA-LIGAND FREE ENERGY PREDICTED BY IDOCK:   -1.38 KCAL/MOL
REMARK 927      BINDING AFFINITY PREDICTED BY RF-SCORE:    0.00 PKD
ROOT
HETATM    1  C   UNL     1     -11.080  16.391  70.575  1.00  0.00    -0.214 C  
HETATM    2  C   UNL     1     -10.811  15.756  69.219  1.00  0.00    -0.255 C  
HETATM    3  C   UNL     1     -12.032  14.994  68.693  1.00  0.00    -0.278 C  
HETATM    4  C   UNL     1     -11.732  14.324  67.352  1.00  0.00    -0.394 C  
HETATM    5  N   UNL     1     -10.479  13.519  67.363  1.00  0.00    -0.247 N  
HETATM    6  C   UNL     1      -9.295  14.215  67.912  1.00  0.00    -0.204 C  
HETATM    7  C   UNL     1     -10.614  12.128  67.266  1.00  0.00    -0.227 C  
HETATM    8  O   UNL     1     -11.756  11.651  67.208  1.00  0.00    -0.568 OA 
HETATM    9  O   UNL     1      -9.277  15.499  65.869  1.00  0.00    -0.333 OA 
HETATM   10  C   UNL     1      -9.615  14.794  69.294  1.00  0.00    -0.082 C  
HETATM   11  C   UNL     1      -8.674  15.315  67.045  1.00  0.00    -0.234 C  
HETATM   12  O   UNL     1      -7.712  15.985  67.385  1.00  0.00    -0.140 OA 
ENDROOT
BRANCH   7  13
HETATM   13  C   UNL     1      -9.415  11.126  67.104  1.00  0.00    -0.172 C  
BRANCH  13  14
HETATM   14  C   UNL     1      -8.759  10.939  65.710  1.00  0.00    -0.196 C  
BRANCH  14  15
HETATM   15  C   UNL     1      -9.563   9.995  64.792  1.00  0.00    -0.374 C  
BRANCH  15  16
HETATM   16  C   UNL     1      -9.779  10.539  63.372  1.00  0.00    -0.316 C  
BRANCH  16  17
HETATM   17  N   UNL     1     -11.053  11.234  63.335  1.00  0.00    -0.776 NA 
HETATM   18  H2  UNL     1     -13.251  12.267  63.032  1.00  0.00     0.000 HD 
HETATM   19  H1  UNL     1     -12.654  13.908  63.492  1.00  0.00     0.000 HD 
HETATM   20  N   UNL     1     -10.388  13.432  63.932  1.00  0.00    -0.668 NA 
HETATM   21  N   UNL     1     -12.516  12.910  63.328  1.00  0.00    -0.690 NA 
HETATM   22  C   UNL     1     -11.236  12.553  63.552  1.00  0.00    -0.462 C  
HETATM   23  H   UNL     1     -11.881  10.676  63.126  1.00  0.00     0.000 HD 
HETATM   24  H1  UNL     1     -10.527  14.429  64.096  1.00  0.00     0.000 HD 
HETATM   25  H2  UNL     1      -9.442  13.088  64.092  1.00  0.00     0.000 HD 
ENDBRANCH  16  17
ENDBRANCH  15  16
ENDBRANCH  14  15
ENDBRANCH  13  14
BRANCH  13  26
HETATM   26  N   UNL     1      -9.697   9.778  67.670  1.00  0.00    -0.152 N  
HETATM   27  H   UNL     1     -10.356   9.149  67.211  1.00  0.00     0.000 HD 
BRANCH  26  28
HETATM   28  S   UNL     1      -8.895   9.304  69.100  1.00  0.00    -0.145 S  
HETATM   29  O   UNL     1      -8.037  10.385  69.512  1.00  0.00    -0.161 OA 
HETATM   30  O   UNL     1      -8.338   7.999  68.807  1.00  0.00    -0.124 OA 
BRANCH  28  31
HETATM   31  C   UNL     1     -10.236   9.113  70.246  1.00  0.00    -0.214 A  
HETATM   32  C   UNL     1     -11.635   6.747  72.902  1.00  0.00    -0.020 C  
HETATM   33  C   UNL     1     -11.237  10.097  70.226  1.00  0.00    -0.387 A  
HETATM   34  C   UNL     1     -10.831   4.447  73.548  1.00  0.00    -0.358 C  
HETATM   35  C   UNL     1     -12.326  10.006  71.087  1.00  0.00    -0.477 A  
HETATM   36  C   UNL     1     -10.788   5.540  72.483  1.00  0.00    -0.302 C  
HETATM   37  C   UNL     1      -9.369   6.027  72.225  1.00  0.00    -0.143 C  
HETATM   38  H   UNL     1      -8.652   6.925  70.385  1.00  0.00     0.000 HD 
HETATM   39  N   UNL     1      -9.346   6.992  71.130  1.00  0.00    -0.158 NA 
HETATM   40  C   UNL     1     -12.417   8.936  71.969  1.00  0.00    -0.461 A  
HETATM   41  C   UNL     1     -10.306   8.017  71.131  1.00  0.00    -0.197 A  
HETATM   42  C   UNL     1     -11.426   7.937  71.991  1.00  0.00    -0.351 A  
ENDBRANCH  28  31
ENDBRANCH  26  28
ENDBRANCH  13  26
ENDBRANCH   7  13
TORSDOF 8
ENDMDL
MODEL       33
REMARK 921   NORMALIZED FREE ENERGY PREDICTED BY IDOCK:   -7.13 KCAL/MOL
REMARK 922        TOTAL FREE ENERGY PREDICTED BY IDOCK:  -11.72 KCAL/MOL
REMARK 923 INTER-LIGAND FREE ENERGY PREDICTED BY IDOCK:   -9.39 KCAL/MOL
REMARK 924 INTRA-LIGAND FREE ENERGY PREDICTED BY IDOCK:   -2.32 KCAL/MOL
REMARK 927      BINDING AFFINITY PREDICTED BY RF-SCORE:    0.00 PKD
ROOT
HETATM    1  C   UNL     1      -9.676   3.967  67.051  1.00  0.00    -0.214 C  
HETATM    2  C   UNL     1      -8.811   5.205  67.241  1.00  0.00    -0.105 C  
HETATM    3  C   UNL     1      -8.588   5.523  68.723  1.00  0.00    -0.100 C  
HETATM    4  C   UNL     1      -7.756   6.794  68.898  1.00  0.00    -0.110 C  
HETATM    5  N   UNL     1      -8.267   7.946  68.106  1.00  0.00    -0.122 N  
HETATM    6  C   UNL     1      -8.538   7.653  66.681  1.00  0.00    -0.133 C  
HETATM    7  C   UNL     1      -8.822   9.016  68.820  1.00  0.00    -0.137 C  
HETATM    8  O   UNL     1      -8.883   8.929  70.055  1.00  0.00    -0.142 OA 
HETATM    9  O   UNL     1      -6.144   7.610  66.379  1.00  0.00    -0.042 OA 
HETATM   10  C   UNL     1      -9.448   6.425  66.558  1.00  0.00    -0.189 C  
HETATM   11  C   UNL     1      -7.322   7.463  65.769  1.00  0.00    -0.074 C  
HETATM   12  O   UNL     1      -7.400   7.194  64.581  1.00  0.00    -0.068 OA 
ENDROOT
BRANCH   7  13
HETATM   13  C   UNL     1      -9.269  10.379  68.180  1.00  0.00    -0.145 C  
BRANCH  13  14
HETATM   14  C   UNL     1      -8.273  11.165  67.286  1.00  0.00    -0.136 C  
BRANCH  14  15
HETATM   15  C   UNL     1      -8.802  11.388  65.855  1.00  0.00    -0.149 C  
BRANCH  15  16
HETATM   16  C   UNL     1     -10.100  10.627  65.543  1.00  0.00    -0.280 C  
BRANCH  16  17
HETATM   17  N   UNL     1     -11.186  11.585  65.463  1.00  0.00    -0.198 NA 
HETATM   18  H2  UNL     1     -13.137  13.062  65.542  1.00  0.00     0.000 HD 
HETATM   19  H1  UNL     1     -13.312  13.093  63.746  1.00  0.00     0.000 HD 
HETATM   20  N   UNL     1     -11.509  11.711  63.116  1.00  0.00    -0.841 NA 
HETATM   21  N   UNL     1     -12.847  12.790  64.603  1.00  0.00    -0.743 NA 
HETATM   22  C   UNL     1     -11.801  11.986  64.330  1.00  0.00    -0.313 C  
HETATM   23  H   UNL     1     -11.514  11.992  66.340  1.00  0.00     0.000 HD 
HETATM   24  H1  UNL     1     -11.974  12.013  62.259  1.00  0.00     0.000 HD 
HETATM   25  H2  UNL     1     -10.700  11.105  62.986  1.00  0.00     0.000 HD 
ENDBRANCH  16  17
ENDBRANCH  15  16
ENDBRANCH  14  15
ENDBRANCH  13  14
BRANCH  13  26
HETATM   26  N   UNL     1      -9.856  11.326  69.168  1.00  0.00    -0.416 N  
HETATM   27  H   UNL     1      -9.261  11.977  69.680  1.00  0.00     0.000 HD 
BRANCH  26  28
HETATM   28  S   UNL     1     -11.544  11.303  69.425  1.00  0.00    -0.353 S  
HETATM   29  O   UNL     1     -11.807  10.508  70.596  1.00  0.00    -0.305 OA 
HETATM   30  O   UNL     1     -12.115  10.933  68.146  1.00  0.00    -0.563 OA 
BRANCH  28  31
HETATM   31  C   UNL     1     -11.906  13.010  69.745  1.00  0.00    -0.311 A  
HETATM   32  C   UNL     1     -11.474  16.520  68.295  1.00  0.00    -0.075 C  
HETATM   33  C   UNL     1     -12.529  13.312  70.966  1.00  0.00    -0.422 A  
HETATM   34  C   UNL     1     -10.174  17.238  66.260  1.00  0.00    -0.347 C  
HETATM   35  C   UNL     1     -12.833  14.629  71.291  1.00  0.00    -0.405 A  
HETATM   36  C   UNL     1     -10.390  16.129  67.286  1.00  0.00    -0.287 C  
HETATM   37  C   UNL     1     -10.807  14.820  66.629  1.00  0.00    -0.319 C  
HETATM   38  H   UNL     1     -10.492  12.835  67.446  1.00  0.00     0.000 HD 
HETATM   39  N   UNL     1     -10.902  13.753  67.621  1.00  0.00    -0.252 NA 
HETATM   40  C   UNL     1     -12.517  15.647  70.399  1.00  0.00    -0.409 A  
HETATM   41  C   UNL     1     -11.575  14.025  68.823  1.00  0.00    -0.331 A  
HETATM   42  C   UNL     1     -11.882  15.360  69.177  1.00  0.00    -0.357 A  
ENDBRANCH  28  31
ENDBRANCH  26  28
ENDBRANCH  13  26
ENDBRANCH   7  13
TORSDOF 8
ENDMDL
MODEL       34
REMARK 921   NORMALIZED FREE ENERGY PREDICTED BY IDOCK:   -7.13 KCAL/MOL
REMARK 922        TOTAL FREE ENERGY PREDICTED BY IDOCK:  -11.71 KCAL/MOL
REMARK 923 INTER-LIGAND FREE ENERGY PREDICTED BY IDOCK:   -9.86 KCAL/MOL
REMARK 924 INTRA-LIGAND FREE ENERGY PREDICTED BY IDOCK:   -1.85 KCAL/MOL
REMARK 927      BINDING AFFINITY PREDICTED BY RF-SCORE:    0.00 PKD
ROOT
HETATM    1  C   UNL     1     -11.035  19.048  67.580  1.00  0.00    -0.363 C  
HETATM    2  C   UNL     1      -9.920  18.033  67.368  1.00  0.00    -0.328 C  
HETATM    3  C   UNL     1     -10.180  17.149  66.143  1.00  0.00    -0.343 C  
HETATM    4  C   UNL     1      -9.076  16.106  65.970  1.00  0.00    -0.318 C  
HETATM    5  N   UNL     1      -8.786  15.341  67.214  1.00  0.00    -0.185 N  
HETATM    6  C   UNL     1      -8.581  16.169  68.422  1.00  0.00    -0.189 C  
HETATM    7  C   UNL     1      -9.140  13.985  67.227  1.00  0.00    -0.220 C  
HETATM    8  O   UNL     1      -9.694  13.513  66.224  1.00  0.00    -0.285 OA 
HETATM    9  O   UNL     1      -6.448  16.778  67.471  1.00  0.00    -0.129 OA 
HETATM   10  C   UNL     1      -9.755  17.138  68.605  1.00  0.00    -0.293 C  
HETATM   11  C   UNL     1      -7.270  16.957  68.508  1.00  0.00    -0.199 C  
HETATM   12  O   UNL     1      -6.982  17.698  69.435  1.00  0.00    -0.209 OA 
ENDROOT
BRANCH   7  13
HETATM   13  C   UNL     1      -8.777  12.980  68.379  1.00  0.00    -0.115 C  
BRANCH  13  14
HETATM   14  C   UNL     1      -7.340  12.400  68.461  1.00  0.00    -0.105 C  
BRANCH  14  15
HETATM   15  C   UNL     1      -6.792  11.963  67.088  1.00  0.00    -0.144 C  
BRANCH  15  16
HETATM   16  C   UNL     1      -7.371  10.635  66.578  1.00  0.00    -0.134 C  
BRANCH  16  17
HETATM   17  N   UNL     1      -8.344  10.926  65.541  1.00  0.00    -0.299 NA 
HETATM   18  H2  UNL     1      -9.971  11.684  63.878  1.00  0.00     0.000 HD 
HETATM   19  H1  UNL     1     -11.065  10.276  64.159  1.00  0.00     0.000 HD 
HETATM   20  N   UNL     1      -9.853   9.116  65.815  1.00  0.00    -0.444 NA 
HETATM   21  N   UNL     1     -10.217  10.812  64.346  1.00  0.00    -0.357 NA 
HETATM   22  C   UNL     1      -9.465  10.217  65.293  1.00  0.00    -0.248 C  
HETATM   23  H   UNL     1      -8.164  11.737  64.948  1.00  0.00     0.000 HD 
HETATM   24  H1  UNL     1     -10.702   8.580  65.628  1.00  0.00     0.000 HD 
HETATM   25  H2  UNL     1      -9.229   8.719  66.517  1.00  0.00     0.000 HD 
ENDBRANCH  16  17
ENDBRANCH  15  16
ENDBRANCH  14  15
ENDBRANCH  13  14
BRANCH  13  26
HETATM   26  N   UNL     1      -9.742  11.852  68.498  1.00  0.00    -0.290 N  
HETATM   27  H   UNL     1      -9.427  10.887  68.400  1.00  0.00     0.000 HD 
BRANCH  26  28
HETATM   28  S   UNL     1     -11.384  12.205  68.802  1.00  0.00    -0.313 S  
HETATM   29  O   UNL     1     -12.120  12.000  67.582  1.00  0.00    -0.547 OA 
HETATM   30  O   UNL     1     -11.378  13.504  69.443  1.00  0.00    -0.260 OA 
BRANCH  28  31
HETATM   31  C   UNL     1     -11.825  10.975  70.001  1.00  0.00    -0.355 A  
HETATM   32  C   UNL     1     -11.276   7.304  70.915  1.00  0.00    -0.298 C  
HETATM   33  C   UNL     1     -12.742  11.352  70.995  1.00  0.00    -0.447 A  
HETATM   34  C   UNL     1     -10.056   5.521  69.619  1.00  0.00    -0.309 C  
HETATM   35  C   UNL     1     -13.145  10.436  71.961  1.00  0.00    -0.521 A  
HETATM   36  C   UNL     1     -10.714   6.896  69.550  1.00  0.00    -0.276 C  
HETATM   37  C   UNL     1      -9.734   7.972  69.103  1.00  0.00    -0.163 C  
HETATM   38  H   UNL     1     -10.258   9.832  68.116  1.00  0.00     0.000 HD 
HETATM   39  N   UNL     1     -10.414   9.255  68.942  1.00  0.00    -0.214 NA 
HETATM   40  C   UNL     1     -12.631   9.145  71.940  1.00  0.00    -0.463 A  
HETATM   41  C   UNL     1     -11.290   9.670  69.958  1.00  0.00    -0.195 A  
HETATM   42  C   UNL     1     -11.720   8.750  70.943  1.00  0.00    -0.299 A  
ENDBRANCH  28  31
ENDBRANCH  26  28
ENDBRANCH  13  26
ENDBRANCH   7  13
TORSDOF 8
ENDMDL
MODEL       35
REMARK 921   NORMALIZED FREE ENERGY PREDICTED BY IDOCK:   -7.10 KCAL/MOL
REMARK 922        TOTAL FREE ENERGY PREDICTED BY IDOCK:  -11.67 KCAL/MOL
REMARK 923 INTER-LIGAND FREE ENERGY PREDICTED BY IDOCK:  -10.25 KCAL/MOL
REMARK 924 INTRA-LIGAND FREE ENERGY PREDICTED BY IDOCK:   -1.42 KCAL/MOL
REMARK 927      BINDING AFFINITY PREDICTED BY RF-SCORE:    0.00 PKD
ROOT
HETATM    1  C   UNL     1     -12.243  16.403  74.122  1.00  0.00    -0.537 C  
HETATM    2  C   UNL     1     -12.497  15.820  72.739  1.00  0.00    -0.558 C  
HETATM    3  C   UNL     1     -13.636  14.795  72.753  1.00  0.00    -0.542 C  
HETATM    4  C   UNL     1     -13.849  14.186  71.367  1.00  0.00    -0.250 C  
HETATM    5  N   UNL     1     -12.594  13.682  70.745  1.00  0.00    -0.340 N  
HETATM    6  C   UNL     1     -11.462  14.635  70.763  1.00  0.00    -0.182 C  
HETATM    7  C   UNL     1     -12.466  12.295  70.597  1.00  0.00    -0.236 C  
HETATM    8  O   UNL     1     -13.382  11.573  71.016  1.00  0.00     0.029 OA 
HETATM    9  O   UNL     1     -12.645  15.855  69.049  1.00  0.00     0.149 OA 
HETATM   10  C   UNL     1     -11.229  15.152  72.187  1.00  0.00    -0.195 C  
HETATM   11  C   UNL     1     -11.548  15.831  69.809  1.00  0.00    -0.355 C  
HETATM   12  O   UNL     1     -10.699  16.706  69.739  1.00  0.00    -0.328 OA 
ENDROOT
BRANCH   7  13
HETATM   13  C   UNL     1     -11.295  11.584  69.829  1.00  0.00    -0.226 C  
BRANCH  13  14
HETATM   14  C   UNL     1     -10.649  12.286  68.605  1.00  0.00    -0.249 C  
BRANCH  14  15
HETATM   15  C   UNL     1     -11.651  12.532  67.458  1.00  0.00    -0.424 C  
BRANCH  15  16
HETATM   16  C   UNL     1     -11.157  12.055  66.084  1.00  0.00    -0.322 C  
BRANCH  16  17
HETATM   17  N   UNL     1     -11.708  12.933  65.068  1.00  0.00    -0.327 NA 
HETATM   18  H2  UNL     1     -12.821  14.499  63.551  1.00  0.00     0.000 HD 
HETATM   19  H1  UNL     1     -12.831  13.322  62.182  1.00  0.00     0.000 HD 
HETATM   20  N   UNL     1     -11.769  11.478  63.196  1.00  0.00    -0.890 NA 
HETATM   21  N   UNL     1     -12.610  13.588  63.142  1.00  0.00    -0.693 NA 
HETATM   22  C   UNL     1     -12.001  12.581  63.798  1.00  0.00    -0.517 C  
HETATM   23  H   UNL     1     -11.890  13.901  65.338  1.00  0.00     0.000 HD 
HETATM   24  H1  UNL     1     -11.990  11.211  62.236  1.00  0.00     0.000 HD 
HETATM   25  H2  UNL     1     -11.296  10.765  63.751  1.00  0.00     0.000 HD 
ENDBRANCH  16  17
ENDBRANCH  15  16
ENDBRANCH  14  15
ENDBRANCH  13  14
BRANCH  13  26
HETATM   26  N   UNL     1     -11.611  10.180  69.447  1.00  0.00    -0.450 N  
HETATM   27  H   UNL     1     -12.270   9.982  68.694  1.00  0.00     0.000 HD 
BRANCH  26  28
HETATM   28  S   UNL     1     -10.848   8.908  70.293  1.00  0.00    -0.241 S  
HETATM   29  O   UNL     1     -11.806   8.340  71.206  1.00  0.00    -0.282 OA 
HETATM   30  O   UNL     1      -9.610   9.473  70.788  1.00  0.00    -0.259 OA 
BRANCH  28  31
HETATM   31  C   UNL     1     -10.475   7.756  68.996  1.00  0.00    -0.205 A  
HETATM   32  C   UNL     1      -8.748   7.476  65.598  1.00  0.00    -0.105 C  
HETATM   33  C   UNL     1     -10.993   6.458  69.128  1.00  0.00    -0.416 A  
HETATM   34  C   UNL     1      -7.742   9.303  64.185  1.00  0.00    -0.120 C  
HETATM   35  C   UNL     1     -10.753   5.503  68.145  1.00  0.00    -0.160 A  
HETATM   36  C   UNL     1      -8.684   8.985  65.342  1.00  0.00    -0.221 C  
HETATM   37  C   UNL     1      -8.247   9.664  66.633  1.00  0.00    -0.120 C  
HETATM   38  H   UNL     1      -9.545  10.195  68.289  1.00  0.00     0.000 HD 
HETATM   39  N   UNL     1      -9.222   9.431  67.694  1.00  0.00    -0.128 NA 
HETATM   40  C   UNL     1      -9.994   5.842  67.031  1.00  0.00    -0.195 A  
HETATM   41  C   UNL     1      -9.703   8.124  67.875  1.00  0.00    -0.161 A  
HETATM   42  C   UNL     1      -9.479   7.143  66.880  1.00  0.00    -0.200 A  
ENDBRANCH  28  31
ENDBRANCH  26  28
ENDBRANCH  13  26
ENDBRANCH   7  13
TORSDOF 8
ENDMDL
MODEL       36
REMARK 921   NORMALIZED FREE ENERGY PREDICTED BY IDOCK:   -7.06 KCAL/MOL
REMARK 922        TOTAL FREE ENERGY PREDICTED BY IDOCK:  -11.62 KCAL/MOL
REMARK 923 INTER-LIGAND FREE ENERGY PREDICTED BY IDOCK:   -9.75 KCAL/MOL
REMARK 924 INTRA-LIGAND FREE ENERGY PREDICTED BY IDOCK:   -1.86 KCAL/MOL
REMARK 927      BINDING AFFINITY PREDICTED BY RF-SCORE:    0.00 PKD
ROOT
HETATM    1  C   UNL     1      -8.926   4.582  71.580  1.00  0.00    -0.164 C  
HETATM    2  C   UNL     1      -9.951   5.551  71.009  1.00  0.00    -0.253 C  
HETATM    3  C   UNL     1     -10.274   5.241  69.543  1.00  0.00    -0.338 C  
HETATM    4  C   UNL     1     -11.271   6.249  68.971  1.00  0.00    -0.343 C  
HETATM    5  N   UNL     1     -10.882   7.666  69.214  1.00  0.00    -0.157 N  
HETATM    6  C   UNL     1     -10.517   7.981  70.613  1.00  0.00    -0.210 C  
HETATM    7  C   UNL     1     -10.500   8.424  68.100  1.00  0.00    -0.174 C  
HETATM    8  O   UNL     1     -10.479   7.870  66.992  1.00  0.00    -0.315 OA 
HETATM    9  O   UNL     1     -12.870   7.810  71.118  1.00  0.00    -0.262 OA 
HETATM   10  C   UNL     1      -9.451   7.000  71.115  1.00  0.00    -0.165 C  
HETATM   11  C   UNL     1     -11.660   8.036  71.632  1.00  0.00    -0.275 C  
HETATM   12  O   UNL     1     -11.499   8.260  72.821  1.00  0.00    -0.391 OA 
ENDROOT
BRANCH   7  13
HETATM   13  C   UNL     1     -10.208   9.967  68.130  1.00  0.00    -0.179 C  
BRANCH  13  14
HETATM   14  C   UNL     1      -9.488  10.584  69.358  1.00  0.00    -0.158 C  
BRANCH  14  15
HETATM   15  C   UNL     1      -7.959  10.389  69.315  1.00  0.00    -0.157 C  
BRANCH  15  16
HETATM   16  C   UNL     1      -7.223  11.416  68.441  1.00  0.00    -0.087 C  
BRANCH  16  17
HETATM   17  N   UNL     1      -7.341  12.720  69.066  1.00  0.00    -0.294 NA 
HETATM   18  H2  UNL     1      -7.693  14.793  70.319  1.00  0.00     0.000 HD 
HETATM   19  H1  UNL     1      -8.036  15.754  68.830  1.00  0.00     0.000 HD 
HETATM   20  N   UNL     1      -7.796  14.087  67.181  1.00  0.00    -0.361 NA 
HETATM   21  N   UNL     1      -7.801  14.884  69.309  1.00  0.00    -0.172 NA 
HETATM   22  C   UNL     1      -7.652  13.871  68.433  1.00  0.00    -0.130 C  
HETATM   23  H   UNL     1      -7.175  12.772  70.072  1.00  0.00     0.000 HD 
HETATM   24  H1  UNL     1      -8.031  14.957  66.702  1.00  0.00     0.000 HD 
HETATM   25  H2  UNL     1      -7.659  13.277  66.577  1.00  0.00     0.000 HD 
ENDBRANCH  16  17
ENDBRANCH  15  16
ENDBRANCH  14  15
ENDBRANCH  13  14
BRANCH  13  26
HETATM   26  N   UNL     1     -11.407  10.796  67.828  1.00  0.00    -0.314 N  
HETATM   27  H   UNL     1     -12.317  10.559  68.225  1.00  0.00     0.000 HD 
BRANCH  26  28
HETATM   28  S   UNL     1     -11.232  12.152  66.805  1.00  0.00    -0.341 S  
HETATM   29  O   UNL     1     -12.326  12.151  65.869  1.00  0.00    -0.561 OA 
HETATM   30  O   UNL     1      -9.864  12.092  66.331  1.00  0.00    -0.216 OA 
BRANCH  28  31
HETATM   31  C   UNL     1     -11.390  13.509  67.936  1.00  0.00    -0.289 A  
HETATM   32  C   UNL     1     -10.735  17.259  68.276  1.00  0.00    -0.349 C  
HETATM   33  C   UNL     1     -11.869  13.215  69.223  1.00  0.00    -0.377 A  
HETATM   34  C   UNL     1      -9.555  18.806  66.676  1.00  0.00    -0.357 C  
HETATM   35  C   UNL     1     -12.007  14.226  70.167  1.00  0.00    -0.391 A  
HETATM   36  C   UNL     1      -9.790  17.352  67.074  1.00  0.00    -0.286 C  
HETATM   37  C   UNL     1     -10.394  16.542  65.935  1.00  0.00    -0.350 C  
HETATM   38  H   UNL     1     -10.210  14.396  65.670  1.00  0.00     0.000 HD 
HETATM   39  N   UNL     1     -10.509  15.134  66.308  1.00  0.00    -0.296 NA 
HETATM   40  C   UNL     1     -11.670  15.532  69.830  1.00  0.00    -0.368 A  
HETATM   41  C   UNL     1     -11.041  14.826  67.570  1.00  0.00    -0.319 A  
HETATM   42  C   UNL     1     -11.179  15.838  68.548  1.00  0.00    -0.354 A  
ENDBRANCH  28  31
ENDBRANCH  26  28
ENDBRANCH  13  26
ENDBRANCH   7  13
TORSDOF 8
ENDMDL
MODEL       37
REMARK 921   NORMALIZED FREE ENERGY PREDICTED BY IDOCK:   -7.06 KCAL/MOL
REMARK 922        TOTAL FREE ENERGY PREDICTED BY IDOCK:  -11.61 KCAL/MOL
REMARK 923 INTER-LIGAND FREE ENERGY PREDICTED BY IDOCK:  -10.20 KCAL/MOL
REMARK 924 INTRA-LIGAND FREE ENERGY PREDICTED BY IDOCK:   -1.41 KCAL/MOL
REMARK 927      BINDING AFFINITY PREDICTED BY RF-SCORE:    0.00 PKD
ROOT
HETATM    1  C   UNL     1     -10.273  18.119  66.785  1.00  0.00    -0.379 C  
HETATM    2  C   UNL     1     -10.021  17.017  67.804  1.00  0.00    -0.280 C  
HETATM    3  C   UNL     1      -8.524  16.772  68.020  1.00  0.00    -0.205 C  
HETATM    4  C   UNL     1      -8.287  15.632  69.011  1.00  0.00    -0.235 C  
HETATM    5  N   UNL     1      -9.059  14.400  68.689  1.00  0.00    -0.194 N  
HETATM    6  C   UNL     1     -10.499  14.617  68.427  1.00  0.00    -0.243 C  
HETATM    7  C   UNL     1      -8.329  13.283  68.262  1.00  0.00    -0.154 C  
HETATM    8  O   UNL     1      -7.101  13.393  68.150  1.00  0.00    -0.089 OA 
HETATM    9  O   UNL     1     -10.733  14.981  70.801  1.00  0.00    -0.158 OA 
HETATM   10  C   UNL     1     -10.685  15.704  67.363  1.00  0.00    -0.309 C  
HETATM   11  C   UNL     1     -11.381  14.949  69.635  1.00  0.00    -0.282 C  
HETATM   12  O   UNL     1     -12.579  15.174  69.559  1.00  0.00    -0.135 OA 
ENDROOT
BRANCH   7  13
HETATM   13  C   UNL     1      -8.941  11.856  68.027  1.00  0.00    -0.185 C  
BRANCH  13  14
HETATM   14  C   UNL     1     -10.216  11.706  67.154  1.00  0.00    -0.240 C  
BRANCH  14  15
HETATM   15  C   UNL     1      -9.924  11.085  65.773  1.00  0.00    -0.294 C  
BRANCH  15  16
HETATM   16  C   UNL     1     -10.684  11.752  64.616  1.00  0.00    -0.310 C  
BRANCH  16  17
HETATM   17  N   UNL     1     -11.697  12.628  65.176  1.00  0.00    -0.348 NA 
HETATM   18  H2  UNL     1     -13.498  13.881  66.260  1.00  0.00     0.000 HD 
HETATM   19  H1  UNL     1     -13.942  14.752  64.743  1.00  0.00     0.000 HD 
HETATM   20  N   UNL     1     -12.363  13.841  63.249  1.00  0.00    -1.124 NA 
HETATM   21  N   UNL     1     -13.376  14.085  65.268  1.00  0.00    -0.580 NA 
HETATM   22  C   UNL     1     -12.446  13.510  64.481  1.00  0.00    -0.291 C  
HETATM   23  H   UNL     1     -11.856  12.572  66.182  1.00  0.00     0.000 HD 
HETATM   24  H1  UNL     1     -12.929  14.508  62.723  1.00  0.00     0.000 HD 
HETATM   25  H2  UNL     1     -11.629  13.373  62.717  1.00  0.00     0.000 HD 
ENDBRANCH  16  17
ENDBRANCH  15  16
ENDBRANCH  14  15
ENDBRANCH  13  14
BRANCH  13  26
HETATM   26  N   UNL     1      -9.149  11.092  69.288  1.00  0.00    -0.399 N  
HETATM   27  H   UNL     1      -9.879  11.365  69.947  1.00  0.00     0.000 HD 
BRANCH  26  28
HETATM   28  S   UNL     1      -8.143   9.751  69.611  1.00  0.00    -0.170 S  
HETATM   29  O   UNL     1      -7.515   9.959  70.889  1.00  0.00    -0.314 OA 
HETATM   30  O   UNL     1      -7.338   9.587  68.418  1.00  0.00    -0.075 OA 
BRANCH  28  31
HETATM   31  C   UNL     1      -9.306   8.414  69.707  1.00  0.00    -0.158 A  
HETATM   32  C   UNL     1     -12.749   7.489  71.086  1.00  0.00    -0.279 C  
HETATM   33  C   UNL     1      -8.911   7.184  69.158  1.00  0.00    -0.135 A  
HETATM   34  C   UNL     1     -14.267   8.840  72.576  1.00  0.00    -0.394 C  
HETATM   35  C   UNL     1      -9.765   6.087  69.208  1.00  0.00    -0.174 A  
HETATM   36  C   UNL     1     -12.843   8.676  72.050  1.00  0.00    -0.425 C  
HETATM   37  C   UNL     1     -12.362   9.919  71.316  1.00  0.00    -0.381 C  
HETATM   38  H   UNL     1     -10.293  10.528  71.075  1.00  0.00     0.000 HD 
HETATM   39  N   UNL     1     -10.964   9.775  70.919  1.00  0.00    -0.326 NA 
HETATM   40  C   UNL     1     -11.015   6.217  69.802  1.00  0.00    -0.459 A  
HETATM   41  C   UNL     1     -10.569   8.571  70.316  1.00  0.00    -0.226 A  
HETATM   42  C   UNL     1     -11.419   7.441  70.366  1.00  0.00    -0.250 A  
ENDBRANCH  28  31
ENDBRANCH  26  28
ENDBRANCH  13  26
ENDBRANCH   7  13
TORSDOF 8
ENDMDL
MODEL       38
REMARK 921   NORMALIZED FREE ENERGY PREDICTED BY IDOCK:   -7.04 KCAL/MOL
REMARK 922        TOTAL FREE ENERGY PREDICTED BY IDOCK:  -11.58 KCAL/MOL
REMARK 923 INTER-LIGAND FREE ENERGY PREDICTED BY IDOCK:   -9.97 KCAL/MOL
REMARK 924 INTRA-LIGAND FREE ENERGY PREDICTED BY IDOCK:   -1.61 KCAL/MOL
REMARK 927      BINDING AFFINITY PREDICTED BY RF-SCORE:    0.00 PKD
ROOT
HETATM    1  C   UNL     1     -11.303   6.153  71.724  1.00  0.00    -0.346 C  
HETATM    2  C   UNL     1     -10.268   6.590  70.697  1.00  0.00    -0.220 C  
HETATM    3  C   UNL     1      -9.324   7.659  71.259  1.00  0.00    -0.161 C  
HETATM    4  C   UNL     1      -8.320   8.121  70.203  1.00  0.00    -0.125 C  
HETATM    5  N   UNL     1      -8.955   8.497  68.910  1.00  0.00    -0.145 N  
HETATM    6  C   UNL     1      -9.909   7.504  68.370  1.00  0.00    -0.164 C  
HETATM    7  C   UNL     1      -8.930   9.853  68.557  1.00  0.00    -0.122 C  
HETATM    8  O   UNL     1      -8.414  10.656  69.347  1.00  0.00    -0.136 OA 
HETATM    9  O   UNL     1      -7.983   6.155  67.830  1.00  0.00    -0.104 OA 
HETATM   10  C   UNL     1     -10.950   7.138  69.434  1.00  0.00    -0.189 C  
HETATM   11  C   UNL     1      -9.315   6.215  67.794  1.00  0.00    -0.109 C  
HETATM   12  O   UNL     1      -9.987   5.302  67.339  1.00  0.00    -0.149 OA 
ENDROOT
BRANCH   7  13
HETATM   13  C   UNL     1      -9.405  10.423  67.173  1.00  0.00    -0.157 C  
BRANCH  13  14
HETATM   14  C   UNL     1      -8.441  10.379  65.958  1.00  0.00    -0.149 C  
BRANCH  14  15
HETATM   15  C   UNL     1      -8.970   9.502  64.805  1.00  0.00    -0.263 C  
BRANCH  15  16
HETATM   16  C   UNL     1      -8.896  10.173  63.425  1.00  0.00    -0.231 C  
BRANCH  16  17
HETATM   17  N   UNL     1      -9.214  11.580  63.581  1.00  0.00    -0.469 NA 
HETATM   18  H2  UNL     1      -9.574  13.953  64.062  1.00  0.00     0.000 HD 
HETATM   19  H1  UNL     1     -11.360  13.832  63.830  1.00  0.00     0.000 HD 
HETATM   20  N   UNL     1     -11.568  11.547  63.290  1.00  0.00    -0.863 NA 
HETATM   21  N   UNL     1     -10.423  13.429  63.849  1.00  0.00    -0.173 NA 
HETATM   22  C   UNL     1     -10.454  12.114  63.556  1.00  0.00    -0.454 C  
HETATM   23  H   UNL     1      -8.433  12.221  63.722  1.00  0.00     0.000 HD 
HETATM   24  H1  UNL     1     -12.506  11.951  63.271  1.00  0.00     0.000 HD 
HETATM   25  H2  UNL     1     -11.514  10.554  63.067  1.00  0.00     0.000 HD 
ENDBRANCH  16  17
ENDBRANCH  15  16
ENDBRANCH  14  15
ENDBRANCH  13  14
BRANCH  13  26
HETATM   26  N   UNL     1      -9.972  11.797  67.267  1.00  0.00    -0.191 N  
HETATM   27  H   UNL     1      -9.377  12.615  67.136  1.00  0.00     0.000 HD 
BRANCH  26  28
HETATM   28  S   UNL     1     -11.637  11.977  67.599  1.00  0.00    -0.298 S  
HETATM   29  O   UNL     1     -12.066  10.840  68.371  1.00  0.00    -0.501 OA 
HETATM   30  O   UNL     1     -12.248  12.262  66.317  1.00  0.00    -0.628 OA 
BRANCH  28  31
HETATM   31  C   UNL     1     -11.674  13.445  68.593  1.00  0.00    -0.349 A  
HETATM   32  C   UNL     1     -10.817  17.170  68.524  1.00  0.00    -0.281 C  
HETATM   33  C   UNL     1     -12.105  13.306  69.921  1.00  0.00    -0.377 A  
HETATM   34  C   UNL     1      -9.637  18.485  66.728  1.00  0.00    -0.329 C  
HETATM   35  C   UNL     1     -12.148  14.412  70.764  1.00  0.00    -0.408 A  
HETATM   36  C   UNL     1      -9.926  17.092  67.280  1.00  0.00    -0.275 C  
HETATM   37  C   UNL     1     -10.623  16.207  66.256  1.00  0.00    -0.274 C  
HETATM   38  H   UNL     1     -10.559  14.039  66.201  1.00  0.00     0.000 HD 
HETATM   39  N   UNL     1     -10.790  14.852  66.773  1.00  0.00    -0.314 NA 
HETATM   40  C   UNL     1     -11.762  15.658  70.283  1.00  0.00    -0.375 A  
HETATM   41  C   UNL     1     -11.277  14.699  68.081  1.00  0.00    -0.289 A  
HETATM   42  C   UNL     1     -11.317  15.809  68.957  1.00  0.00    -0.354 A  
ENDBRANCH  28  31
ENDBRANCH  26  28
ENDBRANCH  13  26
ENDBRANCH   7  13
TORSDOF 8
ENDMDL
MODEL       39
REMARK 921   NORMALIZED FREE ENERGY PREDICTED BY IDOCK:   -7.04 KCAL/MOL
REMARK 922        TOTAL FREE ENERGY PREDICTED BY IDOCK:  -11.58 KCAL/MOL
REMARK 923 INTER-LIGAND FREE ENERGY PREDICTED BY IDOCK:   -9.87 KCAL/MOL
REMARK 924 INTRA-LIGAND FREE ENERGY PREDICTED BY IDOCK:   -1.71 KCAL/MOL
REMARK 927      BINDING AFFINITY PREDICTED BY RF-SCORE:    0.00 PKD
ROOT
HETATM    1  C   UNL     1      -6.909   5.132  70.294  1.00  0.00    -0.044 C  
HETATM    2  C   UNL     1      -7.966   5.873  71.100  1.00  0.00    -0.113 C  
HETATM    3  C   UNL     1      -9.369   5.303  70.860  1.00  0.00    -0.197 C  
HETATM    4  C   UNL     1     -10.425   6.086  71.641  1.00  0.00    -0.228 C  
HETATM    5  N   UNL     1     -10.332   7.559  71.445  1.00  0.00    -0.194 N  
HETATM    6  C   UNL     1      -8.978   8.128  71.622  1.00  0.00    -0.163 C  
HETATM    7  C   UNL     1     -11.369   8.175  70.733  1.00  0.00    -0.270 C  
HETATM    8  O   UNL     1     -12.279   7.462  70.286  1.00  0.00     0.021 OA 
HETATM    9  O   UNL     1      -9.285   7.761  73.987  1.00  0.00    -0.260 OA 
HETATM   10  C   UNL     1      -7.968   7.369  70.753  1.00  0.00    -0.104 C  
HETATM   11  C   UNL     1      -8.440   8.205  73.054  1.00  0.00    -0.209 C  
HETATM   12  O   UNL     1      -7.331   8.628  73.342  1.00  0.00    -0.342 OA 
ENDROOT
BRANCH   7  13
HETATM   13  C   UNL     1     -11.530   9.728  70.558  1.00  0.00    -0.300 C  
BRANCH  13  14
HETATM   14  C   UNL     1     -12.569  10.490  71.422  1.00  0.00    -0.539 C  
BRANCH  14  15
HETATM   15  C   UNL     1     -12.639  11.994  71.086  1.00  0.00    -0.372 C  
BRANCH  15  16
HETATM   16  C   UNL     1     -13.348  12.840  72.155  1.00  0.00    -0.492 C  
BRANCH  16  17
HETATM   17  N   UNL     1     -12.667  14.118  72.254  1.00  0.00    -0.302 NA 
HETATM   18  H2  UNL     1     -11.533  16.241  72.699  1.00  0.00     0.000 HD 
HETATM   19  H1  UNL     1     -12.481  17.126  71.443  1.00  0.00     0.000 HD 
HETATM   20  N   UNL     1     -13.841  15.383  70.625  1.00  0.00    -0.837 NA 
HETATM   21  N   UNL     1     -12.241  16.283  71.966  1.00  0.00    -0.435 NA 
HETATM   22  C   UNL     1     -12.983  15.233  71.562  1.00  0.00    -0.412 C  
HETATM   23  H   UNL     1     -11.882  14.179  72.902  1.00  0.00     0.000 HD 
HETATM   24  H1  UNL     1     -14.080  16.226  70.102  1.00  0.00     0.000 HD 
HETATM   25  H2  UNL     1     -14.358  14.544  70.365  1.00  0.00     0.000 HD 
ENDBRANCH  16  17
ENDBRANCH  15  16
ENDBRANCH  14  15
ENDBRANCH  13  14
BRANCH  13  26
HETATM   26  N   UNL     1     -11.712  10.142  69.139  1.00  0.00    -0.493 N  
HETATM   27  H   UNL     1     -12.583  10.575  68.832  1.00  0.00     0.000 HD 
BRANCH  26  28
HETATM   28  S   UNL     1     -10.435   9.879  68.037  1.00  0.00    -0.238 S  
HETATM   29  O   UNL     1     -10.638   8.597  67.414  1.00  0.00    -0.274 OA 
HETATM   30  O   UNL     1      -9.226  10.143  68.791  1.00  0.00    -0.149 OA 
BRANCH  28  31
HETATM   31  C   UNL     1     -10.672  11.182  66.857  1.00  0.00    -0.274 A  
HETATM   32  C   UNL     1     -10.901  14.985  66.551  1.00  0.00    -0.320 C  
HETATM   33  C   UNL     1     -10.931  10.802  65.531  1.00  0.00     0.043 A  
HETATM   34  C   UNL     1     -10.924  16.717  68.381  1.00  0.00    -0.345 C  
HETATM   35  C   UNL     1     -11.141  11.769  64.553  1.00  0.00    -0.376 A  
HETATM   36  C   UNL     1     -11.111  15.240  68.047  1.00  0.00    -0.312 C  
HETATM   37  C   UNL     1     -10.141  14.355  68.817  1.00  0.00    -0.234 C  
HETATM   38  H   UNL     1     -10.456  12.269  69.325  1.00  0.00     0.000 HD 
HETATM   39  N   UNL     1     -10.414  12.944  68.560  1.00  0.00    -0.252 NA 
HETATM   40  C   UNL     1     -11.090  13.115  64.896  1.00  0.00    -0.335 A  
HETATM   41  C   UNL     1     -10.616  12.541  67.231  1.00  0.00    -0.227 A  
HETATM   42  C   UNL     1     -10.843  13.509  66.224  1.00  0.00    -0.291 A  
ENDBRANCH  28  31
ENDBRANCH  26  28
ENDBRANCH  13  26
ENDBRANCH   7  13
TORSDOF 8
ENDMDL
MODEL       40
REMARK 921   NORMALIZED FREE ENERGY PREDICTED BY IDOCK:   -7.04 KCAL/MOL
REMARK 922        TOTAL FREE ENERGY PREDICTED BY IDOCK:  -11.58 KCAL/MOL
REMARK 923 INTER-LIGAND FREE ENERGY PREDICTED BY IDOCK:  -10.24 KCAL/MOL
REMARK 924 INTRA-LIGAND FREE ENERGY PREDICTED BY IDOCK:   -1.34 KCAL/MOL
REMARK 927      BINDING AFFINITY PREDICTED BY RF-SCORE:    0.00 PKD
ROOT
HETATM    1  C   UNL     1     -11.687  13.218  64.097  1.00  0.00    -0.470 C  
HETATM    2  C   UNL     1     -11.064  13.097  65.481  1.00  0.00    -0.299 C  
HETATM    3  C   UNL     1     -10.295  11.782  65.647  1.00  0.00    -0.293 C  
HETATM    4  C   UNL     1      -9.714  11.655  67.055  1.00  0.00    -0.186 C  
HETATM    5  N   UNL     1     -10.713  11.907  68.130  1.00  0.00    -0.205 N  
HETATM    6  C   UNL     1     -11.505  13.146  67.967  1.00  0.00    -0.311 C  
HETATM    7  C   UNL     1     -11.097  10.812  68.915  1.00  0.00    -0.253 C  
HETATM    8  O   UNL     1     -10.611   9.703  68.653  1.00  0.00    -0.210 OA 
HETATM    9  O   UNL     1      -9.501  14.341  68.587  1.00  0.00    -0.204 OA 
HETATM   10  C   UNL     1     -12.140  13.188  66.573  1.00  0.00    -0.423 C  
HETATM   11  C   UNL     1     -10.778  14.471  68.221  1.00  0.00    -0.240 C  
HETATM   12  O   UNL     1     -11.303  15.567  68.100  1.00  0.00    -0.328 OA 
ENDROOT
BRANCH   7  13
HETATM   13  C   UNL     1     -12.013  10.906  70.187  1.00  0.00    -0.352 C  
BRANCH  13  14
HETATM   14  C   UNL     1     -12.387  12.299  70.758  1.00  0.00    -0.383 C  
BRANCH  14  15
HETATM   15  C   UNL     1     -13.326  12.213  71.978  1.00  0.00    -0.470 C  
BRANCH  15  16
HETATM   16  C   UNL     1     -14.059  13.526  72.296  1.00  0.00    -0.465 C  
BRANCH  16  17
HETATM   17  N   UNL     1     -13.068  14.559  72.531  1.00  0.00    -0.398 NA 
HETATM   18  H2  UNL     1     -11.501  16.322  73.187  1.00  0.00     0.000 HD 
HETATM   19  H1  UNL     1     -11.700  17.217  71.632  1.00  0.00     0.000 HD 
HETATM   20  N   UNL     1     -13.239  15.815  70.525  1.00  0.00    -0.767 NA 
HETATM   21  N   UNL     1     -11.909  16.439  72.259  1.00  0.00    -0.525 NA 
HETATM   22  C   UNL     1     -12.792  15.588  71.701  1.00  0.00    -0.446 C  
HETATM   23  H   UNL     1     -12.533  14.504  73.398  1.00  0.00     0.000 HD 
HETATM   24  H1  UNL     1     -13.031  16.593  69.898  1.00  0.00     0.000 HD 
HETATM   25  H2  UNL     1     -13.895  15.124  70.164  1.00  0.00     0.000 HD 
ENDBRANCH  16  17
ENDBRANCH  15  16
ENDBRANCH  14  15
ENDBRANCH  13  14
BRANCH  13  26
HETATM   26  N   UNL     1     -11.540  10.054  71.314  1.00  0.00    -0.370 N  
HETATM   27  H   UNL     1     -10.752  10.346  71.892  1.00  0.00     0.000 HD 
BRANCH  26  28
HETATM   28  S   UNL     1     -12.342   8.578  71.619  1.00  0.00    -0.342 S  
HETATM   29  O   UNL     1     -13.496   8.509  70.761  1.00  0.00     0.218 OA 
HETATM   30  O   UNL     1     -12.496   8.523  73.058  1.00  0.00    -0.223 OA 
BRANCH  28  31
HETATM   31  C   UNL     1     -11.134   7.376  71.125  1.00  0.00    -0.252 A  
HETATM   32  C   UNL     1      -7.485   6.362  71.639  1.00  0.00    -0.093 C  
HETATM   33  C   UNL     1     -11.528   6.436  70.159  1.00  0.00    -0.484 A  
HETATM   34  C   UNL     1      -5.680   7.562  72.924  1.00  0.00    -0.044 C  
HETATM   35  C   UNL     1     -10.631   5.471  69.714  1.00  0.00    -0.388 A  
HETATM   36  C   UNL     1      -7.052   7.690  72.267  1.00  0.00    -0.071 C  
HETATM   37  C   UNL     1      -8.122   8.112  73.264  1.00  0.00    -0.188 C  
HETATM   38  H   UNL     1      -9.960   9.161  72.784  1.00  0.00     0.000 HD 
HETATM   39  N   UNL     1      -9.398   8.331  72.589  1.00  0.00    -0.267 NA 
HETATM   40  C   UNL     1      -9.341   5.441  70.231  1.00  0.00    -0.198 A  
HETATM   41  C   UNL     1      -9.831   7.367  71.665  1.00  0.00    -0.165 A  
HETATM   42  C   UNL     1      -8.930   6.385  71.190  1.00  0.00    -0.146 A  
ENDBRANCH  28  31
ENDBRANCH  26  28
ENDBRANCH  13  26
ENDBRANCH   7  13
TORSDOF 8
ENDMDL
MODEL       41
REMARK 921   NORMALIZED FREE ENERGY PREDICTED BY IDOCK:   -7.02 KCAL/MOL
REMARK 922        TOTAL FREE ENERGY PREDICTED BY IDOCK:  -11.55 KCAL/MOL
REMARK 923 INTER-LIGAND FREE ENERGY PREDICTED BY IDOCK:  -10.31 KCAL/MOL
REMARK 924 INTRA-LIGAND FREE ENERGY PREDICTED BY IDOCK:   -1.24 KCAL/MOL
REMARK 927      BINDING AFFINITY PREDICTED BY RF-SCORE:    0.00 PKD
ROOT
HETATM    1  C   UNL     1      -8.904  16.698  65.842  1.00  0.00    -0.121 C  
HETATM    2  C   UNL     1      -9.536  15.560  66.631  1.00  0.00    -0.281 C  
HETATM    3  C   UNL     1      -8.614  15.060  67.749  1.00  0.00    -0.165 C  
HETATM    4  C   UNL     1      -9.242  13.888  68.503  1.00  0.00    -0.154 C  
HETATM    5  N   UNL     1      -9.740  12.809  67.606  1.00  0.00    -0.200 N  
HETATM    6  C   UNL     1     -10.593  13.270  66.488  1.00  0.00    -0.286 C  
HETATM    7  C   UNL     1      -9.054  11.587  67.635  1.00  0.00    -0.168 C  
HETATM    8  O   UNL     1      -8.065  11.487  68.374  1.00  0.00    -0.136 OA 
HETATM    9  O   UNL     1     -12.311  13.647  68.140  1.00  0.00    -0.233 OA 
HETATM   10  C   UNL     1      -9.885  14.383  65.707  1.00  0.00    -0.330 C  
HETATM   11  C   UNL     1     -12.008  13.736  66.843  1.00  0.00    -0.421 C  
HETATM   12  O   UNL     1     -12.807  14.164  66.025  1.00  0.00    -0.425 OA 
ENDROOT
BRANCH   7  13
HETATM   13  C   UNL     1      -9.516  10.288  66.884  1.00  0.00    -0.169 C  
BRANCH  13  14
HETATM   14  C   UNL     1     -10.123  10.403  65.460  1.00  0.00    -0.352 C  
BRANCH  14  15
HETATM   15  C   UNL     1      -9.109  10.920  64.419  1.00  0.00    -0.175 C  
BRANCH  15  16
HETATM   16  C   UNL     1      -9.756  11.484  63.144  1.00  0.00    -0.390 C  
BRANCH  16  17
HETATM   17  N   UNL     1     -11.194  11.318  63.248  1.00  0.00    -0.832 NA 
HETATM   18  H2  UNL     1     -13.593  10.831  63.235  1.00  0.00     0.000 HD 
HETATM   19  H1  UNL     1     -14.049  12.577  63.184  1.00  0.00     0.000 HD 
HETATM   20  N   UNL     1     -11.915  13.578  63.193  1.00  0.00    -0.773 NA 
HETATM   21  N   UNL     1     -13.361  11.824  63.211  1.00  0.00    -0.358 NA 
HETATM   22  C   UNL     1     -12.105  12.314  63.212  1.00  0.00    -0.418 C  
HETATM   23  H   UNL     1     -11.547  10.367  63.356  1.00  0.00     0.000 HD 
HETATM   24  H1  UNL     1     -12.604  14.330  63.166  1.00  0.00     0.000 HD 
HETATM   25  H2  UNL     1     -10.940  13.876  63.205  1.00  0.00     0.000 HD 
ENDBRANCH  16  17
ENDBRANCH  15  16
ENDBRANCH  14  15
ENDBRANCH  13  14
BRANCH  13  26
HETATM   26  N   UNL     1     -10.413   9.425  67.703  1.00  0.00    -0.254 N  
HETATM   27  H   UNL     1     -11.409   9.634  67.778  1.00  0.00     0.000 HD 
BRANCH  26  28
HETATM   28  S   UNL     1      -9.742   8.081  68.514  1.00  0.00    -0.162 S  
HETATM   29  O   UNL     1      -8.439   8.455  68.999  1.00  0.00    -0.121 OA 
HETATM   30  O   UNL     1      -9.889   6.973  67.593  1.00  0.00    -0.138 OA 
BRANCH  28  31
HETATM   31  C   UNL     1     -10.863   7.854  69.870  1.00  0.00    -0.221 A  
HETATM   32  C   UNL     1     -13.274   9.745  72.156  1.00  0.00    -0.530 C  
HETATM   33  C   UNL     1     -10.940   6.567  70.425  1.00  0.00    -0.353 A  
HETATM   34  C   UNL     1     -13.690  12.225  72.303  1.00  0.00    -0.193 C  
HETATM   35  C   UNL     1     -11.788   6.316  71.499  1.00  0.00    -0.291 A  
HETATM   36  C   UNL     1     -12.739  11.138  71.811  1.00  0.00    -0.396 C  
HETATM   37  C   UNL     1     -12.530  11.205  70.305  1.00  0.00    -0.274 C  
HETATM   38  H   UNL     1     -10.787  10.482  69.233  1.00  0.00     0.000 HD 
HETATM   39  N   UNL     1     -11.535  10.225  69.878  1.00  0.00    -0.264 NA 
HETATM   40  C   UNL     1     -12.560   7.348  72.020  1.00  0.00    -0.262 A  
HETATM   41  C   UNL     1     -11.636   8.918  70.381  1.00  0.00    -0.101 A  
HETATM   42  C   UNL     1     -12.484   8.645  71.480  1.00  0.00    -0.364 A  
ENDBRANCH  28  31
ENDBRANCH  26  28
ENDBRANCH  13  26
ENDBRANCH   7  13
TORSDOF 8
ENDMDL
MODEL       42
REMARK 921   NORMALIZED FREE ENERGY PREDICTED BY IDOCK:   -7.01 KCAL/MOL
REMARK 922        TOTAL FREE ENERGY PREDICTED BY IDOCK:  -11.54 KCAL/MOL
REMARK 923 INTER-LIGAND FREE ENERGY PREDICTED BY IDOCK:   -9.90 KCAL/MOL
REMARK 924 INTRA-LIGAND FREE ENERGY PREDICTED BY IDOCK:   -1.64 KCAL/MOL
REMARK 927      BINDING AFFINITY PREDICTED BY RF-SCORE:    0.00 PKD
ROOT
HETATM    1  C   UNL     1      -6.155  20.718  65.782  1.00  0.00    -0.272 C  
HETATM    2  C   UNL     1      -7.250  20.169  66.686  1.00  0.00    -0.296 C  
HETATM    3  C   UNL     1      -6.696  19.713  68.039  1.00  0.00    -0.284 C  
HETATM    4  C   UNL     1      -7.798  19.123  68.919  1.00  0.00    -0.316 C  
HETATM    5  N   UNL     1      -8.616  18.090  68.224  1.00  0.00    -0.280 N  
HETATM    6  C   UNL     1      -9.123  18.488  66.892  1.00  0.00    -0.290 C  
HETATM    7  C   UNL     1      -8.483  16.767  68.665  1.00  0.00    -0.259 C  
HETATM    8  O   UNL     1      -7.679  16.530  69.577  1.00  0.00    -0.132 OA 
HETATM    9  O   UNL     1     -10.667  19.925  68.063  1.00  0.00    -0.340 OA 
HETATM   10  C   UNL     1      -7.970  18.989  66.016  1.00  0.00    -0.213 C  
HETATM   11  C   UNL     1     -10.255  19.520  66.861  1.00  0.00    -0.426 C  
HETATM   12  O   UNL     1     -10.749  19.954  65.832  1.00  0.00    -0.465 OA 
ENDROOT
BRANCH   7  13
HETATM   13  C   UNL     1      -9.370  15.569  68.169  1.00  0.00    -0.197 C  
BRANCH  13  14
HETATM   14  C   UNL     1     -10.916  15.686  68.232  1.00  0.00    -0.315 C  
BRANCH  14  15
HETATM   15  C   UNL     1     -11.446  15.842  69.672  1.00  0.00    -0.346 C  
BRANCH  15  16
HETATM   16  C   UNL     1     -12.267  14.642  70.169  1.00  0.00    -0.335 C  
BRANCH  16  17
HETATM   17  N   UNL     1     -12.384  13.686  69.083  1.00  0.00    -0.303 NA 
HETATM   18  H2  UNL     1     -12.857  12.131  67.253  1.00  0.00     0.000 HD 
HETATM   19  H1  UNL     1     -11.802  10.839  67.944  1.00  0.00     0.000 HD 
HETATM   20  N   UNL     1     -11.019  11.919  69.887  1.00  0.00    -0.421 NA 
HETATM   21  N   UNL     1     -12.222  11.769  67.965  1.00  0.00    -0.425 NA 
HETATM   22  C   UNL     1     -11.829  12.456  69.055  1.00  0.00    -0.300 C  
HETATM   23  H   UNL     1     -12.934  13.968  68.271  1.00  0.00     0.000 HD 
HETATM   24  H1  UNL     1     -10.599  10.989  69.866  1.00  0.00     0.000 HD 
HETATM   25  H2  UNL     1     -10.757  12.501  70.682  1.00  0.00     0.000 HD 
ENDBRANCH  16  17
ENDBRANCH  15  16
ENDBRANCH  14  15
ENDBRANCH  13  14
BRANCH  13  26
HETATM   26  N   UNL     1      -8.978  14.263  68.767  1.00  0.00    -0.322 N  
HETATM   27  H   UNL     1      -9.541  13.839  69.504  1.00  0.00     0.000 HD 
BRANCH  26  28
HETATM   28  S   UNL     1      -7.568  13.488  68.195  1.00  0.00    -0.154 S  
HETATM   29  O   UNL     1      -6.761  13.130  69.332  1.00  0.00    -0.096 OA 
HETATM   30  O   UNL     1      -7.042  14.370  67.173  1.00  0.00    -0.150 OA 
BRANCH  28  31
HETATM   31  C   UNL     1      -8.219  12.032  67.418  1.00  0.00    -0.168 A  
HETATM   32  C   UNL     1     -10.724  10.874  64.774  1.00  0.00    -0.248 C  
HETATM   33  C   UNL     1      -7.764  10.795  67.900  1.00  0.00    -0.100 A  
HETATM   34  C   UNL     1     -12.393  12.243  63.475  1.00  0.00    -0.670 C  
HETATM   35  C   UNL     1      -8.240   9.610  67.348  1.00  0.00    -0.114 A  
HETATM   36  C   UNL     1     -11.481  12.203  64.698  1.00  0.00    -0.388 C  
HETATM   37  C   UNL     1     -10.457  13.330  64.679  1.00  0.00    -0.402 C  
HETATM   38  H   UNL     1      -9.496  14.198  66.420  1.00  0.00     0.000 HD 
HETATM   39  N   UNL     1      -9.670  13.332  65.910  1.00  0.00    -0.223 NA 
HETATM   40  C   UNL     1      -9.168   9.658  66.314  1.00  0.00    -0.213 A  
HETATM   41  C   UNL     1      -9.160  12.108  66.370  1.00  0.00    -0.177 A  
HETATM   42  C   UNL     1      -9.640  10.891  65.830  1.00  0.00    -0.259 A  
ENDBRANCH  28  31
ENDBRANCH  26  28
ENDBRANCH  13  26
ENDBRANCH   7  13
TORSDOF 8
ENDMDL
MODEL       43
REMARK 921   NORMALIZED FREE ENERGY PREDICTED BY IDOCK:   -7.01 KCAL/MOL
REMARK 922        TOTAL FREE ENERGY PREDICTED BY IDOCK:  -11.54 KCAL/MOL
REMARK 923 INTER-LIGAND FREE ENERGY PREDICTED BY IDOCK:  -10.11 KCAL/MOL
REMARK 924 INTRA-LIGAND FREE ENERGY PREDICTED BY IDOCK:   -1.43 KCAL/MOL
REMARK 927      BINDING AFFINITY PREDICTED BY RF-SCORE:    0.00 PKD
ROOT
HETATM    1  C   UNL     1      -7.296  10.254  64.360  1.00  0.00    -0.075 C  
HETATM    2  C   UNL     1      -8.217  10.351  65.568  1.00  0.00    -0.162 C  
HETATM    3  C   UNL     1      -9.694  10.264  65.167  1.00  0.00    -0.364 C  
HETATM    4  C   UNL     1     -10.607  10.408  66.384  1.00  0.00    -0.127 C  
HETATM    5  N   UNL     1     -10.281  11.590  67.229  1.00  0.00    -0.199 N  
HETATM    6  C   UNL     1      -8.853  11.724  67.590  1.00  0.00    -0.162 C  
HETATM    7  C   UNL     1     -11.211  12.638  67.247  1.00  0.00    -0.298 C  
HETATM    8  O   UNL     1     -12.225  12.536  66.543  1.00  0.00    -0.569 OA 
HETATM    9  O   UNL     1      -9.203   9.870  69.094  1.00  0.00    -0.159 OA 
HETATM   10  C   UNL     1      -7.982  11.663  66.330  1.00  0.00     0.005 C  
HETATM   11  C   UNL     1      -8.302  10.735  68.622  1.00  0.00    -0.141 C  
HETATM   12  O   UNL     1      -7.139  10.716  68.992  1.00  0.00    -0.070 OA 
ENDROOT
BRANCH   7  13
HETATM   13  C   UNL     1     -11.123  13.891  68.191  1.00  0.00    -0.256 C  
BRANCH  13  14
HETATM   14  C   UNL     1     -12.214  14.110  69.272  1.00  0.00    -0.308 C  
BRANCH  14  15
HETATM   15  C   UNL     1     -12.056  15.452  70.017  1.00  0.00    -0.388 C  
BRANCH  15  16
HETATM   16  C   UNL     1     -11.177  15.368  71.274  1.00  0.00    -0.352 C  
BRANCH  16  17
HETATM   17  N   UNL     1     -11.825  16.113  72.338  1.00  0.00    -0.526 NA 
HETATM   18  H2  UNL     1     -12.660  17.430  74.224  1.00  0.00     0.000 HD 
HETATM   19  H1  UNL     1     -13.939  16.223  74.631  1.00  0.00     0.000 HD 
HETATM   20  N   UNL     1     -13.550  14.607  72.960  1.00  0.00    -0.568 NA 
HETATM   21  N   UNL     1     -13.156  16.553  74.066  1.00  0.00    -0.531 NA 
HETATM   22  C   UNL     1     -12.862  15.677  73.085  1.00  0.00    -0.509 C  
HETATM   23  H   UNL     1     -11.466  17.047  72.538  1.00  0.00     0.000 HD 
HETATM   24  H1  UNL     1     -14.333  14.277  73.525  1.00  0.00     0.000 HD 
HETATM   25  H2  UNL     1     -13.277  13.997  72.190  1.00  0.00     0.000 HD 
ENDBRANCH  16  17
ENDBRANCH  15  16
ENDBRANCH  14  15
ENDBRANCH  13  14
BRANCH  13  26
HETATM   26  N   UNL     1     -10.937  15.170  67.451  1.00  0.00    -0.307 N  
HETATM   27  H   UNL     1     -11.741  15.742  67.193  1.00  0.00     0.000 HD 
BRANCH  26  28
HETATM   28  S   UNL     1      -9.353  15.660  67.044  1.00  0.00    -0.236 S  
HETATM   29  O   UNL     1      -9.059  15.173  65.722  1.00  0.00    -0.198 OA 
HETATM   30  O   UNL     1      -8.534  15.261  68.170  1.00  0.00    -0.147 OA 
BRANCH  28  31
HETATM   31  C   UNL     1      -9.491  17.429  67.032  1.00  0.00    -0.266 A  
HETATM   32  C   UNL     1      -7.550  20.612  66.188  1.00  0.00     0.012 C  
HETATM   33  C   UNL     1     -10.677  17.980  67.543  1.00  0.00    -0.352 A  
HETATM   34  C   UNL     1      -5.139  20.853  65.496  1.00  0.00    -0.227 C  
HETATM   35  C   UNL     1     -10.851  19.360  67.577  1.00  0.00    -0.521 A  
HETATM   36  C   UNL     1      -6.176  19.936  66.140  1.00  0.00    -0.198 C  
HETATM   37  C   UNL     1      -6.322  18.623  65.382  1.00  0.00    -0.279 C  
HETATM   38  H   UNL     1      -7.002  16.743  66.225  1.00  0.00     0.000 HD 
HETATM   39  N   UNL     1      -7.238  17.725  66.079  1.00  0.00    -0.398 NA 
HETATM   40  C   UNL     1      -9.844  20.191  67.101  1.00  0.00    -0.586 A  
HETATM   41  C   UNL     1      -8.455  18.251  66.543  1.00  0.00    -0.268 A  
HETATM   42  C   UNL     1      -8.646  19.652  66.597  1.00  0.00    -0.380 A  
ENDBRANCH  28  31
ENDBRANCH  26  28
ENDBRANCH  13  26
ENDBRANCH   7  13
TORSDOF 8
ENDMDL
MODEL       44
REMARK 921   NORMALIZED FREE ENERGY PREDICTED BY IDOCK:   -6.99 KCAL/MOL
REMARK 922        TOTAL FREE ENERGY PREDICTED BY IDOCK:  -11.50 KCAL/MOL
REMARK 923 INTER-LIGAND FREE ENERGY PREDICTED BY IDOCK:   -9.66 KCAL/MOL
REMARK 924 INTRA-LIGAND FREE ENERGY PREDICTED BY IDOCK:   -1.84 KCAL/MOL
REMARK 927      BINDING AFFINITY PREDICTED BY RF-SCORE:    0.00 PKD
ROOT
HETATM    1  C   UNL     1     -11.059   5.889  71.537  1.00  0.00    -0.314 C  
HETATM    2  C   UNL     1     -10.230   6.487  70.409  1.00  0.00    -0.227 C  
HETATM    3  C   UNL     1      -8.919   7.091  70.923  1.00  0.00    -0.152 C  
HETATM    4  C   UNL     1      -8.119   7.727  69.787  1.00  0.00    -0.117 C  
HETATM    5  N   UNL     1      -8.923   8.659  68.949  1.00  0.00    -0.141 N  
HETATM    6  C   UNL     1     -10.218   8.118  68.480  1.00  0.00    -0.208 C  
HETATM    7  C   UNL     1      -8.612  10.023  69.032  1.00  0.00    -0.153 C  
HETATM    8  O   UNL     1      -7.715  10.374  69.812  1.00  0.00    -0.158 OA 
HETATM    9  O   UNL     1      -8.936   6.751  66.960  1.00  0.00    -0.112 OA 
HETATM   10  C   UNL     1     -11.023   7.572  69.665  1.00  0.00    -0.164 C  
HETATM   11  C   UNL     1     -10.166   7.051  67.382  1.00  0.00    -0.215 C  
HETATM   12  O   UNL     1     -11.154   6.502  66.921  1.00  0.00    -0.399 OA 
ENDROOT
BRANCH   7  13
HETATM   13  C   UNL     1      -9.236  11.137  68.118  1.00  0.00    -0.166 C  
BRANCH  13  14
HETATM   14  C   UNL     1      -8.329  11.902  67.119  1.00  0.00    -0.174 C  
BRANCH  14  15
HETATM   15  C   UNL     1      -7.260  10.999  66.469  1.00  0.00    -0.143 C  
BRANCH  15  16
HETATM   16  C   UNL     1      -7.806  10.078  65.368  1.00  0.00    -0.136 C  
BRANCH  16  17
HETATM   17  N   UNL     1      -8.542  10.889  64.415  1.00  0.00    -0.370 NA 
HETATM   18  H2  UNL     1      -9.896  12.386  63.031  1.00  0.00     0.000 HD 
HETATM   19  H1  UNL     1     -10.399  11.062  61.913  1.00  0.00     0.000 HD 
HETATM   20  N   UNL     1      -9.261   9.235  62.874  1.00  0.00    -0.512 NA 
HETATM   21  N   UNL     1      -9.891  11.413  62.725  1.00  0.00    -0.262 NA 
HETATM   22  C   UNL     1      -9.214  10.424  63.340  1.00  0.00    -0.285 C  
HETATM   23  H   UNL     1      -8.554  11.897  64.572  1.00  0.00     0.000 HD 
HETATM   24  H1  UNL     1      -9.769   8.883  62.061  1.00  0.00     0.000 HD 
HETATM   25  H2  UNL     1      -8.716   8.540  63.384  1.00  0.00     0.000 HD 
ENDBRANCH  16  17
ENDBRANCH  15  16
ENDBRANCH  14  15
ENDBRANCH  13  14
BRANCH  13  26
HETATM   26  N   UNL     1     -10.039  12.136  68.876  1.00  0.00    -0.418 N  
HETATM   27  H   UNL     1      -9.630  12.643  69.662  1.00  0.00     0.000 HD 
BRANCH  26  28
HETATM   28  S   UNL     1     -11.656  12.418  68.406  1.00  0.00    -0.342 S  
HETATM   29  O   UNL     1     -12.335  13.060  69.500  1.00  0.00    -0.178 OA 
HETATM   30  O   UNL     1     -12.128  11.146  67.897  1.00  0.00    -0.627 OA 
BRANCH  28  31
HETATM   31  C   UNL     1     -11.469  13.546  67.049  1.00  0.00    -0.340 A  
HETATM   32  C   UNL     1     -10.116  17.006  66.153  1.00  0.00    -0.332 C  
HETATM   33  C   UNL     1     -12.026  13.162  65.819  1.00  0.00    -0.473 A  
HETATM   34  C   UNL     1      -9.182  18.780  67.681  1.00  0.00    -0.310 C  
HETATM   35  C   UNL     1     -11.930  14.001  64.714  1.00  0.00    -0.432 A  
HETATM   36  C   UNL     1     -10.013  17.502  67.599  1.00  0.00    -0.309 C  
HETATM   37  C   UNL     1      -9.415  16.382  68.440  1.00  0.00    -0.220 C  
HETATM   38  H   UNL     1     -10.512  14.714  69.293  1.00  0.00     0.000 HD 
HETATM   39  N   UNL     1     -10.285  15.209  68.429  1.00  0.00    -0.218 NA 
HETATM   40  C   UNL     1     -11.277  15.222  64.833  1.00  0.00    -0.422 A  
HETATM   41  C   UNL     1     -10.802  14.780  67.196  1.00  0.00    -0.311 A  
HETATM   42  C   UNL     1     -10.724  15.624  66.063  1.00  0.00    -0.322 A  
ENDBRANCH  28  31
ENDBRANCH  26  28
ENDBRANCH  13  26
ENDBRANCH   7  13
TORSDOF 8
ENDMDL
MODEL       45
REMARK 921   NORMALIZED FREE ENERGY PREDICTED BY IDOCK:   -6.97 KCAL/MOL
REMARK 922        TOTAL FREE ENERGY PREDICTED BY IDOCK:  -11.49 KCAL/MOL
REMARK 923 INTER-LIGAND FREE ENERGY PREDICTED BY IDOCK:  -10.38 KCAL/MOL
REMARK 924 INTRA-LIGAND FREE ENERGY PREDICTED BY IDOCK:   -1.10 KCAL/MOL
REMARK 927      BINDING AFFINITY PREDICTED BY RF-SCORE:    0.00 PKD
ROOT
HETATM    1  C   UNL     1     -10.166  16.458  65.514  1.00  0.00    -0.296 C  
HETATM    2  C   UNL     1     -10.959  15.176  65.730  1.00  0.00    -0.350 C  
HETATM    3  C   UNL     1     -11.329  14.976  67.203  1.00  0.00    -0.323 C  
HETATM    4  C   UNL     1     -12.084  13.663  67.411  1.00  0.00    -0.337 C  
HETATM    5  N   UNL     1     -11.406  12.489  66.795  1.00  0.00    -0.313 N  
HETATM    6  C   UNL     1     -10.994  12.674  65.387  1.00  0.00    -0.286 C  
HETATM    7  C   UNL     1     -10.863  11.536  67.667  1.00  0.00    -0.227 C  
HETATM    8  O   UNL     1     -10.952  11.738  68.886  1.00  0.00    -0.220 OA 
HETATM    9  O   UNL     1     -13.334  12.497  64.825  1.00  0.00    -0.773 OA 
HETATM   10  C   UNL     1     -10.164  13.955  65.243  1.00  0.00    -0.366 C  
HETATM   11  C   UNL     1     -12.107  12.683  64.334  1.00  0.00    -0.415 C  
HETATM   12  O   UNL     1     -11.911  12.851  63.141  1.00  0.00    -0.529 OA 
ENDROOT
BRANCH   7  13
HETATM   13  C   UNL     1     -10.252  10.162  67.215  1.00  0.00    -0.222 C  
BRANCH  13  14
HETATM   14  C   UNL     1      -9.844   9.958  65.732  1.00  0.00    -0.356 C  
BRANCH  14  15
HETATM   15  C   UNL     1      -8.364  10.302  65.466  1.00  0.00    -0.165 C  
BRANCH  15  16
HETATM   16  C   UNL     1      -7.594  10.755  66.716  1.00  0.00    -0.129 C  
BRANCH  16  17
HETATM   17  N   UNL     1      -7.382  12.188  66.630  1.00  0.00    -0.377 NA 
HETATM   18  H2  UNL     1      -6.789  14.546  66.343  1.00  0.00     0.000 HD 
HETATM   19  H1  UNL     1      -7.216  14.964  68.047  1.00  0.00     0.000 HD 
HETATM   20  N   UNL     1      -7.920  12.860  68.841  1.00  0.00    -0.329 NA 
HETATM   21  N   UNL     1      -7.124  14.302  67.275  1.00  0.00    -0.156 NA 
HETATM   22  C   UNL     1      -7.503  13.064  67.650  1.00  0.00    -0.156 C  
HETATM   23  H   UNL     1      -7.119  12.566  65.719  1.00  0.00     0.000 HD 
HETATM   24  H1  UNL     1      -8.012  13.522  69.612  1.00  0.00     0.000 HD 
HETATM   25  H2  UNL     1      -8.200  11.902  69.050  1.00  0.00     0.000 HD 
ENDBRANCH  16  17
ENDBRANCH  15  16
ENDBRANCH  14  15
ENDBRANCH  13  14
BRANCH  13  26
HETATM   26  N   UNL     1     -11.067   8.990  67.639  1.00  0.00    -0.430 N  
HETATM   27  H   UNL     1     -12.083   9.002  67.545  1.00  0.00     0.000 HD 
BRANCH  26  28
HETATM   28  S   UNL     1     -10.270   7.625  68.283  1.00  0.00    -0.197 S  
HETATM   29  O   UNL     1      -8.852   7.813  68.116  1.00  0.00    -0.126 OA 
HETATM   30  O   UNL     1     -10.931   6.484  67.685  1.00  0.00    -0.304 OA 
BRANCH  28  31
HETATM   31  C   UNL     1     -10.703   7.704  70.002  1.00  0.00    -0.241 A  
HETATM   32  C   UNL     1     -10.850   5.597  73.188  1.00  0.00    -0.321 C  
HETATM   33  C   UNL     1     -11.251   8.910  70.467  1.00  0.00    -0.287 A  
HETATM   34  C   UNL     1     -10.421   3.131  73.469  1.00  0.00    -0.253 C  
HETATM   35  C   UNL     1     -11.627   9.042  71.799  1.00  0.00    -0.444 A  
HETATM   36  C   UNL     1     -10.730   4.247  72.475  1.00  0.00    -0.129 C  
HETATM   37  C   UNL     1      -9.651   4.371  71.408  1.00  0.00    -0.165 C  
HETATM   38  H   UNL     1      -9.930   5.180  69.413  1.00  0.00     0.000 HD 
HETATM   39  N   UNL     1     -10.025   5.371  70.411  1.00  0.00    -0.206 NA 
HETATM   40  C   UNL     1     -11.455   7.972  72.670  1.00  0.00    -0.465 A  
HETATM   41  C   UNL     1     -10.519   6.604  70.866  1.00  0.00    -0.215 A  
HETATM   42  C   UNL     1     -10.917   6.754  72.215  1.00  0.00    -0.276 A  
ENDBRANCH  28  31
ENDBRANCH  26  28
ENDBRANCH  13  26
ENDBRANCH   7  13
TORSDOF 8
ENDMDL
MODEL       46
REMARK 921   NORMALIZED FREE ENERGY PREDICTED BY IDOCK:   -6.95 KCAL/MOL
REMARK 922        TOTAL FREE ENERGY PREDICTED BY IDOCK:  -11.45 KCAL/MOL
REMARK 923 INTER-LIGAND FREE ENERGY PREDICTED BY IDOCK:  -10.43 KCAL/MOL
REMARK 924 INTRA-LIGAND FREE ENERGY PREDICTED BY IDOCK:   -1.03 KCAL/MOL
REMARK 927      BINDING AFFINITY PREDICTED BY RF-SCORE:    0.00 PKD
ROOT
HETATM    1  C   UNL     1     -12.290  16.625  73.984  1.00  0.00    -0.396 C  
HETATM    2  C   UNL     1     -12.564  15.885  72.683  1.00  0.00    -0.562 C  
HETATM    3  C   UNL     1     -13.717  14.886  72.827  1.00  0.00    -0.501 C  
HETATM    4  C   UNL     1     -13.951  14.118  71.526  1.00  0.00    -0.290 C  
HETATM    5  N   UNL     1     -12.708  13.525  70.960  1.00  0.00    -0.340 N  
HETATM    6  C   UNL     1     -11.563  14.457  70.855  1.00  0.00    -0.144 C  
HETATM    7  C   UNL     1     -12.600  12.128  70.978  1.00  0.00    -0.263 C  
HETATM    8  O   UNL     1     -13.522  11.476  71.487  1.00  0.00    -0.158 OA 
HETATM    9  O   UNL     1     -12.744  15.480  69.016  1.00  0.00     0.183 OA 
HETATM   10  C   UNL     1     -11.310  15.136  72.206  1.00  0.00    -0.306 C  
HETATM   11  C   UNL     1     -11.642  15.531  69.766  1.00  0.00    -0.334 C  
HETATM   12  O   UNL     1     -10.781  16.378  69.585  1.00  0.00    -0.311 OA 
ENDROOT
BRANCH   7  13
HETATM   13  C   UNL     1     -11.446  11.314  70.292  1.00  0.00    -0.193 C  
BRANCH  13  14
HETATM   14  C   UNL     1     -10.707  11.920  69.069  1.00  0.00    -0.197 C  
BRANCH  14  15
HETATM   15  C   UNL     1     -11.380  11.564  67.728  1.00  0.00    -0.364 C  
BRANCH  15  16
HETATM   16  C   UNL     1     -11.545  12.758  66.776  1.00  0.00    -0.370 C  
BRANCH  16  17
HETATM   17  N   UNL     1     -12.139  12.281  65.540  1.00  0.00    -0.553 NA 
HETATM   18  H2  UNL     1     -12.919  11.306  63.435  1.00  0.00     0.000 HD 
HETATM   19  H1  UNL     1     -13.394  12.908  62.752  1.00  0.00     0.000 HD 
HETATM   20  N   UNL     1     -12.811  14.326  64.542  1.00  0.00    -0.592 NA 
HETATM   21  N   UNL     1     -13.011  12.320  63.494  1.00  0.00    -0.775 NA 
HETATM   22  C   UNL     1     -12.645  13.059  64.559  1.00  0.00    -0.320 C  
HETATM   23  H   UNL     1     -12.177  11.271  65.401  1.00  0.00     0.000 HD 
HETATM   24  H1  UNL     1     -13.193  14.914  63.801  1.00  0.00     0.000 HD 
HETATM   25  H2  UNL     1     -12.521  14.819  65.387  1.00  0.00     0.000 HD 
ENDBRANCH  16  17
ENDBRANCH  15  16
ENDBRANCH  14  15
ENDBRANCH  13  14
BRANCH  13  26
HETATM   26  N   UNL     1     -11.835   9.916  69.955  1.00  0.00    -0.443 N  
HETATM   27  H   UNL     1     -12.330   9.709  69.088  1.00  0.00     0.000 HD 
BRANCH  26  28
HETATM   28  S   UNL     1     -11.435   8.667  71.048  1.00  0.00    -0.283 S  
HETATM   29  O   UNL     1     -12.626   8.304  71.769  1.00  0.00    -0.308 OA 
HETATM   30  O   UNL     1     -10.267   9.147  71.759  1.00  0.00    -0.338 OA 
BRANCH  28  31
HETATM   31  C   UNL     1     -10.946   7.351  69.963  1.00  0.00    -0.248 A  
HETATM   32  C   UNL     1      -9.728   3.728  69.955  1.00  0.00    -0.211 C  
HETATM   33  C   UNL     1     -10.899   7.640  68.590  1.00  0.00    -0.013 A  
HETATM   34  C   UNL     1      -9.103   2.269  71.912  1.00  0.00    -0.140 C  
HETATM   35  C   UNL     1     -10.512   6.662  67.680  1.00  0.00    -0.282 A  
HETATM   36  C   UNL     1      -9.345   3.700  71.438  1.00  0.00    -0.211 C  
HETATM   37  C   UNL     1     -10.456   4.379  72.226  1.00  0.00    -0.122 C  
HETATM   38  H   UNL     1     -10.675   6.518  72.522  1.00  0.00     0.000 HD 
HETATM   39  N   UNL     1     -10.592   5.777  71.825  1.00  0.00    -0.231 NA 
HETATM   40  C   UNL     1     -10.174   5.394  68.138  1.00  0.00    -0.226 A  
HETATM   41  C   UNL     1     -10.606   6.073  70.453  1.00  0.00    -0.268 A  
HETATM   42  C   UNL     1     -10.205   5.094  69.513  1.00  0.00    -0.318 A  
ENDBRANCH  28  31
ENDBRANCH  26  28
ENDBRANCH  13  26
ENDBRANCH   7  13
TORSDOF 8
ENDMDL
MODEL       47
REMARK 921   NORMALIZED FREE ENERGY PREDICTED BY IDOCK:   -6.95 KCAL/MOL
REMARK 922        TOTAL FREE ENERGY PREDICTED BY IDOCK:  -11.45 KCAL/MOL
REMARK 923 INTER-LIGAND FREE ENERGY PREDICTED BY IDOCK:  -10.12 KCAL/MOL
REMARK 924 INTRA-LIGAND FREE ENERGY PREDICTED BY IDOCK:   -1.33 KCAL/MOL
REMARK 927      BINDING AFFINITY PREDICTED BY RF-SCORE:    0.00 PKD
ROOT
HETATM    1  C   UNL     1      -5.936  21.146  65.522  1.00  0.00    -0.241 C  
HETATM    2  C   UNL     1      -6.917  20.522  66.504  1.00  0.00    -0.303 C  
HETATM    3  C   UNL     1      -6.246  20.174  67.837  1.00  0.00    -0.267 C  
HETATM    4  C   UNL     1      -7.233  19.508  68.796  1.00  0.00    -0.356 C  
HETATM    5  N   UNL     1      -7.976  18.373  68.182  1.00  0.00    -0.279 N  
HETATM    6  C   UNL     1      -8.592  18.668  66.870  1.00  0.00    -0.281 C  
HETATM    7  C   UNL     1      -7.683  17.087  68.656  1.00  0.00    -0.251 C  
HETATM    8  O   UNL     1      -6.811  16.967  69.527  1.00  0.00    -0.230 OA 
HETATM    9  O   UNL     1     -10.212  19.983  68.083  1.00  0.00    -0.422 OA 
HETATM   10  C   UNL     1      -7.546  19.251  65.914  1.00  0.00    -0.266 C  
HETATM   11  C   UNL     1      -9.825  19.578  66.872  1.00  0.00    -0.369 C  
HETATM   12  O   UNL     1     -10.416  19.922  65.860  1.00  0.00    -0.503 OA 
ENDROOT
BRANCH   7  13
HETATM   13  C   UNL     1      -8.467  15.788  68.248  1.00  0.00    -0.164 C  
BRANCH  13  14
HETATM   14  C   UNL     1      -7.946  14.404  68.719  1.00  0.00    -0.133 C  
BRANCH  14  15
HETATM   15  C   UNL     1      -7.276  13.601  67.586  1.00  0.00    -0.179 C  
BRANCH  15  16
HETATM   16  C   UNL     1      -7.545  12.089  67.648  1.00  0.00    -0.136 C  
BRANCH  16  17
HETATM   17  N   UNL     1      -7.451  11.550  66.304  1.00  0.00    -0.372 NA 
HETATM   18  H2  UNL     1      -7.440  10.867  63.954  1.00  0.00     0.000 HD 
HETATM   19  H1  UNL     1      -7.812   9.145  64.348  1.00  0.00     0.000 HD 
HETATM   20  N   UNL     1      -7.927   9.260  66.700  1.00  0.00    -0.107 NA 
HETATM   21  N   UNL     1      -7.634  10.114  64.614  1.00  0.00    -0.143 NA 
HETATM   22  C   UNL     1      -7.687  10.269  65.952  1.00  0.00    -0.137 C  
HETATM   23  H   UNL     1      -7.184  12.197  65.560  1.00  0.00     0.000 HD 
HETATM   24  H1  UNL     1      -8.105   8.291  66.434  1.00  0.00     0.000 HD 
HETATM   25  H2  UNL     1      -7.942   9.450  67.702  1.00  0.00     0.000 HD 
ENDBRANCH  16  17
ENDBRANCH  15  16
ENDBRANCH  14  15
ENDBRANCH  13  14
BRANCH  13  26
HETATM   26  N   UNL     1      -8.749  15.707  66.788  1.00  0.00    -0.247 N  
HETATM   27  H   UNL     1      -7.986  15.676  66.112  1.00  0.00     0.000 HD 
BRANCH  26  28
HETATM   28  S   UNL     1     -10.374  15.667  66.268  1.00  0.00    -0.321 S  
HETATM   29  O   UNL     1     -10.468  16.404  65.035  1.00  0.00    -0.642 OA 
HETATM   30  O   UNL     1     -11.150  16.071  67.422  1.00  0.00    -0.278 OA 
BRANCH  28  31
HETATM   31  C   UNL     1     -10.640  13.938  65.973  1.00  0.00    -0.293 A  
HETATM   32  C   UNL     1     -11.332  10.633  67.764  1.00  0.00    -0.320 C  
HETATM   33  C   UNL     1     -10.529  13.492  64.647  1.00  0.00    -0.439 A  
HETATM   34  C   UNL     1     -11.393  10.162  70.239  1.00  0.00    -0.387 C  
HETATM   35  C   UNL     1     -10.711  12.148  64.342  1.00  0.00    -0.366 A  
HETATM   36  C   UNL     1     -10.935  11.135  69.156  1.00  0.00    -0.295 C  
HETATM   37  C   UNL     1     -11.537  12.521  69.347  1.00  0.00    -0.305 C  
HETATM   38  H   UNL     1     -10.677  14.384  68.641  1.00  0.00     0.000 HD 
HETATM   39  N   UNL     1     -10.999  13.456  68.363  1.00  0.00    -0.256 NA 
HETATM   40  C   UNL     1     -11.006  11.246  65.358  1.00  0.00    -0.201 A  
HETATM   41  C   UNL     1     -10.938  13.043  67.023  1.00  0.00    -0.265 A  
HETATM   42  C   UNL     1     -11.109  11.678  66.693  1.00  0.00    -0.364 A  
ENDBRANCH  28  31
ENDBRANCH  26  28
ENDBRANCH  13  26
ENDBRANCH   7  13
TORSDOF 8
ENDMDL
MODEL       48
REMARK 921   NORMALIZED FREE ENERGY PREDICTED BY IDOCK:   -6.95 KCAL/MOL
REMARK 922        TOTAL FREE ENERGY PREDICTED BY IDOCK:  -11.45 KCAL/MOL
REMARK 923 INTER-LIGAND FREE ENERGY PREDICTED BY IDOCK:   -9.50 KCAL/MOL
REMARK 924 INTRA-LIGAND FREE ENERGY PREDICTED BY IDOCK:   -1.95 KCAL/MOL
REMARK 927      BINDING AFFINITY PREDICTED BY RF-SCORE:    0.00 PKD
ROOT
HETATM    1  C   UNL     1      -8.714   3.680  65.972  1.00  0.00    -0.120 C  
HETATM    2  C   UNL     1      -8.541   4.579  67.188  1.00  0.00    -0.104 C  
HETATM    3  C   UNL     1      -9.719   4.456  68.160  1.00  0.00    -0.181 C  
HETATM    4  C   UNL     1      -9.553   5.397  69.353  1.00  0.00    -0.149 C  
HETATM    5  N   UNL     1      -9.241   6.799  68.959  1.00  0.00    -0.137 N  
HETATM    6  C   UNL     1      -8.139   6.942  67.983  1.00  0.00    -0.115 C  
HETATM    7  C   UNL     1     -10.230   7.763  69.193  1.00  0.00    -0.208 C  
HETATM    8  O   UNL     1     -11.307   7.393  69.681  1.00  0.00    -0.109 OA 
HETATM    9  O   UNL     1      -6.648   6.382  69.796  1.00  0.00    -0.045 OA 
HETATM   10  C   UNL     1      -8.392   6.048  66.764  1.00  0.00    -0.106 C  
HETATM   11  C   UNL     1      -6.719   6.687  68.499  1.00  0.00    -0.064 C  
HETATM   12  O   UNL     1      -5.721   6.746  67.797  1.00  0.00    -0.017 OA 
ENDROOT
BRANCH   7  13
HETATM   13  C   UNL     1     -10.033   9.308  68.993  1.00  0.00    -0.182 C  
BRANCH  13  14
HETATM   14  C   UNL     1     -10.427  10.282  70.135  1.00  0.00    -0.259 C  
BRANCH  14  15
HETATM   15  C   UNL     1     -11.832  10.889  69.946  1.00  0.00    -0.427 C  
BRANCH  15  16
HETATM   16  C   UNL     1     -12.775  10.664  71.138  1.00  0.00    -0.422 C  
BRANCH  16  17
HETATM   17  N   UNL     1     -13.324   9.324  71.042  1.00  0.00    -0.564 NA 
HETATM   18  H2  UNL     1     -14.387   7.154  70.652  1.00  0.00     0.000 HD 
HETATM   19  H1  UNL     1     -14.784   6.921  72.397  1.00  0.00     0.000 HD 
HETATM   20  N   UNL     1     -13.888   8.902  73.308  1.00  0.00    -1.162 NA 
HETATM   21  N   UNL     1     -14.384   7.456  71.626  1.00  0.00    -0.462 NA 
HETATM   22  C   UNL     1     -13.853   8.615  72.062  1.00  0.00    -0.440 C  
HETATM   23  H   UNL     1     -13.310   8.879  70.124  1.00  0.00     0.000 HD 
HETATM   24  H1  UNL     1     -14.288   8.366  74.079  1.00  0.00     0.000 HD 
HETATM   25  H2  UNL     1     -13.458   9.789  73.567  1.00  0.00     0.000 HD 
ENDBRANCH  16  17
ENDBRANCH  15  16
ENDBRANCH  14  15
ENDBRANCH  13  14
BRANCH  13  26
HETATM   26  N   UNL     1     -10.625   9.816  67.725  1.00  0.00    -0.250 N  
HETATM   27  H   UNL     1     -11.620  10.035  67.666  1.00  0.00     0.000 HD 
BRANCH  26  28
HETATM   28  S   UNL     1      -9.608  10.024  66.370  1.00  0.00    -0.208 S  
HETATM   29  O   UNL     1      -9.742   8.866  65.526  1.00  0.00    -0.147 OA 
HETATM   30  O   UNL     1      -8.316  10.383  66.919  1.00  0.00    -0.122 OA 
BRANCH  28  31
HETATM   31  C   UNL     1     -10.310  11.448  65.579  1.00  0.00    -0.266 A  
HETATM   32  C   UNL     1     -11.395  15.053  66.240  1.00  0.00    -0.273 C  
HETATM   33  C   UNL     1     -10.698  11.306  64.237  1.00  0.00    -0.416 A  
HETATM   34  C   UNL     1     -11.485  16.297  68.430  1.00  0.00    -0.243 C  
HETATM   35  C   UNL     1     -11.268  12.376  63.555  1.00  0.00    -0.540 A  
HETATM   36  C   UNL     1     -11.405  14.925  67.767  1.00  0.00    -0.341 C  
HETATM   37  C   UNL     1     -10.153  14.164  68.185  1.00  0.00    -0.239 C  
HETATM   38  H   UNL     1      -9.927  12.006  68.197  1.00  0.00     0.000 HD 
HETATM   39  N   UNL     1     -10.157  12.817  67.622  1.00  0.00    -0.216 NA 
HETATM   40  C   UNL     1     -11.451  13.589  64.209  1.00  0.00    -0.414 A  
HETATM   41  C   UNL     1     -10.486  12.668  66.265  1.00  0.00    -0.251 A  
HETATM   42  C   UNL     1     -11.077  13.741  65.557  1.00  0.00    -0.300 A  
ENDBRANCH  28  31
ENDBRANCH  26  28
ENDBRANCH  13  26
ENDBRANCH   7  13
TORSDOF 8
ENDMDL
MODEL       49
REMARK 921   NORMALIZED FREE ENERGY PREDICTED BY IDOCK:   -6.93 KCAL/MOL
REMARK 922        TOTAL FREE ENERGY PREDICTED BY IDOCK:  -11.42 KCAL/MOL
REMARK 923 INTER-LIGAND FREE ENERGY PREDICTED BY IDOCK:  -10.45 KCAL/MOL
REMARK 924 INTRA-LIGAND FREE ENERGY PREDICTED BY IDOCK:   -0.97 KCAL/MOL
REMARK 927      BINDING AFFINITY PREDICTED BY RF-SCORE:    0.00 PKD
ROOT
HETATM    1  C   UNL     1     -10.576   7.275  73.400  1.00  0.00    -0.435 C  
HETATM    2  C   UNL     1     -10.010   7.429  71.996  1.00  0.00    -0.196 C  
HETATM    3  C   UNL     1      -8.768   8.327  71.977  1.00  0.00    -0.243 C  
HETATM    4  C   UNL     1      -8.237   8.509  70.555  1.00  0.00    -0.115 C  
HETATM    5  N   UNL     1      -9.288   8.915  69.581  1.00  0.00    -0.160 N  
HETATM    6  C   UNL     1     -10.518   8.094  69.613  1.00  0.00    -0.224 C  
HETATM    7  C   UNL     1      -9.208  10.213  69.059  1.00  0.00    -0.185 C  
HETATM    8  O   UNL     1      -8.294  10.950  69.456  1.00  0.00    -0.019 OA 
HETATM    9  O   UNL     1      -9.220   6.360  68.550  1.00  0.00    -0.126 OA 
HETATM   10  C   UNL     1     -11.064   8.013  71.043  1.00  0.00    -0.275 C  
HETATM   11  C   UNL     1     -10.421   6.677  69.038  1.00  0.00    -0.214 C  
HETATM   12  O   UNL     1     -11.350   5.886  69.022  1.00  0.00    -0.258 OA 
ENDROOT
BRANCH   7  13
HETATM   13  C   UNL     1     -10.123  10.769  67.911  1.00  0.00    -0.172 C  
BRANCH  13  14
HETATM   14  C   UNL     1     -11.599  11.137  68.221  1.00  0.00    -0.359 C  
BRANCH  14  15
HETATM   15  C   UNL     1     -11.802  11.617  69.673  1.00  0.00    -0.419 C  
BRANCH  15  16
HETATM   16  C   UNL     1     -12.016  13.132  69.805  1.00  0.00    -0.314 C  
BRANCH  16  17
HETATM   17  N   UNL     1     -12.554  13.406  71.125  1.00  0.00    -0.367 NA 
HETATM   18  H2  UNL     1     -13.521  13.595  73.365  1.00  0.00     0.000 HD 
HETATM   19  H1  UNL     1     -14.427  15.102  72.957  1.00  0.00     0.000 HD 
HETATM   20  N   UNL     1     -13.781  15.395  70.710  1.00  0.00    -0.845 NA 
HETATM   21  N   UNL     1     -13.799  14.334  72.719  1.00  0.00    -0.626 NA 
HETATM   22  C   UNL     1     -13.385  14.423  71.440  1.00  0.00    -0.349 C  
HETATM   23  H   UNL     1     -12.281  12.776  71.880  1.00  0.00     0.000 HD 
HETATM   24  H1  UNL     1     -14.409  16.163  70.948  1.00  0.00     0.000 HD 
HETATM   25  H2  UNL     1     -13.419  15.403  69.757  1.00  0.00     0.000 HD 
ENDBRANCH  16  17
ENDBRANCH  15  16
ENDBRANCH  14  15
ENDBRANCH  13  14
BRANCH  13  26
HETATM   26  N   UNL     1     -10.103   9.926  66.683  1.00  0.00    -0.223 N  
HETATM   27  H   UNL     1     -10.566   9.017  66.669  1.00  0.00     0.000 HD 
BRANCH  26  28
HETATM   28  S   UNL     1      -9.288  10.509  65.301  1.00  0.00    -0.234 S  
HETATM   29  O   UNL     1      -9.309   9.475  64.299  1.00  0.00    -0.197 OA 
HETATM   30  O   UNL     1      -8.028  11.024  65.794  1.00  0.00    -0.121 OA 
BRANCH  28  31
HETATM   31  C   UNL     1     -10.309  11.871  64.801  1.00  0.00    -0.281 A  
HETATM   32  C   UNL     1     -11.114  15.515  65.628  1.00  0.00    -0.235 C  
HETATM   33  C   UNL     1     -11.234  11.632  63.773  1.00  0.00    -0.498 A  
HETATM   34  C   UNL     1     -10.287  16.916  67.553  1.00  0.00    -0.318 C  
HETATM   35  C   UNL     1     -12.077  12.649  63.337  1.00  0.00    -0.614 A  
HETATM   36  C   UNL     1     -10.458  15.499  67.013  1.00  0.00    -0.304 C  
HETATM   37  C   UNL     1      -9.126  14.771  66.895  1.00  0.00    -0.248 C  
HETATM   38  H   UNL     1      -8.848  12.619  66.951  1.00  0.00     0.000 HD 
HETATM   39  N   UNL     1      -9.330  13.386  66.480  1.00  0.00    -0.245 NA 
HETATM   40  C   UNL     1     -11.997  13.906  63.924  1.00  0.00    -0.372 A  
HETATM   41  C   UNL     1     -10.209  13.138  65.413  1.00  0.00    -0.290 A  
HETATM   42  C   UNL     1     -11.082  14.156  64.963  1.00  0.00    -0.372 A  
ENDBRANCH  28  31
ENDBRANCH  26  28
ENDBRANCH  13  26
ENDBRANCH   7  13
TORSDOF 8
ENDMDL
MODEL       50
REMARK 921   NORMALIZED FREE ENERGY PREDICTED BY IDOCK:   -6.93 KCAL/MOL
REMARK 922        TOTAL FREE ENERGY PREDICTED BY IDOCK:  -11.41 KCAL/MOL
REMARK 923 INTER-LIGAND FREE ENERGY PREDICTED BY IDOCK:   -8.89 KCAL/MOL
REMARK 924 INTRA-LIGAND FREE ENERGY PREDICTED BY IDOCK:   -2.53 KCAL/MOL
REMARK 927      BINDING AFFINITY PREDICTED BY RF-SCORE:    0.00 PKD
ROOT
HETATM    1  C   UNL     1      -9.209  10.041  64.072  1.00  0.00    -0.318 C  
HETATM    2  C   UNL     1      -9.873  11.280  64.655  1.00  0.00    -0.314 C  
HETATM    3  C   UNL     1      -8.868  12.173  65.390  1.00  0.00     0.537 C  
HETATM    4  C   UNL     1      -9.556  13.389  66.009  1.00  0.00    -0.159 C  
HETATM    5  N   UNL     1     -10.755  13.039  66.819  1.00  0.00    -0.261 N  
HETATM    6  C   UNL     1     -11.719  12.137  66.151  1.00  0.00    -0.315 C  
HETATM    7  C   UNL     1     -10.666  13.225  68.205  1.00  0.00    -0.252 C  
HETATM    8  O   UNL     1      -9.596  13.637  68.674  1.00  0.00    -0.193 OA 
HETATM    9  O   UNL     1     -12.332  14.031  64.788  1.00  0.00    -0.454 OA 
HETATM   10  C   UNL     1     -10.999  10.890  65.625  1.00  0.00    -0.032 C  
HETATM   11  C   UNL     1     -12.561  12.737  65.021  1.00  0.00    -0.468 C  
HETATM   12  O   UNL     1     -13.375  12.102  64.369  1.00  0.00    -0.740 OA 
ENDROOT
BRANCH   7  13
HETATM   13  C   UNL     1     -11.866  13.063  69.205  1.00  0.00    -0.316 C  
BRANCH  13  14
HETATM   14  C   UNL     1     -12.592  14.326  69.738  1.00  0.00    -0.152 C  
BRANCH  14  15
HETATM   15  C   UNL     1     -12.112  14.744  71.144  1.00  0.00    -0.391 C  
BRANCH  15  16
HETATM   16  C   UNL     1     -11.059  15.862  71.138  1.00  0.00    -0.191 C  
BRANCH  16  17
HETATM   17  N   UNL     1     -11.186  16.606  69.898  1.00  0.00    -0.391 NA 
HETATM   18  H2  UNL     1     -11.633  17.711  67.760  1.00  0.00     0.000 HD 
HETATM   19  H1  UNL     1      -9.905  17.632  67.244  1.00  0.00     0.000 HD 
HETATM   20  N   UNL     1      -8.946  16.571  69.117  1.00  0.00    -0.219 NA 
HETATM   21  N   UNL     1     -10.657  17.455  67.911  1.00  0.00    -0.380 NA 
HETATM   22  C   UNL     1     -10.192  16.840  69.016  1.00  0.00    -0.310 C  
HETATM   23  H   UNL     1     -12.107  16.985  69.674  1.00  0.00     0.000 HD 
HETATM   24  H1  UNL     1      -8.194  16.748  68.450  1.00  0.00     0.000 HD 
HETATM   25  H2  UNL     1      -8.664  16.115  69.985  1.00  0.00     0.000 HD 
ENDBRANCH  16  17
ENDBRANCH  15  16
ENDBRANCH  14  15
ENDBRANCH  13  14
BRANCH  13  26
HETATM   26  N   UNL     1     -11.547  12.186  70.366  1.00  0.00    -0.496 N  
HETATM   27  H   UNL     1     -10.707  12.345  70.923  1.00  0.00     0.000 HD 
BRANCH  26  28
HETATM   28  S   UNL     1     -12.614  10.909  70.747  1.00  0.00    -0.372 S  
HETATM   29  O   UNL     1     -13.385  10.603  69.570  1.00  0.00     0.251 OA 
HETATM   30  O   UNL     1     -13.276  11.322  71.968  1.00  0.00    -0.506 OA 
BRANCH  28  31
HETATM   31  C   UNL     1     -11.502   9.578  71.118  1.00  0.00    -0.360 A  
HETATM   32  C   UNL     1      -8.433   7.734  69.780  1.00  0.00    -0.133 C  
HETATM   33  C   UNL     1     -11.776   8.819  72.267  1.00  0.00    -0.398 A  
HETATM   34  C   UNL     1      -7.261   8.019  67.568  1.00  0.00    -0.088 C  
HETATM   35  C   UNL     1     -10.955   7.751  72.615  1.00  0.00    -0.422 A  
HETATM   36  C   UNL     1      -8.541   8.285  68.355  1.00  0.00    -0.133 C  
HETATM   37  C   UNL     1      -8.853   9.773  68.447  1.00  0.00    -0.120 C  
HETATM   38  H   UNL     1     -10.822  10.641  68.726  1.00  0.00     0.000 HD 
HETATM   39  N   UNL     1     -10.135   9.991  69.111  1.00  0.00    -0.195 NA 
HETATM   40  C   UNL     1      -9.859   7.440  71.818  1.00  0.00    -0.187 A  
HETATM   41  C   UNL     1     -10.397   9.282  70.293  1.00  0.00    -0.229 A  
HETATM   42  C   UNL     1      -9.580   8.185  70.658  1.00  0.00    -0.179 A  
ENDBRANCH  28  31
ENDBRANCH  26  28
ENDBRANCH  13  26
ENDBRANCH   7  13
TORSDOF 8
ENDMDL
MODEL       51
REMARK 921   NORMALIZED FREE ENERGY PREDICTED BY IDOCK:   -6.92 KCAL/MOL
REMARK 922        TOTAL FREE ENERGY PREDICTED BY IDOCK:  -11.41 KCAL/MOL
REMARK 923 INTER-LIGAND FREE ENERGY PREDICTED BY IDOCK:   -9.74 KCAL/MOL
REMARK 924 INTRA-LIGAND FREE ENERGY PREDICTED BY IDOCK:   -1.67 KCAL/MOL
REMARK 927      BINDING AFFINITY PREDICTED BY RF-SCORE:    0.00 PKD
ROOT
HETATM    1  C   UNL     1     -12.121  14.611  64.368  1.00  0.00    -0.481 C  
HETATM    2  C   UNL     1     -11.348  14.037  65.546  1.00  0.00    -0.313 C  
HETATM    3  C   UNL     1     -10.831  12.624  65.254  1.00  0.00    -0.319 C  
HETATM    4  C   UNL     1     -10.096  12.042  66.462  1.00  0.00    -0.201 C  
HETATM    5  N   UNL     1     -10.869  12.151  67.731  1.00  0.00    -0.216 N  
HETATM    6  C   UNL     1     -11.421  13.494  68.012  1.00  0.00    -0.307 C  
HETATM    7  C   UNL     1     -11.344  10.959  68.293  1.00  0.00    -0.308 C  
HETATM    8  O   UNL     1     -11.123   9.898  67.693  1.00  0.00    -0.267 OA 
HETATM    9  O   UNL     1      -9.159  14.165  68.518  1.00  0.00    -0.192 OA 
HETATM   10  C   UNL     1     -12.224  13.999  66.807  1.00  0.00    -0.439 C  
HETATM   11  C   UNL     1     -10.425  14.579  68.433  1.00  0.00    -0.246 C  
HETATM   12  O   UNL     1     -10.740  15.734  68.671  1.00  0.00    -0.241 OA 
ENDROOT
BRANCH   7  13
HETATM   13  C   UNL     1     -12.039  10.851  69.697  1.00  0.00    -0.329 C  
BRANCH  13  14
HETATM   14  C   UNL     1     -12.859  12.053  70.237  1.00  0.00     0.233 C  
BRANCH  14  15
HETATM   15  C   UNL     1     -12.945  12.074  71.777  1.00  0.00    -0.445 C  
BRANCH  15  16
HETATM   16  C   UNL     1     -13.770  13.241  72.340  1.00  0.00    -0.578 C  
BRANCH  16  17
HETATM   17  N   UNL     1     -12.877  14.359  72.583  1.00  0.00    -0.398 NA 
HETATM   18  H2  UNL     1     -11.468  16.245  73.255  1.00  0.00     0.000 HD 
HETATM   19  H1  UNL     1     -11.807  17.168  71.741  1.00  0.00     0.000 HD 
HETATM   20  N   UNL     1     -13.238  15.659  70.631  1.00  0.00    -0.755 NA 
HETATM   21  N   UNL     1     -11.917  16.353  72.345  1.00  0.00    -0.529 NA 
HETATM   22  C   UNL     1     -12.731  15.438  71.784  1.00  0.00    -0.396 C  
HETATM   23  H   UNL     1     -12.310  14.328  73.431  1.00  0.00     0.000 HD 
HETATM   24  H1  UNL     1     -13.128  16.474  70.027  1.00  0.00     0.000 HD 
HETATM   25  H2  UNL     1     -13.836  14.919  70.265  1.00  0.00     0.000 HD 
ENDBRANCH  16  17
ENDBRANCH  15  16
ENDBRANCH  14  15
ENDBRANCH  13  14
BRANCH  13  26
HETATM   26  N   UNL     1     -11.118  10.395  70.774  1.00  0.00    -0.391 N  
HETATM   27  H   UNL     1     -10.368  11.001  71.108  1.00  0.00     0.000 HD 
BRANCH  26  28
HETATM   28  S   UNL     1     -11.339   8.838  71.439  1.00  0.00    -0.321 S  
HETATM   29  O   UNL     1     -12.753   8.577  71.506  1.00  0.00    -0.313 OA 
HETATM   30  O   UNL     1     -10.535   8.825  72.644  1.00  0.00    -0.168 OA 
BRANCH  28  31
HETATM   31  C   UNL     1     -10.575   7.792  70.228  1.00  0.00    -0.231 A  
HETATM   32  C   UNL     1      -7.420   7.422  68.102  1.00  0.00    -0.105 C  
HETATM   33  C   UNL     1     -11.326   6.700  69.764  1.00  0.00    -0.412 A  
HETATM   34  C   UNL     1      -5.492   9.024  67.849  1.00  0.00    -0.035 C  
HETATM   35  C   UNL     1     -10.797   5.842  68.805  1.00  0.00    -0.353 A  
HETATM   36  C   UNL     1      -6.940   8.863  68.301  1.00  0.00    -0.076 C  
HETATM   37  C   UNL     1      -7.120   9.222  69.770  1.00  0.00    -0.064 C  
HETATM   38  H   UNL     1      -8.960   9.912  70.690  1.00  0.00     0.000 HD 
HETATM   39  N   UNL     1      -8.530   9.163  70.146  1.00  0.00    -0.156 NA 
HETATM   40  C   UNL     1      -9.520   6.072  68.308  1.00  0.00    -0.117 A  
HETATM   41  C   UNL     1      -9.277   8.046  69.739  1.00  0.00    -0.149 A  
HETATM   42  C   UNL     1      -8.761   7.169  68.755  1.00  0.00    -0.124 A  
ENDBRANCH  28  31
ENDBRANCH  26  28
ENDBRANCH  13  26
ENDBRANCH   7  13
TORSDOF 8
ENDMDL
MODEL       52
REMARK 921   NORMALIZED FREE ENERGY PREDICTED BY IDOCK:   -6.90 KCAL/MOL
REMARK 922        TOTAL FREE ENERGY PREDICTED BY IDOCK:  -11.38 KCAL/MOL
REMARK 923 INTER-LIGAND FREE ENERGY PREDICTED BY IDOCK:  -10.05 KCAL/MOL
REMARK 924 INTRA-LIGAND FREE ENERGY PREDICTED BY IDOCK:   -1.33 KCAL/MOL
REMARK 927      BINDING AFFINITY PREDICTED BY RF-SCORE:    0.00 PKD
ROOT
HETATM    1  C   UNL     1      -8.926  16.681  65.846  1.00  0.00    -0.134 C  
HETATM    2  C   UNL     1      -9.494  15.532  66.669  1.00  0.00    -0.281 C  
HETATM    3  C   UNL     1      -8.487  15.020  67.704  1.00  0.00    -0.170 C  
HETATM    4  C   UNL     1      -9.054  13.839  68.491  1.00  0.00    -0.133 C  
HETATM    5  N   UNL     1      -9.620  12.770  67.622  1.00  0.00    -0.186 N  
HETATM    6  C   UNL     1     -10.558  13.243  66.581  1.00  0.00    -0.281 C  
HETATM    7  C   UNL     1      -8.934  11.549  67.582  1.00  0.00    -0.160 C  
HETATM    8  O   UNL     1      -7.890  11.440  68.241  1.00  0.00    -0.117 OA 
HETATM    9  O   UNL     1     -12.142  13.598  68.367  1.00  0.00    -0.361 OA 
HETATM   10  C   UNL     1      -9.914  14.367  65.761  1.00  0.00    -0.354 C  
HETATM   11  C   UNL     1     -11.941  13.704  67.052  1.00  0.00    -0.406 C  
HETATM   12  O   UNL     1     -12.803  14.140  66.305  1.00  0.00    -0.311 OA 
ENDROOT
BRANCH   7  13
HETATM   13  C   UNL     1      -9.454  10.258  66.854  1.00  0.00    -0.169 C  
BRANCH  13  14
HETATM   14  C   UNL     1     -10.109  10.383  65.453  1.00  0.00    -0.354 C  
BRANCH  14  15
HETATM   15  C   UNL     1      -9.182  11.050  64.417  1.00  0.00    -0.179 C  
BRANCH  15  16
HETATM   16  C   UNL     1      -9.911  11.565  63.167  1.00  0.00    -0.377 C  
BRANCH  16  17
HETATM   17  N   UNL     1     -11.335  11.347  63.344  1.00  0.00    -0.801 NA 
HETATM   18  H2  UNL     1     -13.711  10.769  63.458  1.00  0.00     0.000 HD 
HETATM   19  H1  UNL     1     -14.237  12.494  63.393  1.00  0.00     0.000 HD 
HETATM   20  N   UNL     1     -12.146  13.576  63.276  1.00  0.00    -0.925 NA 
HETATM   21  N   UNL     1     -13.519  11.769  63.403  1.00  0.00    -0.250 NA 
HETATM   22  C   UNL     1     -12.285  12.306  63.331  1.00  0.00    -0.527 C  
HETATM   23  H   UNL     1     -11.645  10.386  63.490  1.00  0.00     0.000 HD 
HETATM   24  H1  UNL     1     -12.865  14.301  63.266  1.00  0.00     0.000 HD 
HETATM   25  H2  UNL     1     -11.184  13.911  63.234  1.00  0.00     0.000 HD 
ENDBRANCH  16  17
ENDBRANCH  15  16
ENDBRANCH  14  15
ENDBRANCH  13  14
BRANCH  13  26
HETATM   26  N   UNL     1     -10.340   9.420  67.709  1.00  0.00    -0.223 N  
HETATM   27  H   UNL     1     -11.300   9.705  67.899  1.00  0.00     0.000 HD 
BRANCH  26  28
HETATM   28  S   UNL     1      -9.716   7.972  68.365  1.00  0.00    -0.162 S  
HETATM   29  O   UNL     1      -8.280   8.066  68.374  1.00  0.00    -0.120 OA 
HETATM   30  O   UNL     1     -10.376   6.911  67.632  1.00  0.00    -0.167 OA 
BRANCH  28  31
HETATM   31  C   UNL     1     -10.345   8.001  70.024  1.00  0.00    -0.218 A  
HETATM   32  C   UNL     1     -10.712   5.849  73.161  1.00  0.00    -0.288 C  
HETATM   33  C   UNL     1     -11.020   9.163  70.430  1.00  0.00    -0.290 A  
HETATM   34  C   UNL     1     -10.156   3.412  73.476  1.00  0.00    -0.188 C  
HETATM   35  C   UNL     1     -11.552   9.253  71.712  1.00  0.00    -0.458 A  
HETATM   36  C   UNL     1     -10.423   4.518  72.460  1.00  0.00    -0.251 C  
HETATM   37  C   UNL     1      -9.242   4.725  71.522  1.00  0.00    -0.142 C  
HETATM   38  H   UNL     1      -9.346   5.540  69.513  1.00  0.00     0.000 HD 
HETATM   39  N   UNL     1      -9.565   5.712  70.495  1.00  0.00    -0.169 NA 
HETATM   40  C   UNL     1     -11.409   8.186  72.591  1.00  0.00    -0.450 A  
HETATM   41  C   UNL     1     -10.188   6.904  70.897  1.00  0.00    -0.197 A  
HETATM   42  C   UNL     1     -10.745   7.011  72.193  1.00  0.00    -0.247 A  
ENDBRANCH  28  31
ENDBRANCH  26  28
ENDBRANCH  13  26
ENDBRANCH   7  13
TORSDOF 8
ENDMDL
MODEL       53
REMARK 921   NORMALIZED FREE ENERGY PREDICTED BY IDOCK:   -6.90 KCAL/MOL
REMARK 922        TOTAL FREE ENERGY PREDICTED BY IDOCK:  -11.38 KCAL/MOL
REMARK 923 INTER-LIGAND FREE ENERGY PREDICTED BY IDOCK:  -11.74 KCAL/MOL
REMARK 924 INTRA-LIGAND FREE ENERGY PREDICTED BY IDOCK:    0.36 KCAL/MOL
REMARK 927      BINDING AFFINITY PREDICTED BY RF-SCORE:    0.00 PKD
ROOT
HETATM    1  C   UNL     1     -10.212  18.546  67.021  1.00  0.00    -0.410 C  
HETATM    2  C   UNL     1     -10.047  17.408  68.018  1.00  0.00    -0.326 C  
HETATM    3  C   UNL     1      -8.581  16.988  68.166  1.00  0.00    -0.228 C  
HETATM    4  C   UNL     1      -8.436  15.815  69.135  1.00  0.00    -0.251 C  
HETATM    5  N   UNL     1      -9.359  14.685  68.836  1.00  0.00    -0.189 N  
HETATM    6  C   UNL     1     -10.774  15.070  68.640  1.00  0.00    -0.244 C  
HETATM    7  C   UNL     1      -8.783  13.497  68.367  1.00  0.00    -0.140 C  
HETATM    8  O   UNL     1      -7.556  13.465  68.202  1.00  0.00    -0.113 OA 
HETATM    9  O   UNL     1     -10.862  15.425  71.025  1.00  0.00    -0.317 OA 
HETATM   10  C   UNL     1     -10.878  16.187  67.595  1.00  0.00    -0.297 C  
HETATM   11  C   UNL     1     -11.559  15.485  69.888  1.00  0.00    -0.335 C  
HETATM   12  O   UNL     1     -12.724  15.849  69.868  1.00  0.00    -0.196 OA 
ENDROOT
BRANCH   7  13
HETATM   13  C   UNL     1      -9.566  12.154  68.146  1.00  0.00    -0.208 C  
BRANCH  13  14
HETATM   14  C   UNL     1     -10.687  12.091  67.075  1.00  0.00    -0.280 C  
BRANCH  14  15
HETATM   15  C   UNL     1     -10.358  11.121  65.922  1.00  0.00    -0.314 C  
BRANCH  15  16
HETATM   16  C   UNL     1      -9.842  11.814  64.652  1.00  0.00    -0.203 C  
BRANCH  16  17
HETATM   17  N   UNL     1     -10.783  12.855  64.282  1.00  0.00    -0.383 NA 
HETATM   18  H2  UNL     1     -12.337  14.711  63.918  1.00  0.00     0.000 HD 
HETATM   19  H1  UNL     1     -13.538  13.670  63.064  1.00  0.00     0.000 HD 
HETATM   20  N   UNL     1     -12.430  11.591  63.134  1.00  0.00    -0.911 NA 
HETATM   21  N   UNL     1     -12.652  13.814  63.549  1.00  0.00    -0.808 NA 
HETATM   22  C   UNL     1     -11.955  12.665  63.639  1.00  0.00    -0.535 C  
HETATM   23  H   UNL     1     -10.537  13.814  64.529  1.00  0.00     0.000 HD 
HETATM   24  H1  UNL     1     -13.316  11.446  62.649  1.00  0.00     0.000 HD 
HETATM   25  H2  UNL     1     -11.843  10.763  63.231  1.00  0.00     0.000 HD 
ENDBRANCH  16  17
ENDBRANCH  15  16
ENDBRANCH  14  15
ENDBRANCH  13  14
BRANCH  13  26
HETATM   26  N   UNL     1     -10.097  11.570  69.409  1.00  0.00    -0.408 N  
HETATM   27  H   UNL     1      -9.462  11.227  70.130  1.00  0.00     0.000 HD 
BRANCH  26  28
HETATM   28  S   UNL     1     -11.788  11.486  69.628  1.00  0.00    -0.365 S  
HETATM   29  O   UNL     1     -12.399  11.317  68.336  1.00  0.00    -0.545 OA 
HETATM   30  O   UNL     1     -12.119  12.632  70.450  1.00  0.00    -0.364 OA 
BRANCH  28  31
HETATM   31  C   UNL     1     -11.976  10.011  70.596  1.00  0.00    -0.313 A  
HETATM   32  C   UNL     1     -11.068   6.299  70.666  1.00  0.00    -0.389 C  
HETATM   33  C   UNL     1     -12.770  10.103  71.751  1.00  0.00    -0.534 A  
HETATM   34  C   UNL     1      -9.926   4.920  68.893  1.00  0.00    -0.220 C  
HETATM   35  C   UNL     1     -12.973   8.984  72.552  1.00  0.00    -0.429 A  
HETATM   36  C   UNL     1     -10.675   6.217  69.188  1.00  0.00    -0.381 C  
HETATM   37  C   UNL     1      -9.839   7.445  68.853  1.00  0.00    -0.157 C  
HETATM   38  H   UNL     1     -10.615   9.405  68.338  1.00  0.00     0.000 HD 
HETATM   39  N   UNL     1     -10.617   8.666  69.042  1.00  0.00    -0.198 NA 
HETATM   40  C   UNL     1     -12.384   7.774  72.204  1.00  0.00    -0.303 A  
HETATM   41  C   UNL     1     -11.369   8.794  70.221  1.00  0.00    -0.147 A  
HETATM   42  C   UNL     1     -11.596   7.666  71.043  1.00  0.00    -0.301 A  
ENDBRANCH  28  31
ENDBRANCH  26  28
ENDBRANCH  13  26
ENDBRANCH   7  13
TORSDOF 8
ENDMDL
MODEL       54
REMARK 921   NORMALIZED FREE ENERGY PREDICTED BY IDOCK:   -6.90 KCAL/MOL
REMARK 922        TOTAL FREE ENERGY PREDICTED BY IDOCK:  -11.37 KCAL/MOL
REMARK 923 INTER-LIGAND FREE ENERGY PREDICTED BY IDOCK:   -9.32 KCAL/MOL
REMARK 924 INTRA-LIGAND FREE ENERGY PREDICTED BY IDOCK:   -2.05 KCAL/MOL
REMARK 927      BINDING AFFINITY PREDICTED BY RF-SCORE:    0.00 PKD
ROOT
HETATM    1  C   UNL     1     -12.518  13.083  63.161  1.00  0.00    -0.138 C  
HETATM    2  C   UNL     1     -11.862  12.490  64.400  1.00  0.00    -0.455 C  
HETATM    3  C   UNL     1     -12.395  13.126  65.688  1.00  0.00    -0.519 C  
HETATM    4  C   UNL     1     -11.694  12.553  66.920  1.00  0.00    -0.377 C  
HETATM    5  N   UNL     1     -10.209  12.565  66.812  1.00  0.00    -0.229 N  
HETATM    6  C   UNL     1      -9.670  12.001  65.556  1.00  0.00    -0.202 C  
HETATM    7  C   UNL     1      -9.515  13.443  67.656  1.00  0.00    -0.216 C  
HETATM    8  O   UNL     1     -10.171  14.172  68.412  1.00  0.00    -0.234 OA 
HETATM    9  O   UNL     1     -10.285   9.837  66.428  1.00  0.00    -0.242 OA 
HETATM   10  C   UNL     1     -10.337  12.668  64.348  1.00  0.00    -0.386 C  
HETATM   11  C   UNL     1      -9.748  10.480  65.389  1.00  0.00    -0.257 C  
HETATM   12  O   UNL     1      -9.364   9.886  64.394  1.00  0.00    -0.262 OA 
ENDROOT
BRANCH   7  13
HETATM   13  C   UNL     1      -7.952  13.489  67.801  1.00  0.00    -0.168 C  
BRANCH  13  14
HETATM   14  C   UNL     1      -7.161  12.164  67.965  1.00  0.00    -0.096 C  
BRANCH  14  15
HETATM   15  C   UNL     1      -7.403  11.488  69.329  1.00  0.00    -0.009 C  
BRANCH  15  16
HETATM   16  C   UNL     1      -8.344  10.275  69.266  1.00  0.00    -0.163 C  
BRANCH  16  17
HETATM   17  N   UNL     1      -9.679  10.710  69.631  1.00  0.00    -0.433 NA 
HETATM   18  H2  UNL     1     -11.816  11.547  70.482  1.00  0.00     0.000 HD 
HETATM   19  H1  UNL     1     -12.704  10.045  70.018  1.00  0.00     0.000 HD 
HETATM   20  N   UNL     1     -10.953   8.792  69.058  1.00  0.00    -0.435 NA 
HETATM   21  N   UNL     1     -11.857  10.611  70.077  1.00  0.00    -0.296 NA 
HETATM   22  C   UNL     1     -10.800   9.961  69.553  1.00  0.00    -0.246 C  
HETATM   23  H   UNL     1      -9.780  11.665  69.978  1.00  0.00     0.000 HD 
HETATM   24  H1  UNL     1     -11.801   8.226  68.998  1.00  0.00     0.000 HD 
HETATM   25  H2  UNL     1     -10.113   8.366  68.670  1.00  0.00     0.000 HD 
ENDBRANCH  16  17
ENDBRANCH  15  16
ENDBRANCH  14  15
ENDBRANCH  13  14
BRANCH  13  26
HETATM   26  N   UNL     1      -7.488  14.440  68.850  1.00  0.00    -0.129 N  
HETATM   27  H   UNL     1      -8.038  14.589  69.696  1.00  0.00     0.000 HD 
BRANCH  26  28
HETATM   28  S   UNL     1      -6.019  15.275  68.609  1.00  0.00    -0.095 S  
HETATM   29  O   UNL     1      -5.637  15.121  67.230  1.00  0.00    -0.324 OA 
HETATM   30  O   UNL     1      -5.144  14.812  69.667  1.00  0.00    -0.089 OA 
BRANCH  28  31
HETATM   31  C   UNL     1      -6.477  16.958  68.937  1.00  0.00    -0.186 A  
HETATM   32  C   UNL     1      -8.874  19.717  67.818  1.00  0.00    -0.379 C  
HETATM   33  C   UNL     1      -5.723  17.648  69.900  1.00  0.00    -0.247 A  
HETATM   34  C   UNL     1     -10.488  19.716  65.883  1.00  0.00    -0.591 C  
HETATM   35  C   UNL     1      -6.016  18.974  70.200  1.00  0.00    -0.225 A  
HETATM   36  C   UNL     1      -9.260  19.047  66.496  1.00  0.00    -0.357 C  
HETATM   37  C   UNL     1      -9.496  17.567  66.767  1.00  0.00    -0.275 C  
HETATM   38  H   UNL     1      -7.960  16.038  66.870  1.00  0.00     0.000 HD 
HETATM   39  N   UNL     1      -8.274  16.931  67.251  1.00  0.00    -0.179 NA 
HETATM   40  C   UNL     1      -7.061  19.613  69.543  1.00  0.00    -0.268 A  
HETATM   41  C   UNL     1      -7.542  17.584  68.256  1.00  0.00    -0.240 A  
HETATM   42  C   UNL     1      -7.817  18.936  68.568  1.00  0.00    -0.373 A  
ENDBRANCH  28  31
ENDBRANCH  26  28
ENDBRANCH  13  26
ENDBRANCH   7  13
TORSDOF 8
ENDMDL
MODEL       55
REMARK 921   NORMALIZED FREE ENERGY PREDICTED BY IDOCK:   -6.89 KCAL/MOL
REMARK 922        TOTAL FREE ENERGY PREDICTED BY IDOCK:  -11.35 KCAL/MOL
REMARK 923 INTER-LIGAND FREE ENERGY PREDICTED BY IDOCK:  -10.02 KCAL/MOL
REMARK 924 INTRA-LIGAND FREE ENERGY PREDICTED BY IDOCK:   -1.33 KCAL/MOL
REMARK 927      BINDING AFFINITY PREDICTED BY RF-SCORE:    0.00 PKD
ROOT
HETATM    1  C   UNL     1      -8.717   9.075  64.542  1.00  0.00    -0.153 C  
HETATM    2  C   UNL     1      -9.074   9.702  65.883  1.00  0.00    -0.221 C  
HETATM    3  C   UNL     1     -10.590   9.810  66.076  1.00  0.00     0.048 C  
HETATM    4  C   UNL     1     -10.932  10.482  67.406  1.00  0.00    -0.288 C  
HETATM    5  N   UNL     1     -10.205  11.763  67.624  1.00  0.00    -0.197 N  
HETATM    6  C   UNL     1      -8.744  11.698  67.395  1.00  0.00    -0.155 C  
HETATM    7  C   UNL     1     -10.964  12.940  67.603  1.00  0.00    -0.247 C  
HETATM    8  O   UNL     1     -12.179  12.851  67.376  1.00  0.00    -0.330 OA 
HETATM    9  O   UNL     1      -8.616  10.466  69.467  1.00  0.00    -0.159 OA 
HETATM   10  C   UNL     1      -8.451  11.100  66.015  1.00  0.00    -0.138 C  
HETATM   11  C   UNL     1      -7.911  10.955  68.444  1.00  0.00    -0.127 C  
HETATM   12  O   UNL     1      -6.702  10.804  68.369  1.00  0.00    -0.058 OA 
ENDROOT
BRANCH   7  13
HETATM   13  C   UNL     1     -10.410  14.364  67.964  1.00  0.00    -0.227 C  
BRANCH  13  14
HETATM   14  C   UNL     1     -10.384  14.819  69.448  1.00  0.00    -0.171 C  
BRANCH  14  15
HETATM   15  C   UNL     1     -11.445  15.893  69.763  1.00  0.00    -0.342 C  
BRANCH  15  16
HETATM   16  C   UNL     1     -12.536  15.426  70.738  1.00  0.00    -0.442 C  
BRANCH  16  17
HETATM   17  N   UNL     1     -12.374  14.001  70.960  1.00  0.00    -0.352 NA 
HETATM   18  H2  UNL     1     -12.060  11.575  71.057  1.00  0.00     0.000 HD 
HETATM   19  H1  UNL     1     -13.441  11.341  72.195  1.00  0.00     0.000 HD 
HETATM   20  N   UNL     1     -14.158  13.570  72.463  1.00  0.00    -0.758 NA 
HETATM   21  N   UNL     1     -12.832  11.927  71.623  1.00  0.00    -0.356 NA 
HETATM   22  C   UNL     1     -13.180  13.225  71.716  1.00  0.00    -0.405 C  
HETATM   23  H   UNL     1     -11.582  13.546  70.505  1.00  0.00     0.000 HD 
HETATM   24  H1  UNL     1     -14.768  12.984  73.034  1.00  0.00     0.000 HD 
HETATM   25  H2  UNL     1     -14.358  14.570  72.492  1.00  0.00     0.000 HD 
ENDBRANCH  16  17
ENDBRANCH  15  16
ENDBRANCH  14  15
ENDBRANCH  13  14
BRANCH  13  26
HETATM   26  N   UNL     1     -11.021  15.454  67.154  1.00  0.00    -0.326 N  
HETATM   27  H   UNL     1     -11.954  15.805  67.374  1.00  0.00     0.000 HD 
BRANCH  26  28
HETATM   28  S   UNL     1     -10.132  16.106  65.851  1.00  0.00    -0.361 S  
HETATM   29  O   UNL     1     -11.030  16.281  64.739  1.00  0.00    -0.631 OA 
HETATM   30  O   UNL     1      -8.969  15.252  65.724  1.00  0.00    -0.152 OA 
BRANCH  28  31
HETATM   31  C   UNL     1      -9.622  17.682  66.485  1.00  0.00    -0.292 A  
HETATM   32  C   UNL     1      -7.060  19.331  68.793  1.00  0.00    -0.375 C  
HETATM   33  C   UNL     1     -10.392  18.797  66.119  1.00  0.00    -0.494 A  
HETATM   34  C   UNL     1      -5.355  18.240  70.294  1.00  0.00    -0.249 C  
HETATM   35  C   UNL     1     -10.060  20.063  66.588  1.00  0.00    -0.607 A  
HETATM   36  C   UNL     1      -6.638  18.036  69.492  1.00  0.00    -0.140 C  
HETATM   37  C   UNL     1      -6.478  16.957  68.430  1.00  0.00    -0.149 C  
HETATM   38  H   UNL     1      -8.079  15.755  67.592  1.00  0.00     0.000 HD 
HETATM   39  N   UNL     1      -7.747  16.707  67.753  1.00  0.00    -0.160 NA 
HETATM   40  C   UNL     1      -8.958  20.220  67.421  1.00  0.00    -0.457 A  
HETATM   41  C   UNL     1      -8.499  17.814  67.329  1.00  0.00    -0.231 A  
HETATM   42  C   UNL     1      -8.184  19.109  67.805  1.00  0.00    -0.319 A  
ENDBRANCH  28  31
ENDBRANCH  26  28
ENDBRANCH  13  26
ENDBRANCH   7  13
TORSDOF 8
ENDMDL
MODEL       56
REMARK 921   NORMALIZED FREE ENERGY PREDICTED BY IDOCK:   -6.88 KCAL/MOL
REMARK 922        TOTAL FREE ENERGY PREDICTED BY IDOCK:  -11.35 KCAL/MOL
REMARK 923 INTER-LIGAND FREE ENERGY PREDICTED BY IDOCK:   -9.41 KCAL/MOL
REMARK 924 INTRA-LIGAND FREE ENERGY PREDICTED BY IDOCK:   -1.94 KCAL/MOL
REMARK 927      BINDING AFFINITY PREDICTED BY RF-SCORE:    0.00 PKD
ROOT
HETATM    1  C   UNL     1     -10.257   4.481  65.916  1.00  0.00    -0.289 C  
HETATM    2  C   UNL     1      -9.425   5.381  66.819  1.00  0.00    -0.144 C  
HETATM    3  C   UNL     1      -9.765   5.176  68.299  1.00  0.00    -0.191 C  
HETATM    4  C   UNL     1      -8.954   6.117  69.189  1.00  0.00    -0.126 C  
HETATM    5  N   UNL     1      -9.012   7.539  68.750  1.00  0.00    -0.130 N  
HETATM    6  C   UNL     1      -8.736   7.760  67.314  1.00  0.00    -0.128 C  
HETATM    7  C   UNL     1      -9.701   8.436  69.578  1.00  0.00    -0.177 C  
HETATM    8  O   UNL     1     -10.243   7.993  70.600  1.00  0.00    -0.194 OA 
HETATM    9  O   UNL     1      -6.426   7.285  67.828  1.00  0.00    -0.048 OA 
HETATM   10  C   UNL     1      -9.634   6.860  66.458  1.00  0.00    -0.197 C  
HETATM   11  C   UNL     1      -7.284   7.594  66.853  1.00  0.00    -0.088 C  
HETATM   12  O   UNL     1      -6.920   7.722  65.695  1.00  0.00    -0.052 OA 
ENDROOT
BRANCH   7  13
HETATM   13  C   UNL     1      -9.739   9.992  69.368  1.00  0.00    -0.225 C  
BRANCH  13  14
HETATM   14  C   UNL     1      -8.409  10.771  69.191  1.00  0.00    -0.111 C  
BRANCH  14  15
HETATM   15  C   UNL     1      -8.304  11.472  67.822  1.00  0.00    -0.136 C  
BRANCH  15  16
HETATM   16  C   UNL     1      -9.447  11.126  66.854  1.00  0.00    -0.185 C  
BRANCH  16  17
HETATM   17  N   UNL     1      -9.621  12.236  65.935  1.00  0.00    -0.326 NA 
HETATM   18  H2  UNL     1      -9.699  14.228  64.515  1.00  0.00     0.000 HD 
HETATM   19  H1  UNL     1     -11.500  14.336  64.593  1.00  0.00     0.000 HD 
HETATM   20  N   UNL     1     -11.982  12.473  65.954  1.00  0.00    -0.544 NA 
HETATM   21  N   UNL     1     -10.611  13.896  64.832  1.00  0.00    -0.398 NA 
HETATM   22  C   UNL     1     -10.797  12.818  65.619  1.00  0.00    -0.273 C  
HETATM   23  H   UNL     1      -8.782  12.607  65.488  1.00  0.00     0.000 HD 
HETATM   24  H1  UNL     1     -12.871  12.913  65.716  1.00  0.00     0.000 HD 
HETATM   25  H2  UNL     1     -12.047  11.642  66.542  1.00  0.00     0.000 HD 
ENDBRANCH  16  17
ENDBRANCH  15  16
ENDBRANCH  14  15
ENDBRANCH  13  14
BRANCH  13  26
HETATM   26  N   UNL     1     -10.561  10.700  70.388  1.00  0.00    -0.378 N  
HETATM   27  H   UNL     1     -10.144  11.018  71.263  1.00  0.00     0.000 HD 
BRANCH  26  28
HETATM   28  S   UNL     1     -12.215  10.971  70.064  1.00  0.00    -0.333 S  
HETATM   29  O   UNL     1     -12.979   9.982  70.778  1.00  0.00    -0.330 OA 
HETATM   30  O   UNL     1     -12.307  11.066  68.622  1.00  0.00    -0.539 OA 
BRANCH  28  31
HETATM   31  C   UNL     1     -12.484  12.579  70.764  1.00  0.00    -0.268 A  
HETATM   32  C   UNL     1     -11.617  16.272  70.289  1.00  0.00    -0.170 C  
HETATM   33  C   UNL     1     -13.225  12.641  71.954  1.00  0.00    -0.504 A  
HETATM   34  C   UNL     1     -10.030  17.320  68.636  1.00  0.00    -0.327 C  
HETATM   35  C   UNL     1     -13.466  13.866  72.568  1.00  0.00    -0.676 A  
HETATM   36  C   UNL     1     -10.452  16.025  69.325  1.00  0.00    -0.257 C  
HETATM   37  C   UNL     1     -10.884  14.963  68.324  1.00  0.00    -0.257 C  
HETATM   38  H   UNL     1     -10.820  12.818  68.645  1.00  0.00     0.000 HD 
HETATM   39  N   UNL     1     -11.178  13.704  69.003  1.00  0.00    -0.263 NA 
HETATM   40  C   UNL     1     -12.968  15.031  71.994  1.00  0.00    -0.427 A  
HETATM   41  C   UNL     1     -11.969  13.747  70.162  1.00  0.00    -0.334 A  
HETATM   42  C   UNL     1     -12.214  14.982  70.807  1.00  0.00    -0.386 A  
ENDBRANCH  28  31
ENDBRANCH  26  28
ENDBRANCH  13  26
ENDBRANCH   7  13
TORSDOF 8
ENDMDL
MODEL       57
REMARK 921   NORMALIZED FREE ENERGY PREDICTED BY IDOCK:   -6.85 KCAL/MOL
REMARK 922        TOTAL FREE ENERGY PREDICTED BY IDOCK:  -11.31 KCAL/MOL
REMARK 923 INTER-LIGAND FREE ENERGY PREDICTED BY IDOCK:   -9.06 KCAL/MOL
REMARK 924 INTRA-LIGAND FREE ENERGY PREDICTED BY IDOCK:   -2.25 KCAL/MOL
REMARK 927      BINDING AFFINITY PREDICTED BY RF-SCORE:    0.00 PKD
ROOT
HETATM    1  C   UNL     1     -14.313   7.320  71.668  1.00  0.00    -0.583 C  
HETATM    2  C   UNL     1     -12.907   7.885  71.813  1.00  0.00    -0.351 C  
HETATM    3  C   UNL     1     -12.854   9.378  71.471  1.00  0.00    -0.442 C  
HETATM    4  C   UNL     1     -11.429   9.920  71.577  1.00  0.00    -0.252 C  
HETATM    5  N   UNL     1     -10.429   9.098  70.841  1.00  0.00    -0.253 N  
HETATM    6  C   UNL     1     -10.491   7.645  71.116  1.00  0.00    -0.208 C  
HETATM    7  C   UNL     1      -9.844   9.670  69.704  1.00  0.00    -0.215 C  
HETATM    8  O   UNL     1     -10.211  10.803  69.362  1.00  0.00    -0.217 OA 
HETATM    9  O   UNL     1      -9.523   8.153  73.268  1.00  0.00    -0.270 OA 
HETATM   10  C   UNL     1     -11.920   7.129  70.911  1.00  0.00    -0.375 C  
HETATM   11  C   UNL     1      -9.986   7.177  72.485  1.00  0.00    -0.168 C  
HETATM   12  O   UNL     1     -10.003   6.013  72.852  1.00  0.00    -0.170 OA 
ENDROOT
BRANCH   7  13
HETATM   13  C   UNL     1      -8.664   9.029  68.890  1.00  0.00    -0.136 C  
BRANCH  13  14
HETATM   14  C   UNL     1      -7.251   8.952  69.527  1.00  0.00    -0.063 C  
BRANCH  14  15
HETATM   15  C   UNL     1      -6.959  10.129  70.479  1.00  0.00    -0.059 C  
BRANCH  15  16
HETATM   16  C   UNL     1      -6.214  11.298  69.817  1.00  0.00    -0.124 C  
BRANCH  16  17
HETATM   17  N   UNL     1      -7.196  12.225  69.283  1.00  0.00    -0.318 NA 
HETATM   18  H2  UNL     1      -9.043  13.644  68.532  1.00  0.00     0.000 HD 
HETATM   19  H1  UNL     1      -8.466  13.663  66.822  1.00  0.00     0.000 HD 
HETATM   20  N   UNL     1      -6.530  12.331  67.009  1.00  0.00    -0.320 NA 
HETATM   21  N   UNL     1      -8.386  13.378  67.798  1.00  0.00    -0.164 NA 
HETATM   22  C   UNL     1      -7.301  12.603  67.991  1.00  0.00    -0.114 C  
HETATM   23  H   UNL     1      -7.865  12.625  69.942  1.00  0.00     0.000 HD 
HETATM   24  H1  UNL     1      -6.609  12.617  66.032  1.00  0.00     0.000 HD 
HETATM   25  H2  UNL     1      -5.723  11.749  67.231  1.00  0.00     0.000 HD 
ENDBRANCH  16  17
ENDBRANCH  15  16
ENDBRANCH  14  15
ENDBRANCH  13  14
BRANCH  13  26
HETATM   26  N   UNL     1      -8.525   9.589  67.517  1.00  0.00    -0.125 N  
HETATM   27  H   UNL     1      -8.126  10.516  67.372  1.00  0.00     0.000 HD 
BRANCH  26  28
HETATM   28  S   UNL     1      -9.048   8.650  66.191  1.00  0.00    -0.213 S  
HETATM   29  O   UNL     1     -10.296   8.027  66.547  1.00  0.00    -0.260 OA 
HETATM   30  O   UNL     1      -7.903   7.841  65.827  1.00  0.00    -0.094 OA 
BRANCH  28  31
HETATM   31  C   UNL     1      -9.309   9.875  64.934  1.00  0.00    -0.268 A  
HETATM   32  C   UNL     1     -11.253  13.079  64.185  1.00  0.00    -0.439 C  
HETATM   33  C   UNL     1      -8.660   9.675  63.705  1.00  0.00    -0.216 A  
HETATM   34  C   UNL     1     -13.032  14.205  65.569  1.00  0.00    -0.303 C  
HETATM   35  C   UNL     1      -8.827  10.587  62.668  1.00  0.00    -0.276 A  
HETATM   36  C   UNL     1     -12.255  12.913  65.331  1.00  0.00    -0.528 C  
HETATM   37  C   UNL     1     -11.486  12.477  66.571  1.00  0.00    -0.362 C  
HETATM   38  H   UNL     1     -10.898  10.443  67.047  1.00  0.00     0.000 HD 
HETATM   39  N   UNL     1     -10.841  11.186  66.350  1.00  0.00    -0.256 NA 
HETATM   40  C   UNL     1      -9.640  11.699  62.855  1.00  0.00    -0.223 A  
HETATM   41  C   UNL     1     -10.139  10.995  65.149  1.00  0.00    -0.289 A  
HETATM   42  C   UNL     1     -10.304  11.905  64.078  1.00  0.00    -0.403 A  
ENDBRANCH  28  31
ENDBRANCH  26  28
ENDBRANCH  13  26
ENDBRANCH   7  13
TORSDOF 8
ENDMDL
MODEL       58
REMARK 921   NORMALIZED FREE ENERGY PREDICTED BY IDOCK:   -6.84 KCAL/MOL
REMARK 922        TOTAL FREE ENERGY PREDICTED BY IDOCK:  -11.28 KCAL/MOL
REMARK 923 INTER-LIGAND FREE ENERGY PREDICTED BY IDOCK:   -9.55 KCAL/MOL
REMARK 924 INTRA-LIGAND FREE ENERGY PREDICTED BY IDOCK:   -1.74 KCAL/MOL
REMARK 927      BINDING AFFINITY PREDICTED BY RF-SCORE:    0.00 PKD
ROOT
HETATM    1  C   UNL     1      -9.589  17.694  65.969  1.00  0.00    -0.123 C  
HETATM    2  C   UNL     1      -9.878  16.449  66.795  1.00  0.00    -0.265 C  
HETATM    3  C   UNL     1      -8.871  16.278  67.938  1.00  0.00    -0.183 C  
HETATM    4  C   UNL     1      -9.146  15.000  68.731  1.00  0.00    -0.197 C  
HETATM    5  N   UNL     1      -9.293  13.793  67.872  1.00  0.00    -0.203 N  
HETATM    6  C   UNL     1     -10.222  13.948  66.731  1.00  0.00    -0.268 C  
HETATM    7  C   UNL     1      -8.283  12.825  67.952  1.00  0.00    -0.168 C  
HETATM    8  O   UNL     1      -7.321  13.041  68.703  1.00  0.00    -0.104 OA 
HETATM    9  O   UNL     1     -12.006  13.865  68.354  1.00  0.00    -0.354 OA 
HETATM   10  C   UNL     1      -9.853  15.191  65.914  1.00  0.00    -0.372 C  
HETATM   11  C   UNL     1     -11.718  13.994  67.057  1.00  0.00    -0.398 C  
HETATM   12  O   UNL     1     -12.592  14.143  66.217  1.00  0.00    -0.449 OA 
ENDROOT
BRANCH   7  13
HETATM   13  C   UNL     1      -8.335  11.422  67.248  1.00  0.00    -0.149 C  
BRANCH  13  14
HETATM   14  C   UNL     1      -8.160  11.334  65.709  1.00  0.00     0.111 C  
BRANCH  14  15
HETATM   15  C   UNL     1      -9.225  10.444  65.036  1.00  0.00    -0.256 C  
BRANCH  15  16
HETATM   16  C   UNL     1      -9.815  11.042  63.749  1.00  0.00    -0.330 C  
BRANCH  16  17
HETATM   17  N   UNL     1     -11.257  11.111  63.895  1.00  0.00    -0.442 NA 
HETATM   18  H2  UNL     1     -13.699  10.980  64.010  1.00  0.00     0.000 HD 
HETATM   19  H1  UNL     1     -13.914  12.710  63.540  1.00  0.00     0.000 HD 
HETATM   20  N   UNL     1     -11.665  13.371  63.297  1.00  0.00    -0.686 NA 
HETATM   21  N   UNL     1     -13.334  11.896  63.746  1.00  0.00    -0.469 NA 
HETATM   22  C   UNL     1     -12.025  12.188  63.623  1.00  0.00    -0.534 C  
HETATM   23  H   UNL     1     -11.733  10.273  64.232  1.00  0.00     0.000 HD 
HETATM   24  H1  UNL     1     -12.245  14.185  63.091  1.00  0.00     0.000 HD 
HETATM   25  H2  UNL     1     -10.659  13.522  63.234  1.00  0.00     0.000 HD 
ENDBRANCH  16  17
ENDBRANCH  15  16
ENDBRANCH  14  15
ENDBRANCH  13  14
BRANCH  13  26
HETATM   26  N   UNL     1      -9.530  10.620  67.627  1.00  0.00    -0.153 N  
HETATM   27  H   UNL     1     -10.183  10.292  66.915  1.00  0.00     0.000 HD 
BRANCH  26  28
HETATM   28  S   UNL     1      -9.788  10.259  69.276  1.00  0.00    -0.229 S  
HETATM   29  O   UNL     1     -10.863  11.090  69.753  1.00  0.00    -0.231 OA 
HETATM   30  O   UNL     1      -8.478  10.335  69.888  1.00  0.00    -0.142 OA 
BRANCH  28  31
HETATM   31  C   UNL     1     -10.299   8.561  69.221  1.00  0.00    -0.221 A  
HETATM   32  C   UNL     1     -11.065   5.556  71.456  1.00  0.00    -0.164 C  
HETATM   33  C   UNL     1     -10.464   7.985  67.952  1.00  0.00    -0.259 A  
HETATM   34  C   UNL     1     -10.767   5.326  73.947  1.00  0.00    -0.320 C  
HETATM   35  C   UNL     1     -10.851   6.655  67.830  1.00  0.00    -0.353 A  
HETATM   36  C   UNL     1     -10.385   6.127  72.705  1.00  0.00    -0.219 C  
HETATM   37  C   UNL     1     -10.780   7.592  72.830  1.00  0.00    -0.330 C  
HETATM   38  H   UNL     1      -9.839   9.251  71.796  1.00  0.00     0.000 HD 
HETATM   39  N   UNL     1     -10.309   8.353  71.676  1.00  0.00    -0.223 NA 
HETATM   40  C   UNL     1     -11.076   5.898  68.975  1.00  0.00    -0.295 A  
HETATM   41  C   UNL     1     -10.521   7.814  70.397  1.00  0.00    -0.221 A  
HETATM   42  C   UNL     1     -10.903   6.460  70.253  1.00  0.00    -0.350 A  
ENDBRANCH  28  31
ENDBRANCH  26  28
ENDBRANCH  13  26
ENDBRANCH   7  13
TORSDOF 8
ENDMDL
MODEL       59
REMARK 921   NORMALIZED FREE ENERGY PREDICTED BY IDOCK:   -6.82 KCAL/MOL
REMARK 922        TOTAL FREE ENERGY PREDICTED BY IDOCK:  -11.26 KCAL/MOL
REMARK 923 INTER-LIGAND FREE ENERGY PREDICTED BY IDOCK:  -10.34 KCAL/MOL
REMARK 924 INTRA-LIGAND FREE ENERGY PREDICTED BY IDOCK:   -0.93 KCAL/MOL
REMARK 927      BINDING AFFINITY PREDICTED BY RF-SCORE:    0.00 PKD
ROOT
HETATM    1  C   UNL     1      -9.367   4.832  69.962  1.00  0.00    -0.213 C  
HETATM    2  C   UNL     1      -9.733   5.968  70.907  1.00  0.00    -0.207 C  
HETATM    3  C   UNL     1     -11.182   5.859  71.395  1.00  0.00    -0.285 C  
HETATM    4  C   UNL     1     -11.549   7.030  72.306  1.00  0.00    -0.269 C  
HETATM    5  N   UNL     1     -11.208   8.358  71.725  1.00  0.00    -0.273 N  
HETATM    6  C   UNL     1      -9.830   8.475  71.201  1.00  0.00    -0.206 C  
HETATM    7  C   UNL     1     -12.276   9.185  71.354  1.00  0.00    -0.335 C  
HETATM    8  O   UNL     1     -13.429   8.756  71.500  1.00  0.00    -0.345 OA 
HETATM    9  O   UNL     1      -9.107   8.519  73.503  1.00  0.00    -0.183 OA 
HETATM   10  C   UNL     1      -9.537   7.330  70.224  1.00  0.00    -0.165 C  
HETATM   11  C   UNL     1      -8.700   8.548  72.232  1.00  0.00    -0.190 C  
HETATM   12  O   UNL     1      -7.517   8.621  71.939  1.00  0.00    -0.163 OA 
ENDROOT
BRANCH   7  13
HETATM   13  C   UNL     1     -12.126  10.672  70.872  1.00  0.00    -0.385 C  
BRANCH  13  14
HETATM   14  C   UNL     1     -13.014  11.774  71.507  1.00  0.00    -0.446 C  
BRANCH  14  15
HETATM   15  C   UNL     1     -12.615  13.196  71.061  1.00  0.00    -0.397 C  
BRANCH  15  16
HETATM   16  C   UNL     1     -13.679  14.264  71.354  1.00  0.00    -0.311 C  
BRANCH  16  17
HETATM   17  N   UNL     1     -13.344  14.914  72.608  1.00  0.00    -0.418 NA 
HETATM   18  H2  UNL     1     -13.054  16.009  74.778  1.00  0.00     0.000 HD 
HETATM   19  H1  UNL     1     -11.861  17.199  74.131  1.00  0.00     0.000 HD 
HETATM   20  N   UNL     1     -11.759  16.521  71.876  1.00  0.00    -0.615 NA 
HETATM   21  N   UNL     1     -12.496  16.408  74.022  1.00  0.00    -0.658 NA 
HETATM   22  C   UNL     1     -12.503  15.960  72.752  1.00  0.00    -0.466 C  
HETATM   23  H   UNL     1     -13.782  14.548  73.454  1.00  0.00     0.000 HD 
HETATM   24  H1  UNL     1     -11.123  17.311  71.984  1.00  0.00     0.000 HD 
HETATM   25  H2  UNL     1     -11.808  16.122  70.938  1.00  0.00     0.000 HD 
ENDBRANCH  16  17
ENDBRANCH  15  16
ENDBRANCH  14  15
ENDBRANCH  13  14
BRANCH  13  26
HETATM   26  N   UNL     1     -12.191  10.819  69.391  1.00  0.00    -0.522 N  
HETATM   27  H   UNL     1     -13.091  10.872  68.913  1.00  0.00     0.000 HD 
BRANCH  26  28
HETATM   28  S   UNL     1     -10.732  10.896  68.509  1.00  0.00    -0.223 S  
HETATM   29  O   UNL     1     -10.757   9.860  67.509  1.00  0.00    -0.258 OA 
HETATM   30  O   UNL     1      -9.686  10.920  69.511  1.00  0.00    -0.077 OA 
BRANCH  28  31
HETATM   31  C   UNL     1     -10.831  12.493  67.744  1.00  0.00    -0.225 A  
HETATM   32  C   UNL     1      -8.728  15.555  66.844  1.00  0.00    -0.281 C  
HETATM   33  C   UNL     1     -12.099  12.920  67.321  1.00  0.00    -0.275 A  
HETATM   34  C   UNL     1      -6.331  16.055  67.442  1.00  0.00    -0.206 C  
HETATM   35  C   UNL     1     -12.256  14.167  66.724  1.00  0.00    -0.429 A  
HETATM   36  C   UNL     1      -7.556  15.204  67.767  1.00  0.00    -0.171 C  
HETATM   37  C   UNL     1      -7.269  13.716  67.619  1.00  0.00    -0.170 C  
HETATM   38  H   UNL     1      -8.311  12.116  68.652  1.00  0.00     0.000 HD 
HETATM   39  N   UNL     1      -8.423  12.925  68.039  1.00  0.00    -0.169 NA 
HETATM   40  C   UNL     1     -11.149  14.988  66.546  1.00  0.00    -0.329 A  
HETATM   41  C   UNL     1      -9.691  13.308  67.575  1.00  0.00    -0.224 A  
HETATM   42  C   UNL     1      -9.874  14.576  66.975  1.00  0.00    -0.249 A  
ENDBRANCH  28  31
ENDBRANCH  26  28
ENDBRANCH  13  26
ENDBRANCH   7  13
TORSDOF 8
ENDMDL
MODEL       60
REMARK 921   NORMALIZED FREE ENERGY PREDICTED BY IDOCK:   -6.82 KCAL/MOL
REMARK 922        TOTAL FREE ENERGY PREDICTED BY IDOCK:  -11.26 KCAL/MOL
REMARK 923 INTER-LIGAND FREE ENERGY PREDICTED BY IDOCK:   -9.74 KCAL/MOL
REMARK 924 INTRA-LIGAND FREE ENERGY PREDICTED BY IDOCK:   -1.51 KCAL/MOL
REMARK 927      BINDING AFFINITY PREDICTED BY RF-SCORE:    0.00 PKD
ROOT
HETATM    1  C   UNL     1      -8.094   9.311  63.426  1.00  0.00    -0.161 C  
HETATM    2  C   UNL     1      -9.077  10.112  64.268  1.00  0.00    -0.288 C  
HETATM    3  C   UNL     1      -9.640  11.312  63.498  1.00  0.00    -0.324 C  
HETATM    4  C   UNL     1     -10.590  12.133  64.370  1.00  0.00    -0.323 C  
HETATM    5  N   UNL     1     -10.015  12.485  65.698  1.00  0.00    -0.259 N  
HETATM    6  C   UNL     1      -9.420  11.353  66.441  1.00  0.00    -0.204 C  
HETATM    7  C   UNL     1      -9.716  13.835  65.926  1.00  0.00    -0.196 C  
HETATM    8  O   UNL     1      -9.916  14.644  65.009  1.00  0.00    -0.339 OA 
HETATM    9  O   UNL     1     -11.680  10.608  66.839  1.00  0.00    -0.042 OA 
HETATM   10  C   UNL     1      -8.409  10.614  65.557  1.00  0.00    -0.158 C  
HETATM   11  C   UNL     1     -10.391  10.333  67.044  1.00  0.00    -0.243 C  
HETATM   12  O   UNL     1     -10.036   9.340  67.659  1.00  0.00    -0.173 OA 
ENDROOT
BRANCH   7  13
HETATM   13  C   UNL     1      -9.253  14.424  67.306  1.00  0.00    -0.209 C  
BRANCH  13  14
HETATM   14  C   UNL     1      -7.810  14.151  67.808  1.00  0.00    -0.177 C  
BRANCH  14  15
HETATM   15  C   UNL     1      -7.589  14.602  69.266  1.00  0.00    -0.113 C  
BRANCH  15  16
HETATM   16  C   UNL     1      -6.331  14.008  69.919  1.00  0.00    -0.128 C  
BRANCH  16  17
HETATM   17  N   UNL     1      -6.649  12.677  70.402  1.00  0.00    -0.351 NA 
HETATM   18  H2  UNL     1      -7.109  10.523  71.470  1.00  0.00     0.000 HD 
HETATM   19  H1  UNL     1      -6.338   9.583  70.136  1.00  0.00     0.000 HD 
HETATM   20  N   UNL     1      -5.674  11.335  68.706  1.00  0.00    -0.043 NA 
HETATM   21  N   UNL     1      -6.623  10.459  70.575  1.00  0.00    -0.293 NA 
HETATM   22  C   UNL     1      -6.273  11.518  69.820  1.00  0.00    -0.138 C  
HETATM   23  H   UNL     1      -7.206  12.611  71.254  1.00  0.00     0.000 HD 
HETATM   24  H1  UNL     1      -5.389  10.459  68.266  1.00  0.00     0.000 HD 
HETATM   25  H2  UNL     1      -5.449  12.182  68.183  1.00  0.00     0.000 HD 
ENDBRANCH  16  17
ENDBRANCH  15  16
ENDBRANCH  14  15
ENDBRANCH  13  14
BRANCH  13  26
HETATM   26  N   UNL     1     -10.197  14.123  68.418  1.00  0.00    -0.241 N  
HETATM   27  H   UNL     1      -9.931  13.484  69.167  1.00  0.00     0.000 HD 
BRANCH  26  28
HETATM   28  S   UNL     1     -11.733  14.867  68.415  1.00  0.00    -0.283 S  
HETATM   29  O   UNL     1     -12.502  14.305  67.336  1.00  0.00    -0.204 OA 
HETATM   30  O   UNL     1     -11.463  16.290  68.457  1.00  0.00    -0.371 OA 
BRANCH  28  31
HETATM   31  C   UNL     1     -12.406  14.364  69.978  1.00  0.00    -0.336 A  
HETATM   32  C   UNL     1     -13.021  11.286  72.159  1.00  0.00    -0.208 C  
HETATM   33  C   UNL     1     -13.004  15.360  70.766  1.00  0.00    -0.510 A  
HETATM   34  C   UNL     1     -12.657   8.857  71.599  1.00  0.00    -0.403 C  
HETATM   35  C   UNL     1     -13.564  15.038  71.997  1.00  0.00    -0.522 A  
HETATM   36  C   UNL     1     -12.812  10.267  71.035  1.00  0.00    -0.490 C  
HETATM   37  C   UNL     1     -11.592  10.694  70.231  1.00  0.00    -0.336 C  
HETATM   38  H   UNL     1     -11.577  12.166  68.636  1.00  0.00     0.000 HD 
HETATM   39  N   UNL     1     -11.812  12.000  69.616  1.00  0.00    -0.328 NA 
HETATM   40  C   UNL     1     -13.527  13.723  72.446  1.00  0.00    -0.672 A  
HETATM   41  C   UNL     1     -12.356  13.022  70.410  1.00  0.00    -0.277 A  
HETATM   42  C   UNL     1     -12.940  12.713  71.661  1.00  0.00    -0.400 A  
ENDBRANCH  28  31
ENDBRANCH  26  28
ENDBRANCH  13  26
ENDBRANCH   7  13
TORSDOF 8
ENDMDL
MODEL       61
REMARK 921   NORMALIZED FREE ENERGY PREDICTED BY IDOCK:   -6.81 KCAL/MOL
REMARK 922        TOTAL FREE ENERGY PREDICTED BY IDOCK:  -11.25 KCAL/MOL
REMARK 923 INTER-LIGAND FREE ENERGY PREDICTED BY IDOCK:   -9.73 KCAL/MOL
REMARK 924 INTRA-LIGAND FREE ENERGY PREDICTED BY IDOCK:   -1.51 KCAL/MOL
REMARK 927      BINDING AFFINITY PREDICTED BY RF-SCORE:    0.00 PKD
ROOT
HETATM    1  C   UNL     1      -7.858  10.120  64.182  1.00  0.00    -0.145 C  
HETATM    2  C   UNL     1      -7.930  10.373  65.681  1.00  0.00    -0.153 C  
HETATM    3  C   UNL     1      -8.215   9.087  66.464  1.00  0.00    -0.114 C  
HETATM    4  C   UNL     1      -8.330   9.365  67.963  1.00  0.00    -0.119 C  
HETATM    5  N   UNL     1      -9.258  10.484  68.285  1.00  0.00    -0.147 N  
HETATM    6  C   UNL     1      -9.036  11.723  67.508  1.00  0.00    -0.175 C  
HETATM    7  C   UNL     1     -10.454  10.154  68.937  1.00  0.00    -0.210 C  
HETATM    8  O   UNL     1     -10.682   8.961  69.177  1.00  0.00    -0.217 OA 
HETATM    9  O   UNL     1      -7.061  12.049  68.855  1.00  0.00    -0.107 OA 
HETATM   10  C   UNL     1      -9.017  11.409  66.007  1.00  0.00    -0.203 C  
HETATM   11  C   UNL     1      -7.794  12.548  67.857  1.00  0.00    -0.144 C  
HETATM   12  O   UNL     1      -7.477  13.576  67.280  1.00  0.00    -0.147 OA 
ENDROOT
BRANCH   7  13
HETATM   13  C   UNL     1     -11.482  11.202  69.496  1.00  0.00    -0.303 C  
BRANCH  13  14
HETATM   14  C   UNL     1     -12.820  10.707  70.107  1.00  0.00    -0.146 C  
BRANCH  14  15
HETATM   15  C   UNL     1     -12.730  10.464  71.627  1.00  0.00    -0.560 C  
BRANCH  15  16
HETATM   16  C   UNL     1     -13.620   9.318  72.130  1.00  0.00    -0.471 C  
BRANCH  16  17
HETATM   17  N   UNL     1     -12.766   8.213  72.527  1.00  0.00    -0.580 NA 
HETATM   18  H2  UNL     1     -11.174   6.540  73.337  1.00  0.00     0.000 HD 
HETATM   19  H1  UNL     1     -11.070   5.716  71.734  1.00  0.00     0.000 HD 
HETATM   20  N   UNL     1     -12.557   7.042  70.474  1.00  0.00    -0.593 NA 
HETATM   21  N   UNL     1     -11.431   6.442  72.354  1.00  0.00    -0.284 NA 
HETATM   22  C   UNL     1     -12.290   7.253  71.706  1.00  0.00    -0.341 C  
HETATM   23  H   UNL     1     -12.504   8.158  73.512  1.00  0.00     0.000 HD 
HETATM   24  H1  UNL     1     -12.197   6.317  69.854  1.00  0.00     0.000 HD 
HETATM   25  H2  UNL     1     -13.223   7.689  70.052  1.00  0.00     0.000 HD 
ENDBRANCH  16  17
ENDBRANCH  15  16
ENDBRANCH  14  15
ENDBRANCH  13  14
BRANCH  13  26
HETATM   26  N   UNL     1     -11.786  12.296  68.534  1.00  0.00    -0.325 N  
HETATM   27  H   UNL     1     -12.102  12.084  67.587  1.00  0.00     0.000 HD 
BRANCH  26  28
HETATM   28  S   UNL     1     -11.598  13.915  69.044  1.00  0.00    -0.333 S  
HETATM   29  O   UNL     1     -10.429  13.987  69.882  1.00  0.00     0.256 OA 
HETATM   30  O   UNL     1     -12.894  14.300  69.562  1.00  0.00     0.011 OA 
BRANCH  28  31
HETATM   31  C   UNL     1     -11.313  14.768  67.515  1.00  0.00    -0.344 A  
HETATM   32  C   UNL     1     -10.236  18.147  66.088  1.00  0.00    -0.372 C  
HETATM   33  C   UNL     1     -11.602  14.071  66.332  1.00  0.00    -0.381 A  
HETATM   34  C   UNL     1      -9.791  20.305  67.309  1.00  0.00    -0.593 C  
HETATM   35  C   UNL     1     -11.416  14.680  65.095  1.00  0.00    -0.375 A  
HETATM   36  C   UNL     1     -10.441  18.927  67.391  1.00  0.00    -0.520 C  
HETATM   37  C   UNL     1      -9.871  18.097  68.533  1.00  0.00    -0.382 C  
HETATM   38  H   UNL     1     -10.897  16.486  69.563  1.00  0.00     0.000 HD 
HETATM   39  N   UNL     1     -10.585  16.828  68.654  1.00  0.00    -0.332 NA 
HETATM   40  C   UNL     1     -10.939  15.984  65.038  1.00  0.00    -0.393 A  
HETATM   41  C   UNL     1     -10.828  16.092  67.483  1.00  0.00    -0.284 A  
HETATM   42  C   UNL     1     -10.656  16.698  66.216  1.00  0.00    -0.205 A  
ENDBRANCH  28  31
ENDBRANCH  26  28
ENDBRANCH  13  26
ENDBRANCH   7  13
TORSDOF 8
ENDMDL
MODEL       62
REMARK 921   NORMALIZED FREE ENERGY PREDICTED BY IDOCK:   -6.81 KCAL/MOL
REMARK 922        TOTAL FREE ENERGY PREDICTED BY IDOCK:  -11.24 KCAL/MOL
REMARK 923 INTER-LIGAND FREE ENERGY PREDICTED BY IDOCK:  -10.07 KCAL/MOL
REMARK 924 INTRA-LIGAND FREE ENERGY PREDICTED BY IDOCK:   -1.17 KCAL/MOL
REMARK 927      BINDING AFFINITY PREDICTED BY RF-SCORE:    0.00 PKD
ROOT
HETATM    1  C   UNL     1     -13.157  11.742  63.212  1.00  0.00     0.095 C  
HETATM    2  C   UNL     1     -12.025  12.444  63.949  1.00  0.00    -0.572 C  
HETATM    3  C   UNL     1     -10.917  11.467  64.356  1.00  0.00    -0.371 C  
HETATM    4  C   UNL     1      -9.810  12.178  65.134  1.00  0.00    -0.180 C  
HETATM    5  N   UNL     1     -10.321  13.011  66.258  1.00  0.00    -0.279 N  
HETATM    6  C   UNL     1     -11.426  13.929  65.902  1.00  0.00    -0.325 C  
HETATM    7  C   UNL     1     -10.032  12.576  67.558  1.00  0.00    -0.201 C  
HETATM    8  O   UNL     1      -9.401  11.519  67.697  1.00  0.00    -0.166 OA 
HETATM    9  O   UNL     1      -9.769  15.254  64.754  1.00  0.00    -0.029 OA 
HETATM   10  C   UNL     1     -12.551  13.156  65.204  1.00  0.00    -0.525 C  
HETATM   11  C   UNL     1     -11.065  15.153  65.054  1.00  0.00    -0.419 C  
HETATM   12  O   UNL     1     -11.880  15.976  64.670  1.00  0.00    -0.152 OA 
ENDROOT
BRANCH   7  13
HETATM   13  C   UNL     1     -10.347  13.394  68.861  1.00  0.00    -0.072 C  
BRANCH  13  14
HETATM   14  C   UNL     1     -11.822  13.605  69.293  1.00  0.00    -0.395 C  
BRANCH  14  15
HETATM   15  C   UNL     1     -12.040  13.383  70.804  1.00  0.00    -0.333 C  
BRANCH  15  16
HETATM   16  C   UNL     1     -13.316  14.039  71.354  1.00  0.00    -0.317 C  
BRANCH  16  17
HETATM   17  N   UNL     1     -13.075  14.428  72.731  1.00  0.00    -0.487 NA 
HETATM   18  H2  UNL     1     -12.929  14.996  75.108  1.00  0.00     0.000 HD 
HETATM   19  H1  UNL     1     -12.136  16.585  74.783  1.00  0.00     0.000 HD 
HETATM   20  N   UNL     1     -12.019  16.532  72.429  1.00  0.00    -0.598 NA 
HETATM   21  N   UNL     1     -12.549  15.703  74.478  1.00  0.00    -0.581 NA 
HETATM   22  C   UNL     1     -12.528  15.595  73.135  1.00  0.00    -0.476 C  
HETATM   23  H   UNL     1     -13.342  13.763  73.457  1.00  0.00     0.000 HD 
HETATM   24  H1  UNL     1     -11.605  17.413  72.734  1.00  0.00     0.000 HD 
HETATM   25  H2  UNL     1     -12.028  16.377  71.421  1.00  0.00     0.000 HD 
ENDBRANCH  16  17
ENDBRANCH  15  16
ENDBRANCH  14  15
ENDBRANCH  13  14
BRANCH  13  26
HETATM   26  N   UNL     1      -9.656  14.713  68.907  1.00  0.00    -0.276 N  
HETATM   27  H   UNL     1     -10.181  15.568  69.090  1.00  0.00     0.000 HD 
BRANCH  26  28
HETATM   28  S   UNL     1      -7.969  14.766  68.648  1.00  0.00    -0.149 S  
HETATM   29  O   UNL     1      -7.706  14.293  67.314  1.00  0.00    -0.185 OA 
HETATM   30  O   UNL     1      -7.391  14.089  69.791  1.00  0.00     0.130 OA 
BRANCH  28  31
HETATM   31  C   UNL     1      -7.617  16.500  68.768  1.00  0.00    -0.219 A  
HETATM   32  C   UNL     1      -8.823  19.924  67.570  1.00  0.00    -0.411 C  
HETATM   33  C   UNL     1      -6.477  16.871  69.497  1.00  0.00    -0.223 A  
HETATM   34  C   UNL     1     -10.629  20.465  65.899  1.00  0.00    -0.070 C  
HETATM   35  C   UNL     1      -6.131  18.212  69.624  1.00  0.00    -0.234 A  
HETATM   36  C   UNL     1      -9.697  19.382  66.435  1.00  0.00    -0.460 C  
HETATM   37  C   UNL     1     -10.467  18.180  66.965  1.00  0.00    -0.370 C  
HETATM   38  H   UNL     1      -9.714  16.149  67.095  1.00  0.00     0.000 HD 
HETATM   39  N   UNL     1      -9.550  17.118  67.370  1.00  0.00    -0.244 NA 
HETATM   40  C   UNL     1      -6.922  19.185  69.024  1.00  0.00    -0.371 A  
HETATM   41  C   UNL     1      -8.436  17.469  68.150  1.00  0.00    -0.254 A  
HETATM   42  C   UNL     1      -8.061  18.826  68.281  1.00  0.00    -0.353 A  
ENDBRANCH  28  31
ENDBRANCH  26  28
ENDBRANCH  13  26
ENDBRANCH   7  13
TORSDOF 8
ENDMDL
MODEL       63
REMARK 921   NORMALIZED FREE ENERGY PREDICTED BY IDOCK:   -6.81 KCAL/MOL
REMARK 922        TOTAL FREE ENERGY PREDICTED BY IDOCK:  -11.24 KCAL/MOL
REMARK 923 INTER-LIGAND FREE ENERGY PREDICTED BY IDOCK:  -10.29 KCAL/MOL
REMARK 924 INTRA-LIGAND FREE ENERGY PREDICTED BY IDOCK:   -0.95 KCAL/MOL
REMARK 927      BINDING AFFINITY PREDICTED BY RF-SCORE:    0.00 PKD
ROOT
HETATM    1  C   UNL     1     -11.023   6.070  70.231  1.00  0.00    -0.412 C  
HETATM    2  C   UNL     1     -10.470   7.467  69.988  1.00  0.00    -0.233 C  
HETATM    3  C   UNL     1     -11.410   8.552  70.525  1.00  0.00    -0.235 C  
HETATM    4  C   UNL     1     -10.864   9.950  70.233  1.00  0.00    -0.310 C  
HETATM    5  N   UNL     1     -10.471  10.144  68.809  1.00  0.00    -0.193 N  
HETATM    6  C   UNL     1      -9.604   9.084  68.251  1.00  0.00    -0.145 C  
HETATM    7  C   UNL     1     -11.252  11.021  68.045  1.00  0.00    -0.309 C  
HETATM    8  O   UNL     1     -12.232  11.555  68.583  1.00  0.00    -0.492 OA 
HETATM    9  O   UNL     1      -7.831  10.020  69.595  1.00  0.00    -0.133 OA 
HETATM   10  C   UNL     1     -10.234   7.706  68.489  1.00  0.00    -0.220 C  
HETATM   11  C   UNL     1      -8.149   9.053  68.732  1.00  0.00    -0.105 C  
HETATM   12  O   UNL     1      -7.333   8.219  68.372  1.00  0.00    -0.090 OA 
ENDROOT
BRANCH   7  13
HETATM   13  C   UNL     1     -10.909  11.474  66.581  1.00  0.00    -0.287 C  
BRANCH  13  14
HETATM   14  C   UNL     1     -10.195  10.484  65.623  1.00  0.00    -0.315 C  
BRANCH  14  15
HETATM   15  C   UNL     1      -9.262  11.191  64.619  1.00  0.00    -0.138 C  
BRANCH  15  16
HETATM   16  C   UNL     1      -9.905  11.458  63.249  1.00  0.00    -0.404 C  
BRANCH  16  17
HETATM   17  N   UNL     1     -11.333  11.224  63.359  1.00  0.00    -0.771 NA 
HETATM   18  H2  UNL     1     -13.699  10.600  63.389  1.00  0.00     0.000 HD 
HETATM   19  H1  UNL     1     -14.253  12.293  63.093  1.00  0.00     0.000 HD 
HETATM   20  N   UNL     1     -12.179  13.409  62.985  1.00  0.00    -0.941 NA 
HETATM   21  N   UNL     1     -13.523  11.593  63.231  1.00  0.00    -0.125 NA 
HETATM   22  C   UNL     1     -12.298  12.150  63.177  1.00  0.00    -0.268 C  
HETATM   23  H   UNL     1     -11.633  10.277  63.595  1.00  0.00     0.000 HD 
HETATM   24  H1  UNL     1     -12.909  14.109  62.848  1.00  0.00     0.000 HD 
HETATM   25  H2  UNL     1     -11.223  13.762  62.967  1.00  0.00     0.000 HD 
ENDBRANCH  16  17
ENDBRANCH  15  16
ENDBRANCH  14  15
ENDBRANCH  13  14
BRANCH  13  26
HETATM   26  N   UNL     1     -10.190  12.777  66.524  1.00  0.00    -0.248 N  
HETATM   27  H   UNL     1      -9.195  12.831  66.744  1.00  0.00     0.000 HD 
BRANCH  26  28
HETATM   28  S   UNL     1     -11.061  14.177  66.082  1.00  0.00    -0.318 S  
HETATM   29  O   UNL     1     -12.465  13.862  66.122  1.00  0.00    -0.459 OA 
HETATM   30  O   UNL     1     -10.448  14.630  64.850  1.00  0.00    -0.414 OA 
BRANCH  28  31
HETATM   31  C   UNL     1     -10.647  15.312  67.381  1.00  0.00    -0.282 A  
HETATM   32  C   UNL     1      -7.991  17.841  68.460  1.00  0.00    -0.294 C  
HETATM   33  C   UNL     1     -11.500  15.345  68.495  1.00  0.00    -0.360 A  
HETATM   34  C   UNL     1      -5.778  18.363  67.376  1.00  0.00    -0.145 C  
HETATM   35  C   UNL     1     -11.232  16.201  69.558  1.00  0.00    -0.337 A  
HETATM   36  C   UNL     1      -6.922  17.358  67.475  1.00  0.00    -0.177 C  
HETATM   37  C   UNL     1      -7.591  17.125  66.128  1.00  0.00    -0.269 C  
HETATM   38  H   UNL     1      -8.665  15.334  65.540  1.00  0.00     0.000 HD 
HETATM   39  N   UNL     1      -8.608  16.082  66.231  1.00  0.00    -0.331 NA 
HETATM   40  C   UNL     1     -10.114  17.025  69.511  1.00  0.00    -0.048 A  
HETATM   41  C   UNL     1      -9.506  16.138  67.309  1.00  0.00    -0.226 A  
HETATM   42  C   UNL     1      -9.244  16.993  68.406  1.00  0.00    -0.259 A  
ENDBRANCH  28  31
ENDBRANCH  26  28
ENDBRANCH  13  26
ENDBRANCH   7  13
TORSDOF 8
ENDMDL
MODEL       64
REMARK 921   NORMALIZED FREE ENERGY PREDICTED BY IDOCK:   -6.77 KCAL/MOL
REMARK 922        TOTAL FREE ENERGY PREDICTED BY IDOCK:  -11.19 KCAL/MOL
REMARK 923 INTER-LIGAND FREE ENERGY PREDICTED BY IDOCK:   -9.86 KCAL/MOL
REMARK 924 INTRA-LIGAND FREE ENERGY PREDICTED BY IDOCK:   -1.33 KCAL/MOL
REMARK 927      BINDING AFFINITY PREDICTED BY RF-SCORE:    0.00 PKD
ROOT
HETATM    1  C   UNL     1      -5.318  19.174  66.215  1.00  0.00    -0.171 C  
HETATM    2  C   UNL     1      -6.568  18.722  66.957  1.00  0.00    -0.205 C  
HETATM    3  C   UNL     1      -6.228  18.064  68.299  1.00  0.00    -0.183 C  
HETATM    4  C   UNL     1      -7.489  17.574  69.011  1.00  0.00    -0.179 C  
HETATM    5  N   UNL     1      -8.373  16.749  68.143  1.00  0.00    -0.195 N  
HETATM    6  C   UNL     1      -8.677  17.339  66.820  1.00  0.00    -0.251 C  
HETATM    7  C   UNL     1      -8.481  15.386  68.452  1.00  0.00    -0.160 C  
HETATM    8  O   UNL     1      -7.817  14.946  69.401  1.00  0.00    -0.179 OA 
HETATM    9  O   UNL     1     -10.108  18.886  67.996  1.00  0.00    -0.341 OA 
HETATM   10  C   UNL     1      -7.379  17.733  66.106  1.00  0.00    -0.335 C  
HETATM   11  C   UNL     1      -9.637  18.532  66.798  1.00  0.00    -0.321 C  
HETATM   12  O   UNL     1      -9.955  19.129  65.782  1.00  0.00    -0.462 OA 
ENDROOT
BRANCH   7  13
HETATM   13  C   UNL     1      -9.476  14.390  67.757  1.00  0.00    -0.211 C  
BRANCH  13  14
HETATM   14  C   UNL     1     -10.895  14.880  67.363  1.00  0.00    -0.304 C  
BRANCH  14  15
HETATM   15  C   UNL     1     -11.950  14.590  68.450  1.00  0.00    -0.309 C  
BRANCH  15  16
HETATM   16  C   UNL     1     -12.160  15.745  69.441  1.00  0.00    -0.227 C  
BRANCH  16  17
HETATM   17  N   UNL     1     -13.247  15.391  70.335  1.00  0.00    -0.715 NA 
HETATM   18  H2  UNL     1     -15.217  15.018  71.739  1.00  0.00     0.000 HD 
HETATM   19  H1  UNL     1     -14.228  14.656  73.205  1.00  0.00     0.000 HD 
HETATM   20  N   UNL     1     -12.054  14.887  72.323  1.00  0.00    -0.342 NA 
HETATM   21  N   UNL     1     -14.324  14.905  72.220  1.00  0.00    -0.472 NA 
HETATM   22  C   UNL     1     -13.120  15.063  71.638  1.00  0.00    -0.364 C  
HETATM   23  H   UNL     1     -14.190  15.391  69.944  1.00  0.00     0.000 HD 
HETATM   24  H1  UNL     1     -11.957  14.639  73.308  1.00  0.00     0.000 HD 
HETATM   25  H2  UNL     1     -11.179  15.013  71.814  1.00  0.00     0.000 HD 
ENDBRANCH  16  17
ENDBRANCH  15  16
ENDBRANCH  14  15
ENDBRANCH  13  14
BRANCH  13  26
HETATM   26  N   UNL     1      -9.615  13.098  68.483  1.00  0.00    -0.368 N  
HETATM   27  H   UNL     1      -9.933  13.077  69.452  1.00  0.00     0.000 HD 
BRANCH  26  28
HETATM   28  S   UNL     1      -9.231  11.650  67.663  1.00  0.00    -0.183 S  
HETATM   29  O   UNL     1      -7.928  11.803  67.070  1.00  0.00    -0.155 OA 
HETATM   30  O   UNL     1     -10.384  11.371  66.831  1.00  0.00    -0.213 OA 
BRANCH  28  31
HETATM   31  C   UNL     1      -9.174  10.466  68.982  1.00  0.00    -0.187 A  
HETATM   32  C   UNL     1     -11.310   8.892  71.734  1.00  0.00    -0.431 C  
HETATM   33  C   UNL     1      -7.936   9.857  69.239  1.00  0.00    -0.121 A  
HETATM   34  C   UNL     1     -13.652   9.487  72.447  1.00  0.00    -0.459 C  
HETATM   35  C   UNL     1      -7.811   8.927  70.267  1.00  0.00    -0.104 A  
HETATM   36  C   UNL     1     -12.415   9.952  71.685  1.00  0.00    -0.507 C  
HETATM   37  C   UNL     1     -12.724  10.245  70.223  1.00  0.00    -0.102 C  
HETATM   38  H   UNL     1     -11.625  11.609  68.943  1.00  0.00     0.000 HD 
HETATM   39  N   UNL     1     -11.550  10.790  69.546  1.00  0.00    -0.278 NA 
HETATM   40  C   UNL     1      -8.922   8.603  71.037  1.00  0.00    -0.242 A  
HETATM   41  C   UNL     1     -10.316  10.153  69.750  1.00  0.00    -0.259 A  
HETATM   42  C   UNL     1     -10.166   9.214  70.797  1.00  0.00    -0.325 A  
ENDBRANCH  28  31
ENDBRANCH  26  28
ENDBRANCH  13  26
ENDBRANCH   7  13
TORSDOF 8
ENDMDL
MODEL       65
REMARK 921   NORMALIZED FREE ENERGY PREDICTED BY IDOCK:   -6.76 KCAL/MOL
REMARK 922        TOTAL FREE ENERGY PREDICTED BY IDOCK:  -11.18 KCAL/MOL
REMARK 923 INTER-LIGAND FREE ENERGY PREDICTED BY IDOCK:   -9.30 KCAL/MOL
REMARK 924 INTRA-LIGAND FREE ENERGY PREDICTED BY IDOCK:   -1.88 KCAL/MOL
REMARK 927      BINDING AFFINITY PREDICTED BY RF-SCORE:    0.00 PKD
ROOT
HETATM    1  C   UNL     1     -12.458  11.863  63.451  1.00  0.00    -0.582 C  
HETATM    2  C   UNL     1     -12.108  12.667  64.695  1.00  0.00    -0.484 C  
HETATM    3  C   UNL     1     -11.796  14.129  64.360  1.00  0.00    -0.447 C  
HETATM    4  C   UNL     1     -11.402  14.912  65.612  1.00  0.00    -0.325 C  
HETATM    5  N   UNL     1     -10.345  14.242  66.419  1.00  0.00    -0.280 N  
HETATM    6  C   UNL     1     -10.598  12.814  66.715  1.00  0.00    -0.252 C  
HETATM    7  C   UNL     1      -9.085  14.853  66.456  1.00  0.00    -0.277 C  
HETATM    8  O   UNL     1      -8.916  15.889  65.798  1.00  0.00    -0.283 OA 
HETATM    9  O   UNL     1     -12.278  13.579  68.269  1.00  0.00    -0.313 OA 
HETATM   10  C   UNL     1     -10.901  12.051  65.420  1.00  0.00    -0.336 C  
HETATM   11  C   UNL     1     -11.692  12.503  67.742  1.00  0.00    -0.359 C  
HETATM   12  O   UNL     1     -12.020  11.371  68.062  1.00  0.00    -0.613 OA 
ENDROOT
BRANCH   7  13
HETATM   13  C   UNL     1      -7.896  14.388  67.369  1.00  0.00    -0.190 C  
BRANCH  13  14
HETATM   14  C   UNL     1      -6.838  15.425  67.833  1.00  0.00    -0.166 C  
BRANCH  14  15
HETATM   15  C   UNL     1      -7.355  16.342  68.961  1.00  0.00    -0.214 C  
BRANCH  15  16
HETATM   16  C   UNL     1      -7.451  17.823  68.566  1.00  0.00    -0.272 C  
BRANCH  16  17
HETATM   17  N   UNL     1      -8.848  18.151  68.350  1.00  0.00    -0.289 NA 
HETATM   18  H2  UNL     1     -11.263  18.450  68.088  1.00  0.00     0.000 HD 
HETATM   19  H1  UNL     1     -11.095  19.192  66.451  1.00  0.00     0.000 HD 
HETATM   20  N   UNL     1      -8.752  19.148  66.199  1.00  0.00    -0.450 NA 
HETATM   21  N   UNL     1     -10.706  18.773  67.297  1.00  0.00    -0.446 NA 
HETATM   22  C   UNL     1      -9.362  18.705  67.231  1.00  0.00    -0.287 C  
HETATM   23  H   UNL     1      -9.498  17.946  69.110  1.00  0.00     0.000 HD 
HETATM   24  H1  UNL     1      -9.140  19.566  65.353  1.00  0.00     0.000 HD 
HETATM   25  H2  UNL     1      -7.735  19.073  66.224  1.00  0.00     0.000 HD 
ENDBRANCH  16  17
ENDBRANCH  15  16
ENDBRANCH  14  15
ENDBRANCH  13  14
BRANCH  13  26
HETATM   26  N   UNL     1      -7.177  13.198  66.835  1.00  0.00    -0.246 N  
HETATM   27  H   UNL     1      -6.830  13.188  65.876  1.00  0.00     0.000 HD 
BRANCH  26  28
HETATM   28  S   UNL     1      -6.945  11.852  67.859  1.00  0.00    -0.094 S  
HETATM   29  O   UNL     1      -7.582  12.131  69.119  1.00  0.00     0.014 OA 
HETATM   30  O   UNL     1      -5.524  11.576  67.803  1.00  0.00    -0.044 OA 
BRANCH  28  31
HETATM   31  C   UNL     1      -7.813  10.564  67.001  1.00  0.00    -0.114 A  
HETATM   32  C   UNL     1     -10.181   7.616  67.561  1.00  0.00    -0.294 C  
HETATM   33  C   UNL     1      -7.590  10.455  65.620  1.00  0.00    -0.150 A  
HETATM   34  C   UNL     1     -10.997   6.639  69.736  1.00  0.00    -0.367 C  
HETATM   35  C   UNL     1      -8.227   9.461  64.883  1.00  0.00    -0.143 A  
HETATM   36  C   UNL     1      -9.948   7.527  69.073  1.00  0.00    -0.175 C  
HETATM   37  C   UNL     1      -9.961   8.941  69.637  1.00  0.00    -0.191 C  
HETATM   38  H   UNL     1      -8.281  10.315  69.654  1.00  0.00     0.000 HD 
HETATM   39  N   UNL     1      -8.878   9.735  69.063  1.00  0.00    -0.144 NA 
HETATM   40  C   UNL     1      -9.088   8.577  65.523  1.00  0.00    -0.150 A  
HETATM   41  C   UNL     1      -8.682   9.680  67.673  1.00  0.00    -0.126 A  
HETATM   42  C   UNL     1      -9.312   8.669  66.909  1.00  0.00    -0.216 A  
ENDBRANCH  28  31
ENDBRANCH  26  28
ENDBRANCH  13  26
ENDBRANCH   7  13
TORSDOF 8
ENDMDL
MODEL       66
REMARK 921   NORMALIZED FREE ENERGY PREDICTED BY IDOCK:   -6.76 KCAL/MOL
REMARK 922        TOTAL FREE ENERGY PREDICTED BY IDOCK:  -11.17 KCAL/MOL
REMARK 923 INTER-LIGAND FREE ENERGY PREDICTED BY IDOCK:   -9.56 KCAL/MOL
REMARK 924 INTRA-LIGAND FREE ENERGY PREDICTED BY IDOCK:   -1.61 KCAL/MOL
REMARK 927      BINDING AFFINITY PREDICTED BY RF-SCORE:    0.00 PKD
ROOT
HETATM    1  C   UNL     1     -10.247  10.829  63.409  1.00  0.00    -0.287 C  
HETATM    2  C   UNL     1     -10.396  11.852  64.526  1.00  0.00    -0.334 C  
HETATM    3  C   UNL     1      -9.129  11.949  65.382  1.00  0.00     0.130 C  
HETATM    4  C   UNL     1      -9.308  12.947  66.526  1.00  0.00    -0.222 C  
HETATM    5  N   UNL     1     -10.552  12.722  67.315  1.00  0.00    -0.232 N  
HETATM    6  C   UNL     1     -11.784  12.575  66.509  1.00  0.00    -0.391 C  
HETATM    7  C   UNL     1     -10.400  12.265  68.630  1.00  0.00    -0.188 C  
HETATM    8  O   UNL     1      -9.254  12.048  69.048  1.00  0.00     0.114 OA 
HETATM    9  O   UNL     1     -11.636  14.950  66.107  1.00  0.00    -0.324 OA 
HETATM   10  C   UNL     1     -11.586  11.502  65.432  1.00  0.00     0.012 C  
HETATM   11  C   UNL     1     -12.336  13.843  65.850  1.00  0.00    -0.483 C  
HETATM   12  O   UNL     1     -13.329  13.862  65.139  1.00  0.00    -0.698 OA 
ENDROOT
BRANCH   7  13
HETATM   13  C   UNL     1     -11.573  12.119  69.664  1.00  0.00    -0.291 C  
BRANCH  13  14
HETATM   14  C   UNL     1     -12.122  13.382  70.379  1.00  0.00    -0.405 C  
BRANCH  14  15
HETATM   15  C   UNL     1     -11.296  14.648  70.075  1.00  0.00    -0.288 C  
BRANCH  15  16
HETATM   16  C   UNL     1     -11.817  15.916  70.769  1.00  0.00    -0.391 C  
BRANCH  16  17
HETATM   17  N   UNL     1     -11.647  15.757  72.202  1.00  0.00    -0.438 NA 
HETATM   18  H2  UNL     1     -11.174  15.288  74.557  1.00  0.00     0.000 HD 
HETATM   19  H1  UNL     1     -12.917  15.353  75.024  1.00  0.00     0.000 HD 
HETATM   20  N   UNL     1     -13.902  15.829  72.936  1.00  0.00    -0.604 NA 
HETATM   21  N   UNL     1     -12.163  15.413  74.338  1.00  0.00    -0.645 NA 
HETATM   22  C   UNL     1     -12.644  15.678  73.108  1.00  0.00    -0.476 C  
HETATM   23  H   UNL     1     -10.691  15.701  72.554  1.00  0.00     0.000 HD 
HETATM   24  H1  UNL     1     -14.656  15.769  73.621  1.00  0.00     0.000 HD 
HETATM   25  H2  UNL     1     -14.192  16.038  71.981  1.00  0.00     0.000 HD 
ENDBRANCH  16  17
ENDBRANCH  15  16
ENDBRANCH  14  15
ENDBRANCH  13  14
BRANCH  13  26
HETATM   26  N   UNL     1     -11.321  11.074  70.694  1.00  0.00    -0.377 N  
HETATM   27  H   UNL     1     -10.402  10.984  71.129  1.00  0.00     0.000 HD 
BRANCH  26  28
HETATM   28  S   UNL     1     -12.598  10.030  71.135  1.00  0.00    -0.407 S  
HETATM   29  O   UNL     1     -13.644  10.164  70.156  1.00  0.00     0.193 OA 
HETATM   30  O   UNL     1     -12.859  10.321  72.529  1.00  0.00    -0.112 OA 
BRANCH  28  31
HETATM   31  C   UNL     1     -11.843   8.429  71.014  1.00  0.00    -0.252 A  
HETATM   32  C   UNL     1      -9.784   6.222  68.668  1.00  0.00    -0.137 C  
HETATM   33  C   UNL     1     -12.050   7.544  72.083  1.00  0.00    -0.305 A  
HETATM   34  C   UNL     1      -9.108   6.658  66.281  1.00  0.00    -0.168 C  
HETATM   35  C   UNL     1     -11.499   6.267  72.052  1.00  0.00    -0.359 A  
HETATM   36  C   UNL     1     -10.053   7.054  67.411  1.00  0.00    -0.252 C  
HETATM   37  C   UNL     1      -9.913   8.525  67.780  1.00  0.00    -0.190 C  
HETATM   38  H   UNL     1     -11.451   9.756  68.689  1.00  0.00     0.000 HD 
HETATM   39  N   UNL     1     -10.902   8.901  68.786  1.00  0.00    -0.075 NA 
HETATM   40  C   UNL     1     -10.740   5.872  70.957  1.00  0.00    -0.331 A  
HETATM   41  C   UNL     1     -11.077   8.053  69.891  1.00  0.00    -0.108 A  
HETATM   42  C   UNL     1     -10.534   6.746  69.874  1.00  0.00    -0.242 A  
ENDBRANCH  28  31
ENDBRANCH  26  28
ENDBRANCH  13  26
ENDBRANCH   7  13
TORSDOF 8
ENDMDL
MODEL       67
REMARK 921   NORMALIZED FREE ENERGY PREDICTED BY IDOCK:   -6.75 KCAL/MOL
REMARK 922        TOTAL FREE ENERGY PREDICTED BY IDOCK:  -11.15 KCAL/MOL
REMARK 923 INTER-LIGAND FREE ENERGY PREDICTED BY IDOCK:  -10.41 KCAL/MOL
REMARK 924 INTRA-LIGAND FREE ENERGY PREDICTED BY IDOCK:   -0.75 KCAL/MOL
REMARK 927      BINDING AFFINITY PREDICTED BY RF-SCORE:    0.00 PKD
ROOT
HETATM    1  C   UNL     1      -7.463   8.839  65.428  1.00  0.00    -0.086 C  
HETATM    2  C   UNL     1      -8.475   9.359  66.439  1.00  0.00    -0.131 C  
HETATM    3  C   UNL     1      -9.908   9.281  65.902  1.00  0.00    -0.335 C  
HETATM    4  C   UNL     1     -10.908   9.848  66.910  1.00  0.00    -0.066 C  
HETATM    5  N   UNL     1     -10.529  11.194  67.423  1.00  0.00    -0.209 N  
HETATM    6  C   UNL     1      -9.134  11.309  67.902  1.00  0.00    -0.150 C  
HETATM    7  C   UNL     1     -11.331  12.275  67.034  1.00  0.00    -0.334 C  
HETATM    8  O   UNL     1     -12.281  12.056  66.269  1.00  0.00    -0.548 OA 
HETATM    9  O   UNL     1      -9.830  10.009  69.812  1.00  0.00    -0.227 OA 
HETATM   10  C   UNL     1      -8.163  10.812  66.825  1.00  0.00    -0.135 C  
HETATM   11  C   UNL     1      -8.798  10.621  69.229  1.00  0.00    -0.077 C  
HETATM   12  O   UNL     1      -7.683  10.616  69.727  1.00  0.00    -0.128 OA 
ENDROOT
BRANCH   7  13
HETATM   13  C   UNL     1     -11.189  13.736  67.591  1.00  0.00    -0.293 C  
BRANCH  13  14
HETATM   14  C   UNL     1     -11.844  14.103  68.949  1.00  0.00    -0.382 C  
BRANCH  14  15
HETATM   15  C   UNL     1     -11.471  15.520  69.430  1.00  0.00    -0.345 C  
BRANCH  15  16
HETATM   16  C   UNL     1     -11.728  15.760  70.925  1.00  0.00    -0.406 C  
BRANCH  16  17
HETATM   17  N   UNL     1     -12.467  14.627  71.452  1.00  0.00    -0.324 NA 
HETATM   18  H2  UNL     1     -13.743  12.633  72.073  1.00  0.00     0.000 HD 
HETATM   19  H1  UNL     1     -14.738  13.525  73.287  1.00  0.00     0.000 HD 
HETATM   20  N   UNL     1     -13.826  15.689  73.081  1.00  0.00    -0.612 NA 
HETATM   21  N   UNL     1     -14.006  13.480  72.577  1.00  0.00    -0.766 NA 
HETATM   22  C   UNL     1     -13.434  14.686  72.392  1.00  0.00    -0.436 C  
HETATM   23  H   UNL     1     -12.234  13.705  71.079  1.00  0.00     0.000 HD 
HETATM   24  H1  UNL     1     -14.557  15.733  73.791  1.00  0.00     0.000 HD 
HETATM   25  H2  UNL     1     -13.341  16.566  72.895  1.00  0.00     0.000 HD 
ENDBRANCH  16  17
ENDBRANCH  15  16
ENDBRANCH  14  15
ENDBRANCH  13  14
BRANCH  13  26
HETATM   26  N   UNL     1     -11.561  14.782  66.598  1.00  0.00    -0.345 N  
HETATM   27  H   UNL     1     -12.499  15.184  66.594  1.00  0.00     0.000 HD 
BRANCH  26  28
HETATM   28  S   UNL     1     -10.390  15.294  65.467  1.00  0.00    -0.406 S  
HETATM   29  O   UNL     1     -10.921  16.425  64.752  1.00  0.00    -0.664 OA 
HETATM   30  O   UNL     1     -10.004  14.094  64.753  1.00  0.00    -0.289 OA 
BRANCH  28  31
HETATM   31  C   UNL     1      -9.046  15.800  66.509  1.00  0.00    -0.293 A  
HETATM   32  C   UNL     1      -7.213  18.897  67.796  1.00  0.00    -0.251 C  
HETATM   33  C   UNL     1      -8.268  14.784  67.085  1.00  0.00    -0.239 A  
HETATM   34  C   UNL     1      -7.533  21.308  67.137  1.00  0.00     0.011 C  
HETATM   35  C   UNL     1      -7.190  15.105  67.904  1.00  0.00    -0.158 A  
HETATM   36  C   UNL     1      -7.791  19.855  66.749  1.00  0.00    -0.330 C  
HETATM   37  C   UNL     1      -9.278  19.559  66.610  1.00  0.00    -0.354 C  
HETATM   38  H   UNL     1     -10.150  17.997  65.382  1.00  0.00     0.000 HD 
HETATM   39  N   UNL     1      -9.490  18.195  66.135  1.00  0.00    -0.504 NA 
HETATM   40  C   UNL     1      -6.889  16.439  68.151  1.00  0.00    -0.138 A  
HETATM   41  C   UNL     1      -8.761  17.162  66.744  1.00  0.00    -0.244 A  
HETATM   42  C   UNL     1      -7.654  17.468  67.570  1.00  0.00    -0.209 A  
ENDBRANCH  28  31
ENDBRANCH  26  28
ENDBRANCH  13  26
ENDBRANCH   7  13
TORSDOF 8
ENDMDL
MODEL       68
REMARK 921   NORMALIZED FREE ENERGY PREDICTED BY IDOCK:   -6.74 KCAL/MOL
REMARK 922        TOTAL FREE ENERGY PREDICTED BY IDOCK:  -11.14 KCAL/MOL
REMARK 923 INTER-LIGAND FREE ENERGY PREDICTED BY IDOCK:   -9.43 KCAL/MOL
REMARK 924 INTRA-LIGAND FREE ENERGY PREDICTED BY IDOCK:   -1.71 KCAL/MOL
REMARK 927      BINDING AFFINITY PREDICTED BY RF-SCORE:    0.00 PKD
ROOT
HETATM    1  C   UNL     1      -9.557   6.896  74.436  1.00  0.00    -0.264 C  
HETATM    2  C   UNL     1      -9.699   6.859  72.921  1.00  0.00    -0.183 C  
HETATM    3  C   UNL     1      -8.338   6.937  72.219  1.00  0.00    -0.106 C  
HETATM    4  C   UNL     1      -8.499   6.945  70.699  1.00  0.00    -0.136 C  
HETATM    5  N   UNL     1      -9.485   7.951  70.215  1.00  0.00    -0.163 N  
HETATM    6  C   UNL     1     -10.791   7.930  70.910  1.00  0.00    -0.234 C  
HETATM    7  C   UNL     1      -8.982   9.043  69.495  1.00  0.00    -0.147 C  
HETATM    8  O   UNL     1      -7.757   9.123  69.330  1.00  0.00    -0.077 OA 
HETATM    9  O   UNL     1     -11.239   5.886  69.709  1.00  0.00    -0.389 OA 
HETATM   10  C   UNL     1     -10.584   8.014  72.427  1.00  0.00    -0.373 C  
HETATM   11  C   UNL     1     -11.721   6.753  70.601  1.00  0.00    -0.386 C  
HETATM   12  O   UNL     1     -12.815   6.597  71.121  1.00  0.00    -0.233 OA 
ENDROOT
BRANCH   7  13
HETATM   13  C   UNL     1      -9.870  10.119  68.773  1.00  0.00    -0.175 C  
BRANCH  13  14
HETATM   14  C   UNL     1      -9.413  10.692  67.405  1.00  0.00    -0.172 C  
BRANCH  14  15
HETATM   15  C   UNL     1     -10.048   9.957  66.207  1.00  0.00    -0.311 C  
BRANCH  15  16
HETATM   16  C   UNL     1      -9.034   9.219  65.319  1.00  0.00    -0.213 C  
BRANCH  16  17
HETATM   17  N   UNL     1      -8.511   8.088  66.062  1.00  0.00    -0.128 NA 
HETATM   18  H2  UNL     1      -7.430   6.162  67.119  1.00  0.00     0.000 HD 
HETATM   19  H1  UNL     1      -9.000   5.338  67.456  1.00  0.00     0.000 HD 
HETATM   20  N   UNL     1     -10.511   6.915  66.568  1.00  0.00    -0.502 NA 
HETATM   21  N   UNL     1      -8.449   6.113  67.087  1.00  0.00    -0.105 NA 
HETATM   22  C   UNL     1      -9.241   7.062  66.551  1.00  0.00    -0.164 C  
HETATM   23  H   UNL     1      -7.505   8.065  66.230  1.00  0.00     0.000 HD 
HETATM   24  H1  UNL     1     -11.063   6.140  66.938  1.00  0.00     0.000 HD 
HETATM   25  H2  UNL     1     -11.047   7.678  66.155  1.00  0.00     0.000 HD 
ENDBRANCH  16  17
ENDBRANCH  15  16
ENDBRANCH  14  15
ENDBRANCH  13  14
BRANCH  13  26
HETATM   26  N   UNL     1     -10.241  11.260  69.655  1.00  0.00    -0.401 N  
HETATM   27  H   UNL     1      -9.524  11.879  70.034  1.00  0.00     0.000 HD 
BRANCH  26  28
HETATM   28  S   UNL     1     -11.890  11.512  70.021  1.00  0.00    -0.351 S  
HETATM   29  O   UNL     1     -12.177  10.857  71.270  1.00  0.00    -0.341 OA 
HETATM   30  O   UNL     1     -12.604  11.136  68.818  1.00  0.00    -0.345 OA 
BRANCH  28  31
HETATM   31  C   UNL     1     -11.974  13.273  70.214  1.00  0.00    -0.300 A  
HETATM   32  C   UNL     1     -11.143  16.557  68.443  1.00  0.00    -0.333 C  
HETATM   33  C   UNL     1     -12.455  13.758  71.440  1.00  0.00    -0.404 A  
HETATM   34  C   UNL     1      -9.906  16.912  66.277  1.00  0.00    -0.320 C  
HETATM   35  C   UNL     1     -12.538  15.128  71.669  1.00  0.00    -0.422 A  
HETATM   36  C   UNL     1     -10.205  15.930  67.406  1.00  0.00    -0.270 C  
HETATM   37  C   UNL     1     -10.856  14.653  66.891  1.00  0.00    -0.305 C  
HETATM   38  H   UNL     1     -10.775  12.711  67.855  1.00  0.00     0.000 HD 
HETATM   39  N   UNL     1     -11.033  13.691  67.975  1.00  0.00    -0.244 NA 
HETATM   40  C   UNL     1     -12.143  16.015  70.674  1.00  0.00    -0.259 A  
HETATM   41  C   UNL     1     -11.568  14.153  69.189  1.00  0.00    -0.307 A  
HETATM   42  C   UNL     1     -11.649  15.542  69.444  1.00  0.00    -0.366 A  
ENDBRANCH  28  31
ENDBRANCH  26  28
ENDBRANCH  13  26
ENDBRANCH   7  13
TORSDOF 8
ENDMDL
MODEL       69
REMARK 921   NORMALIZED FREE ENERGY PREDICTED BY IDOCK:   -6.68 KCAL/MOL
REMARK 922        TOTAL FREE ENERGY PREDICTED BY IDOCK:  -11.05 KCAL/MOL
REMARK 923 INTER-LIGAND FREE ENERGY PREDICTED BY IDOCK:  -10.25 KCAL/MOL
REMARK 924 INTRA-LIGAND FREE ENERGY PREDICTED BY IDOCK:   -0.80 KCAL/MOL
REMARK 927      BINDING AFFINITY PREDICTED BY RF-SCORE:    0.00 PKD
ROOT
HETATM    1  C   UNL     1      -8.001   8.932  63.096  1.00  0.00    -0.155 C  
HETATM    2  C   UNL     1      -8.229   9.872  64.271  1.00  0.00    -0.161 C  
HETATM    3  C   UNL     1      -6.976  10.007  65.144  1.00  0.00    -0.134 C  
HETATM    4  C   UNL     1      -7.233  10.918  66.345  1.00  0.00    -0.140 C  
HETATM    5  N   UNL     1      -8.462  10.558  67.106  1.00  0.00    -0.126 N  
HETATM    6  C   UNL     1      -9.675  10.373  66.281  1.00  0.00    -0.205 C  
HETATM    7  C   UNL     1      -8.284  10.033  68.393  1.00  0.00    -0.106 C  
HETATM    8  O   UNL     1      -7.128   9.873  68.808  1.00  0.00    -0.065 OA 
HETATM    9  O   UNL     1      -9.697  12.772  66.025  1.00  0.00    -0.259 OA 
HETATM   10  C   UNL     1      -9.396   9.384  65.143  1.00  0.00    -0.288 C  
HETATM   11  C   UNL     1     -10.314  11.636  65.694  1.00  0.00    -0.262 C  
HETATM   12  O   UNL     1     -11.302  11.627  64.977  1.00  0.00    -0.264 OA 
ENDROOT
BRANCH   7  13
HETATM   13  C   UNL     1      -9.450   9.742  69.405  1.00  0.00    -0.201 C  
BRANCH  13  14
HETATM   14  C   UNL     1     -10.486   8.634  69.077  1.00  0.00    -0.216 C  
BRANCH  14  15
HETATM   15  C   UNL     1      -9.838   7.367  68.482  1.00  0.00    -0.164 C  
BRANCH  15  16
HETATM   16  C   UNL     1     -10.735   6.614  67.488  1.00  0.00    -0.317 C  
BRANCH  16  17
HETATM   17  N   UNL     1     -10.024   5.435  67.029  1.00  0.00    -0.160 NA 
HETATM   18  H2  UNL     1      -8.591   3.600  66.274  1.00  0.00     0.000 HD 
HETATM   19  H1  UNL     1      -9.727   3.122  64.955  1.00  0.00     0.000 HD 
HETATM   20  N   UNL     1     -11.442   4.707  65.271  1.00  0.00    -1.096 NA 
HETATM   21  N   UNL     1      -9.455   3.711  65.742  1.00  0.00    -0.170 NA 
HETATM   22  C   UNL     1     -10.385   4.655  65.987  1.00  0.00    -0.284 C  
HETATM   23  H   UNL     1      -9.179   5.173  67.537  1.00  0.00     0.000 HD 
HETATM   24  H1  UNL     1     -11.715   4.117  64.484  1.00  0.00     0.000 HD 
HETATM   25  H2  UNL     1     -12.106   5.440  65.521  1.00  0.00     0.000 HD 
ENDBRANCH  16  17
ENDBRANCH  15  16
ENDBRANCH  14  15
ENDBRANCH  13  14
BRANCH  13  26
HETATM   26  N   UNL     1     -10.192  10.966  69.813  1.00  0.00    -0.438 N  
HETATM   27  H   UNL     1      -9.693  11.829  70.030  1.00  0.00     0.000 HD 
BRANCH  26  28
HETATM   28  S   UNL     1     -11.895  10.899  69.911  1.00  0.00    -0.379 S  
HETATM   29  O   UNL     1     -12.252   9.794  70.761  1.00  0.00    -0.286 OA 
HETATM   30  O   UNL     1     -12.354  10.944  68.538  1.00  0.00    -0.490 OA 
BRANCH  28  31
HETATM   31  C   UNL     1     -12.294  12.437  70.700  1.00  0.00    -0.279 A  
HETATM   32  C   UNL     1     -11.652  16.200  70.501  1.00  0.00    -0.322 C  
HETATM   33  C   UNL     1     -13.082  12.373  71.860  1.00  0.00    -0.471 A  
HETATM   34  C   UNL     1     -10.076  17.453  68.986  1.00  0.00    -0.295 C  
HETATM   35  C   UNL     1     -13.425  13.537  72.541  1.00  0.00    -0.660 A  
HETATM   36  C   UNL     1     -10.438  16.092  69.573  1.00  0.00    -0.286 C  
HETATM   37  C   UNL     1     -10.762  15.074  68.488  1.00  0.00    -0.244 C  
HETATM   38  H   UNL     1     -10.571  12.920  68.673  1.00  0.00     0.000 HD 
HETATM   39  N   UNL     1     -10.999  13.756  69.071  1.00  0.00    -0.254 NA 
HETATM   40  C   UNL     1     -12.983  14.766  72.064  1.00  0.00    -0.407 A  
HETATM   41  C   UNL     1     -11.834  13.672  70.197  1.00  0.00    -0.281 A  
HETATM   42  C   UNL     1     -12.184  14.843  70.909  1.00  0.00    -0.389 A  
ENDBRANCH  28  31
ENDBRANCH  26  28
ENDBRANCH  13  26
ENDBRANCH   7  13
TORSDOF 8
ENDMDL
MODEL       70
REMARK 921   NORMALIZED FREE ENERGY PREDICTED BY IDOCK:   -6.68 KCAL/MOL
REMARK 922        TOTAL FREE ENERGY PREDICTED BY IDOCK:  -11.05 KCAL/MOL
REMARK 923 INTER-LIGAND FREE ENERGY PREDICTED BY IDOCK:   -9.01 KCAL/MOL
REMARK 924 INTRA-LIGAND FREE ENERGY PREDICTED BY IDOCK:   -2.03 KCAL/MOL
REMARK 927      BINDING AFFINITY PREDICTED BY RF-SCORE:    0.00 PKD
ROOT
HETATM    1  C   UNL     1     -10.350   6.890  73.939  1.00  0.00    -0.398 C  
HETATM    2  C   UNL     1      -9.634   7.071  72.608  1.00  0.00    -0.165 C  
HETATM    3  C   UNL     1      -8.478   8.072  72.714  1.00  0.00    -0.237 C  
HETATM    4  C   UNL     1      -7.799   8.278  71.360  1.00  0.00    -0.106 C  
HETATM    5  N   UNL     1      -8.756   8.578  70.259  1.00  0.00    -0.137 N  
HETATM    6  C   UNL     1      -9.908   7.655  70.166  1.00  0.00    -0.184 C  
HETATM    7  C   UNL     1      -8.721   9.869  69.718  1.00  0.00    -0.212 C  
HETATM    8  O   UNL     1      -7.927  10.688  70.201  1.00  0.00     0.085 OA 
HETATM    9  O   UNL     1      -8.353   6.022  69.307  1.00  0.00    -0.112 OA 
HETATM   10  C   UNL     1     -10.612   7.549  71.524  1.00  0.00    -0.236 C  
HETATM   11  C   UNL     1      -9.626   6.243  69.642  1.00  0.00    -0.145 C  
HETATM   12  O   UNL     1     -10.477   5.375  69.537  1.00  0.00    -0.267 OA 
ENDROOT
BRANCH   7  13
HETATM   13  C   UNL     1      -9.537  10.328  68.456  1.00  0.00    -0.161 C  
BRANCH  13  14
HETATM   14  C   UNL     1      -9.048   9.919  67.041  1.00  0.00    -0.156 C  
BRANCH  14  15
HETATM   15  C   UNL     1      -8.244  11.033  66.341  1.00  0.00    -0.166 C  
BRANCH  15  16
HETATM   16  C   UNL     1      -6.834  11.240  66.915  1.00  0.00    -0.134 C  
BRANCH  16  17
HETATM   17  N   UNL     1      -6.509  12.653  66.838  1.00  0.00    -0.471 NA 
HETATM   18  H2  UNL     1      -5.718  14.956  66.593  1.00  0.00     0.000 HD 
HETATM   19  H1  UNL     1      -6.293  15.434  68.236  1.00  0.00     0.000 HD 
HETATM   20  N   UNL     1      -7.230  13.401  68.971  1.00  0.00    -0.247 NA 
HETATM   21  N   UNL     1      -6.168  14.754  67.486  1.00  0.00    -0.334 NA 
HETATM   22  C   UNL     1      -6.674  13.553  67.829  1.00  0.00    -0.168 C  
HETATM   23  H   UNL     1      -6.123  12.994  65.957  1.00  0.00     0.000 HD 
HETATM   24  H1  UNL     1      -7.355  14.082  69.720  1.00  0.00     0.000 HD 
HETATM   25  H2  UNL     1      -7.600  12.469  69.158  1.00  0.00     0.000 HD 
ENDBRANCH  16  17
ENDBRANCH  15  16
ENDBRANCH  14  15
ENDBRANCH  13  14
BRANCH  13  26
HETATM   26  N   UNL     1      -9.825  11.789  68.444  1.00  0.00    -0.198 N  
HETATM   27  H   UNL     1      -9.065  12.469  68.428  1.00  0.00     0.000 HD 
BRANCH  26  28
HETATM   28  S   UNL     1     -11.453  12.305  68.458  1.00  0.00    -0.327 S  
HETATM   29  O   UNL     1     -11.659  13.107  69.635  1.00  0.00    -0.283 OA 
HETATM   30  O   UNL     1     -12.231  11.101  68.247  1.00  0.00    -0.613 OA 
BRANCH  28  31
HETATM   31  C   UNL     1     -11.547  13.313  67.001  1.00  0.00    -0.359 A  
HETATM   32  C   UNL     1     -10.596  16.752  65.632  1.00  0.00    -0.258 C  
HETATM   33  C   UNL     1     -12.247  12.785  65.905  1.00  0.00    -0.422 A  
HETATM   34  C   UNL     1      -9.583  18.711  66.851  1.00  0.00    -0.324 C  
HETATM   35  C   UNL     1     -12.374  13.524  64.733  1.00  0.00    -0.435 A  
HETATM   36  C   UNL     1     -10.320  17.383  67.000  1.00  0.00    -0.318 C  
HETATM   37  C   UNL     1      -9.527  16.383  67.830  1.00  0.00    -0.223 C  
HETATM   38  H   UNL     1     -10.363  14.738  68.972  1.00  0.00     0.000 HD 
HETATM   39  N   UNL     1     -10.301  15.164  68.047  1.00  0.00    -0.237 NA 
HETATM   40  C   UNL     1     -11.802  14.788  64.652  1.00  0.00    -0.442 A  
HETATM   41  C   UNL     1     -10.958  14.593  66.945  1.00  0.00    -0.324 A  
HETATM   42  C   UNL     1     -11.108  15.333  65.748  1.00  0.00    -0.301 A  
ENDBRANCH  28  31
ENDBRANCH  26  28
ENDBRANCH  13  26
ENDBRANCH   7  13
TORSDOF 8
ENDMDL
MODEL       71
REMARK 921   NORMALIZED FREE ENERGY PREDICTED BY IDOCK:   -6.66 KCAL/MOL
REMARK 922        TOTAL FREE ENERGY PREDICTED BY IDOCK:  -11.02 KCAL/MOL
REMARK 923 INTER-LIGAND FREE ENERGY PREDICTED BY IDOCK:   -9.72 KCAL/MOL
REMARK 924 INTRA-LIGAND FREE ENERGY PREDICTED BY IDOCK:   -1.30 KCAL/MOL
REMARK 927      BINDING AFFINITY PREDICTED BY RF-SCORE:    0.00 PKD
ROOT
HETATM    1  C   UNL     1      -9.344   6.887  74.189  1.00  0.00    -0.267 C  
HETATM    2  C   UNL     1      -9.587   7.054  72.696  1.00  0.00    -0.165 C  
HETATM    3  C   UNL     1      -8.274   7.202  71.919  1.00  0.00    -0.104 C  
HETATM    4  C   UNL     1      -8.535   7.414  70.427  1.00  0.00    -0.142 C  
HETATM    5  N   UNL     1      -9.525   8.491  70.149  1.00  0.00    -0.163 N  
HETATM    6  C   UNL     1     -10.782   8.399  70.924  1.00  0.00    -0.222 C  
HETATM    7  C   UNL     1      -9.043   9.660  69.545  1.00  0.00    -0.199 C  
HETATM    8  O   UNL     1      -7.830   9.742  69.308  1.00  0.00    -0.088 OA 
HETATM    9  O   UNL     1     -11.360   6.540  69.498  1.00  0.00    -0.362 OA 
HETATM   10  C   UNL     1     -10.473   8.278  72.420  1.00  0.00    -0.404 C  
HETATM   11  C   UNL     1     -11.760   7.289  70.528  1.00  0.00    -0.228 C  
HETATM   12  O   UNL     1     -12.821   7.083  71.097  1.00  0.00    -0.374 OA 
ENDROOT
BRANCH   7  13
HETATM   13  C   UNL     1      -9.949  10.837  69.034  1.00  0.00    -0.199 C  
BRANCH  13  14
HETATM   14  C   UNL     1     -10.962  10.578  67.887  1.00  0.00    -0.352 C  
BRANCH  14  15
HETATM   15  C   UNL     1     -10.451   9.546  66.860  1.00  0.00    -0.279 C  
BRANCH  15  16
HETATM   16  C   UNL     1      -9.816  10.172  65.610  1.00  0.00    -0.280 C  
BRANCH  16  17
HETATM   17  N   UNL     1     -10.790  11.051  64.990  1.00  0.00    -0.185 NA 
HETATM   18  H2  UNL     1     -12.619  12.324  63.978  1.00  0.00     0.000 HD 
HETATM   19  H1  UNL     1     -11.581  12.942  62.637  1.00  0.00     0.000 HD 
HETATM   20  N   UNL     1      -9.523  11.935  63.189  1.00  0.00    -0.642 NA 
HETATM   21  N   UNL     1     -11.729  12.394  63.485  1.00  0.00    -0.490 NA 
HETATM   22  C   UNL     1     -10.595  11.776  63.868  1.00  0.00    -0.393 C  
HETATM   23  H   UNL     1     -11.702  11.127  65.441  1.00  0.00     0.000 HD 
HETATM   24  H1  UNL     1      -9.375  12.483  62.341  1.00  0.00     0.000 HD 
HETATM   25  H2  UNL     1      -8.702  11.445  63.544  1.00  0.00     0.000 HD 
ENDBRANCH  16  17
ENDBRANCH  15  16
ENDBRANCH  14  15
ENDBRANCH  13  14
BRANCH  13  26
HETATM   26  N   UNL     1      -9.180  12.069  68.706  1.00  0.00    -0.394 N  
HETATM   27  H   UNL     1      -8.160  12.063  68.713  1.00  0.00     0.000 HD 
BRANCH  26  28
HETATM   28  S   UNL     1     -10.038  13.493  68.318  1.00  0.00    -0.248 S  
HETATM   29  O   UNL     1     -11.169  13.591  69.203  1.00  0.00    -0.260 OA 
HETATM   30  O   UNL     1     -10.235  13.436  66.884  1.00  0.00    -0.246 OA 
BRANCH  28  31
HETATM   31  C   UNL     1      -8.856  14.765  68.686  1.00  0.00    -0.180 A  
HETATM   32  C   UNL     1      -8.308  18.541  68.474  1.00  0.00    -0.359 C  
HETATM   33  C   UNL     1      -7.614  14.353  69.194  1.00  0.00    -0.072 A  
HETATM   34  C   UNL     1      -9.765  20.289  67.394  1.00  0.00    -0.584 C  
HETATM   35  C   UNL     1      -6.633  15.293  69.494  1.00  0.00    -0.164 A  
HETATM   36  C   UNL     1      -9.448  18.799  67.485  1.00  0.00    -0.326 C  
HETATM   37  C   UNL     1     -10.656  17.988  67.934  1.00  0.00    -0.372 C  
HETATM   38  H   UNL     1     -11.009  15.892  67.497  1.00  0.00     0.000 HD 
HETATM   39  N   UNL     1     -10.355  16.559  67.909  1.00  0.00    -0.284 NA 
HETATM   40  C   UNL     1      -6.891  16.643  69.289  1.00  0.00    -0.232 A  
HETATM   41  C   UNL     1      -9.142  16.129  68.468  1.00  0.00    -0.208 A  
HETATM   42  C   UNL     1      -8.127  17.068  68.769  1.00  0.00    -0.250 A  
ENDBRANCH  28  31
ENDBRANCH  26  28
ENDBRANCH  13  26
ENDBRANCH   7  13
TORSDOF 8
ENDMDL
MODEL       72
REMARK 921   NORMALIZED FREE ENERGY PREDICTED BY IDOCK:   -6.65 KCAL/MOL
REMARK 922        TOTAL FREE ENERGY PREDICTED BY IDOCK:  -11.01 KCAL/MOL
REMARK 923 INTER-LIGAND FREE ENERGY PREDICTED BY IDOCK:  -10.20 KCAL/MOL
REMARK 924 INTRA-LIGAND FREE ENERGY PREDICTED BY IDOCK:   -0.80 KCAL/MOL
REMARK 927      BINDING AFFINITY PREDICTED BY RF-SCORE:    0.00 PKD
ROOT
HETATM    1  C   UNL     1      -8.005   8.903  63.094  1.00  0.00    -0.155 C  
HETATM    2  C   UNL     1      -8.198   9.878  64.247  1.00  0.00    -0.161 C  
HETATM    3  C   UNL     1      -6.942   9.987  65.117  1.00  0.00    -0.134 C  
HETATM    4  C   UNL     1      -7.165  10.934  66.296  1.00  0.00    -0.126 C  
HETATM    5  N   UNL     1      -8.405  10.637  67.065  1.00  0.00    -0.125 N  
HETATM    6  C   UNL     1      -9.625  10.477  66.243  1.00  0.00    -0.187 C  
HETATM    7  C   UNL     1      -8.247  10.136  68.364  1.00  0.00    -0.112 C  
HETATM    8  O   UNL     1      -7.097   9.944  68.783  1.00  0.00    -0.065 OA 
HETATM    9  O   UNL     1      -9.560  12.869  65.932  1.00  0.00    -0.224 OA 
HETATM   10  C   UNL     1      -9.382   9.453  65.129  1.00  0.00    -0.288 C  
HETATM   11  C   UNL     1     -10.218  11.748  65.627  1.00  0.00    -0.246 C  
HETATM   12  O   UNL     1     -11.205  11.759  64.910  1.00  0.00    -0.309 OA 
ENDROOT
BRANCH   7  13
HETATM   13  C   UNL     1      -9.422   9.910  69.381  1.00  0.00    -0.213 C  
BRANCH  13  14
HETATM   14  C   UNL     1     -10.397   8.722  69.169  1.00  0.00    -0.227 C  
BRANCH  14  15
HETATM   15  C   UNL     1      -9.935   7.435  69.882  1.00  0.00    -0.188 C  
BRANCH  15  16
HETATM   16  C   UNL     1     -10.946   6.280  69.803  1.00  0.00    -0.378 C  
BRANCH  16  17
HETATM   17  N   UNL     1     -12.231   6.762  70.272  1.00  0.00    -0.599 NA 
HETATM   18  H2  UNL     1     -14.352   7.804  70.909  1.00  0.00     0.000 HD 
HETATM   19  H1  UNL     1     -14.171   7.348  72.646  1.00  0.00     0.000 HD 
HETATM   20  N   UNL     1     -12.109   6.208  72.576  1.00  0.00    -0.537 NA 
HETATM   21  N   UNL     1     -13.846   7.366  71.679  1.00  0.00    -0.398 NA 
HETATM   22  C   UNL     1     -12.661   6.737  71.552  1.00  0.00    -0.290 C  
HETATM   23  H   UNL     1     -12.865   7.154  69.575  1.00  0.00     0.000 HD 
HETATM   24  H1  UNL     1     -12.433   6.190  73.544  1.00  0.00     0.000 HD 
HETATM   25  H2  UNL     1     -11.219   5.741  72.403  1.00  0.00     0.000 HD 
ENDBRANCH  16  17
ENDBRANCH  15  16
ENDBRANCH  14  15
ENDBRANCH  13  14
BRANCH  13  26
HETATM   26  N   UNL     1     -10.230  11.137  69.626  1.00  0.00    -0.422 N  
HETATM   27  H   UNL     1      -9.787  12.056  69.640  1.00  0.00     0.000 HD 
BRANCH  26  28
HETATM   28  S   UNL     1     -11.910  10.976  69.880  1.00  0.00    -0.385 S  
HETATM   29  O   UNL     1     -12.122   9.889  70.800  1.00  0.00    -0.291 OA 
HETATM   30  O   UNL     1     -12.491  10.935  68.554  1.00  0.00    -0.375 OA 
BRANCH  28  31
HETATM   31  C   UNL     1     -12.331  12.521  70.645  1.00  0.00    -0.282 A  
HETATM   32  C   UNL     1     -11.690  16.283  70.424  1.00  0.00    -0.108 C  
HETATM   33  C   UNL     1     -13.148  12.467  71.785  1.00  0.00    -0.446 A  
HETATM   34  C   UNL     1     -10.078  17.524  68.938  1.00  0.00    -0.346 C  
HETATM   35  C   UNL     1     -13.510  13.637  72.445  1.00  0.00    -0.685 A  
HETATM   36  C   UNL     1     -10.453  16.168  69.528  1.00  0.00    -0.295 C  
HETATM   37  C   UNL     1     -10.748  15.138  68.446  1.00  0.00    -0.248 C  
HETATM   38  H   UNL     1     -10.558  12.987  68.656  1.00  0.00     0.000 HD 
HETATM   39  N   UNL     1     -10.997  13.826  69.036  1.00  0.00    -0.254 NA 
HETATM   40  C   UNL     1     -13.058  14.862  71.968  1.00  0.00    -0.426 A  
HETATM   41  C   UNL     1     -11.860  13.752  70.141  1.00  0.00    -0.290 A  
HETATM   42  C   UNL     1     -12.229  14.929  70.833  1.00  0.00    -0.389 A  
ENDBRANCH  28  31
ENDBRANCH  26  28
ENDBRANCH  13  26
ENDBRANCH   7  13
TORSDOF 8
ENDMDL
MODEL       73
REMARK 921   NORMALIZED FREE ENERGY PREDICTED BY IDOCK:   -6.65 KCAL/MOL
REMARK 922        TOTAL FREE ENERGY PREDICTED BY IDOCK:  -11.00 KCAL/MOL
REMARK 923 INTER-LIGAND FREE ENERGY PREDICTED BY IDOCK:   -9.31 KCAL/MOL
REMARK 924 INTRA-LIGAND FREE ENERGY PREDICTED BY IDOCK:   -1.69 KCAL/MOL
REMARK 927      BINDING AFFINITY PREDICTED BY RF-SCORE:    0.00 PKD
ROOT
HETATM    1  C   UNL     1      -8.775  11.076  64.550  1.00  0.00     0.060 C  
HETATM    2  C   UNL     1      -8.978  10.788  66.031  1.00  0.00    -0.196 C  
HETATM    3  C   UNL     1     -10.151   9.831  66.271  1.00  0.00    -0.313 C  
HETATM    4  C   UNL     1     -10.370   9.587  67.764  1.00  0.00    -0.239 C  
HETATM    5  N   UNL     1     -10.445  10.843  68.561  1.00  0.00    -0.178 N  
HETATM    6  C   UNL     1      -9.351  11.806  68.312  1.00  0.00    -0.193 C  
HETATM    7  C   UNL     1     -11.689  11.173  69.117  1.00  0.00    -0.338 C  
HETATM    8  O   UNL     1     -12.650  10.426  68.890  1.00  0.00     0.058 OA 
HETATM    9  O   UNL     1      -7.927  10.291  69.536  1.00  0.00    -0.148 OA 
HETATM   10  C   UNL     1      -9.226  12.088  66.811  1.00  0.00    -0.201 C  
HETATM   11  C   UNL     1      -7.969  11.444  68.865  1.00  0.00    -0.085 C  
HETATM   12  O   UNL     1      -6.974  12.135  68.712  1.00  0.00    -0.091 OA 
ENDROOT
BRANCH   7  13
HETATM   13  C   UNL     1     -11.932  12.364  70.111  1.00  0.00    -0.298 C  
BRANCH  13  14
HETATM   14  C   UNL     1     -12.745  12.120  71.410  1.00  0.00    -0.368 C  
BRANCH  14  15
HETATM   15  C   UNL     1     -12.435  10.757  72.062  1.00  0.00     0.052 C  
BRANCH  15  16
HETATM   16  C   UNL     1     -13.567   9.727  71.924  1.00  0.00    -0.335 C  
BRANCH  16  17
HETATM   17  N   UNL     1     -13.080   8.443  72.392  1.00  0.00    -0.560 NA 
HETATM   18  H2  UNL     1     -12.166   6.414  73.411  1.00  0.00     0.000 HD 
HETATM   19  H1  UNL     1     -11.446   5.838  71.859  1.00  0.00     0.000 HD 
HETATM   20  N   UNL     1     -12.100   7.580  70.412  1.00  0.00    -0.510 NA 
HETATM   21  N   UNL     1     -11.973   6.513  72.414  1.00  0.00    -0.216 NA 
HETATM   22  C   UNL     1     -12.382   7.551  71.658  1.00  0.00    -0.333 C  
HETATM   23  H   UNL     1     -13.282   8.193  73.361  1.00  0.00     0.000 HD 
HETATM   24  H1  UNL     1     -11.572   6.906  69.857  1.00  0.00     0.000 HD 
HETATM   25  H2  UNL     1     -12.450   8.390  69.901  1.00  0.00     0.000 HD 
ENDBRANCH  16  17
ENDBRANCH  15  16
ENDBRANCH  14  15
ENDBRANCH  13  14
BRANCH  13  26
HETATM   26  N   UNL     1     -12.472  13.582  69.446  1.00  0.00    -0.160 N  
HETATM   27  H   UNL     1     -13.198  13.506  68.733  1.00  0.00     0.000 HD 
BRANCH  26  28
HETATM   28  S   UNL     1     -11.854  15.107  69.900  1.00  0.00    -0.354 S  
HETATM   29  O   UNL     1     -10.795  14.897  70.852  1.00  0.00    -0.125 OA 
HETATM   30  O   UNL     1     -13.016  15.893  70.261  1.00  0.00    -0.317 OA 
BRANCH  28  31
HETATM   31  C   UNL     1     -11.195  15.724  68.372  1.00  0.00    -0.362 A  
HETATM   32  C   UNL     1     -11.059  14.998  64.622  1.00  0.00    -0.335 C  
HETATM   33  C   UNL     1     -10.364  16.853  68.445  1.00  0.00    -0.338 A  
HETATM   34  C   UNL     1     -11.929  12.991  63.371  1.00  0.00    -0.592 C  
HETATM   35  C   UNL     1      -9.801  17.385  67.290  1.00  0.00    -0.278 A  
HETATM   36  C   UNL     1     -11.536  13.547  64.737  1.00  0.00    -0.365 C  
HETATM   37  C   UNL     1     -12.696  13.507  65.721  1.00  0.00    -0.374 C  
HETATM   38  H   UNL     1     -12.523  13.418  67.882  1.00  0.00     0.000 HD 
HETATM   39  N   UNL     1     -12.264  13.943  67.046  1.00  0.00    -0.405 NA 
HETATM   40  C   UNL     1     -10.068  16.793  66.060  1.00  0.00    -0.350 A  
HETATM   41  C   UNL     1     -11.481  15.105  67.137  1.00  0.00    -0.250 A  
HETATM   42  C   UNL     1     -10.890  15.654  65.975  1.00  0.00    -0.276 A  
ENDBRANCH  28  31
ENDBRANCH  26  28
ENDBRANCH  13  26
ENDBRANCH   7  13
TORSDOF 8
ENDMDL
MODEL       74
REMARK 921   NORMALIZED FREE ENERGY PREDICTED BY IDOCK:   -6.64 KCAL/MOL
REMARK 922        TOTAL FREE ENERGY PREDICTED BY IDOCK:  -11.00 KCAL/MOL
REMARK 923 INTER-LIGAND FREE ENERGY PREDICTED BY IDOCK:  -10.15 KCAL/MOL
REMARK 924 INTRA-LIGAND FREE ENERGY PREDICTED BY IDOCK:   -0.85 KCAL/MOL
REMARK 927      BINDING AFFINITY PREDICTED BY RF-SCORE:    0.00 PKD
ROOT
HETATM    1  C   UNL     1      -7.880   4.700  71.375  1.00  0.00    -0.087 C  
HETATM    2  C   UNL     1      -9.046   5.601  70.996  1.00  0.00    -0.159 C  
HETATM    3  C   UNL     1      -9.841   5.037  69.813  1.00  0.00    -0.286 C  
HETATM    4  C   UNL     1     -10.981   5.975  69.415  1.00  0.00    -0.385 C  
HETATM    5  N   UNL     1     -10.545   7.387  69.228  1.00  0.00    -0.220 N  
HETATM    6  C   UNL     1      -9.733   7.940  70.334  1.00  0.00    -0.179 C  
HETATM    7  C   UNL     1     -10.567   7.895  67.923  1.00  0.00    -0.149 C  
HETATM    8  O   UNL     1     -10.915   7.139  67.005  1.00  0.00    -0.369 OA 
HETATM    9  O   UNL     1     -11.778   8.008  71.614  1.00  0.00    -0.264 OA 
HETATM   10  C   UNL     1      -8.552   7.012  70.639  1.00  0.00    -0.147 C  
HETATM   11  C   UNL     1     -10.467   8.256  71.642  1.00  0.00    -0.238 C  
HETATM   12  O   UNL     1      -9.917   8.693  72.640  1.00  0.00    -0.248 OA 
ENDROOT
BRANCH   7  13
HETATM   13  C   UNL     1     -10.296   9.395  67.546  1.00  0.00    -0.255 C  
BRANCH  13  14
HETATM   14  C   UNL     1     -11.371  10.468  67.863  1.00  0.00    -0.297 C  
BRANCH  14  15
HETATM   15  C   UNL     1     -11.078  11.242  69.165  1.00  0.00    -0.312 C  
BRANCH  15  16
HETATM   16  C   UNL     1     -11.256  12.763  69.041  1.00  0.00    -0.264 C  
BRANCH  16  17
HETATM   17  N   UNL     1     -11.610  13.291  70.345  1.00  0.00    -0.527 NA 
HETATM   18  H2  UNL     1     -12.273  13.919  72.616  1.00  0.00     0.000 HD 
HETATM   19  H1  UNL     1     -13.169  15.384  72.057  1.00  0.00     0.000 HD 
HETATM   20  N   UNL     1     -12.806  15.246  69.732  1.00  0.00    -0.608 NA 
HETATM   21  N   UNL     1     -12.605  14.551  71.887  1.00  0.00    -0.334 NA 
HETATM   22  C   UNL     1     -12.356  14.394  70.572  1.00  0.00    -0.345 C  
HETATM   23  H   UNL     1     -11.265  12.786  71.162  1.00  0.00     0.000 HD 
HETATM   24  H1  UNL     1     -13.370  16.080  69.903  1.00  0.00     0.000 HD 
HETATM   25  H2  UNL     1     -12.570  15.069  68.757  1.00  0.00     0.000 HD 
ENDBRANCH  16  17
ENDBRANCH  15  16
ENDBRANCH  14  15
ENDBRANCH  13  14
BRANCH  13  26
HETATM   26  N   UNL     1      -9.861   9.575  66.133  1.00  0.00    -0.256 N  
HETATM   27  H   UNL     1     -10.122   8.896  65.418  1.00  0.00     0.000 HD 
BRANCH  26  28
HETATM   28  S   UNL     1      -8.917  10.941  65.733  1.00  0.00    -0.195 S  
HETATM   29  O   UNL     1      -7.927  10.534  64.770  1.00  0.00    -0.135 OA 
HETATM   30  O   UNL     1      -8.513  11.506  67.004  1.00  0.00    -0.151 OA 
BRANCH  28  31
HETATM   31  C   UNL     1     -10.105  12.019  64.976  1.00  0.00    -0.264 A  
HETATM   32  C   UNL     1     -11.221  15.672  64.836  1.00  0.00    -0.376 C  
HETATM   33  C   UNL     1     -11.071  11.425  64.148  1.00  0.00    -0.382 A  
HETATM   34  C   UNL     1     -10.410  17.623  66.209  1.00  0.00    -0.342 C  
HETATM   35  C   UNL     1     -12.042  12.206  63.531  1.00  0.00    -0.649 A  
HETATM   36  C   UNL     1     -10.472  16.102  66.101  1.00  0.00    -0.334 C  
HETATM   37  C   UNL     1      -9.083  15.479  66.062  1.00  0.00    -0.281 C  
HETATM   38  H   UNL     1      -8.582  13.461  66.684  1.00  0.00     0.000 HD 
HETATM   39  N   UNL     1      -9.172  14.021  66.068  1.00  0.00    -0.041 NA 
HETATM   40  C   UNL     1     -12.051  13.580  63.737  1.00  0.00    -0.482 A  
HETATM   41  C   UNL     1     -10.093  13.412  65.201  1.00  0.00    -0.246 A  
HETATM   42  C   UNL     1     -11.096  14.187  64.573  1.00  0.00    -0.340 A  
ENDBRANCH  28  31
ENDBRANCH  26  28
ENDBRANCH  13  26
ENDBRANCH   7  13
TORSDOF 8
ENDMDL
MODEL       75
REMARK 921   NORMALIZED FREE ENERGY PREDICTED BY IDOCK:   -6.64 KCAL/MOL
REMARK 922        TOTAL FREE ENERGY PREDICTED BY IDOCK:  -10.99 KCAL/MOL
REMARK 923 INTER-LIGAND FREE ENERGY PREDICTED BY IDOCK:   -9.06 KCAL/MOL
REMARK 924 INTRA-LIGAND FREE ENERGY PREDICTED BY IDOCK:   -1.93 KCAL/MOL
REMARK 927      BINDING AFFINITY PREDICTED BY RF-SCORE:    0.00 PKD
ROOT
HETATM    1  C   UNL     1     -12.198  12.888  63.388  1.00  0.00    -0.574 C  
HETATM    2  C   UNL     1     -11.121  12.510  64.395  1.00  0.00    -0.383 C  
HETATM    3  C   UNL     1     -10.207  11.401  63.863  1.00  0.00    -0.415 C  
HETATM    4  C   UNL     1      -9.160  11.001  64.902  1.00  0.00    -0.147 C  
HETATM    5  N   UNL     1      -9.740  10.711  66.242  1.00  0.00    -0.192 N  
HETATM    6  C   UNL     1     -10.666  11.743  66.758  1.00  0.00    -0.253 C  
HETATM    7  C   UNL     1      -9.706   9.380  66.679  1.00  0.00    -0.219 C  
HETATM    8  O   UNL     1      -9.228   8.525  65.920  1.00  0.00    -0.203 OA 
HETATM    9  O   UNL     1      -8.712  13.110  67.128  1.00  0.00    -0.205 OA 
HETATM   10  C   UNL     1     -11.750  12.048  65.718  1.00  0.00    -0.313 C  
HETATM   11  C   UNL     1     -10.042  13.062  67.225  1.00  0.00    -0.235 C  
HETATM   12  O   UNL     1     -10.689  14.007  67.649  1.00  0.00    -0.253 OA 
ENDROOT
BRANCH   7  13
HETATM   13  C   UNL     1     -10.123   8.903  68.116  1.00  0.00    -0.189 C  
BRANCH  13  14
HETATM   14  C   UNL     1      -9.812   9.804  69.340  1.00  0.00    -0.217 C  
BRANCH  14  15
HETATM   15  C   UNL     1     -11.065  10.127  70.179  1.00  0.00    -0.378 C  
BRANCH  15  16
HETATM   16  C   UNL     1     -11.192   9.289  71.460  1.00  0.00    -0.386 C  
BRANCH  16  17
HETATM   17  N   UNL     1     -12.299   8.365  71.297  1.00  0.00    -0.381 NA 
HETATM   18  H2  UNL     1     -14.121   6.826  70.744  1.00  0.00     0.000 HD 
HETATM   19  H1  UNL     1     -15.251   7.578  71.935  1.00  0.00     0.000 HD 
HETATM   20  N   UNL     1     -13.868   9.262  72.833  1.00  0.00    -0.941 NA 
HETATM   21  N   UNL     1     -14.347   7.513  71.464  1.00  0.00    -0.464 NA 
HETATM   22  C   UNL     1     -13.494   8.451  71.919  1.00  0.00    -0.363 C  
HETATM   23  H   UNL     1     -12.162   7.582  70.656  1.00  0.00     0.000 HD 
HETATM   24  H1  UNL     1     -14.772   9.327  73.304  1.00  0.00     0.000 HD 
HETATM   25  H2  UNL     1     -13.167   9.938  73.135  1.00  0.00     0.000 HD 
ENDBRANCH  16  17
ENDBRANCH  15  16
ENDBRANCH  14  15
ENDBRANCH  13  14
BRANCH  13  26
HETATM   26  N   UNL     1      -9.668   7.520  68.429  1.00  0.00    -0.153 N  
HETATM   27  H   UNL     1      -8.705   7.341  68.716  1.00  0.00     0.000 HD 
BRANCH  26  28
HETATM   28  S   UNL     1     -10.788   6.238  68.300  1.00  0.00    -0.316 S  
HETATM   29  O   UNL     1     -10.982   5.951  66.903  1.00  0.00    -0.299 OA 
HETATM   30  O   UNL     1     -11.910   6.632  69.128  1.00  0.00    -0.022 OA 
BRANCH  28  31
HETATM   31  C   UNL     1      -9.933   4.900  69.091  1.00  0.00    -0.182 A  
HETATM   32  C   UNL     1      -8.282   3.888  72.387  1.00  0.00    -0.093 C  
HETATM   33  C   UNL     1      -9.657   3.768  68.308  1.00  0.00    -0.171 A  
HETATM   34  C   UNL     1      -7.867   5.290  74.439  1.00  0.00    -0.095 C  
HETATM   35  C   UNL     1      -8.979   2.685  68.857  1.00  0.00    -0.175 A  
HETATM   36  C   UNL     1      -8.194   5.311  72.948  1.00  0.00    -0.109 C  
HETATM   37  C   UNL     1      -9.515   6.013  72.666  1.00  0.00    -0.146 C  
HETATM   38  H   UNL     1     -10.061   6.988  70.806  1.00  0.00     0.000 HD 
HETATM   39  N   UNL     1      -9.749   6.113  71.228  1.00  0.00    -0.174 NA 
HETATM   40  C   UNL     1      -8.575   2.729  70.186  1.00  0.00    -0.111 A  
HETATM   41  C   UNL     1      -9.534   4.969  70.442  1.00  0.00    -0.169 A  
HETATM   42  C   UNL     1      -8.835   3.862  70.978  1.00  0.00    -0.134 A  
ENDBRANCH  28  31
ENDBRANCH  26  28
ENDBRANCH  13  26
ENDBRANCH   7  13
TORSDOF 8
ENDMDL
MODEL       76
REMARK 921   NORMALIZED FREE ENERGY PREDICTED BY IDOCK:   -6.61 KCAL/MOL
REMARK 922        TOTAL FREE ENERGY PREDICTED BY IDOCK:  -10.96 KCAL/MOL
REMARK 923 INTER-LIGAND FREE ENERGY PREDICTED BY IDOCK:  -10.15 KCAL/MOL
REMARK 924 INTRA-LIGAND FREE ENERGY PREDICTED BY IDOCK:   -0.81 KCAL/MOL
REMARK 927      BINDING AFFINITY PREDICTED BY RF-SCORE:    0.00 PKD
ROOT
HETATM    1  C   UNL     1     -11.916  16.783  73.917  1.00  0.00    -0.211 C  
HETATM    2  C   UNL     1     -12.273  16.175  72.568  1.00  0.00    -0.609 C  
HETATM    3  C   UNL     1     -13.368  15.110  72.695  1.00  0.00    -0.564 C  
HETATM    4  C   UNL     1     -13.684  14.476  71.341  1.00  0.00    -0.377 C  
HETATM    5  N   UNL     1     -12.473  14.010  70.611  1.00  0.00    -0.347 N  
HETATM    6  C   UNL     1     -11.380  15.003  70.517  1.00  0.00    -0.276 C  
HETATM    7  C   UNL     1     -12.309  12.626  70.465  1.00  0.00    -0.268 C  
HETATM    8  O   UNL     1     -13.156  11.878  70.972  1.00  0.00    -0.163 OA 
HETATM    9  O   UNL     1     -12.758  16.158  68.907  1.00  0.00     0.528 OA 
HETATM   10  C   UNL     1     -11.037  15.545  71.909  1.00  0.00    -0.205 C  
HETATM   11  C   UNL     1     -11.596  16.183  69.564  1.00  0.00    -0.254 C  
HETATM   12  O   UNL     1     -10.789  17.086  69.408  1.00  0.00    -0.275 OA 
ENDROOT
BRANCH   7  13
HETATM   13  C   UNL     1     -11.187  11.948  69.599  1.00  0.00    -0.112 C  
BRANCH  13  14
HETATM   14  C   UNL     1     -10.584  12.717  68.394  1.00  0.00    -0.262 C  
BRANCH  14  15
HETATM   15  C   UNL     1     -11.649  13.136  67.359  1.00  0.00    -0.403 C  
BRANCH  15  16
HETATM   16  C   UNL     1     -11.162  13.075  65.903  1.00  0.00    -0.289 C  
BRANCH  16  17
HETATM   17  N   UNL     1     -11.250  14.406  65.333  1.00  0.00    -0.323 NA 
HETATM   18  H2  UNL     1     -11.452  16.743  64.633  1.00  0.00     0.000 HD 
HETATM   19  H1  UNL     1     -12.438  16.327  63.179  1.00  0.00     0.000 HD 
HETATM   20  N   UNL     1     -12.541  13.982  63.388  1.00  0.00    -1.030 NA 
HETATM   21  N   UNL     1     -11.920  16.074  64.021  1.00  0.00    -0.797 NA 
HETATM   22  C   UNL     1     -11.935  14.742  64.219  1.00  0.00    -0.368 C  
HETATM   23  H   UNL     1     -10.752  15.154  65.816  1.00  0.00     0.000 HD 
HETATM   24  H1  UNL     1     -13.059  14.235  62.546  1.00  0.00     0.000 HD 
HETATM   25  H2  UNL     1     -12.503  12.984  63.596  1.00  0.00     0.000 HD 
ENDBRANCH  16  17
ENDBRANCH  15  16
ENDBRANCH  14  15
ENDBRANCH  13  14
BRANCH  13  26
HETATM   26  N   UNL     1     -11.547  10.577  69.144  1.00  0.00    -0.423 N  
HETATM   27  H   UNL     1     -12.499  10.360  68.847  1.00  0.00     0.000 HD 
BRANCH  26  28
HETATM   28  S   UNL     1     -10.336   9.374  69.126  1.00  0.00    -0.216 S  
HETATM   29  O   UNL     1      -9.107   9.969  69.583  1.00  0.00    -0.206 OA 
HETATM   30  O   UNL     1     -10.414   8.778  67.808  1.00  0.00    -0.235 OA 
BRANCH  28  31
HETATM   31  C   UNL     1     -10.936   8.208  70.321  1.00  0.00    -0.240 A  
HETATM   32  C   UNL     1     -10.474   4.617  71.545  1.00  0.00    -0.102 C  
HETATM   33  C   UNL     1     -12.004   8.620  71.134  1.00  0.00    -0.320 A  
HETATM   34  C   UNL     1      -9.036   2.791  70.571  1.00  0.00    -0.190 C  
HETATM   35  C   UNL     1     -12.536   7.755  72.085  1.00  0.00    -0.277 A  
HETATM   36  C   UNL     1      -9.699   4.141  70.312  1.00  0.00    -0.277 C  
HETATM   37  C   UNL     1      -8.680   5.214  69.952  1.00  0.00    -0.103 C  
HETATM   38  H   UNL     1      -9.075   6.995  68.778  1.00  0.00     0.000 HD 
HETATM   39  N   UNL     1      -9.349   6.465  69.606  1.00  0.00    -0.145 NA 
HETATM   40  C   UNL     1     -12.003   6.479  72.226  1.00  0.00    -0.272 A  
HETATM   41  C   UNL     1     -10.379   6.918  70.445  1.00  0.00    -0.202 A  
HETATM   42  C   UNL     1     -10.941   6.050  71.410  1.00  0.00    -0.336 A  
ENDBRANCH  28  31
ENDBRANCH  26  28
ENDBRANCH  13  26
ENDBRANCH   7  13
TORSDOF 8
ENDMDL
MODEL       77
REMARK 921   NORMALIZED FREE ENERGY PREDICTED BY IDOCK:   -6.61 KCAL/MOL
REMARK 922        TOTAL FREE ENERGY PREDICTED BY IDOCK:  -10.96 KCAL/MOL
REMARK 923 INTER-LIGAND FREE ENERGY PREDICTED BY IDOCK:   -8.48 KCAL/MOL
REMARK 924 INTRA-LIGAND FREE ENERGY PREDICTED BY IDOCK:   -2.47 KCAL/MOL
REMARK 927      BINDING AFFINITY PREDICTED BY RF-SCORE:    0.00 PKD
ROOT
HETATM    1  C   UNL     1     -13.793   7.377  71.794  1.00  0.00    -0.438 C  
HETATM    2  C   UNL     1     -12.276   7.282  71.725  1.00  0.00    -0.368 C  
HETATM    3  C   UNL     1     -11.605   8.619  72.059  1.00  0.00    -0.440 C  
HETATM    4  C   UNL     1     -10.084   8.520  71.941  1.00  0.00    -0.297 C  
HETATM    5  N   UNL     1      -9.630   7.923  70.655  1.00  0.00    -0.166 N  
HETATM    6  C   UNL     1     -10.298   6.656  70.285  1.00  0.00    -0.202 C  
HETATM    7  C   UNL     1      -8.972   8.771  69.754  1.00  0.00    -0.146 C  
HETATM    8  O   UNL     1      -8.835   9.963  70.064  1.00  0.00    -0.207 OA 
HETATM    9  O   UNL     1      -8.992   5.620  72.030  1.00  0.00    -0.137 OA 
HETATM   10  C   UNL     1     -11.820   6.828  70.330  1.00  0.00    -0.395 C  
HETATM   11  C   UNL     1      -9.915   5.410  71.089  1.00  0.00    -0.196 C  
HETATM   12  O   UNL     1     -10.405   4.307  70.907  1.00  0.00    -0.072 OA 
ENDROOT
BRANCH   7  13
HETATM   13  C   UNL     1      -8.285   8.297  68.424  1.00  0.00    -0.132 C  
BRANCH  13  14
HETATM   14  C   UNL     1      -6.808   7.822  68.454  1.00  0.00    -0.067 C  
BRANCH  14  15
HETATM   15  C   UNL     1      -6.598   6.476  67.730  1.00  0.00    -0.061 C  
BRANCH  15  16
HETATM   16  C   UNL     1      -7.878   5.639  67.585  1.00  0.00    -0.097 C  
BRANCH  16  17
HETATM   17  N   UNL     1      -7.976   5.186  66.209  1.00  0.00    -0.103 NA 
HETATM   18  H2  UNL     1      -7.941   4.609  63.831  1.00  0.00     0.000 HD 
HETATM   19  H1  UNL     1      -9.742   4.547  63.716  1.00  0.00     0.000 HD 
HETATM   20  N   UNL     1     -10.331   5.064  65.939  1.00  0.00    -0.416 NA 
HETATM   21  N   UNL     1      -8.874   4.689  64.235  1.00  0.00    -0.148 NA 
HETATM   22  C   UNL     1      -9.124   4.997  65.523  1.00  0.00    -0.158 C  
HETATM   23  H   UNL     1      -7.102   4.993  65.719  1.00  0.00     0.000 HD 
HETATM   24  H1  UNL     1     -11.198   4.922  65.420  1.00  0.00     0.000 HD 
HETATM   25  H2  UNL     1     -10.443   5.292  66.927  1.00  0.00     0.000 HD 
ENDBRANCH  16  17
ENDBRANCH  15  16
ENDBRANCH  14  15
ENDBRANCH  13  14
BRANCH  13  26
HETATM   26  N   UNL     1      -8.437   9.270  67.307  1.00  0.00    -0.124 N  
HETATM   27  H   UNL     1      -7.951  10.167  67.329  1.00  0.00     0.000 HD 
BRANCH  26  28
HETATM   28  S   UNL     1      -9.440   8.856  65.988  1.00  0.00    -0.237 S  
HETATM   29  O   UNL     1     -10.569   8.123  66.498  1.00  0.00    -0.190 OA 
HETATM   30  O   UNL     1      -8.553   8.251  65.016  1.00  0.00    -0.154 OA 
BRANCH  28  31
HETATM   31  C   UNL     1      -9.956  10.443  65.387  1.00  0.00    -0.295 A  
HETATM   32  C   UNL     1     -11.419  13.785  66.528  1.00  0.00    -0.364 C  
HETATM   33  C   UNL     1      -9.905  10.647  63.999  1.00  0.00    -0.399 A  
HETATM   34  C   UNL     1     -12.254  14.444  68.813  1.00  0.00    -0.200 C  
HETATM   35  C   UNL     1     -10.306  11.862  63.453  1.00  0.00    -0.481 A  
HETATM   36  C   UNL     1     -11.887  13.280  67.897  1.00  0.00    -0.388 C  
HETATM   37  C   UNL     1     -10.778  12.420  68.487  1.00  0.00    -0.238 C  
HETATM   38  H   UNL     1     -10.429  10.324  68.047  1.00  0.00     0.000 HD 
HETATM   39  N   UNL     1     -10.523  11.256  67.643  1.00  0.00    -0.186 NA 
HETATM   40  C   UNL     1     -10.757  12.875  64.291  1.00  0.00    -0.430 A  
HETATM   41  C   UNL     1     -10.411  11.456  66.258  1.00  0.00    -0.243 A  
HETATM   42  C   UNL     1     -10.824  12.680  65.682  1.00  0.00    -0.305 A  
ENDBRANCH  28  31
ENDBRANCH  26  28
ENDBRANCH  13  26
ENDBRANCH   7  13
TORSDOF 8
ENDMDL
MODEL       78
REMARK 921   NORMALIZED FREE ENERGY PREDICTED BY IDOCK:   -6.61 KCAL/MOL
REMARK 922        TOTAL FREE ENERGY PREDICTED BY IDOCK:  -10.95 KCAL/MOL
REMARK 923 INTER-LIGAND FREE ENERGY PREDICTED BY IDOCK:   -8.85 KCAL/MOL
REMARK 924 INTRA-LIGAND FREE ENERGY PREDICTED BY IDOCK:   -2.10 KCAL/MOL
REMARK 927      BINDING AFFINITY PREDICTED BY RF-SCORE:    0.00 PKD
ROOT
HETATM    1  C   UNL     1     -10.359  19.979  68.317  1.00  0.00    -0.494 C  
HETATM    2  C   UNL     1     -10.004  18.538  68.655  1.00  0.00    -0.419 C  
HETATM    3  C   UNL     1      -8.515  18.252  68.436  1.00  0.00    -0.319 C  
HETATM    4  C   UNL     1      -8.182  16.790  68.736  1.00  0.00    -0.250 C  
HETATM    5  N   UNL     1      -9.088  15.827  68.051  1.00  0.00    -0.186 N  
HETATM    6  C   UNL     1     -10.532  16.109  68.205  1.00  0.00    -0.276 C  
HETATM    7  C   UNL     1      -8.533  15.044  67.030  1.00  0.00    -0.229 C  
HETATM    8  O   UNL     1      -7.341  15.218  66.739  1.00  0.00    -0.098 OA 
HETATM    9  O   UNL     1     -10.295  15.342  70.481  1.00  0.00    -0.199 OA 
HETATM   10  C   UNL     1     -10.832  17.559  67.809  1.00  0.00    -0.251 C  
HETATM   11  C   UNL     1     -11.149  15.833  69.580  1.00  0.00    -0.307 C  
HETATM   12  O   UNL     1     -12.320  16.044  69.853  1.00  0.00    -0.215 OA 
ENDROOT
BRANCH   7  13
HETATM   13  C   UNL     1      -9.280  13.870  66.301  1.00  0.00    -0.088 C  
BRANCH  13  14
HETATM   14  C   UNL     1     -10.591  14.165  65.525  1.00  0.00    -0.335 C  
BRANCH  14  15
HETATM   15  C   UNL     1     -11.725  13.179  65.872  1.00  0.00    -0.427 C  
BRANCH  15  16
HETATM   16  C   UNL     1     -12.099  12.228  64.725  1.00  0.00    -0.365 C  
BRANCH  16  17
HETATM   17  N   UNL     1     -11.146  11.133  64.708  1.00  0.00    -0.147 NA 
HETATM   18  H2  UNL     1      -9.529   9.313  64.958  1.00  0.00     0.000 HD 
HETATM   19  H1  UNL     1      -8.529   9.874  63.564  1.00  0.00     0.000 HD 
HETATM   20  N   UNL     1      -9.760  11.768  62.889  1.00  0.00    -0.554 NA 
HETATM   21  N   UNL     1      -9.330   9.956  64.192  1.00  0.00    -0.269 NA 
HETATM   22  C   UNL     1     -10.087  11.025  63.877  1.00  0.00    -0.356 C  
HETATM   23  H   UNL     1     -11.288  10.381  65.382  1.00  0.00     0.000 HD 
HETATM   24  H1  UNL     1      -8.960  11.686  62.261  1.00  0.00     0.000 HD 
HETATM   25  H2  UNL     1     -10.386  12.551  62.703  1.00  0.00     0.000 HD 
ENDBRANCH  16  17
ENDBRANCH  15  16
ENDBRANCH  14  15
ENDBRANCH  13  14
BRANCH  13  26
HETATM   26  N   UNL     1      -9.513  12.690  67.178  1.00  0.00    -0.207 N  
HETATM   27  H   UNL     1     -10.455  12.454  67.492  1.00  0.00     0.000 HD 
BRANCH  26  28
HETATM   28  S   UNL     1      -8.176  11.738  67.647  1.00  0.00    -0.154 S  
HETATM   29  O   UNL     1      -7.517  12.400  68.742  1.00  0.00    -0.110 OA 
HETATM   30  O   UNL     1      -7.458  11.465  66.419  1.00  0.00    -0.110 OA 
BRANCH  28  31
HETATM   31  C   UNL     1      -8.948  10.242  68.206  1.00  0.00    -0.132 A  
HETATM   32  C   UNL     1     -11.763   8.939  70.440  1.00  0.00    -0.055 C  
HETATM   33  C   UNL     1      -8.374   9.032  67.785  1.00  0.00    -0.117 A  
HETATM   34  C   UNL     1     -13.268  10.229  71.996  1.00  0.00    -0.516 C  
HETATM   35  C   UNL     1      -8.917   7.818  68.195  1.00  0.00    -0.127 A  
HETATM   36  C   UNL     1     -11.965  10.253  71.202  1.00  0.00    -0.472 C  
HETATM   37  C   UNL     1     -11.935  11.393  70.192  1.00  0.00    -0.377 C  
HETATM   38  H   UNL     1     -10.150  12.345  69.408  1.00  0.00     0.000 HD 
HETATM   39  N   UNL     1     -10.638  11.457  69.525  1.00  0.00    -0.063 NA 
HETATM   40  C   UNL     1     -10.034   7.810  69.022  1.00  0.00    -0.182 A  
HETATM   41  C   UNL     1     -10.081  10.260  69.047  1.00  0.00    -0.213 A  
HETATM   42  C   UNL     1     -10.612   9.016  69.460  1.00  0.00    -0.231 A  
ENDBRANCH  28  31
ENDBRANCH  26  28
ENDBRANCH  13  26
ENDBRANCH   7  13
TORSDOF 8
ENDMDL
MODEL       79
REMARK 921   NORMALIZED FREE ENERGY PREDICTED BY IDOCK:   -6.61 KCAL/MOL
REMARK 922        TOTAL FREE ENERGY PREDICTED BY IDOCK:  -10.95 KCAL/MOL
REMARK 923 INTER-LIGAND FREE ENERGY PREDICTED BY IDOCK:   -9.55 KCAL/MOL
REMARK 924 INTRA-LIGAND FREE ENERGY PREDICTED BY IDOCK:   -1.40 KCAL/MOL
REMARK 927      BINDING AFFINITY PREDICTED BY RF-SCORE:    0.00 PKD
ROOT
HETATM    1  C   UNL     1      -9.513  17.193  69.046  1.00  0.00    -0.162 C  
HETATM    2  C   UNL     1     -10.416  16.070  68.555  1.00  0.00    -0.258 C  
HETATM    3  C   UNL     1     -11.384  15.600  69.646  1.00  0.00    -0.331 C  
HETATM    4  C   UNL     1     -12.253  14.442  69.153  1.00  0.00    -0.220 C  
HETATM    5  N   UNL     1     -11.469  13.341  68.528  1.00  0.00    -0.288 N  
HETATM    6  C   UNL     1     -10.491  13.774  67.506  1.00  0.00    -0.245 C  
HETATM    7  C   UNL     1     -11.415  12.124  69.219  1.00  0.00    -0.302 C  
HETATM    8  O   UNL     1     -11.991  12.043  70.313  1.00  0.00    -0.344 OA 
HETATM    9  O   UNL     1     -12.385  14.181  66.067  1.00  0.00    -0.444 OA 
HETATM   10  C   UNL     1      -9.584  14.872  68.073  1.00  0.00    -0.207 C  
HETATM   11  C   UNL     1     -11.055  14.243  66.161  1.00  0.00    -0.324 C  
HETATM   12  O   UNL     1     -10.365  14.648  65.240  1.00  0.00    -0.349 OA 
ENDROOT
BRANCH   7  13
HETATM   13  C   UNL     1     -10.775  10.806  68.653  1.00  0.00    -0.208 C  
BRANCH  13  14
HETATM   14  C   UNL     1     -10.836  10.520  67.129  1.00  0.00    -0.319 C  
BRANCH  14  15
HETATM   15  C   UNL     1      -9.444  10.513  66.466  1.00  0.00    -0.200 C  
BRANCH  15  16
HETATM   16  C   UNL     1      -9.483  10.571  64.931  1.00  0.00    -0.252 C  
BRANCH  16  17
HETATM   17  N   UNL     1     -10.838  10.885  64.518  1.00  0.00    -0.232 NA 
HETATM   18  H2  UNL     1     -13.166  11.137  63.806  1.00  0.00     0.000 HD 
HETATM   19  H1  UNL     1     -12.772  12.462  62.644  1.00  0.00     0.000 HD 
HETATM   20  N   UNL     1     -10.445  12.639  62.970  1.00  0.00    -0.413 NA 
HETATM   21  N   UNL     1     -12.510  11.770  63.347  1.00  0.00    -0.496 NA 
HETATM   22  C   UNL     1     -11.185  11.801  63.589  1.00  0.00    -0.435 C  
HETATM   23  H   UNL     1     -11.594  10.368  64.969  1.00  0.00     0.000 HD 
HETATM   24  H1  UNL     1     -10.707  13.332  62.268  1.00  0.00     0.000 HD 
HETATM   25  H2  UNL     1      -9.454  12.613  63.212  1.00  0.00     0.000 HD 
ENDBRANCH  16  17
ENDBRANCH  15  16
ENDBRANCH  14  15
ENDBRANCH  13  14
BRANCH  13  26
HETATM   26  N   UNL     1     -11.221   9.581  69.374  1.00  0.00    -0.431 N  
HETATM   27  H   UNL     1     -12.020   9.043  69.039  1.00  0.00     0.000 HD 
BRANCH  26  28
HETATM   28  S   UNL     1     -10.369   9.096  70.772  1.00  0.00    -0.283 S  
HETATM   29  O   UNL     1     -11.167   9.432  71.922  1.00  0.00    -0.354 OA 
HETATM   30  O   UNL     1      -9.040   9.650  70.616  1.00  0.00    -0.220 OA 
BRANCH  28  31
HETATM   31  C   UNL     1     -10.284   7.334  70.576  1.00  0.00    -0.196 A  
HETATM   32  C   UNL     1     -10.026   4.592  67.926  1.00  0.00    -0.116 C  
HETATM   33  C   UNL     1     -10.392   6.557  71.740  1.00  0.00    -0.229 A  
HETATM   34  C   UNL     1     -10.112   4.809  65.417  1.00  0.00    -0.107 C  
HETATM   35  C   UNL     1     -10.346   5.169  71.662  1.00  0.00    -0.274 A  
HETATM   36  C   UNL     1     -10.418   5.489  66.748  1.00  0.00    -0.355 C  
HETATM   37  C   UNL     1      -9.676   6.811  66.895  1.00  0.00    -0.168 C  
HETATM   38  H   UNL     1     -10.299   8.484  68.128  1.00  0.00     0.000 HD 
HETATM   39  N   UNL     1     -10.070   7.490  68.126  1.00  0.00    -0.176 NA 
HETATM   40  C   UNL     1     -10.191   4.555  70.425  1.00  0.00    -0.145 A  
HETATM   41  C   UNL     1     -10.125   6.735  69.309  1.00  0.00    -0.168 A  
HETATM   42  C   UNL     1     -10.092   5.322  69.250  1.00  0.00    -0.300 A  
ENDBRANCH  28  31
ENDBRANCH  26  28
ENDBRANCH  13  26
ENDBRANCH   7  13
TORSDOF 8
ENDMDL
MODEL       80
REMARK 921   NORMALIZED FREE ENERGY PREDICTED BY IDOCK:   -6.58 KCAL/MOL
REMARK 922        TOTAL FREE ENERGY PREDICTED BY IDOCK:  -10.90 KCAL/MOL
REMARK 923 INTER-LIGAND FREE ENERGY PREDICTED BY IDOCK:   -9.00 KCAL/MOL
REMARK 924 INTRA-LIGAND FREE ENERGY PREDICTED BY IDOCK:   -1.91 KCAL/MOL
REMARK 927      BINDING AFFINITY PREDICTED BY RF-SCORE:    0.00 PKD
ROOT
HETATM    1  C   UNL     1      -5.625   7.984  66.820  1.00  0.00    -0.033 C  
HETATM    2  C   UNL     1      -6.358   8.990  67.695  1.00  0.00    -0.056 C  
HETATM    3  C   UNL     1      -5.931   8.887  69.163  1.00  0.00    -0.042 C  
HETATM    4  C   UNL     1      -6.708   9.871  70.037  1.00  0.00    -0.100 C  
HETATM    5  N   UNL     1      -8.182   9.804  69.833  1.00  0.00    -0.169 N  
HETATM    6  C   UNL     1      -8.619   9.851  68.420  1.00  0.00    -0.116 C  
HETATM    7  C   UNL     1      -8.950   9.298  70.890  1.00  0.00    -0.209 C  
HETATM    8  O   UNL     1      -8.363   8.911  71.910  1.00  0.00    -0.349 OA 
HETATM    9  O   UNL     1      -8.031  12.191  68.463  1.00  0.00    -0.144 OA 
HETATM   10  C   UNL     1      -7.878   8.788  67.601  1.00  0.00    -0.102 C  
HETATM   11  C   UNL     1      -8.502  11.200  67.704  1.00  0.00    -0.122 C  
HETATM   12  O   UNL     1      -8.803  11.376  66.534  1.00  0.00    -0.176 OA 
ENDROOT
BRANCH   7  13
HETATM   13  C   UNL     1     -10.520   9.292  70.927  1.00  0.00    -0.302 C  
BRANCH  13  14
HETATM   14  C   UNL     1     -11.300   8.244  70.090  1.00  0.00    -0.060 C  
BRANCH  14  15
HETATM   15  C   UNL     1     -11.736   7.020  70.922  1.00  0.00    -0.387 C  
BRANCH  15  16
HETATM   16  C   UNL     1     -11.758   7.270  72.437  1.00  0.00    -0.239 C  
BRANCH  16  17
HETATM   17  N   UNL     1     -11.077   6.170  73.094  1.00  0.00    -0.417 NA 
HETATM   18  H2  UNL     1     -10.182   4.211  74.257  1.00  0.00     0.000 HD 
HETATM   19  H1  UNL     1      -8.955   5.180  75.157  1.00  0.00     0.000 HD 
HETATM   20  N   UNL     1      -9.416   7.336  74.325  1.00  0.00    -0.419 NA 
HETATM   21  N   UNL     1      -9.725   5.091  74.494  1.00  0.00    -0.152 NA 
HETATM   22  C   UNL     1     -10.058   6.288  73.972  1.00  0.00    -0.289 C  
HETATM   23  H   UNL     1     -11.395   5.226  72.874  1.00  0.00     0.000 HD 
HETATM   24  H1  UNL     1      -8.646   7.426  74.988  1.00  0.00     0.000 HD 
HETATM   25  H2  UNL     1      -9.716   8.204  73.881  1.00  0.00     0.000 HD 
ENDBRANCH  16  17
ENDBRANCH  15  16
ENDBRANCH  14  15
ENDBRANCH  13  14
BRANCH  13  26
HETATM   26  N   UNL     1     -11.117  10.632  70.667  1.00  0.00    -0.405 N  
HETATM   27  H   UNL     1     -10.566  11.371  70.231  1.00  0.00     0.000 HD 
BRANCH  26  28
HETATM   28  S   UNL     1     -12.742  10.906  71.113  1.00  0.00    -0.431 S  
HETATM   29  O   UNL     1     -12.971  10.273  72.385  1.00  0.00    -0.295 OA 
HETATM   30  O   UNL     1     -13.521  10.522  69.954  1.00  0.00     0.142 OA 
BRANCH  28  31
HETATM   31  C   UNL     1     -12.800  12.671  71.284  1.00  0.00    -0.250 A  
HETATM   32  C   UNL     1     -11.602  15.912  69.650  1.00  0.00    -0.339 C  
HETATM   33  C   UNL     1     -13.447  13.181  72.421  1.00  0.00    -0.643 A  
HETATM   34  C   UNL     1     -10.037  16.211  67.698  1.00  0.00    -0.248 C  
HETATM   35  C   UNL     1     -13.520  14.554  72.629  1.00  0.00    -0.590 A  
HETATM   36  C   UNL     1     -10.537  15.248  68.772  1.00  0.00    -0.240 C  
HETATM   37  C   UNL     1     -11.142  13.988  68.168  1.00  0.00    -0.260 C  
HETATM   38  H   UNL     1     -11.271  12.053  69.140  1.00  0.00     0.000 HD 
HETATM   39  N   UNL     1     -11.513  13.041  69.216  1.00  0.00    -0.288 NA 
HETATM   40  C   UNL     1     -12.950  15.420  71.703  1.00  0.00    -0.513 A  
HETATM   41  C   UNL     1     -12.213  13.529  70.331  1.00  0.00    -0.356 A  
HETATM   42  C   UNL     1     -12.289  14.922  70.566  1.00  0.00    -0.400 A  
ENDBRANCH  28  31
ENDBRANCH  26  28
ENDBRANCH  13  26
ENDBRANCH   7  13
TORSDOF 8
ENDMDL
MODEL       81
REMARK 921   NORMALIZED FREE ENERGY PREDICTED BY IDOCK:   -6.55 KCAL/MOL
REMARK 922        TOTAL FREE ENERGY PREDICTED BY IDOCK:  -10.86 KCAL/MOL
REMARK 923 INTER-LIGAND FREE ENERGY PREDICTED BY IDOCK:   -9.30 KCAL/MOL
REMARK 924 INTRA-LIGAND FREE ENERGY PREDICTED BY IDOCK:   -1.56 KCAL/MOL
REMARK 927      BINDING AFFINITY PREDICTED BY RF-SCORE:    0.00 PKD
ROOT
HETATM    1  C   UNL     1      -5.939   7.590  66.902  1.00  0.00    -0.046 C  
HETATM    2  C   UNL     1      -6.728   7.756  68.194  1.00  0.00    -0.067 C  
HETATM    3  C   UNL     1      -7.895   6.767  68.279  1.00  0.00    -0.110 C  
HETATM    4  C   UNL     1      -8.705   6.975  69.559  1.00  0.00    -0.134 C  
HETATM    5  N   UNL     1      -9.100   8.393  69.783  1.00  0.00    -0.152 N  
HETATM    6  C   UNL     1      -8.000   9.374  69.657  1.00  0.00    -0.109 C  
HETATM    7  C   UNL     1     -10.462   8.702  69.670  1.00  0.00    -0.220 C  
HETATM    8  O   UNL     1     -11.246   7.793  69.364  1.00  0.00    -0.026 OA 
HETATM    9  O   UNL     1      -7.197   8.536  71.772  1.00  0.00    -0.087 OA 
HETATM   10  C   UNL     1      -7.274   9.186  68.320  1.00  0.00    -0.078 C  
HETATM   11  C   UNL     1      -6.964   9.403  70.785  1.00  0.00    -0.114 C  
HETATM   12  O   UNL     1      -5.993  10.144  70.797  1.00  0.00    -0.086 OA 
ENDROOT
BRANCH   7  13
HETATM   13  C   UNL     1     -11.091  10.098  70.020  1.00  0.00    -0.308 C  
BRANCH  13  14
HETATM   14  C   UNL     1     -11.818  10.288  71.378  1.00  0.00    -0.371 C  
BRANCH  14  15
HETATM   15  C   UNL     1     -13.272   9.774  71.355  1.00  0.00    -0.482 C  
BRANCH  15  16
HETATM   16  C   UNL     1     -13.442   8.358  71.925  1.00  0.00    -0.363 C  
BRANCH  16  17
HETATM   17  N   UNL     1     -12.320   8.078  72.803  1.00  0.00    -0.610 NA 
HETATM   18  H2  UNL     1     -10.362   7.877  74.257  1.00  0.00     0.000 HD 
HETATM   19  H1  UNL     1      -9.833   6.326  73.499  1.00  0.00     0.000 HD 
HETATM   20  N   UNL     1     -11.534   6.032  71.894  1.00  0.00    -0.288 NA 
HETATM   21  N   UNL     1     -10.471   7.118  73.584  1.00  0.00    -0.378 NA 
HETATM   22  C   UNL     1     -11.476   7.030  72.691  1.00  0.00    -0.211 C  
HETATM   23  H   UNL     1     -12.156   8.729  73.570  1.00  0.00     0.000 HD 
HETATM   24  H1  UNL     1     -10.896   5.240  71.809  1.00  0.00     0.000 HD 
HETATM   25  H2  UNL     1     -12.327   6.027  71.253  1.00  0.00     0.000 HD 
ENDBRANCH  16  17
ENDBRANCH  15  16
ENDBRANCH  14  15
ENDBRANCH  13  14
BRANCH  13  26
HETATM   26  N   UNL     1     -11.970  10.631  68.943  1.00  0.00    -0.514 N  
HETATM   27  H   UNL     1     -12.936  10.316  68.856  1.00  0.00     0.000 HD 
BRANCH  26  28
HETATM   28  S   UNL     1     -11.330  11.782  67.856  1.00  0.00    -0.309 S  
HETATM   29  O   UNL     1     -12.100  11.728  66.641  1.00  0.00    -0.527 OA 
HETATM   30  O   UNL     1      -9.905  11.525  67.831  1.00  0.00    -0.176 OA 
BRANCH  28  31
HETATM   31  C   UNL     1     -11.623  13.313  68.703  1.00  0.00    -0.327 A  
HETATM   32  C   UNL     1     -11.059  17.083  68.425  1.00  0.00    -0.164 C  
HETATM   33  C   UNL     1     -12.226  13.237  69.968  1.00  0.00    -0.345 A  
HETATM   34  C   UNL     1      -9.743  18.358  66.696  1.00  0.00    -0.342 C  
HETATM   35  C   UNL     1     -12.475  14.395  70.697  1.00  0.00    -0.419 A  
HETATM   36  C   UNL     1      -9.998  16.991  67.324  1.00  0.00    -0.275 C  
HETATM   37  C   UNL     1     -10.470  15.972  66.297  1.00  0.00    -0.320 C  
HETATM   38  H   UNL     1     -10.229  13.821  66.441  1.00  0.00     0.000 HD 
HETATM   39  N   UNL     1     -10.602  14.651  66.903  1.00  0.00    -0.277 NA 
HETATM   40  C   UNL     1     -12.124  15.630  70.165  1.00  0.00    -0.400 A  
HETATM   41  C   UNL     1     -11.257  14.554  68.142  1.00  0.00    -0.284 A  
HETATM   42  C   UNL     1     -11.508  15.720  68.903  1.00  0.00    -0.381 A  
ENDBRANCH  28  31
ENDBRANCH  26  28
ENDBRANCH  13  26
ENDBRANCH   7  13
TORSDOF 8
ENDMDL
MODEL       82
REMARK 921   NORMALIZED FREE ENERGY PREDICTED BY IDOCK:   -6.54 KCAL/MOL
REMARK 922        TOTAL FREE ENERGY PREDICTED BY IDOCK:  -10.85 KCAL/MOL
REMARK 923 INTER-LIGAND FREE ENERGY PREDICTED BY IDOCK:   -8.47 KCAL/MOL
REMARK 924 INTRA-LIGAND FREE ENERGY PREDICTED BY IDOCK:   -2.38 KCAL/MOL
REMARK 927      BINDING AFFINITY PREDICTED BY RF-SCORE:    0.00 PKD
ROOT
HETATM    1  C   UNL     1      -6.463  10.251  65.121  1.00  0.00    -0.119 C  
HETATM    2  C   UNL     1      -6.920   9.003  65.863  1.00  0.00    -0.088 C  
HETATM    3  C   UNL     1      -8.071   8.299  65.138  1.00  0.00    -0.142 C  
HETATM    4  C   UNL     1      -8.549   7.074  65.917  1.00  0.00    -0.145 C  
HETATM    5  N   UNL     1      -8.826   7.359  67.352  1.00  0.00    -0.123 N  
HETATM    6  C   UNL     1      -7.750   8.083  68.064  1.00  0.00    -0.118 C  
HETATM    7  C   UNL     1     -10.164   7.310  67.766  1.00  0.00    -0.195 C  
HETATM    8  O   UNL     1     -11.033   7.065  66.918  1.00  0.00    -0.371 OA 
HETATM    9  O   UNL     1      -6.506   6.016  67.995  1.00  0.00    -0.045 OA 
HETATM   10  C   UNL     1      -7.365   9.350  67.292  1.00  0.00    -0.087 C  
HETATM   11  C   UNL     1      -6.478   7.292  68.385  1.00  0.00    -0.044 C  
HETATM   12  O   UNL     1      -5.504   7.771  68.945  1.00  0.00    -0.025 OA 
ENDROOT
BRANCH   7  13
HETATM   13  C   UNL     1     -10.640   7.426  69.259  1.00  0.00    -0.213 C  
BRANCH  13  14
HETATM   14  C   UNL     1     -11.270   6.192  69.958  1.00  0.00    -0.471 C  
BRANCH  14  15
HETATM   15  C   UNL     1     -10.213   5.227  70.534  1.00  0.00    -0.334 C  
BRANCH  15  16
HETATM   16  C   UNL     1     -10.304   5.038  72.056  1.00  0.00    -0.213 C  
BRANCH  16  17
HETATM   17  N   UNL     1      -9.523   6.081  72.695  1.00  0.00    -0.147 NA 
HETATM   18  H2  UNL     1      -8.045   7.632  73.879  1.00  0.00     0.000 HD 
HETATM   19  H1  UNL     1      -9.416   8.646  74.469  1.00  0.00     0.000 HD 
HETATM   20  N   UNL     1     -11.240   7.494  73.519  1.00  0.00    -0.573 NA 
HETATM   21  N   UNL     1      -9.038   7.852  73.952  1.00  0.00    -0.250 NA 
HETATM   22  C   UNL     1     -10.023   7.132  73.379  1.00  0.00    -0.278 C  
HETATM   23  H   UNL     1      -8.507   6.013  72.622  1.00  0.00     0.000 HD 
HETATM   24  H1  UNL     1     -11.619   8.289  74.037  1.00  0.00     0.000 HD 
HETATM   25  H2  UNL     1     -11.930   6.908  73.050  1.00  0.00     0.000 HD 
ENDBRANCH  16  17
ENDBRANCH  15  16
ENDBRANCH  14  15
ENDBRANCH  13  14
BRANCH  13  26
HETATM   26  N   UNL     1     -11.522   8.600  69.503  1.00  0.00    -0.307 N  
HETATM   27  H   UNL     1     -12.435   8.667  69.052  1.00  0.00     0.000 HD 
BRANCH  26  28
HETATM   28  S   UNL     1     -10.978   9.832  70.553  1.00  0.00    -0.343 S  
HETATM   29  O   UNL     1      -9.550   9.712  70.682  1.00  0.00    -0.252 OA 
HETATM   30  O   UNL     1     -11.829   9.735  71.721  1.00  0.00    -0.383 OA 
BRANCH  28  31
HETATM   31  C   UNL     1     -11.394  11.307  69.660  1.00  0.00    -0.287 A  
HETATM   32  C   UNL     1     -11.251  12.882  66.180  1.00  0.00    -0.326 C  
HETATM   33  C   UNL     1     -11.927  12.373  70.401  1.00  0.00    -0.342 A  
HETATM   34  C   UNL     1     -10.159  11.994  64.090  1.00  0.00    -0.340 C  
HETATM   35  C   UNL     1     -12.265  13.566  69.771  1.00  0.00    -0.330 A  
HETATM   36  C   UNL     1     -10.237  11.885  65.610  1.00  0.00    -0.280 C  
HETATM   37  C   UNL     1     -10.644  10.489  66.060  1.00  0.00    -0.093 C  
HETATM   38  H   UNL     1     -10.168   9.584  67.973  1.00  0.00     0.000 HD 
HETATM   39  N   UNL     1     -10.606  10.384  67.516  1.00  0.00    -0.242 NA 
HETATM   40  C   UNL     1     -12.073  13.697  68.401  1.00  0.00    -0.312 A  
HETATM   41  C   UNL     1     -11.189  11.416  68.268  1.00  0.00    -0.263 A  
HETATM   42  C   UNL     1     -11.528  12.641  67.648  1.00  0.00    -0.390 A  
ENDBRANCH  28  31
ENDBRANCH  26  28
ENDBRANCH  13  26
ENDBRANCH   7  13
TORSDOF 8
ENDMDL
MODEL       83
REMARK 921   NORMALIZED FREE ENERGY PREDICTED BY IDOCK:   -6.54 KCAL/MOL
REMARK 922        TOTAL FREE ENERGY PREDICTED BY IDOCK:  -10.85 KCAL/MOL
REMARK 923 INTER-LIGAND FREE ENERGY PREDICTED BY IDOCK:  -10.26 KCAL/MOL
REMARK 924 INTRA-LIGAND FREE ENERGY PREDICTED BY IDOCK:   -0.58 KCAL/MOL
REMARK 927      BINDING AFFINITY PREDICTED BY RF-SCORE:    0.00 PKD
ROOT
HETATM    1  C   UNL     1     -10.497  18.124  66.641  1.00  0.00    -0.354 C  
HETATM    2  C   UNL     1     -10.121  16.653  66.738  1.00  0.00    -0.293 C  
HETATM    3  C   UNL     1     -10.648  15.850  65.543  1.00  0.00    -0.419 C  
HETATM    4  C   UNL     1     -10.301  14.367  65.676  1.00  0.00    -0.342 C  
HETATM    5  N   UNL     1     -10.672  13.792  66.998  1.00  0.00    -0.281 N  
HETATM    6  C   UNL     1     -10.218  14.574  68.169  1.00  0.00    -0.230 C  
HETATM    7  C   UNL     1     -11.719  12.860  67.018  1.00  0.00    -0.385 C  
HETATM    8  O   UNL     1     -12.288  12.594  65.951  1.00  0.00    -0.593 OA 
HETATM    9  O   UNL     1      -7.997  13.777  67.664  1.00  0.00    -0.146 OA 
HETATM   10  C   UNL     1     -10.665  16.034  68.035  1.00  0.00    -0.309 C  
HETATM   11  C   UNL     1      -8.720  14.541  68.486  1.00  0.00    -0.177 C  
HETATM   12  O   UNL     1      -8.207  15.158  69.406  1.00  0.00    -0.216 OA 
ENDROOT
BRANCH   7  13
HETATM   13  C   UNL     1     -12.150  12.031  68.281  1.00  0.00     0.005 C  
BRANCH  13  14
HETATM   14  C   UNL     1     -11.707  12.503  69.691  1.00  0.00    -0.372 C  
BRANCH  14  15
HETATM   15  C   UNL     1     -11.867  11.408  70.765  1.00  0.00    -0.232 C  
BRANCH  15  16
HETATM   16  C   UNL     1     -13.285  10.823  70.854  1.00  0.00    -0.078 C  
BRANCH  16  17
HETATM   17  N   UNL     1     -13.186   9.375  70.836  1.00  0.00    -0.566 NA 
HETATM   18  H2  UNL     1     -13.118   6.946  70.542  1.00  0.00     0.000 HD 
HETATM   19  H1  UNL     1     -13.817   6.628  72.176  1.00  0.00     0.000 HD 
HETATM   20  N   UNL     1     -14.088   8.833  72.963  1.00  0.00    -1.105 NA 
HETATM   21  N   UNL     1     -13.491   7.255  71.440  1.00  0.00    -0.372 NA 
HETATM   22  C   UNL     1     -13.618   8.545  71.809  1.00  0.00    -0.388 C  
HETATM   23  H   UNL     1     -12.754   8.948  70.016  1.00  0.00     0.000 HD 
HETATM   24  H1  UNL     1     -14.414   8.205  73.699  1.00  0.00     0.000 HD 
HETATM   25  H2  UNL     1     -14.145   9.828  73.178  1.00  0.00     0.000 HD 
ENDBRANCH  16  17
ENDBRANCH  15  16
ENDBRANCH  14  15
ENDBRANCH  13  14
BRANCH  13  26
HETATM   26  N   UNL     1     -11.846  10.578  68.160  1.00  0.00    -0.356 N  
HETATM   27  H   UNL     1     -12.551   9.879  68.393  1.00  0.00     0.000 HD 
BRANCH  26  28
HETATM   28  S   UNL     1     -10.296  10.105  67.623  1.00  0.00    -0.236 S  
HETATM   29  O   UNL     1      -9.316  10.806  68.411  1.00  0.00    -0.153 OA 
HETATM   30  O   UNL     1     -10.329  10.267  66.184  1.00  0.00    -0.235 OA 
BRANCH  28  31
HETATM   31  C   UNL     1     -10.271   8.373  68.005  1.00  0.00    -0.212 A  
HETATM   32  C   UNL     1      -9.867   5.919  70.908  1.00  0.00    -0.224 C  
HETATM   33  C   UNL     1     -10.375   7.480  66.927  1.00  0.00    -0.379 A  
HETATM   34  C   UNL     1      -9.273   6.399  73.309  1.00  0.00    -0.136 C  
HETATM   35  C   UNL     1     -10.349   6.107  67.149  1.00  0.00    -0.286 A  
HETATM   36  C   UNL     1      -9.276   6.941  71.883  1.00  0.00    -0.144 C  
HETATM   37  C   UNL     1     -10.083   8.227  71.765  1.00  0.00    -0.224 C  
HETATM   38  H   UNL     1      -9.794   9.773  70.270  1.00  0.00     0.000 HD 
HETATM   39  N   UNL     1      -9.978   8.780  70.418  1.00  0.00    -0.182 NA 
HETATM   40  C   UNL     1     -10.222   5.623  68.446  1.00  0.00    -0.247 A  
HETATM   41  C   UNL     1     -10.140   7.907  69.330  1.00  0.00    -0.196 A  
HETATM   42  C   UNL     1     -10.105   6.507  69.534  1.00  0.00    -0.203 A  
ENDBRANCH  28  31
ENDBRANCH  26  28
ENDBRANCH  13  26
ENDBRANCH   7  13
TORSDOF 8
ENDMDL
MODEL       84
REMARK 921   NORMALIZED FREE ENERGY PREDICTED BY IDOCK:   -6.53 KCAL/MOL
REMARK 922        TOTAL FREE ENERGY PREDICTED BY IDOCK:  -10.83 KCAL/MOL
REMARK 923 INTER-LIGAND FREE ENERGY PREDICTED BY IDOCK:   -9.17 KCAL/MOL
REMARK 924 INTRA-LIGAND FREE ENERGY PREDICTED BY IDOCK:   -1.66 KCAL/MOL
REMARK 927      BINDING AFFINITY PREDICTED BY RF-SCORE:    0.00 PKD
ROOT
HETATM    1  C   UNL     1     -13.283  11.841  63.093  1.00  0.00     0.457 C  
HETATM    2  C   UNL     1     -12.054  12.505  63.696  1.00  0.00    -0.642 C  
HETATM    3  C   UNL     1     -10.815  11.608  63.597  1.00  0.00    -0.503 C  
HETATM    4  C   UNL     1      -9.599  12.269  64.247  1.00  0.00     0.114 C  
HETATM    5  N   UNL     1      -9.868  12.775  65.622  1.00  0.00    -0.222 N  
HETATM    6  C   UNL     1     -11.086  13.603  65.755  1.00  0.00    -0.287 C  
HETATM    7  C   UNL     1      -9.233  12.113  66.681  1.00  0.00    -0.206 C  
HETATM    8  O   UNL     1      -8.517  11.137  66.419  1.00  0.00    -0.160 OA 
HETATM    9  O   UNL     1      -9.864  15.337  64.604  1.00  0.00    -0.053 OA 
HETATM   10  C   UNL     1     -12.295  12.864  65.171  1.00  0.00    -0.547 C  
HETATM   11  C   UNL     1     -11.033  15.015  65.161  1.00  0.00    -0.406 C  
HETATM   12  O   UNL     1     -11.973  15.794  65.178  1.00  0.00     0.218 OA 
ENDROOT
BRANCH   7  13
HETATM   13  C   UNL     1      -9.266  12.590  68.177  1.00  0.00    -0.209 C  
BRANCH  13  14
HETATM   14  C   UNL     1      -7.948  13.035  68.865  1.00  0.00     0.169 C  
BRANCH  14  15
HETATM   15  C   UNL     1      -7.699  14.553  68.754  1.00  0.00    -0.140 C  
BRANCH  15  16
HETATM   16  C   UNL     1      -8.961  15.372  68.442  1.00  0.00    -0.189 C  
BRANCH  16  17
HETATM   17  N   UNL     1      -8.661  16.282  67.353  1.00  0.00    -0.175 NA 
HETATM   18  H2  UNL     1      -7.889  17.816  65.608  1.00  0.00     0.000 HD 
HETATM   19  H1  UNL     1      -9.329  18.892  65.777  1.00  0.00     0.000 HD 
HETATM   20  N   UNL     1     -10.511  17.763  67.475  1.00  0.00    -0.369 NA 
HETATM   21  N   UNL     1      -8.780  18.071  66.035  1.00  0.00    -0.512 NA 
HETATM   22  C   UNL     1      -9.386  17.368  67.011  1.00  0.00    -0.260 C  
HETATM   23  H   UNL     1      -7.828  16.084  66.796  1.00  0.00     0.000 HD 
HETATM   24  H1  UNL     1     -11.059  18.584  67.217  1.00  0.00     0.000 HD 
HETATM   25  H2  UNL     1     -10.915  17.176  68.204  1.00  0.00     0.000 HD 
ENDBRANCH  16  17
ENDBRANCH  15  16
ENDBRANCH  14  15
ENDBRANCH  13  14
BRANCH  13  26
HETATM   26  N   UNL     1      -9.964  11.635  69.082  1.00  0.00    -0.418 N  
HETATM   27  H   UNL     1      -9.438  10.929  69.598  1.00  0.00     0.000 HD 
BRANCH  26  28
HETATM   28  S   UNL     1     -11.660  11.743  69.240  1.00  0.00    -0.341 S  
HETATM   29  O   UNL     1     -12.247  11.485  67.951  1.00  0.00    -0.586 OA 
HETATM   30  O   UNL     1     -11.897  13.004  69.911  1.00  0.00    -0.322 OA 
BRANCH  28  31
HETATM   31  C   UNL     1     -12.026  10.418  70.360  1.00  0.00    -0.320 A  
HETATM   32  C   UNL     1     -11.370   6.702  70.974  1.00  0.00    -0.366 C  
HETATM   33  C   UNL     1     -12.908  10.700  71.416  1.00  0.00    -0.556 A  
HETATM   34  C   UNL     1     -10.172   5.047  69.499  1.00  0.00    -0.286 C  
HETATM   35  C   UNL     1     -13.252   9.706  72.327  1.00  0.00    -0.492 A  
HETATM   36  C   UNL     1     -10.858   6.409  69.560  1.00  0.00    -0.381 C  
HETATM   37  C   UNL     1      -9.918   7.537  69.155  1.00  0.00    -0.179 C  
HETATM   38  H   UNL     1     -10.519   9.453  68.332  1.00  0.00     0.000 HD 
HETATM   39  N   UNL     1     -10.629   8.812  69.119  1.00  0.00    -0.214 NA 
HETATM   40  C   UNL     1     -12.715   8.432  72.188  1.00  0.00    -0.399 A  
HETATM   41  C   UNL     1     -11.469   9.132  70.197  1.00  0.00    -0.087 A  
HETATM   42  C   UNL     1     -11.839   8.133  71.128  1.00  0.00    -0.303 A  
ENDBRANCH  28  31
ENDBRANCH  26  28
ENDBRANCH  13  26
ENDBRANCH   7  13
TORSDOF 8
ENDMDL
MODEL       85
REMARK 921   NORMALIZED FREE ENERGY PREDICTED BY IDOCK:   -6.53 KCAL/MOL
REMARK 922        TOTAL FREE ENERGY PREDICTED BY IDOCK:  -10.83 KCAL/MOL
REMARK 923 INTER-LIGAND FREE ENERGY PREDICTED BY IDOCK:   -9.65 KCAL/MOL
REMARK 924 INTRA-LIGAND FREE ENERGY PREDICTED BY IDOCK:   -1.17 KCAL/MOL
REMARK 927      BINDING AFFINITY PREDICTED BY RF-SCORE:    0.00 PKD
ROOT
HETATM    1  C   UNL     1      -9.216  17.173  68.379  1.00  0.00    -0.266 C  
HETATM    2  C   UNL     1     -10.261  16.100  68.107  1.00  0.00    -0.247 C  
HETATM    3  C   UNL     1     -11.166  15.865  69.321  1.00  0.00    -0.335 C  
HETATM    4  C   UNL     1     -12.180  14.754  69.048  1.00  0.00    -0.145 C  
HETATM    5  N   UNL     1     -11.564  13.512  68.507  1.00  0.00    -0.309 N  
HETATM    6  C   UNL     1     -10.646  13.717  67.364  1.00  0.00    -0.260 C  
HETATM    7  C   UNL     1     -11.562  12.385  69.339  1.00  0.00    -0.307 C  
HETATM    8  O   UNL     1     -12.041  12.494  70.476  1.00  0.00    -0.365 OA 
HETATM    9  O   UNL     1     -12.617  14.148  66.040  1.00  0.00    -0.478 OA 
HETATM   10  C   UNL     1      -9.593  14.774  67.716  1.00  0.00    -0.209 C  
HETATM   11  C   UNL     1     -11.284  14.081  66.020  1.00  0.00    -0.310 C  
HETATM   12  O   UNL     1     -10.646  14.302  65.003  1.00  0.00    -0.375 OA 
ENDROOT
BRANCH   7  13
HETATM   13  C   UNL     1     -11.102  10.950  68.895  1.00  0.00    -0.252 C  
BRANCH  13  14
HETATM   14  C   UNL     1     -11.115  10.577  67.389  1.00  0.00    -0.322 C  
BRANCH  14  15
HETATM   15  C   UNL     1      -9.727  10.150  66.867  1.00  0.00    -0.233 C  
BRANCH  15  16
HETATM   16  C   UNL     1      -9.777   9.099  65.749  1.00  0.00    -0.229 C  
BRANCH  16  17
HETATM   17  N   UNL     1      -9.199   9.677  64.549  1.00  0.00    -0.352 NA 
HETATM   18  H2  UNL     1      -7.990  10.687  62.677  1.00  0.00     0.000 HD 
HETATM   19  H1  UNL     1      -9.395  11.711  62.191  1.00  0.00     0.000 HD 
HETATM   20  N   UNL     1     -10.979  11.060  63.810  1.00  0.00    -0.511 NA 
HETATM   21  N   UNL     1      -8.948  11.017  62.791  1.00  0.00    -0.294 NA 
HETATM   22  C   UNL     1      -9.790  10.594  63.755  1.00  0.00    -0.335 C  
HETATM   23  H   UNL     1      -8.265   9.362  64.284  1.00  0.00     0.000 HD 
HETATM   24  H1  UNL     1     -11.426  11.753  63.210  1.00  0.00     0.000 HD 
HETATM   25  H2  UNL     1     -11.563  10.686  64.558  1.00  0.00     0.000 HD 
ENDBRANCH  16  17
ENDBRANCH  15  16
ENDBRANCH  14  15
ENDBRANCH  13  14
BRANCH  13  26
HETATM   26  N   UNL     1     -11.777   9.858  69.650  1.00  0.00    -0.456 N  
HETATM   27  H   UNL     1     -12.696   9.520  69.365  1.00  0.00     0.000 HD 
BRANCH  26  28
HETATM   28  S   UNL     1     -10.984   9.184  71.003  1.00  0.00    -0.336 S  
HETATM   29  O   UNL     1     -11.877   9.258  72.129  1.00  0.00    -0.328 OA 
HETATM   30  O   UNL     1      -9.693   9.840  71.049  1.00  0.00    -0.098 OA 
BRANCH  28  31
HETATM   31  C   UNL     1     -10.753   7.496  70.509  1.00  0.00    -0.235 A  
HETATM   32  C   UNL     1      -9.818   4.046  71.863  1.00  0.00    -0.247 C  
HETATM   33  C   UNL     1     -10.883   7.208  69.141  1.00  0.00    -0.185 A  
HETATM   34  C   UNL     1      -9.026   3.418  74.171  1.00  0.00    -0.092 C  
HETATM   35  C   UNL     1     -10.704   5.908  68.678  1.00  0.00    -0.339 A  
HETATM   36  C   UNL     1      -9.228   4.560  73.180  1.00  0.00    -0.128 C  
HETATM   37  C   UNL     1     -10.162   5.630  73.729  1.00  0.00    -0.231 C  
HETATM   38  H   UNL     1     -10.180   7.720  73.143  1.00  0.00     0.000 HD 
HETATM   39  N   UNL     1     -10.252   6.759  72.806  1.00  0.00    -0.181 NA 
HETATM   40  C   UNL     1     -10.396   4.895  69.579  1.00  0.00    -0.154 A  
HETATM   41  C   UNL     1     -10.441   6.485  71.442  1.00  0.00    -0.213 A  
HETATM   42  C   UNL     1     -10.252   5.172  70.950  1.00  0.00    -0.299 A  
ENDBRANCH  28  31
ENDBRANCH  26  28
ENDBRANCH  13  26
ENDBRANCH   7  13
TORSDOF 8
ENDMDL
MODEL       86
REMARK 921   NORMALIZED FREE ENERGY PREDICTED BY IDOCK:   -6.53 KCAL/MOL
REMARK 922        TOTAL FREE ENERGY PREDICTED BY IDOCK:  -10.83 KCAL/MOL
REMARK 923 INTER-LIGAND FREE ENERGY PREDICTED BY IDOCK:   -9.48 KCAL/MOL
REMARK 924 INTRA-LIGAND FREE ENERGY PREDICTED BY IDOCK:   -1.34 KCAL/MOL
REMARK 927      BINDING AFFINITY PREDICTED BY RF-SCORE:    0.00 PKD
ROOT
HETATM    1  C   UNL     1     -10.565   5.350  67.175  1.00  0.00    -0.274 C  
HETATM    2  C   UNL     1      -9.827   6.667  67.368  1.00  0.00    -0.165 C  
HETATM    3  C   UNL     1      -9.581   6.971  68.850  1.00  0.00    -0.140 C  
HETATM    4  C   UNL     1      -8.881   8.318  69.030  1.00  0.00    -0.143 C  
HETATM    5  N   UNL     1      -9.540   9.429  68.289  1.00  0.00    -0.141 N  
HETATM    6  C   UNL     1      -9.834   9.143  66.868  1.00  0.00    -0.217 C  
HETATM    7  C   UNL     1     -10.176  10.417  69.053  1.00  0.00    -0.217 C  
HETATM    8  O   UNL     1     -10.179  10.294  70.286  1.00  0.00    -0.203 OA 
HETATM    9  O   UNL     1      -7.462   9.360  66.479  1.00  0.00    -0.092 OA 
HETATM   10  C   UNL     1     -10.614   7.830  66.743  1.00  0.00    -0.248 C  
HETATM   11  C   UNL     1      -8.641   9.105  65.908  1.00  0.00    -0.151 C  
HETATM   12  O   UNL     1      -8.736   8.857  64.716  1.00  0.00    -0.179 OA 
ENDROOT
BRANCH   7  13
HETATM   13  C   UNL     1     -10.787  11.740  68.468  1.00  0.00    -0.224 C  
BRANCH  13  14
HETATM   14  C   UNL     1     -11.281  11.767  66.997  1.00  0.00    -0.382 C  
BRANCH  14  15
HETATM   15  C   UNL     1     -12.150  13.001  66.681  1.00  0.00    -0.386 C  
BRANCH  15  16
HETATM   16  C   UNL     1     -12.503  13.152  65.193  1.00  0.00    -0.483 C  
BRANCH  16  17
HETATM   17  N   UNL     1     -12.347  14.547  64.824  1.00  0.00    -0.501 NA 
HETATM   18  H2  UNL     1     -12.302  16.861  64.029  1.00  0.00     0.000 HD 
HETATM   19  H1  UNL     1     -10.504  16.878  63.870  1.00  0.00     0.000 HD 
HETATM   20  N   UNL     1      -9.990  14.692  64.586  1.00  0.00    -0.554 NA 
HETATM   21  N   UNL     1     -11.385  16.419  64.102  1.00  0.00    -0.978 NA 
HETATM   22  C   UNL     1     -11.180  15.154  64.517  1.00  0.00    -0.272 C  
HETATM   23  H   UNL     1     -13.192  15.118  64.793  1.00  0.00     0.000 HD 
HETATM   24  H1  UNL     1      -9.109  15.150  64.354  1.00  0.00     0.000 HD 
HETATM   25  H2  UNL     1      -9.911  13.731  64.919  1.00  0.00     0.000 HD 
ENDBRANCH  16  17
ENDBRANCH  15  16
ENDBRANCH  14  15
ENDBRANCH  13  14
BRANCH  13  26
HETATM   26  N   UNL     1      -9.924  12.933  68.691  1.00  0.00    -0.391 N  
HETATM   27  H   UNL     1     -10.284  13.749  69.185  1.00  0.00     0.000 HD 
BRANCH  26  28
HETATM   28  S   UNL     1      -8.321  12.908  68.103  1.00  0.00    -0.168 S  
HETATM   29  O   UNL     1      -8.371  12.743  66.674  1.00  0.00    -0.049 OA 
HETATM   30  O   UNL     1      -7.632  11.938  68.929  1.00  0.00    -0.108 OA 
BRANCH  28  31
HETATM   31  C   UNL     1      -7.737  14.532  68.516  1.00  0.00    -0.129 A  
HETATM   32  C   UNL     1      -8.729  18.222  68.418  1.00  0.00    -0.325 C  
HETATM   33  C   UNL     1      -6.431  14.631  69.020  1.00  0.00    -0.097 A  
HETATM   34  C   UNL     1     -10.766  19.281  67.379  1.00  0.00    -0.594 C  
HETATM   35  C   UNL     1      -5.901  15.873  69.353  1.00  0.00    -0.127 A  
HETATM   36  C   UNL     1      -9.885  18.036  67.429  1.00  0.00    -0.309 C  
HETATM   37  C   UNL     1     -10.670  16.801  67.847  1.00  0.00    -0.347 C  
HETATM   38  H   UNL     1     -10.167  14.750  67.347  1.00  0.00     0.000 HD 
HETATM   39  N   UNL     1      -9.829  15.609  67.782  1.00  0.00    -0.220 NA 
HETATM   40  C   UNL     1      -6.672  17.017  69.186  1.00  0.00    -0.241 A  
HETATM   41  C   UNL     1      -8.540  15.678  68.336  1.00  0.00    -0.173 A  
HETATM   42  C   UNL     1      -7.979  16.932  68.671  1.00  0.00    -0.256 A  
ENDBRANCH  28  31
ENDBRANCH  26  28
ENDBRANCH  13  26
ENDBRANCH   7  13
TORSDOF 8
ENDMDL
MODEL       87
REMARK 921   NORMALIZED FREE ENERGY PREDICTED BY IDOCK:   -6.51 KCAL/MOL
REMARK 922        TOTAL FREE ENERGY PREDICTED BY IDOCK:  -10.80 KCAL/MOL
REMARK 923 INTER-LIGAND FREE ENERGY PREDICTED BY IDOCK:   -9.43 KCAL/MOL
REMARK 924 INTRA-LIGAND FREE ENERGY PREDICTED BY IDOCK:   -1.37 KCAL/MOL
REMARK 927      BINDING AFFINITY PREDICTED BY RF-SCORE:    0.00 PKD
ROOT
HETATM    1  C   UNL     1     -12.144  12.712  63.723  1.00  0.00    -0.604 C  
HETATM    2  C   UNL     1     -11.268  12.406  64.930  1.00  0.00    -0.353 C  
HETATM    3  C   UNL     1     -10.554  11.057  64.789  1.00  0.00    -0.350 C  
HETATM    4  C   UNL     1      -9.715  10.743  66.028  1.00  0.00    -0.217 C  
HETATM    5  N   UNL     1     -10.467  10.896  67.304  1.00  0.00    -0.219 N  
HETATM    6  C   UNL     1     -11.206  12.170  67.444  1.00  0.00    -0.302 C  
HETATM    7  C   UNL     1     -10.748   9.727  68.023  1.00  0.00    -0.247 C  
HETATM    8  O   UNL     1     -10.385   8.643  67.546  1.00  0.00    -0.235 OA 
HETATM    9  O   UNL     1      -9.058  13.218  67.775  1.00  0.00    -0.183 OA 
HETATM   10  C   UNL     1     -12.101  12.399  66.221  1.00  0.00    -0.256 C  
HETATM   11  C   UNL     1     -10.373  13.431  67.692  1.00  0.00    -0.238 C  
HETATM   12  O   UNL     1     -10.851  14.549  67.802  1.00  0.00    -0.256 OA 
ENDROOT
BRANCH   7  13
HETATM   13  C   UNL     1     -11.389   9.695  69.457  1.00  0.00    -0.040 C  
BRANCH  13  14
HETATM   14  C   UNL     1     -11.427  10.994  70.304  1.00  0.00    -0.363 C  
BRANCH  14  15
HETATM   15  C   UNL     1     -12.862  11.424  70.675  1.00  0.00    -0.189 C  
BRANCH  15  16
HETATM   16  C   UNL     1     -12.964  12.168  72.015  1.00  0.00    -0.272 C  
BRANCH  16  17
HETATM   17  N   UNL     1     -13.401  13.527  71.753  1.00  0.00    -0.396 NA 
HETATM   18  H2  UNL     1     -14.368  15.706  71.196  1.00  0.00     0.000 HD 
HETATM   19  H1  UNL     1     -12.800  16.359  70.587  1.00  0.00     0.000 HD 
HETATM   20  N   UNL     1     -11.396  14.499  70.937  1.00  0.00    -0.516 NA 
HETATM   21  N   UNL     1     -13.373  15.618  70.991  1.00  0.00    -0.568 NA 
HETATM   22  C   UNL     1     -12.643  14.508  71.218  1.00  0.00    -0.345 C  
HETATM   23  H   UNL     1     -14.365  13.761  71.993  1.00  0.00     0.000 HD 
HETATM   24  H1  UNL     1     -10.822  15.240  70.533  1.00  0.00     0.000 HD 
HETATM   25  H2  UNL     1     -10.905  13.629  71.145  1.00  0.00     0.000 HD 
ENDBRANCH  16  17
ENDBRANCH  15  16
ENDBRANCH  14  15
ENDBRANCH  13  14
BRANCH  13  26
HETATM   26  N   UNL     1     -10.858   8.597  70.312  1.00  0.00    -0.234 N  
HETATM   27  H   UNL     1      -9.866   8.359  70.296  1.00  0.00     0.000 HD 
BRANCH  26  28
HETATM   28  S   UNL     1     -11.941   7.746  71.320  1.00  0.00    -0.298 S  
HETATM   29  O   UNL     1     -13.161   7.531  70.586  1.00  0.00     0.107 OA 
HETATM   30  O   UNL     1     -11.957   8.485  72.566  1.00  0.00    -0.389 OA 
BRANCH  28  31
HETATM   31  C   UNL     1     -11.097   6.206  71.575  1.00  0.00    -0.286 A  
HETATM   32  C   UNL     1      -9.270   3.410  69.717  1.00  0.00    -0.220 C  
HETATM   33  C   UNL     1     -11.069   5.704  72.886  1.00  0.00    -0.337 A  
HETATM   34  C   UNL     1      -9.007   3.075  67.234  1.00  0.00    -0.184 C  
HETATM   35  C   UNL     1     -10.436   4.496  73.161  1.00  0.00    -0.259 A  
HETATM   36  C   UNL     1      -9.792   3.792  68.329  1.00  0.00     0.008 C  
HETATM   37  C   UNL     1      -9.706   5.306  68.192  1.00  0.00    -0.142 C  
HETATM   38  H   UNL     1     -11.171   6.730  68.923  1.00  0.00     0.000 HD 
HETATM   39  N   UNL     1     -10.552   5.962  69.185  1.00  0.00    -0.268 NA 
HETATM   40  C   UNL     1      -9.829   3.789  72.129  1.00  0.00    -0.238 A  
HETATM   41  C   UNL     1     -10.489   5.507  70.512  1.00  0.00    -0.277 A  
HETATM   42  C   UNL     1      -9.860   4.276  70.809  1.00  0.00    -0.265 A  
ENDBRANCH  28  31
ENDBRANCH  26  28
ENDBRANCH  13  26
ENDBRANCH   7  13
TORSDOF 8
ENDMDL
MODEL       88
REMARK 921   NORMALIZED FREE ENERGY PREDICTED BY IDOCK:   -6.49 KCAL/MOL
REMARK 922        TOTAL FREE ENERGY PREDICTED BY IDOCK:  -10.78 KCAL/MOL
REMARK 923 INTER-LIGAND FREE ENERGY PREDICTED BY IDOCK:   -8.96 KCAL/MOL
REMARK 924 INTRA-LIGAND FREE ENERGY PREDICTED BY IDOCK:   -1.82 KCAL/MOL
REMARK 927      BINDING AFFINITY PREDICTED BY RF-SCORE:    0.00 PKD
ROOT
HETATM    1  C   UNL     1      -5.599   8.454  66.355  1.00  0.00    -0.035 C  
HETATM    2  C   UNL     1      -6.363   9.398  67.273  1.00  0.00    -0.062 C  
HETATM    3  C   UNL     1      -5.808   9.378  68.701  1.00  0.00    -0.040 C  
HETATM    4  C   UNL     1      -6.613  10.296  69.620  1.00  0.00    -0.077 C  
HETATM    5  N   UNL     1      -8.083  10.068  69.542  1.00  0.00    -0.146 N  
HETATM    6  C   UNL     1      -8.637  10.033  68.171  1.00  0.00    -0.118 C  
HETATM    7  C   UNL     1      -8.703   9.510  70.668  1.00  0.00    -0.133 C  
HETATM    8  O   UNL     1      -7.996   9.214  71.642  1.00  0.00    -0.342 OA 
HETATM    9  O   UNL     1      -8.303  12.422  68.126  1.00  0.00    -0.164 OA 
HETATM   10  C   UNL     1      -7.855   9.034  67.310  1.00  0.00    -0.099 C  
HETATM   11  C   UNL     1      -8.725  11.368  67.425  1.00  0.00    -0.145 C  
HETATM   12  O   UNL     1      -9.138  11.480  66.281  1.00  0.00    -0.200 OA 
ENDROOT
BRANCH   7  13
HETATM   13  C   UNL     1     -10.255   9.339  70.837  1.00  0.00    -0.301 C  
BRANCH  13  14
HETATM   14  C   UNL     1     -10.944   8.055  70.304  1.00  0.00    -0.242 C  
BRANCH  14  15
HETATM   15  C   UNL     1     -10.084   6.790  70.499  1.00  0.00    -0.201 C  
BRANCH  15  16
HETATM   16  C   UNL     1     -10.571   5.574  69.695  1.00  0.00    -0.305 C  
BRANCH  16  17
HETATM   17  N   UNL     1      -9.881   5.562  68.419  1.00  0.00    -0.134 NA 
HETATM   18  H2  UNL     1      -8.492   5.635  66.404  1.00  0.00     0.000 HD 
HETATM   19  H1  UNL     1      -9.803   6.370  65.405  1.00  0.00     0.000 HD 
HETATM   20  N   UNL     1     -11.529   6.518  67.004  1.00  0.00    -0.743 NA 
HETATM   21  N   UNL     1      -9.437   5.999  66.282  1.00  0.00    -0.152 NA 
HETATM   22  C   UNL     1     -10.365   6.053  67.258  1.00  0.00    -0.223 C  
HETATM   23  H   UNL     1      -8.949   5.146  68.396  1.00  0.00     0.000 HD 
HETATM   24  H1  UNL     1     -11.895   6.889  66.127  1.00  0.00     0.000 HD 
HETATM   25  H2  UNL     1     -12.182   6.518  67.787  1.00  0.00     0.000 HD 
ENDBRANCH  16  17
ENDBRANCH  15  16
ENDBRANCH  14  15
ENDBRANCH  13  14
BRANCH  13  26
HETATM   26  N   UNL     1     -11.030  10.516  70.357  1.00  0.00    -0.436 N  
HETATM   27  H   UNL     1     -10.626  11.164  69.681  1.00  0.00     0.000 HD 
BRANCH  26  28
HETATM   28  S   UNL     1     -12.608  10.761  70.961  1.00  0.00    -0.445 S  
HETATM   29  O   UNL     1     -12.696  10.135  72.254  1.00  0.00    -0.307 OA 
HETATM   30  O   UNL     1     -13.490  10.349  69.888  1.00  0.00     0.139 OA 
BRANCH  28  31
HETATM   31  C   UNL     1     -12.687  12.526  71.124  1.00  0.00    -0.245 A  
HETATM   32  C   UNL     1     -11.843  15.776  69.298  1.00  0.00    -0.358 C  
HETATM   33  C   UNL     1     -13.166  13.033  72.342  1.00  0.00    -0.487 A  
HETATM   34  C   UNL     1     -10.604  16.090  67.126  1.00  0.00    -0.305 C  
HETATM   35  C   UNL     1     -13.244  14.407  72.547  1.00  0.00    -0.558 A  
HETATM   36  C   UNL     1     -10.907  15.128  68.272  1.00  0.00    -0.262 C  
HETATM   37  C   UNL     1     -11.563  13.846  67.779  1.00  0.00    -0.347 C  
HETATM   38  H   UNL     1     -11.488  11.920  68.776  1.00  0.00     0.000 HD 
HETATM   39  N   UNL     1     -11.743  12.903  68.879  1.00  0.00    -0.309 NA 
HETATM   40  C   UNL     1     -12.846  15.276  71.537  1.00  0.00    -0.469 A  
HETATM   41  C   UNL     1     -12.277  13.387  70.084  1.00  0.00    -0.315 A  
HETATM   42  C   UNL     1     -12.354  14.780  70.316  1.00  0.00    -0.400 A  
ENDBRANCH  28  31
ENDBRANCH  26  28
ENDBRANCH  13  26
ENDBRANCH   7  13
TORSDOF 8
ENDMDL
MODEL       89
REMARK 921   NORMALIZED FREE ENERGY PREDICTED BY IDOCK:   -6.47 KCAL/MOL
REMARK 922        TOTAL FREE ENERGY PREDICTED BY IDOCK:  -10.75 KCAL/MOL
REMARK 923 INTER-LIGAND FREE ENERGY PREDICTED BY IDOCK:  -10.25 KCAL/MOL
REMARK 924 INTRA-LIGAND FREE ENERGY PREDICTED BY IDOCK:   -0.50 KCAL/MOL
REMARK 927      BINDING AFFINITY PREDICTED BY RF-SCORE:    0.00 PKD
ROOT
HETATM    1  C   UNL     1     -12.367  13.176  63.471  1.00  0.00    -0.478 C  
HETATM    2  C   UNL     1     -11.316  12.773  64.496  1.00  0.00    -0.378 C  
HETATM    3  C   UNL     1     -10.758  11.373  64.219  1.00  0.00    -0.420 C  
HETATM    4  C   UNL     1      -9.738  10.963  65.281  1.00  0.00    -0.246 C  
HETATM    5  N   UNL     1     -10.230  11.150  66.674  1.00  0.00    -0.224 N  
HETATM    6  C   UNL     1     -10.819  12.477  66.955  1.00  0.00    -0.248 C  
HETATM    7  C   UNL     1     -10.474   9.993  67.425  1.00  0.00    -0.260 C  
HETATM    8  O   UNL     1     -10.298   8.893  66.883  1.00  0.00    -0.262 OA 
HETATM    9  O   UNL     1      -8.565  13.336  66.894  1.00  0.00    -0.191 OA 
HETATM   10  C   UNL     1     -11.899  12.807  65.917  1.00  0.00    -0.490 C  
HETATM   11  C   UNL     1      -9.850  13.659  67.054  1.00  0.00    -0.251 C  
HETATM   12  O   UNL     1     -10.202  14.811  67.257  1.00  0.00    -0.239 OA 
ENDROOT
BRANCH   7  13
HETATM   13  C   UNL     1     -10.844   9.983  68.951  1.00  0.00    -0.220 C  
BRANCH  13  14
HETATM   14  C   UNL     1     -12.111  10.737  69.435  1.00  0.00    -0.315 C  
BRANCH  14  15
HETATM   15  C   UNL     1     -11.797  11.821  70.486  1.00  0.00    -0.288 C  
BRANCH  15  16
HETATM   16  C   UNL     1     -12.295  13.224  70.105  1.00  0.00    -0.236 C  
BRANCH  16  17
HETATM   17  N   UNL     1     -12.303  14.049  71.299  1.00  0.00    -0.360 NA 
HETATM   18  H2  UNL     1     -12.036  15.427  73.304  1.00  0.00     0.000 HD 
HETATM   19  H1  UNL     1     -13.352  14.567  74.192  1.00  0.00     0.000 HD 
HETATM   20  N   UNL     1     -14.018  13.003  72.560  1.00  0.00    -0.684 NA 
HETATM   21  N   UNL     1     -12.765  14.716  73.370  1.00  0.00    -0.473 NA 
HETATM   22  C   UNL     1     -13.079  13.852  72.386  1.00  0.00    -0.436 C  
HETATM   23  H   UNL     1     -11.666  14.846  71.318  1.00  0.00     0.000 HD 
HETATM   24  H1  UNL     1     -14.605  12.854  73.382  1.00  0.00     0.000 HD 
HETATM   25  H2  UNL     1     -14.208  12.388  71.769  1.00  0.00     0.000 HD 
ENDBRANCH  16  17
ENDBRANCH  15  16
ENDBRANCH  14  15
ENDBRANCH  13  14
BRANCH  13  26
HETATM   26  N   UNL     1      -9.708  10.371  69.832  1.00  0.00    -0.418 N  
HETATM   27  H   UNL     1      -9.605  11.333  70.155  1.00  0.00     0.000 HD 
BRANCH  26  28
HETATM   28  S   UNL     1      -8.581   9.174  70.293  1.00  0.00    -0.218 S  
HETATM   29  O   UNL     1      -7.594   9.790  71.141  1.00  0.00    -0.278 OA 
HETATM   30  O   UNL     1      -8.184   8.533  69.056  1.00  0.00    -0.113 OA 
BRANCH  28  31
HETATM   31  C   UNL     1      -9.580   8.046  71.229  1.00  0.00    -0.156 A  
HETATM   32  C   UNL     1     -10.218   4.321  71.799  1.00  0.00    -0.182 C  
HETATM   33  C   UNL     1     -10.567   8.604  72.057  1.00  0.00    -0.421 A  
HETATM   34  C   UNL     1      -9.243   2.348  70.572  1.00  0.00    -0.194 C  
HETATM   35  C   UNL     1     -11.397   7.782  72.811  1.00  0.00    -0.446 A  
HETATM   36  C   UNL     1      -9.490   3.853  70.534  1.00  0.00    -0.251 C  
HETATM   37  C   UNL     1      -8.191   4.639  70.419  1.00  0.00    -0.075 C  
HETATM   38  H   UNL     1      -7.983   6.626  69.572  1.00  0.00     0.000 HD 
HETATM   39  N   UNL     1      -8.463   6.067  70.278  1.00  0.00    -0.123 NA 
HETATM   40  C   UNL     1     -11.244   6.402  72.742  1.00  0.00    -0.261 A  
HETATM   41  C   UNL     1      -9.405   6.649  71.140  1.00  0.00    -0.163 A  
HETATM   42  C   UNL     1     -10.267   5.829  71.907  1.00  0.00    -0.246 A  
ENDBRANCH  28  31
ENDBRANCH  26  28
ENDBRANCH  13  26
ENDBRANCH   7  13
TORSDOF 8
ENDMDL
MODEL       90
REMARK 921   NORMALIZED FREE ENERGY PREDICTED BY IDOCK:   -6.47 KCAL/MOL
REMARK 922        TOTAL FREE ENERGY PREDICTED BY IDOCK:  -10.74 KCAL/MOL
REMARK 923 INTER-LIGAND FREE ENERGY PREDICTED BY IDOCK:   -9.06 KCAL/MOL
REMARK 924 INTRA-LIGAND FREE ENERGY PREDICTED BY IDOCK:   -1.68 KCAL/MOL
REMARK 927      BINDING AFFINITY PREDICTED BY RF-SCORE:    0.00 PKD
ROOT
HETATM    1  C   UNL     1      -6.931   8.361  62.988  1.00  0.00    -0.090 C  
HETATM    2  C   UNL     1      -7.153   8.303  64.493  1.00  0.00    -0.077 C  
HETATM    3  C   UNL     1      -8.283   7.338  64.867  1.00  0.00    -0.075 C  
HETATM    4  C   UNL     1      -8.524   7.326  66.376  1.00  0.00    -0.129 C  
HETATM    5  N   UNL     1      -8.677   8.687  66.960  1.00  0.00    -0.126 N  
HETATM    6  C   UNL     1      -7.626   9.653  66.575  1.00  0.00    -0.098 C  
HETATM    7  C   UNL     1      -9.947   9.038  67.437  1.00  0.00    -0.209 C  
HETATM    8  O   UNL     1     -10.866   8.215  67.320  1.00  0.00    -0.248 OA 
HETATM    9  O   UNL     1      -6.158   8.428  68.047  1.00  0.00    -0.048 OA 
HETATM   10  C   UNL     1      -7.481   9.697  65.050  1.00  0.00    -0.116 C  
HETATM   11  C   UNL     1      -6.240   9.455  67.199  1.00  0.00    -0.065 C  
HETATM   12  O   UNL     1      -5.277  10.162  66.952  1.00  0.00    -0.040 OA 
ENDROOT
BRANCH   7  13
HETATM   13  C   UNL     1     -10.270  10.358  68.224  1.00  0.00    -0.160 C  
BRANCH  13  14
HETATM   14  C   UNL     1     -10.306  10.334  69.775  1.00  0.00    -0.287 C  
BRANCH  14  15
HETATM   15  C   UNL     1     -11.742  10.337  70.340  1.00  0.00    -0.404 C  
BRANCH  15  16
HETATM   16  C   UNL     1     -12.109   9.065  71.119  1.00  0.00    -0.287 C  
BRANCH  16  17
HETATM   17  N   UNL     1     -11.748   7.913  70.313  1.00  0.00    -0.474 NA 
HETATM   18  H2  UNL     1     -11.389   5.999  68.831  1.00  0.00     0.000 HD 
HETATM   19  H1  UNL     1     -10.699   4.978  70.150  1.00  0.00     0.000 HD 
HETATM   20  N   UNL     1     -10.816   6.482  71.961  1.00  0.00    -0.226 NA 
HETATM   21  N   UNL     1     -11.104   5.846  69.798  1.00  0.00    -0.389 NA 
HETATM   22  C   UNL     1     -11.212   6.764  70.778  1.00  0.00    -0.304 C  
HETATM   23  H   UNL     1     -11.913   7.977  69.308  1.00  0.00     0.000 HD 
HETATM   24  H1  UNL     1     -10.411   5.614  72.313  1.00  0.00     0.000 HD 
HETATM   25  H2  UNL     1     -10.919   7.228  72.648  1.00  0.00     0.000 HD 
ENDBRANCH  16  17
ENDBRANCH  15  16
ENDBRANCH  14  15
ENDBRANCH  13  14
BRANCH  13  26
HETATM   26  N   UNL     1     -11.501  11.042  67.740  1.00  0.00    -0.293 N  
HETATM   27  H   UNL     1     -12.423  10.728  68.042  1.00  0.00     0.000 HD 
BRANCH  26  28
HETATM   28  S   UNL     1     -11.340  12.364  66.672  1.00  0.00    -0.359 S  
HETATM   29  O   UNL     1     -12.449  12.336  65.754  1.00  0.00    -0.564 OA 
HETATM   30  O   UNL     1      -9.980  12.286  66.178  1.00  0.00    -0.233 OA 
BRANCH  28  31
HETATM   31  C   UNL     1     -11.478  13.757  67.761  1.00  0.00    -0.322 A  
HETATM   32  C   UNL     1     -10.773  17.507  67.985  1.00  0.00    -0.342 C  
HETATM   33  C   UNL     1     -11.957  13.508  69.057  1.00  0.00    -0.376 A  
HETATM   34  C   UNL     1      -9.576  18.989  66.336  1.00  0.00    -0.386 C  
HETATM   35  C   UNL     1     -12.080  14.550  69.971  1.00  0.00    -0.395 A  
HETATM   36  C   UNL     1      -9.830  17.551  66.779  1.00  0.00    -0.306 C  
HETATM   37  C   UNL     1     -10.447  16.714  65.667  1.00  0.00    -0.297 C  
HETATM   38  H   UNL     1     -10.292  14.559  65.466  1.00  0.00     0.000 HD 
HETATM   39  N   UNL     1     -10.579  15.320  66.082  1.00  0.00    -0.303 NA 
HETATM   40  C   UNL     1     -11.727  15.840  69.593  1.00  0.00    -0.363 A  
HETATM   41  C   UNL     1     -11.112  15.057  67.354  1.00  0.00    -0.324 A  
HETATM   42  C   UNL     1     -11.234  16.101  68.301  1.00  0.00    -0.343 A  
ENDBRANCH  28  31
ENDBRANCH  26  28
ENDBRANCH  13  26
ENDBRANCH   7  13
TORSDOF 8
ENDMDL
MODEL       91
REMARK 921   NORMALIZED FREE ENERGY PREDICTED BY IDOCK:   -6.45 KCAL/MOL
REMARK 922        TOTAL FREE ENERGY PREDICTED BY IDOCK:  -10.72 KCAL/MOL
REMARK 923 INTER-LIGAND FREE ENERGY PREDICTED BY IDOCK:   -8.37 KCAL/MOL
REMARK 924 INTRA-LIGAND FREE ENERGY PREDICTED BY IDOCK:   -2.35 KCAL/MOL
REMARK 927      BINDING AFFINITY PREDICTED BY RF-SCORE:    0.00 PKD
ROOT
HETATM    1  C   UNL     1     -14.139   7.294  71.530  1.00  0.00    -0.515 C  
HETATM    2  C   UNL     1     -12.624   7.310  71.677  1.00  0.00    -0.403 C  
HETATM    3  C   UNL     1     -12.076   8.737  71.786  1.00  0.00    -0.418 C  
HETATM    4  C   UNL     1     -10.551   8.739  71.887  1.00  0.00    -0.354 C  
HETATM    5  N   UNL     1      -9.889   7.920  70.834  1.00  0.00    -0.178 N  
HETATM    6  C   UNL     1     -10.432   6.553  70.674  1.00  0.00    -0.214 C  
HETATM    7  C   UNL     1      -9.155   8.607  69.858  1.00  0.00    -0.151 C  
HETATM    8  O   UNL     1      -9.125   9.844  69.909  1.00  0.00    -0.218 OA 
HETATM    9  O   UNL     1      -9.335   6.024  72.757  1.00  0.00    -0.146 OA 
HETATM   10  C   UNL     1     -11.953   6.607  70.487  1.00  0.00    -0.377 C  
HETATM   11  C   UNL     1     -10.104   5.543  71.778  1.00  0.00    -0.196 C  
HETATM   12  O   UNL     1     -10.507   4.390  71.785  1.00  0.00    -0.121 OA 
ENDROOT
BRANCH   7  13
HETATM   13  C   UNL     1      -8.264   7.917  68.764  1.00  0.00    -0.127 C  
BRANCH  13  14
HETATM   14  C   UNL     1      -6.792   7.555  69.096  1.00  0.00    -0.056 C  
BRANCH  14  15
HETATM   15  C   UNL     1      -6.675   6.405  70.118  1.00  0.00    -0.050 C  
BRANCH  15  16
HETATM   16  C   UNL     1      -5.720   6.702  71.284  1.00  0.00    -0.028 C  
BRANCH  16  17
HETATM   17  N   UNL     1      -6.497   7.225  72.393  1.00  0.00    -0.051 NA 
HETATM   18  H2  UNL     1      -8.007   7.924  74.188  1.00  0.00     0.000 HD 
HETATM   19  H1  UNL     1      -7.685   9.678  73.912  1.00  0.00     0.000 HD 
HETATM   20  N   UNL     1      -6.145   9.557  72.132  1.00  0.00    -0.293 NA 
HETATM   21  N   UNL     1      -7.547   8.690  73.697  1.00  0.00    -0.396 NA 
HETATM   22  C   UNL     1      -6.679   8.532  72.678  1.00  0.00    -0.058 C  
HETATM   23  H   UNL     1      -6.944   6.546  73.010  1.00  0.00     0.000 HD 
HETATM   24  H1  UNL     1      -6.282  10.545  72.348  1.00  0.00     0.000 HD 
HETATM   25  H2  UNL     1      -5.490   9.360  71.375  1.00  0.00     0.000 HD 
ENDBRANCH  16  17
ENDBRANCH  15  16
ENDBRANCH  14  15
ENDBRANCH  13  14
BRANCH  13  26
HETATM   26  N   UNL     1      -8.284   8.629  67.457  1.00  0.00    -0.110 N  
HETATM   27  H   UNL     1      -7.758   9.494  67.327  1.00  0.00     0.000 HD 
BRANCH  26  28
HETATM   28  S   UNL     1      -9.204   7.971  66.178  1.00  0.00    -0.126 S  
HETATM   29  O   UNL     1     -10.477   7.558  66.708  1.00  0.00    -0.305 OA 
HETATM   30  O   UNL     1      -8.330   7.008  65.541  1.00  0.00    -0.135 OA 
BRANCH  28  31
HETATM   31  C   UNL     1      -9.409   9.364  65.098  1.00  0.00    -0.221 A  
HETATM   32  C   UNL     1     -10.881  12.888  64.947  1.00  0.00    -0.331 C  
HETATM   33  C   UNL     1      -8.952   9.220  63.778  1.00  0.00    -0.080 A  
HETATM   34  C   UNL     1     -12.276  14.090  66.666  1.00  0.00    -0.463 C  
HETATM   35  C   UNL     1      -9.090  10.265  62.871  1.00  0.00    -0.290 A  
HETATM   36  C   UNL     1     -11.754  12.736  66.197  1.00  0.00    -0.458 C  
HETATM   37  C   UNL     1     -10.924  12.043  67.270  1.00  0.00    -0.262 C  
HETATM   38  H   UNL     1     -10.623   9.902  67.454  1.00  0.00     0.000 HD 
HETATM   39  N   UNL     1     -10.529  10.707  66.834  1.00  0.00    -0.240 NA 
HETATM   40  C   UNL     1      -9.683  11.455  63.278  1.00  0.00    -0.413 A  
HETATM   41  C   UNL     1     -10.014  10.560  65.536  1.00  0.00    -0.279 A  
HETATM   42  C   UNL     1     -10.156  11.608  64.595  1.00  0.00    -0.305 A  
ENDBRANCH  28  31
ENDBRANCH  26  28
ENDBRANCH  13  26
ENDBRANCH   7  13
TORSDOF 8
ENDMDL
MODEL       92
REMARK 921   NORMALIZED FREE ENERGY PREDICTED BY IDOCK:   -6.42 KCAL/MOL
REMARK 922        TOTAL FREE ENERGY PREDICTED BY IDOCK:  -10.67 KCAL/MOL
REMARK 923 INTER-LIGAND FREE ENERGY PREDICTED BY IDOCK:   -8.91 KCAL/MOL
REMARK 924 INTRA-LIGAND FREE ENERGY PREDICTED BY IDOCK:   -1.76 KCAL/MOL
REMARK 927      BINDING AFFINITY PREDICTED BY RF-SCORE:    0.00 PKD
ROOT
HETATM    1  C   UNL     1      -8.368   6.014  65.480  1.00  0.00    -0.146 C  
HETATM    2  C   UNL     1      -8.491   5.897  66.992  1.00  0.00    -0.107 C  
HETATM    3  C   UNL     1      -9.739   5.107  67.403  1.00  0.00    -0.172 C  
HETATM    4  C   UNL     1      -9.873   5.037  68.924  1.00  0.00    -0.175 C  
HETATM    5  N   UNL     1      -9.755   6.364  69.589  1.00  0.00    -0.152 N  
HETATM    6  C   UNL     1      -8.585   7.168  69.173  1.00  0.00    -0.133 C  
HETATM    7  C   UNL     1     -10.912   6.886  70.183  1.00  0.00    -0.281 C  
HETATM    8  O   UNL     1     -11.962   6.234  70.096  1.00  0.00    -0.267 OA 
HETATM    9  O   UNL     1      -7.245   5.626  70.458  1.00  0.00    -0.069 OA 
HETATM   10  C   UNL     1      -8.541   7.286  67.645  1.00  0.00    -0.126 C  
HETATM   11  C   UNL     1      -7.213   6.706  69.674  1.00  0.00    -0.078 C  
HETATM   12  O   UNL     1      -6.164   7.260  69.388  1.00  0.00    -0.030 OA 
ENDROOT
BRANCH   7  13
HETATM   13  C   UNL     1     -10.952   8.188  71.060  1.00  0.00    -0.244 C  
BRANCH  13  14
HETATM   14  C   UNL     1     -11.121   8.067  72.598  1.00  0.00    -0.453 C  
BRANCH  14  15
HETATM   15  C   UNL     1      -9.786   7.811  73.328  1.00  0.00    -0.362 C  
BRANCH  15  16
HETATM   16  C   UNL     1      -9.882   6.777  74.460  1.00  0.00    -0.232 C  
BRANCH  16  17
HETATM   17  N   UNL     1     -10.609   5.622  73.967  1.00  0.00    -0.312 NA 
HETATM   18  H2  UNL     1     -11.932   3.643  73.397  1.00  0.00     0.000 HD 
HETATM   19  H1  UNL     1     -10.607   2.918  72.408  1.00  0.00     0.000 HD 
HETATM   20  N   UNL     1      -8.947   4.577  72.634  1.00  0.00    -0.118 NA 
HETATM   21  N   UNL     1     -10.992   3.656  72.999  1.00  0.00    -0.112 NA 
HETATM   22  C   UNL     1     -10.099   4.647  73.185  1.00  0.00    -0.158 C  
HETATM   23  H   UNL     1     -11.590   5.540  74.235  1.00  0.00     0.000 HD 
HETATM   24  H1  UNL     1      -8.562   3.840  72.043  1.00  0.00     0.000 HD 
HETATM   25  H2  UNL     1      -8.328   5.367  72.810  1.00  0.00     0.000 HD 
ENDBRANCH  16  17
ENDBRANCH  15  16
ENDBRANCH  14  15
ENDBRANCH  13  14
BRANCH  13  26
HETATM   26  N   UNL     1     -11.926   9.199  70.564  1.00  0.00    -0.472 N  
HETATM   27  H   UNL     1     -12.917   9.124  70.794  1.00  0.00     0.000 HD 
BRANCH  26  28
HETATM   28  S   UNL     1     -11.352  10.488  69.602  1.00  0.00    -0.299 S  
HETATM   29  O   UNL     1     -11.939  10.366  68.293  1.00  0.00    -0.279 OA 
HETATM   30  O   UNL     1      -9.913  10.467  69.763  1.00  0.00    -0.213 OA 
BRANCH  28  31
HETATM   31  C   UNL     1     -12.003  11.910  70.438  1.00  0.00    -0.311 A  
HETATM   32  C   UNL     1     -11.856  15.729  70.480  1.00  0.00    -0.402 C  
HETATM   33  C   UNL     1     -12.850  11.674  71.533  1.00  0.00    -0.469 A  
HETATM   34  C   UNL     1     -10.364  17.265  69.152  1.00  0.00    -0.290 C  
HETATM   35  C   UNL     1     -13.388  12.741  72.245  1.00  0.00    -0.563 A  
HETATM   36  C   UNL     1     -10.580  15.835  69.639  1.00  0.00    -0.295 C  
HETATM   37  C   UNL     1     -10.694  14.852  68.483  1.00  0.00    -0.245 C  
HETATM   38  H   UNL     1     -10.230  12.734  68.569  1.00  0.00     0.000 HD 
HETATM   39  N   UNL     1     -10.791  13.482  68.978  1.00  0.00    -0.227 NA 
HETATM   40  C   UNL     1     -13.084  14.043  71.867  1.00  0.00    -0.467 A  
HETATM   41  C   UNL     1     -11.679  13.222  70.035  1.00  0.00    -0.225 A  
HETATM   42  C   UNL     1     -12.227  14.293  70.779  1.00  0.00    -0.423 A  
ENDBRANCH  28  31
ENDBRANCH  26  28
ENDBRANCH  13  26
ENDBRANCH   7  13
TORSDOF 8
ENDMDL
MODEL       93
REMARK 921   NORMALIZED FREE ENERGY PREDICTED BY IDOCK:   -6.41 KCAL/MOL
REMARK 922        TOTAL FREE ENERGY PREDICTED BY IDOCK:  -10.65 KCAL/MOL
REMARK 923 INTER-LIGAND FREE ENERGY PREDICTED BY IDOCK:   -8.30 KCAL/MOL
REMARK 924 INTRA-LIGAND FREE ENERGY PREDICTED BY IDOCK:   -2.36 KCAL/MOL
REMARK 927      BINDING AFFINITY PREDICTED BY RF-SCORE:    0.00 PKD
ROOT
HETATM    1  C   UNL     1     -10.579  16.301  65.308  1.00  0.00    -0.357 C  
HETATM    2  C   UNL     1     -10.598  15.116  66.264  1.00  0.00    -0.312 C  
HETATM    3  C   UNL     1      -9.893  15.439  67.586  1.00  0.00    -0.220 C  
HETATM    4  C   UNL     1      -9.880  14.227  68.517  1.00  0.00    -0.231 C  
HETATM    5  N   UNL     1      -9.390  12.984  67.860  1.00  0.00    -0.204 N  
HETATM    6  C   UNL     1     -10.020  12.675  66.558  1.00  0.00    -0.251 C  
HETATM    7  C   UNL     1      -8.153  12.481  68.287  1.00  0.00    -0.165 C  
HETATM    8  O   UNL     1      -7.533  13.109  69.156  1.00  0.00     0.027 OA 
HETATM    9  O   UNL     1     -11.989  12.066  67.813  1.00  0.00    -0.538 OA 
HETATM   10  C   UNL     1      -9.930  13.889  65.626  1.00  0.00    -0.298 C  
HETATM   11  C   UNL     1     -11.470  12.181  66.589  1.00  0.00    -0.365 C  
HETATM   12  O   UNL     1     -12.118  11.914  65.590  1.00  0.00    -0.439 OA 
ENDROOT
BRANCH   7  13
HETATM   13  C   UNL     1      -7.545  11.107  67.831  1.00  0.00    -0.099 C  
BRANCH  13  14
HETATM   14  C   UNL     1      -7.484  10.763  66.319  1.00  0.00    -0.138 C  
BRANCH  14  15
HETATM   15  C   UNL     1      -7.681   9.259  66.040  1.00  0.00    -0.096 C  
BRANCH  15  16
HETATM   16  C   UNL     1      -8.936   8.936  65.215  1.00  0.00    -0.162 C  
BRANCH  16  17
HETATM   17  N   UNL     1      -9.620   7.819  65.840  1.00  0.00    -0.424 NA 
HETATM   18  H2  UNL     1     -10.819   5.838  66.634  1.00  0.00     0.000 HD 
HETATM   19  H1  UNL     1     -11.763   6.775  67.855  1.00  0.00     0.000 HD 
HETATM   20  N   UNL     1     -10.909   8.941  67.486  1.00  0.00    -0.470 NA 
HETATM   21  N   UNL     1     -11.071   6.706  67.108  1.00  0.00    -0.400 NA 
HETATM   22  C   UNL     1     -10.535   7.910  66.829  1.00  0.00    -0.247 C  
HETATM   23  H   UNL     1      -9.390   6.884  65.503  1.00  0.00     0.000 HD 
HETATM   24  H1  UNL     1     -11.601   9.010  68.234  1.00  0.00     0.000 HD 
HETATM   25  H2  UNL     1     -10.453   9.815  67.228  1.00  0.00     0.000 HD 
ENDBRANCH  16  17
ENDBRANCH  15  16
ENDBRANCH  14  15
ENDBRANCH  13  14
BRANCH  13  26
HETATM   26  N   UNL     1      -8.126   9.940  68.551  1.00  0.00    -0.099 N  
HETATM   27  H   UNL     1      -9.063   9.605  68.326  1.00  0.00     0.000 HD 
BRANCH  26  28
HETATM   28  S   UNL     1      -7.195   9.173  69.759  1.00  0.00    -0.068 S  
HETATM   29  O   UNL     1      -7.233   9.993  70.941  1.00  0.00    -0.326 OA 
HETATM   30  O   UNL     1      -5.931   8.866  69.122  1.00  0.00    -0.041 OA 
BRANCH  28  31
HETATM   31  C   UNL     1      -8.086   7.663  70.028  1.00  0.00    -0.120 A  
HETATM   32  C   UNL     1     -11.517   6.308  71.029  1.00  0.00    -0.370 C  
HETATM   33  C   UNL     1      -7.362   6.466  69.912  1.00  0.00    -0.082 A  
HETATM   34  C   UNL     1     -13.545   7.577  71.820  1.00  0.00    -0.397 C  
HETATM   35  C   UNL     1      -7.990   5.243  70.121  1.00  0.00    -0.080 A  
HETATM   36  C   UNL     1     -12.036   7.631  71.600  1.00  0.00    -0.329 C  
HETATM   37  C   UNL     1     -11.642   8.746  70.640  1.00  0.00    -0.205 C  
HETATM   38  H   UNL     1      -9.718   9.748  70.582  1.00  0.00     0.000 HD 
HETATM   39  N   UNL     1     -10.189   8.844  70.532  1.00  0.00    -0.193 NA 
HETATM   40  C   UNL     1      -9.342   5.212  70.445  1.00  0.00    -0.210 A  
HETATM   41  C   UNL     1      -9.458   7.658  70.356  1.00  0.00    -0.164 A  
HETATM   42  C   UNL     1     -10.077   6.405  70.576  1.00  0.00    -0.221 A  
ENDBRANCH  28  31
ENDBRANCH  26  28
ENDBRANCH  13  26
ENDBRANCH   7  13
TORSDOF 8
ENDMDL
MODEL       94
REMARK 921   NORMALIZED FREE ENERGY PREDICTED BY IDOCK:   -6.40 KCAL/MOL
REMARK 922        TOTAL FREE ENERGY PREDICTED BY IDOCK:  -10.64 KCAL/MOL
REMARK 923 INTER-LIGAND FREE ENERGY PREDICTED BY IDOCK:   -9.01 KCAL/MOL
REMARK 924 INTRA-LIGAND FREE ENERGY PREDICTED BY IDOCK:   -1.63 KCAL/MOL
REMARK 927      BINDING AFFINITY PREDICTED BY RF-SCORE:    0.00 PKD
ROOT
HETATM    1  C   UNL     1     -14.205   6.633  71.755  1.00  0.00    -0.150 C  
HETATM    2  C   UNL     1     -13.008   7.569  71.850  1.00  0.00    -0.298 C  
HETATM    3  C   UNL     1     -13.423   9.039  71.728  1.00  0.00    -0.467 C  
HETATM    4  C   UNL     1     -12.206   9.963  71.780  1.00  0.00    -0.341 C  
HETATM    5  N   UNL     1     -11.122   9.563  70.841  1.00  0.00    -0.306 N  
HETATM    6  C   UNL     1     -10.737   8.137  70.904  1.00  0.00    -0.221 C  
HETATM    7  C   UNL     1     -10.877  10.409  69.750  1.00  0.00    -0.292 C  
HETATM    8  O   UNL     1     -11.590  11.413  69.615  1.00  0.00    -0.274 OA 
HETATM    9  O   UNL     1      -9.676   8.660  73.007  1.00  0.00    -0.108 OA 
HETATM   10  C   UNL     1     -11.977   7.247  70.758  1.00  0.00    -0.311 C  
HETATM   11  C   UNL     1      -9.945   7.686  72.135  1.00  0.00    -0.183 C  
HETATM   12  O   UNL     1      -9.585   6.535  72.327  1.00  0.00    -0.149 OA 
ENDROOT
BRANCH   7  13
HETATM   13  C   UNL     1      -9.682  10.243  68.745  1.00  0.00    -0.177 C  
BRANCH  13  14
HETATM   14  C   UNL     1      -8.246  10.038  69.294  1.00  0.00    -0.147 C  
BRANCH  14  15
HETATM   15  C   UNL     1      -7.759   8.580  69.164  1.00  0.00    -0.091 C  
BRANCH  15  16
HETATM   16  C   UNL     1      -8.459   7.784  68.052  1.00  0.00    -0.123 C  
BRANCH  16  17
HETATM   17  N   UNL     1      -8.833   6.486  68.583  1.00  0.00    -0.122 NA 
HETATM   18  H2  UNL     1      -9.190   4.237  69.481  1.00  0.00     0.000 HD 
HETATM   19  H1  UNL     1     -10.580   3.908  68.378  1.00  0.00     0.000 HD 
HETATM   20  N   UNL     1     -10.678   5.943  67.194  1.00  0.00    -0.318 NA 
HETATM   21  N   UNL     1      -9.836   4.506  68.739  1.00  0.00    -0.144 NA 
HETATM   22  C   UNL     1      -9.818   5.695  68.106  1.00  0.00    -0.137 C  
HETATM   23  H   UNL     1      -8.306   6.141  69.386  1.00  0.00     0.000 HD 
HETATM   24  H1  UNL     1     -11.422   5.346  66.833  1.00  0.00     0.000 HD 
HETATM   25  H2  UNL     1     -10.611   6.867  66.766  1.00  0.00     0.000 HD 
ENDBRANCH  16  17
ENDBRANCH  15  16
ENDBRANCH  14  15
ENDBRANCH  13  14
BRANCH  13  26
HETATM   26  N   UNL     1      -9.636  11.310  67.708  1.00  0.00    -0.171 N  
HETATM   27  H   UNL     1      -9.663  12.295  67.974  1.00  0.00     0.000 HD 
BRANCH  26  28
HETATM   28  S   UNL     1      -9.538  10.856  66.065  1.00  0.00    -0.220 S  
HETATM   29  O   UNL     1     -10.207   9.590  65.910  1.00  0.00    -0.266 OA 
HETATM   30  O   UNL     1      -8.138  10.990  65.720  1.00  0.00    -0.135 OA 
BRANCH  28  31
HETATM   31  C   UNL     1     -10.455  12.141  65.256  1.00  0.00    -0.276 A  
HETATM   32  C   UNL     1     -10.860  15.938  65.108  1.00  0.00    -0.438 C  
HETATM   33  C   UNL     1     -11.462  11.741  64.363  1.00  0.00    -0.349 A  
HETATM   34  C   UNL     1      -9.786  17.697  66.557  1.00  0.00    -0.310 C  
HETATM   35  C   UNL     1     -12.230  12.692  63.701  1.00  0.00    -0.624 A  
HETATM   36  C   UNL     1     -10.123  16.215  66.422  1.00  0.00    -0.321 C  
HETATM   37  C   UNL     1      -8.875  15.343  66.456  1.00  0.00    -0.312 C  
HETATM   38  H   UNL     1      -8.798  13.265  67.074  1.00  0.00     0.000 HD 
HETATM   39  N   UNL     1      -9.234  13.928  66.433  1.00  0.00    -0.205 NA 
HETATM   40  C   UNL     1     -11.996  14.043  63.928  1.00  0.00    -0.322 A  
HETATM   41  C   UNL     1     -10.198  13.505  65.503  1.00  0.00    -0.295 A  
HETATM   42  C   UNL     1     -10.998  14.458  64.829  1.00  0.00    -0.409 A  
ENDBRANCH  28  31
ENDBRANCH  26  28
ENDBRANCH  13  26
ENDBRANCH   7  13
TORSDOF 8
ENDMDL
MODEL       95
REMARK 921   NORMALIZED FREE ENERGY PREDICTED BY IDOCK:   -6.40 KCAL/MOL
REMARK 922        TOTAL FREE ENERGY PREDICTED BY IDOCK:  -10.64 KCAL/MOL
REMARK 923 INTER-LIGAND FREE ENERGY PREDICTED BY IDOCK:   -8.67 KCAL/MOL
REMARK 924 INTRA-LIGAND FREE ENERGY PREDICTED BY IDOCK:   -1.96 KCAL/MOL
REMARK 927      BINDING AFFINITY PREDICTED BY RF-SCORE:    0.00 PKD
ROOT
HETATM    1  C   UNL     1     -10.221  17.401  65.724  1.00  0.00    -0.204 C  
HETATM    2  C   UNL     1     -10.382  16.196  66.640  1.00  0.00    -0.297 C  
HETATM    3  C   UNL     1      -9.339  16.190  67.763  1.00  0.00    -0.211 C  
HETATM    4  C   UNL     1      -9.484  14.952  68.647  1.00  0.00    -0.208 C  
HETATM    5  N   UNL     1      -9.543  13.680  67.875  1.00  0.00    -0.215 N  
HETATM    6  C   UNL     1     -10.507  13.675  66.753  1.00  0.00    -0.270 C  
HETATM    7  C   UNL     1      -8.451  12.810  67.992  1.00  0.00    -0.177 C  
HETATM    8  O   UNL     1      -7.496  13.160  68.700  1.00  0.00    -0.112 OA 
HETATM    9  O   UNL     1     -12.241  13.552  68.427  1.00  0.00    -0.315 OA 
HETATM   10  C   UNL     1     -10.267  14.886  65.845  1.00  0.00    -0.333 C  
HETATM   11  C   UNL     1     -11.994  13.616  67.117  1.00  0.00    -0.393 C  
HETATM   12  O   UNL     1     -12.896  13.631  66.294  1.00  0.00    -0.262 OA 
ENDROOT
BRANCH   7  13
HETATM   13  C   UNL     1      -8.395  11.363  67.385  1.00  0.00    -0.144 C  
BRANCH  13  14
HETATM   14  C   UNL     1      -8.241  11.184  65.851  1.00  0.00    -0.048 C  
BRANCH  14  15
HETATM   15  C   UNL     1      -9.517  10.634  65.182  1.00  0.00    -0.276 C  
BRANCH  15  16
HETATM   16  C   UNL     1      -9.969  11.432  63.950  1.00  0.00    -0.315 C  
BRANCH  16  17
HETATM   17  N   UNL     1     -11.403  11.269  63.798  1.00  0.00    -0.509 NA 
HETATM   18  H2  UNL     1     -13.764  10.751  63.412  1.00  0.00     0.000 HD 
HETATM   19  H1  UNL     1     -14.155  12.438  62.901  1.00  0.00     0.000 HD 
HETATM   20  N   UNL     1     -12.039  13.452  63.121  1.00  0.00    -0.866 NA 
HETATM   21  N   UNL     1     -13.505  11.720  63.224  1.00  0.00    -0.213 NA 
HETATM   22  C   UNL     1     -12.263  12.219  63.371  1.00  0.00    -0.527 C  
HETATM   23  H   UNL     1     -11.796  10.357  64.034  1.00  0.00     0.000 HD 
HETATM   24  H1  UNL     1     -12.688  14.170  62.798  1.00  0.00     0.000 HD 
HETATM   25  H2  UNL     1     -11.078  13.762  63.263  1.00  0.00     0.000 HD 
ENDBRANCH  16  17
ENDBRANCH  15  16
ENDBRANCH  14  15
ENDBRANCH  13  14
BRANCH  13  26
HETATM   26  N   UNL     1      -9.511  10.491  67.845  1.00  0.00    -0.146 N  
HETATM   27  H   UNL     1     -10.165  10.086  67.175  1.00  0.00     0.000 HD 
BRANCH  26  28
HETATM   28  S   UNL     1      -9.675  10.180  69.516  1.00  0.00    -0.211 S  
HETATM   29  O   UNL     1     -10.731  11.015  70.026  1.00  0.00    -0.117 OA 
HETATM   30  O   UNL     1      -8.334  10.288  70.053  1.00  0.00    -0.108 OA 
BRANCH  28  31
HETATM   31  C   UNL     1     -10.169   8.477  69.542  1.00  0.00    -0.206 A  
HETATM   32  C   UNL     1      -9.467   5.094  67.906  1.00  0.00    -0.155 C  
HETATM   33  C   UNL     1     -11.230   8.133  70.396  1.00  0.00    -0.221 A  
HETATM   34  C   UNL     1      -7.964   4.568  65.954  1.00  0.00    -0.099 C  
HETATM   35  C   UNL     1     -11.681   6.819  70.460  1.00  0.00    -0.430 A  
HETATM   36  C   UNL     1      -8.709   5.668  66.705  1.00  0.00    -0.115 C  
HETATM   37  C   UNL     1      -7.764   6.747  67.215  1.00  0.00    -0.109 C  
HETATM   38  H   UNL     1      -8.297   8.811  67.619  1.00  0.00     0.000 HD 
HETATM   39  N   UNL     1      -8.512   7.837  67.834  1.00  0.00    -0.122 NA 
HETATM   40  C   UNL     1     -11.074   5.846  69.675  1.00  0.00    -0.414 A  
HETATM   41  C   UNL     1      -9.537   7.507  68.736  1.00  0.00    -0.149 A  
HETATM   42  C   UNL     1     -10.017   6.178  68.807  1.00  0.00    -0.175 A  
ENDBRANCH  28  31
ENDBRANCH  26  28
ENDBRANCH  13  26
ENDBRANCH   7  13
TORSDOF 8
ENDMDL
MODEL       96
REMARK 921   NORMALIZED FREE ENERGY PREDICTED BY IDOCK:   -6.39 KCAL/MOL
REMARK 922        TOTAL FREE ENERGY PREDICTED BY IDOCK:  -10.63 KCAL/MOL
REMARK 923 INTER-LIGAND FREE ENERGY PREDICTED BY IDOCK:   -8.42 KCAL/MOL
REMARK 924 INTRA-LIGAND FREE ENERGY PREDICTED BY IDOCK:   -2.21 KCAL/MOL
REMARK 927      BINDING AFFINITY PREDICTED BY RF-SCORE:    0.00 PKD
ROOT
HETATM    1  C   UNL     1     -10.994  16.308  64.709  1.00  0.00    -0.288 C  
HETATM    2  C   UNL     1     -10.928  15.295  65.843  1.00  0.00    -0.325 C  
HETATM    3  C   UNL     1     -10.185  15.853  67.062  1.00  0.00    -0.283 C  
HETATM    4  C   UNL     1     -10.088  14.810  68.176  1.00  0.00    -0.221 C  
HETATM    5  N   UNL     1      -9.572  13.494  67.707  1.00  0.00    -0.212 N  
HETATM    6  C   UNL     1     -10.239  12.956  66.501  1.00  0.00    -0.259 C  
HETATM    7  C   UNL     1      -8.301  13.110  68.154  1.00  0.00    -0.161 C  
HETATM    8  O   UNL     1      -7.673  13.893  68.881  1.00  0.00    -0.118 OA 
HETATM    9  O   UNL     1     -12.131  12.492  67.924  1.00  0.00    -0.384 OA 
HETATM   10  C   UNL     1     -10.234  14.004  65.382  1.00  0.00    -0.368 C  
HETATM   11  C   UNL     1     -11.665  12.424  66.676  1.00  0.00    -0.372 C  
HETATM   12  O   UNL     1     -12.339  11.976  65.762  1.00  0.00    -0.469 OA 
ENDROOT
BRANCH   7  13
HETATM   13  C   UNL     1      -7.654  11.702  67.899  1.00  0.00    -0.115 C  
BRANCH  13  14
HETATM   14  C   UNL     1      -7.095  11.362  66.492  1.00  0.00    -0.058 C  
BRANCH  14  15
HETATM   15  C   UNL     1      -6.406   9.983  66.439  1.00  0.00    -0.073 C  
BRANCH  15  16
HETATM   16  C   UNL     1      -7.018   9.017  65.413  1.00  0.00    -0.080 C  
BRANCH  16  17
HETATM   17  N   UNL     1      -8.063   8.253  66.069  1.00  0.00    -0.104 NA 
HETATM   18  H2  UNL     1      -9.696   6.734  67.077  1.00  0.00     0.000 HD 
HETATM   19  H1  UNL     1     -11.100   7.755  66.584  1.00  0.00     0.000 HD 
HETATM   20  N   UNL     1      -9.984   9.517  65.486  1.00  0.00    -0.399 NA 
HETATM   21  N   UNL     1     -10.101   7.555  66.627  1.00  0.00    -0.224 NA 
HETATM   22  C   UNL     1      -9.385   8.517  66.013  1.00  0.00    -0.199 C  
HETATM   23  H   UNL     1      -7.772   7.445  66.621  1.00  0.00     0.000 HD 
HETATM   24  H1  UNL     1     -10.984   9.717  65.443  1.00  0.00     0.000 HD 
HETATM   25  H2  UNL     1      -9.378  10.211  65.048  1.00  0.00     0.000 HD 
ENDBRANCH  16  17
ENDBRANCH  15  16
ENDBRANCH  14  15
ENDBRANCH  13  14
BRANCH  13  26
HETATM   26  N   UNL     1      -8.517  10.572  68.342  1.00  0.00    -0.122 N  
HETATM   27  H   UNL     1      -9.383  10.355  67.850  1.00  0.00     0.000 HD 
BRANCH  26  28
HETATM   28  S   UNL     1      -8.027   9.646  69.691  1.00  0.00    -0.155 S  
HETATM   29  O   UNL     1      -7.127  10.445  70.480  1.00  0.00    -0.301 OA 
HETATM   30  O   UNL     1      -7.590   8.379  69.140  1.00  0.00    -0.084 OA 
BRANCH  28  31
HETATM   31  C   UNL     1      -9.554   9.398  70.560  1.00  0.00    -0.271 A  
HETATM   32  C   UNL     1     -11.182   7.247  73.268  1.00  0.00    -0.180 C  
HETATM   33  C   UNL     1     -10.649  10.181  70.161  1.00  0.00    -0.337 A  
HETATM   34  C   UNL     1     -10.240   5.242  74.469  1.00  0.00    -0.299 C  
HETATM   35  C   UNL     1     -11.882  10.033  70.788  1.00  0.00    -0.435 A  
HETATM   36  C   UNL     1     -10.107   6.156  73.254  1.00  0.00    -0.205 C  
HETATM   37  C   UNL     1      -8.746   6.836  73.201  1.00  0.00    -0.122 C  
HETATM   38  H   UNL     1      -7.759   7.561  71.409  1.00  0.00     0.000 HD 
HETATM   39  N   UNL     1      -8.607   7.618  71.975  1.00  0.00    -0.106 NA 
HETATM   40  C   UNL     1     -12.023   9.106  71.814  1.00  0.00    -0.449 A  
HETATM   41  C   UNL     1      -9.672   8.450  71.597  1.00  0.00    -0.219 A  
HETATM   42  C   UNL     1     -10.937   8.307  72.215  1.00  0.00    -0.418 A  
ENDBRANCH  28  31
ENDBRANCH  26  28
ENDBRANCH  13  26
ENDBRANCH   7  13
TORSDOF 8
ENDMDL
MODEL       97
REMARK 921   NORMALIZED FREE ENERGY PREDICTED BY IDOCK:   -6.37 KCAL/MOL
REMARK 922        TOTAL FREE ENERGY PREDICTED BY IDOCK:  -10.60 KCAL/MOL
REMARK 923 INTER-LIGAND FREE ENERGY PREDICTED BY IDOCK:   -8.98 KCAL/MOL
REMARK 924 INTRA-LIGAND FREE ENERGY PREDICTED BY IDOCK:   -1.62 KCAL/MOL
REMARK 927      BINDING AFFINITY PREDICTED BY RF-SCORE:    0.00 PKD
ROOT
HETATM    1  C   UNL     1      -6.371  19.738  69.985  1.00  0.00    -0.358 C  
HETATM    2  C   UNL     1      -6.853  19.075  68.703  1.00  0.00    -0.311 C  
HETATM    3  C   UNL     1      -8.078  19.787  68.119  1.00  0.00    -0.329 C  
HETATM    4  C   UNL     1      -8.578  19.084  66.857  1.00  0.00    -0.295 C  
HETATM    5  N   UNL     1      -8.762  17.617  67.033  1.00  0.00    -0.235 N  
HETATM    6  C   UNL     1      -7.613  16.912  67.642  1.00  0.00    -0.164 C  
HETATM    7  C   UNL     1     -10.077  17.132  67.015  1.00  0.00    -0.297 C  
HETATM    8  O   UNL     1     -11.001  17.946  66.884  1.00  0.00    -0.138 OA 
HETATM    9  O   UNL     1      -6.486  17.220  65.531  1.00  0.00     0.159 OA 
HETATM   10  C   UNL     1      -7.203  17.600  68.950  1.00  0.00    -0.256 C  
HETATM   11  C   UNL     1      -6.369  16.730  66.767  1.00  0.00    -0.175 C  
HETATM   12  O   UNL     1      -5.343  16.190  67.149  1.00  0.00    -0.304 OA 
ENDROOT
BRANCH   7  13
HETATM   13  C   UNL     1     -10.465  15.610  67.028  1.00  0.00    -0.303 C  
BRANCH  13  14
HETATM   14  C   UNL     1     -11.065  14.964  65.751  1.00  0.00    -0.342 C  
BRANCH  14  15
HETATM   15  C   UNL     1     -10.285  13.716  65.289  1.00  0.00    -0.341 C  
BRANCH  15  16
HETATM   16  C   UNL     1     -10.521  12.474  66.162  1.00  0.00    -0.249 C  
BRANCH  16  17
HETATM   17  N   UNL     1      -9.597  12.515  67.280  1.00  0.00    -0.200 NA 
HETATM   18  H2  UNL     1      -8.162  12.826  69.238  1.00  0.00     0.000 HD 
HETATM   19  H1  UNL     1      -6.667  12.354  68.343  1.00  0.00     0.000 HD 
HETATM   20  N   UNL     1      -7.568  11.903  66.213  1.00  0.00    -0.347 NA 
HETATM   21  N   UNL     1      -7.672  12.522  68.396  1.00  0.00    -0.134 NA 
HETATM   22  C   UNL     1      -8.267  12.292  67.210  1.00  0.00    -0.182 C  
HETATM   23  H   UNL     1      -9.985  12.732  68.198  1.00  0.00     0.000 HD 
HETATM   24  H1  UNL     1      -6.563  11.734  66.159  1.00  0.00     0.000 HD 
HETATM   25  H2  UNL     1      -8.087  11.738  65.350  1.00  0.00     0.000 HD 
ENDBRANCH  16  17
ENDBRANCH  15  16
ENDBRANCH  14  15
ENDBRANCH  13  14
BRANCH  13  26
HETATM   26  N   UNL     1     -11.322  15.234  68.186  1.00  0.00    -0.327 N  
HETATM   27  H   UNL     1     -12.182  14.703  68.045  1.00  0.00     0.000 HD 
BRANCH  26  28
HETATM   28  S   UNL     1     -10.839  15.707  69.753  1.00  0.00    -0.338 S  
HETATM   29  O   UNL     1     -11.008  17.133  69.862  1.00  0.00    -0.004 OA 
HETATM   30  O   UNL     1      -9.534  15.109  69.942  1.00  0.00    -0.130 OA 
BRANCH  28  31
HETATM   31  C   UNL     1     -12.012  14.868  70.786  1.00  0.00    -0.314 A  
HETATM   32  C   UNL     1     -13.275  11.383  71.719  1.00  0.00    -0.472 C  
HETATM   33  C   UNL     1     -12.883  15.667  71.543  1.00  0.00    -0.538 A  
HETATM   34  C   UNL     1     -12.660   9.159  70.707  1.00  0.00    -0.005 C  
HETATM   35  C   UNL     1     -13.837  15.079  72.366  1.00  0.00    -0.596 A  
HETATM   36  C   UNL     1     -12.646  10.673  70.516  1.00  0.00    -0.433 C  
HETATM   37  C   UNL     1     -11.232  11.209  70.338  1.00  0.00     0.087 C  
HETATM   38  H   UNL     1     -10.691  13.035  69.298  1.00  0.00     0.000 HD 
HETATM   39  N   UNL     1     -11.256  12.641  70.051  1.00  0.00     0.149 NA 
HETATM   40  C   UNL     1     -13.923  13.693  72.436  1.00  0.00    -0.651 A  
HETATM   41  C   UNL     1     -12.079  13.460  70.840  1.00  0.00    -0.183 A  
HETATM   42  C   UNL     1     -13.064  12.881  71.675  1.00  0.00    -0.430 A  
ENDBRANCH  28  31
ENDBRANCH  26  28
ENDBRANCH  13  26
ENDBRANCH   7  13
TORSDOF 8
ENDMDL
MODEL       98
REMARK 921   NORMALIZED FREE ENERGY PREDICTED BY IDOCK:   -6.37 KCAL/MOL
REMARK 922        TOTAL FREE ENERGY PREDICTED BY IDOCK:  -10.60 KCAL/MOL
REMARK 923 INTER-LIGAND FREE ENERGY PREDICTED BY IDOCK:   -9.52 KCAL/MOL
REMARK 924 INTRA-LIGAND FREE ENERGY PREDICTED BY IDOCK:   -1.08 KCAL/MOL
REMARK 927      BINDING AFFINITY PREDICTED BY RF-SCORE:    0.00 PKD
ROOT
HETATM    1  C   UNL     1      -5.152  19.442  69.904  1.00  0.00    -0.203 C  
HETATM    2  C   UNL     1      -5.990  19.370  68.636  1.00  0.00    -0.252 C  
HETATM    3  C   UNL     1      -7.249  20.238  68.734  1.00  0.00    -0.086 C  
HETATM    4  C   UNL     1      -8.102  20.120  67.471  1.00  0.00    -0.320 C  
HETATM    5  N   UNL     1      -8.372  18.711  67.071  1.00  0.00    -0.263 N  
HETATM    6  C   UNL     1      -7.179  17.839  67.016  1.00  0.00    -0.182 C  
HETATM    7  C   UNL     1      -9.690  18.254  67.195  1.00  0.00    -0.304 C  
HETATM    8  O   UNL     1     -10.540  19.029  67.654  1.00  0.00    -0.429 OA 
HETATM    9  O   UNL     1      -6.574  19.028  65.005  1.00  0.00    -0.462 OA 
HETATM   10  C   UNL     1      -6.403  17.921  68.336  1.00  0.00    -0.191 C  
HETATM   11  C   UNL     1      -6.206  18.066  65.855  1.00  0.00    -0.248 C  
HETATM   12  O   UNL     1      -5.172  17.436  65.702  1.00  0.00    -0.269 OA 
ENDROOT
BRANCH   7  13
HETATM   13  C   UNL     1     -10.202  16.860  66.682  1.00  0.00    -0.312 C  
BRANCH  13  14
HETATM   14  C   UNL     1     -11.399  16.802  65.697  1.00  0.00     0.561 C  
BRANCH  14  15
HETATM   15  C   UNL     1     -11.124  15.899  64.476  1.00  0.00    -0.285 C  
BRANCH  15  16
HETATM   16  C   UNL     1     -12.021  14.654  64.406  1.00  0.00    -0.437 C  
BRANCH  16  17
HETATM   17  N   UNL     1     -11.171  13.482  64.307  1.00  0.00    -0.479 NA 
HETATM   18  H2  UNL     1      -9.538  11.678  64.045  1.00  0.00     0.000 HD 
HETATM   19  H1  UNL     1     -10.744  10.557  63.304  1.00  0.00     0.000 HD 
HETATM   20  N   UNL     1     -12.668  11.918  63.334  1.00  0.00    -0.821 NA 
HETATM   21  N   UNL     1     -10.476  11.452  63.715  1.00  0.00    -0.364 NA 
HETATM   22  C   UNL     1     -11.525  12.297  63.764  1.00  0.00    -0.466 C  
HETATM   23  H   UNL     1     -10.224  13.559  64.679  1.00  0.00     0.000 HD 
HETATM   24  H1  UNL     1     -12.935  11.023  62.924  1.00  0.00     0.000 HD 
HETATM   25  H2  UNL     1     -13.417  12.606  63.412  1.00  0.00     0.000 HD 
ENDBRANCH  16  17
ENDBRANCH  15  16
ENDBRANCH  14  15
ENDBRANCH  13  14
BRANCH  13  26
HETATM   26  N   UNL     1     -10.456  15.888  67.781  1.00  0.00    -0.279 N  
HETATM   27  H   UNL     1     -11.322  15.928  68.320  1.00  0.00     0.000 HD 
BRANCH  26  28
HETATM   28  S   UNL     1      -9.272  14.706  68.123  1.00  0.00    -0.198 S  
HETATM   29  O   UNL     1      -8.512  15.150  69.262  1.00  0.00    -0.211 OA 
HETATM   30  O   UNL     1      -8.614  14.455  66.857  1.00  0.00    -0.215 OA 
BRANCH  28  31
HETATM   31  C   UNL     1     -10.255  13.292  68.550  1.00  0.00    -0.220 A  
HETATM   32  C   UNL     1     -10.679   9.566  67.813  1.00  0.00    -0.302 C  
HETATM   33  C   UNL     1     -11.329  13.503  69.429  1.00  0.00    -0.293 A  
HETATM   34  C   UNL     1      -9.496   8.153  66.094  1.00  0.00    -0.217 C  
HETATM   35  C   UNL     1     -12.150  12.444  69.799  1.00  0.00    -0.292 A  
HETATM   36  C   UNL     1      -9.840   9.574  66.531  1.00  0.00    -0.305 C  
HETATM   37  C   UNL     1      -8.591  10.406  66.790  1.00  0.00    -0.124 C  
HETATM   38  H   UNL     1      -8.460  12.568  66.661  1.00  0.00     0.000 HD 
HETATM   39  N   UNL     1      -8.948  11.788  67.101  1.00  0.00    -0.171 NA 
HETATM   40  C   UNL     1     -11.901  11.173  69.295  1.00  0.00    -0.422 A  
HETATM   41  C   UNL     1      -9.982  12.012  68.024  1.00  0.00    -0.197 A  
HETATM   42  C   UNL     1     -10.835  10.950  68.404  1.00  0.00    -0.266 A  
ENDBRANCH  28  31
ENDBRANCH  26  28
ENDBRANCH  13  26
ENDBRANCH   7  13
TORSDOF 8
ENDMDL
MODEL       99
REMARK 921   NORMALIZED FREE ENERGY PREDICTED BY IDOCK:   -6.37 KCAL/MOL
REMARK 922        TOTAL FREE ENERGY PREDICTED BY IDOCK:  -10.60 KCAL/MOL
REMARK 923 INTER-LIGAND FREE ENERGY PREDICTED BY IDOCK:   -8.47 KCAL/MOL
REMARK 924 INTRA-LIGAND FREE ENERGY PREDICTED BY IDOCK:   -2.13 KCAL/MOL
REMARK 927      BINDING AFFINITY PREDICTED BY RF-SCORE:    0.00 PKD
ROOT
HETATM    1  C   UNL     1     -14.402   7.312  71.480  1.00  0.00    -0.558 C  
HETATM    2  C   UNL     1     -12.955   7.746  71.672  1.00  0.00    -0.374 C  
HETATM    3  C   UNL     1     -12.773   9.247  71.423  1.00  0.00    -0.402 C  
HETATM    4  C   UNL     1     -11.309   9.659  71.575  1.00  0.00    -0.350 C  
HETATM    5  N   UNL     1     -10.371   8.801  70.798  1.00  0.00    -0.201 N  
HETATM    6  C   UNL     1     -10.559   7.346  70.983  1.00  0.00    -0.224 C  
HETATM    7  C   UNL     1      -9.725   9.390  69.703  1.00  0.00    -0.190 C  
HETATM    8  O   UNL     1      -9.991  10.569  69.429  1.00  0.00    -0.222 OA 
HETATM    9  O   UNL     1      -9.582   7.639  73.170  1.00  0.00    -0.206 OA 
HETATM   10  C   UNL     1     -12.022   6.965  70.734  1.00  0.00    -0.424 C  
HETATM   11  C   UNL     1     -10.114   6.754  72.325  1.00  0.00    -0.173 C  
HETATM   12  O   UNL     1     -10.233   5.575  72.620  1.00  0.00    -0.178 OA 
ENDROOT
BRANCH   7  13
HETATM   13  C   UNL     1      -8.591   8.702  68.862  1.00  0.00    -0.130 C  
BRANCH  13  14
HETATM   14  C   UNL     1      -7.151   8.632  69.435  1.00  0.00    -0.053 C  
BRANCH  14  15
HETATM   15  C   UNL     1      -6.276   7.578  68.726  1.00  0.00    -0.032 C  
BRANCH  15  16
HETATM   16  C   UNL     1      -6.544   6.135  69.180  1.00  0.00    -0.047 C  
BRANCH  16  17
HETATM   17  N   UNL     1      -7.307   5.463  68.145  1.00  0.00    -0.071 NA 
HETATM   18  H2  UNL     1      -8.561   4.562  66.246  1.00  0.00     0.000 HD 
HETATM   19  H1  UNL     1      -9.849   3.861  67.300  1.00  0.00     0.000 HD 
HETATM   20  N   UNL     1      -9.050   4.489  69.427  1.00  0.00    -0.102 NA 
HETATM   21  N   UNL     1      -8.979   4.376  67.158  1.00  0.00    -0.115 NA 
HETATM   22  C   UNL     1      -8.456   4.780  68.332  1.00  0.00    -0.094 C  
HETATM   23  H   UNL     1      -6.943   5.510  67.192  1.00  0.00     0.000 HD 
HETATM   24  H1  UNL     1      -9.919   3.973  69.569  1.00  0.00     0.000 HD 
HETATM   25  H2  UNL     1      -8.591   4.818  70.276  1.00  0.00     0.000 HD 
ENDBRANCH  16  17
ENDBRANCH  15  16
ENDBRANCH  14  15
ENDBRANCH  13  14
BRANCH  13  26
HETATM   26  N   UNL     1      -8.511   9.206  67.463  1.00  0.00    -0.116 N  
HETATM   27  H   UNL     1      -8.033  10.082  67.253  1.00  0.00     0.000 HD 
BRANCH  26  28
HETATM   28  S   UNL     1      -9.234   8.289  66.218  1.00  0.00    -0.197 S  
HETATM   29  O   UNL     1     -10.534   7.865  66.670  1.00  0.00    -0.296 OA 
HETATM   30  O   UNL     1      -8.236   7.309  65.842  1.00  0.00    -0.117 OA 
BRANCH  28  31
HETATM   31  C   UNL     1      -9.394   9.477  64.910  1.00  0.00    -0.198 A  
HETATM   32  C   UNL     1     -11.131  12.756  63.995  1.00  0.00    -0.458 C  
HETATM   33  C   UNL     1      -8.730   9.194  63.706  1.00  0.00    -0.150 A  
HETATM   34  C   UNL     1     -12.874  14.034  65.291  1.00  0.00    -0.418 C  
HETATM   35  C   UNL     1      -8.820  10.074  62.633  1.00  0.00    -0.246 A  
HETATM   36  C   UNL     1     -12.168  12.692  65.121  1.00  0.00    -0.539 C  
HETATM   37  C   UNL     1     -11.454  12.260  66.395  1.00  0.00    -0.378 C  
HETATM   38  H   UNL     1     -10.996  10.216  66.961  1.00  0.00     0.000 HD 
HETATM   39  N   UNL     1     -10.880  10.927  66.238  1.00  0.00    -0.179 NA 
HETATM   40  C   UNL     1      -9.570  11.237  62.759  1.00  0.00    -0.327 A  
HETATM   41  C   UNL     1     -10.162  10.650  65.063  1.00  0.00    -0.310 A  
HETATM   42  C   UNL     1     -10.250  11.527  63.956  1.00  0.00    -0.394 A  
ENDBRANCH  28  31
ENDBRANCH  26  28
ENDBRANCH  13  26
ENDBRANCH   7  13
TORSDOF 8
ENDMDL
MODEL      100
REMARK 921   NORMALIZED FREE ENERGY PREDICTED BY IDOCK:   -6.37 KCAL/MOL
REMARK 922        TOTAL FREE ENERGY PREDICTED BY IDOCK:  -10.60 KCAL/MOL
REMARK 923 INTER-LIGAND FREE ENERGY PREDICTED BY IDOCK:   -8.74 KCAL/MOL
REMARK 924 INTRA-LIGAND FREE ENERGY PREDICTED BY IDOCK:   -1.86 KCAL/MOL
REMARK 927      BINDING AFFINITY PREDICTED BY RF-SCORE:    0.00 PKD
ROOT
HETATM    1  C   UNL     1      -9.476  16.249  68.628  1.00  0.00    -0.228 C  
HETATM    2  C   UNL     1     -10.425  15.071  68.451  1.00  0.00    -0.238 C  
HETATM    3  C   UNL     1     -11.599  15.132  69.434  1.00  0.00    -0.343 C  
HETATM    4  C   UNL     1     -12.518  13.921  69.275  1.00  0.00     0.010 C  
HETATM    5  N   UNL     1     -11.789  12.623  69.287  1.00  0.00    -0.311 N  
HETATM    6  C   UNL     1     -10.620  12.554  68.383  1.00  0.00    -0.242 C  
HETATM    7  C   UNL     1     -11.992  11.787  70.394  1.00  0.00    -0.332 C  
HETATM    8  O   UNL     1     -12.734  12.186  71.302  1.00  0.00    -0.366 OA 
HETATM    9  O   UNL     1     -12.207  12.441  66.569  1.00  0.00    -0.586 OA 
HETATM   10  C   UNL     1      -9.683  13.740  68.640  1.00  0.00    -0.140 C  
HETATM   11  C   UNL     1     -10.910  12.467  66.881  1.00  0.00    -0.251 C  
HETATM   12  O   UNL     1     -10.042  12.429  66.023  1.00  0.00    -0.241 OA 
ENDROOT
BRANCH   7  13
HETATM   13  C   UNL     1     -11.440  10.322  70.517  1.00  0.00    -0.343 C  
BRANCH  13  14
HETATM   14  C   UNL     1     -10.254   9.875  69.621  1.00  0.00    -0.261 C  
BRANCH  14  15
HETATM   15  C   UNL     1      -8.939   9.709  70.409  1.00  0.00    -0.239 C  
BRANCH  15  16
HETATM   16  C   UNL     1      -7.934   8.750  69.752  1.00  0.00    -0.095 C  
BRANCH  16  17
HETATM   17  N   UNL     1      -8.422   8.411  68.428  1.00  0.00    -0.134 NA 
HETATM   18  H2  UNL     1      -9.504   7.855  66.304  1.00  0.00     0.000 HD 
HETATM   19  H1  UNL     1      -8.328   6.536  65.935  1.00  0.00     0.000 HD 
HETATM   20  N   UNL     1      -6.933   6.663  67.830  1.00  0.00    -0.080 NA 
HETATM   21  N   UNL     1      -8.688   7.284  66.527  1.00  0.00    -0.127 NA 
HETATM   22  C   UNL     1      -7.946   7.420  67.643  1.00  0.00    -0.114 C  
HETATM   23  H   UNL     1      -9.192   8.969  68.058  1.00  0.00     0.000 HD 
HETATM   24  H1  UNL     1      -6.573   5.915  67.237  1.00  0.00     0.000 HD 
HETATM   25  H2  UNL     1      -6.412   6.830  68.691  1.00  0.00     0.000 HD 
ENDBRANCH  16  17
ENDBRANCH  15  16
ENDBRANCH  14  15
ENDBRANCH  13  14
BRANCH  13  26
HETATM   26  N   UNL     1     -12.505   9.285  70.431  1.00  0.00    -0.404 N  
HETATM   27  H   UNL     1     -13.020   9.140  69.563  1.00  0.00     0.000 HD 
BRANCH  26  28
HETATM   28  S   UNL     1     -12.847   8.344  71.814  1.00  0.00    -0.356 S  
HETATM   29  O   UNL     1     -13.912   7.433  71.483  1.00  0.00    -0.410 OA 
HETATM   30  O   UNL     1     -13.010   9.299  72.890  1.00  0.00    -0.235 OA 
BRANCH  28  31
HETATM   31  C   UNL     1     -11.331   7.456  72.058  1.00  0.00    -0.264 A  
HETATM   32  C   UNL     1      -8.972   4.969  70.366  1.00  0.00    -0.159 C  
HETATM   33  C   UNL     1     -10.704   7.595  73.306  1.00  0.00    -0.409 A  
HETATM   34  C   UNL     1      -9.276   3.736  68.189  1.00  0.00    -0.214 C  
HETATM   35  C   UNL     1      -9.518   6.919  73.574  1.00  0.00    -0.207 A  
HETATM   36  C   UNL     1      -9.974   4.523  69.296  1.00  0.00    -0.192 C  
HETATM   37  C   UNL     1     -10.672   5.764  68.757  1.00  0.00    -0.247 C  
HETATM   38  H   UNL     1     -12.377   6.754  69.664  1.00  0.00     0.000 HD 
HETATM   39  N   UNL     1     -11.419   6.437  69.816  1.00  0.00    -0.427 NA 
HETATM   40  C   UNL     1      -8.956   6.105  72.598  1.00  0.00    -0.130 A  
HETATM   41  C   UNL     1     -10.781   6.635  71.051  1.00  0.00    -0.236 A  
HETATM   42  C   UNL     1      -9.580   5.947  71.347  1.00  0.00    -0.189 A  
ENDBRANCH  28  31
ENDBRANCH  26  28
ENDBRANCH  13  26
ENDBRANCH   7  13
TORSDOF 8
ENDMDL
MODEL      101
REMARK 921   NORMALIZED FREE ENERGY PREDICTED BY IDOCK:   -6.36 KCAL/MOL
REMARK 922        TOTAL FREE ENERGY PREDICTED BY IDOCK:  -10.59 KCAL/MOL
REMARK 923 INTER-LIGAND FREE ENERGY PREDICTED BY IDOCK:   -9.40 KCAL/MOL
REMARK 924 INTRA-LIGAND FREE ENERGY PREDICTED BY IDOCK:   -1.18 KCAL/MOL
REMARK 927      BINDING AFFINITY PREDICTED BY RF-SCORE:    0.00 PKD
ROOT
HETATM    1  C   UNL     1     -12.090  16.365  73.075  1.00  0.00    -0.577 C  
HETATM    2  C   UNL     1     -12.063  16.070  71.582  1.00  0.00    -0.537 C  
HETATM    3  C   UNL     1     -13.174  15.098  71.172  1.00  0.00    -0.535 C  
HETATM    4  C   UNL     1     -13.107  14.776  69.679  1.00  0.00     0.612 C  
HETATM    5  N   UNL     1     -11.750  14.363  69.226  1.00  0.00    -0.297 N  
HETATM    6  C   UNL     1     -10.651  15.259  69.650  1.00  0.00    -0.276 C  
HETATM    7  C   UNL     1     -11.585  13.028  68.837  1.00  0.00    -0.311 C  
HETATM    8  O   UNL     1     -12.560  12.268  68.920  1.00  0.00     0.228 OA 
HETATM    9  O   UNL     1     -11.483  16.825  68.013  1.00  0.00    -0.121 OA 
HETATM   10  C   UNL     1     -10.706  15.482  71.166  1.00  0.00     0.007 C  
HETATM   11  C   UNL     1     -10.557  16.619  68.952  1.00  0.00    -0.337 C  
HETATM   12  O   UNL     1      -9.717  17.464  69.221  1.00  0.00    -0.146 OA 
ENDROOT
BRANCH   7  13
HETATM   13  C   UNL     1     -10.280  12.444  68.186  1.00  0.00    -0.225 C  
BRANCH  13  14
HETATM   14  C   UNL     1      -9.453  13.324  67.212  1.00  0.00    -0.233 C  
BRANCH  14  15
HETATM   15  C   UNL     1     -10.296  13.879  66.045  1.00  0.00    -0.310 C  
BRANCH  15  16
HETATM   16  C   UNL     1      -9.960  13.258  64.681  1.00  0.00    -0.114 C  
BRANCH  16  17
HETATM   17  N   UNL     1     -11.090  12.455  64.251  1.00  0.00    -0.323 NA 
HETATM   18  H2  UNL     1     -12.808  10.928  63.410  1.00  0.00     0.000 HD 
HETATM   19  H1  UNL     1     -13.869  12.274  62.842  1.00  0.00     0.000 HD 
HETATM   20  N   UNL     1     -12.572  14.137  63.475  1.00  0.00    -1.018 NA 
HETATM   21  N   UNL     1     -13.020  11.918  63.282  1.00  0.00    -0.615 NA 
HETATM   22  C   UNL     1     -12.214  12.926  63.670  1.00  0.00    -0.499 C  
HETATM   23  H   UNL     1     -11.030  11.447  64.402  1.00  0.00     0.000 HD 
HETATM   24  H1  UNL     1     -13.422  14.493  63.035  1.00  0.00     0.000 HD 
HETATM   25  H2  UNL     1     -11.918  14.847  63.803  1.00  0.00     0.000 HD 
ENDBRANCH  16  17
ENDBRANCH  15  16
ENDBRANCH  14  15
ENDBRANCH  13  14
BRANCH  13  26
HETATM   26  N   UNL     1     -10.488  11.114  67.549  1.00  0.00    -0.195 N  
HETATM   27  H   UNL     1     -11.404  10.847  67.188  1.00  0.00     0.000 HD 
BRANCH  26  28
HETATM   28  S   UNL     1      -9.163  10.043  67.434  1.00  0.00    -0.137 S  
HETATM   29  O   UNL     1      -8.140  10.498  68.339  1.00  0.00    -0.109 OA 
HETATM   30  O   UNL     1      -8.889   9.933  66.016  1.00  0.00    -0.140 OA 
BRANCH  28  31
HETATM   31  C   UNL     1      -9.856   8.513  68.006  1.00  0.00    -0.169 A  
HETATM   32  C   UNL     1     -10.962   6.688  71.177  1.00  0.00    -0.302 C  
HETATM   33  C   UNL     1     -10.073   7.513  67.046  1.00  0.00    -0.332 A  
HETATM   34  C   UNL     1     -10.709   7.405  73.580  1.00  0.00    -0.347 C  
HETATM   35  C   UNL     1     -10.602   6.282  67.422  1.00  0.00    -0.361 A  
HETATM   36  C   UNL     1     -10.234   7.625  72.146  1.00  0.00    -0.256 C  
HETATM   37  C   UNL     1     -10.467   9.057  71.684  1.00  0.00    -0.355 C  
HETATM   38  H   UNL     1      -9.342  10.090  70.143  1.00  0.00     0.000 HD 
HETATM   39  N   UNL     1      -9.907   9.266  70.352  1.00  0.00    -0.222 NA 
HETATM   40  C   UNL     1     -10.916   6.049  68.756  1.00  0.00    -0.384 A  
HETATM   41  C   UNL     1     -10.166   8.301  69.366  1.00  0.00    -0.204 A  
HETATM   42  C   UNL     1     -10.693   7.039  69.730  1.00  0.00    -0.265 A  
ENDBRANCH  28  31
ENDBRANCH  26  28
ENDBRANCH  13  26
ENDBRANCH   7  13
TORSDOF 8
ENDMDL
MODEL      102
REMARK 921   NORMALIZED FREE ENERGY PREDICTED BY IDOCK:   -6.35 KCAL/MOL
REMARK 922        TOTAL FREE ENERGY PREDICTED BY IDOCK:  -10.57 KCAL/MOL
REMARK 923 INTER-LIGAND FREE ENERGY PREDICTED BY IDOCK:   -8.66 KCAL/MOL
REMARK 924 INTRA-LIGAND FREE ENERGY PREDICTED BY IDOCK:   -1.91 KCAL/MOL
REMARK 927      BINDING AFFINITY PREDICTED BY RF-SCORE:    0.00 PKD
ROOT
HETATM    1  C   UNL     1     -12.198  12.692  63.402  1.00  0.00    -0.610 C  
HETATM    2  C   UNL     1     -11.000  12.230  64.219  1.00  0.00    -0.392 C  
HETATM    3  C   UNL     1     -10.035  11.379  63.386  1.00  0.00    -0.435 C  
HETATM    4  C   UNL     1      -8.861  10.885  64.231  1.00  0.00    -0.051 C  
HETATM    5  N   UNL     1      -9.282  10.243  65.507  1.00  0.00    -0.176 N  
HETATM    6  C   UNL     1     -10.251  11.023  66.307  1.00  0.00    -0.245 C  
HETATM    7  C   UNL     1      -9.077   8.862  65.625  1.00  0.00    -0.212 C  
HETATM    8  O   UNL     1      -8.591   8.256  64.660  1.00  0.00    -0.106 OA 
HETATM    9  O   UNL     1      -8.415  12.493  66.843  1.00  0.00    -0.186 OA 
HETATM   10  C   UNL     1     -11.453  11.420  65.442  1.00  0.00     0.028 C  
HETATM   11  C   UNL     1      -9.719  12.271  67.019  1.00  0.00    -0.205 C  
HETATM   12  O   UNL     1     -10.412  13.017  67.691  1.00  0.00    -0.221 OA 
ENDROOT
BRANCH   7  13
HETATM   13  C   UNL     1      -9.308   8.037  66.941  1.00  0.00    -0.164 C  
BRANCH  13  14
HETATM   14  C   UNL     1     -10.714   7.450  67.236  1.00  0.00    -0.379 C  
BRANCH  14  15
HETATM   15  C   UNL     1     -10.869   5.995  66.749  1.00  0.00    -0.356 C  
BRANCH  15  16
HETATM   16  C   UNL     1      -9.559   5.356  66.262  1.00  0.00    -0.160 C  
BRANCH  16  17
HETATM   17  N   UNL     1      -9.675   5.098  64.838  1.00  0.00    -0.344 NA 
HETATM   18  H2  UNL     1     -10.056   4.874  62.431  1.00  0.00     0.000 HD 
HETATM   19  H1  UNL     1     -10.143   3.073  62.511  1.00  0.00     0.000 HD 
HETATM   20  N   UNL     1      -9.797   2.729  64.817  1.00  0.00    -0.347 NA 
HETATM   21  N   UNL     1     -10.027   3.991  62.941  1.00  0.00    -0.162 NA 
HETATM   22  C   UNL     1      -9.829   3.883  64.269  1.00  0.00    -0.185 C  
HETATM   23  H   UNL     1      -9.638   5.904  64.214  1.00  0.00     0.000 HD 
HETATM   24  H1  UNL     1      -9.913   1.810  64.386  1.00  0.00     0.000 HD 
HETATM   25  H2  UNL     1      -9.633   2.724  65.823  1.00  0.00     0.000 HD 
ENDBRANCH  16  17
ENDBRANCH  15  16
ENDBRANCH  14  15
ENDBRANCH  13  14
BRANCH  13  26
HETATM   26  N   UNL     1      -8.830   8.738  68.164  1.00  0.00    -0.141 N  
HETATM   27  H   UNL     1      -8.825   9.757  68.211  1.00  0.00     0.000 HD 
BRANCH  26  28
HETATM   28  S   UNL     1      -8.292   7.804  69.488  1.00  0.00    -0.130 S  
HETATM   29  O   UNL     1      -7.435   8.629  70.299  1.00  0.00    -0.059 OA 
HETATM   30  O   UNL     1      -7.787   6.578  68.904  1.00  0.00    -0.106 OA 
BRANCH  28  31
HETATM   31  C   UNL     1      -9.803   7.451  70.348  1.00  0.00    -0.183 A  
HETATM   32  C   UNL     1     -12.948   9.112  71.749  1.00  0.00    -0.448 C  
HETATM   33  C   UNL     1     -10.006   6.126  70.764  1.00  0.00    -0.229 A  
HETATM   34  C   UNL     1     -13.509  11.564  71.886  1.00  0.00    -0.275 C  
HETATM   35  C   UNL     1     -11.161   5.777  71.455  1.00  0.00    -0.243 A  
HETATM   36  C   UNL     1     -12.395  10.539  71.697  1.00  0.00    -0.374 C  
HETATM   37  C   UNL     1     -11.677  10.719  70.366  1.00  0.00    -0.351 C  
HETATM   38  H   UNL     1      -9.637  10.119  69.935  1.00  0.00     0.000 HD 
HETATM   39  N   UNL     1     -10.549   9.798  70.259  1.00  0.00    -0.272 NA 
HETATM   40  C   UNL     1     -12.116   6.749  71.731  1.00  0.00    -0.393 A  
HETATM   41  C   UNL     1     -10.756   8.456  70.617  1.00  0.00    -0.220 A  
HETATM   42  C   UNL     1     -11.920   8.083  71.330  1.00  0.00    -0.328 A  
ENDBRANCH  28  31
ENDBRANCH  26  28
ENDBRANCH  13  26
ENDBRANCH   7  13
TORSDOF 8
ENDMDL
MODEL      103
REMARK 921   NORMALIZED FREE ENERGY PREDICTED BY IDOCK:   -6.34 KCAL/MOL
REMARK 922        TOTAL FREE ENERGY PREDICTED BY IDOCK:  -10.55 KCAL/MOL
REMARK 923 INTER-LIGAND FREE ENERGY PREDICTED BY IDOCK:   -8.26 KCAL/MOL
REMARK 924 INTRA-LIGAND FREE ENERGY PREDICTED BY IDOCK:   -2.29 KCAL/MOL
REMARK 927      BINDING AFFINITY PREDICTED BY RF-SCORE:    0.00 PKD
ROOT
HETATM    1  C   UNL     1     -12.878  14.041  65.304  1.00  0.00    -0.418 C  
HETATM    2  C   UNL     1     -11.677  13.298  65.873  1.00  0.00    -0.403 C  
HETATM    3  C   UNL     1     -11.460  11.949  65.179  1.00  0.00    -0.304 C  
HETATM    4  C   UNL     1     -10.279  11.196  65.791  1.00  0.00    -0.257 C  
HETATM    5  N   UNL     1     -10.343  11.105  67.276  1.00  0.00    -0.199 N  
HETATM    6  C   UNL     1     -10.602  12.386  67.969  1.00  0.00    -0.221 C  
HETATM    7  C   UNL     1     -10.573   9.838  67.829  1.00  0.00    -0.266 C  
HETATM    8  O   UNL     1     -10.737   8.882  67.058  1.00  0.00    -0.248 OA 
HETATM    9  O   UNL     1      -8.333  12.986  67.408  1.00  0.00    -0.175 OA 
HETATM   10  C   UNL     1     -11.846  13.063  67.382  1.00  0.00    -0.411 C  
HETATM   11  C   UNL     1      -9.454  13.400  68.002  1.00  0.00    -0.218 C  
HETATM   12  O   UNL     1      -9.538  14.504  68.517  1.00  0.00    -0.210 OA 
ENDROOT
BRANCH   7  13
HETATM   13  C   UNL     1     -10.520   9.513  69.364  1.00  0.00    -0.217 C  
BRANCH  13  14
HETATM   14  C   UNL     1      -9.148   9.468  70.088  1.00  0.00    -0.276 C  
BRANCH  14  15
HETATM   15  C   UNL     1      -7.997   9.025  69.161  1.00  0.00    -0.101 C  
BRANCH  15  16
HETATM   16  C   UNL     1      -7.782   7.505  69.115  1.00  0.00    -0.113 C  
BRANCH  16  17
HETATM   17  N   UNL     1      -8.640   6.950  68.085  1.00  0.00    -0.124 NA 
HETATM   18  H2  UNL     1     -10.241   5.906  66.556  1.00  0.00     0.000 HD 
HETATM   19  H1  UNL     1      -8.948   5.318  65.442  1.00  0.00     0.000 HD 
HETATM   20  N   UNL     1      -7.031   6.137  66.543  1.00  0.00    -0.065 NA 
HETATM   21  N   UNL     1      -9.264   5.807  66.280  1.00  0.00    -0.156 NA 
HETATM   22  C   UNL     1      -8.222   6.304  66.976  1.00  0.00    -0.109 C  
HETATM   23  H   UNL     1      -9.647   7.059  68.209  1.00  0.00     0.000 HD 
HETATM   24  H1  UNL     1      -6.714   5.648  65.705  1.00  0.00     0.000 HD 
HETATM   25  H2  UNL     1      -6.294   6.549  67.115  1.00  0.00     0.000 HD 
ENDBRANCH  16  17
ENDBRANCH  15  16
ENDBRANCH  14  15
ENDBRANCH  13  14
BRANCH  13  26
HETATM   26  N   UNL     1     -11.279   8.286  69.731  1.00  0.00    -0.450 N  
HETATM   27  H   UNL     1     -11.418   7.538  69.051  1.00  0.00     0.000 HD 
BRANCH  26  28
HETATM   28  S   UNL     1     -11.912   8.153  71.311  1.00  0.00    -0.278 S  
HETATM   29  O   UNL     1     -13.151   7.424  71.237  1.00  0.00    -0.349 OA 
HETATM   30  O   UNL     1     -11.887   9.501  71.841  1.00  0.00    -0.373 OA 
BRANCH  28  31
HETATM   31  C   UNL     1     -10.677   7.186  72.139  1.00  0.00    -0.215 A  
HETATM   32  C   UNL     1      -8.683   3.937  71.856  1.00  0.00    -0.120 C  
HETATM   33  C   UNL     1     -10.228   7.654  73.384  1.00  0.00    -0.375 A  
HETATM   34  C   UNL     1      -8.915   2.086  70.163  1.00  0.00    -0.147 C  
HETATM   35  C   UNL     1      -9.270   6.942  74.097  1.00  0.00    -0.253 A  
HETATM   36  C   UNL     1      -9.584   3.305  70.791  1.00  0.00    -0.228 C  
HETATM   37  C   UNL     1      -9.911   4.371  69.755  1.00  0.00    -0.214 C  
HETATM   38  H   UNL     1     -11.478   5.862  69.920  1.00  0.00     0.000 HD 
HETATM   39  N   UNL     1     -10.645   5.476  70.365  1.00  0.00    -0.287 NA 
HETATM   40  C   UNL     1      -8.757   5.763  73.569  1.00  0.00    -0.123 A  
HETATM   41  C   UNL     1     -10.172   5.992  71.582  1.00  0.00    -0.201 A  
HETATM   42  C   UNL     1      -9.206   5.276  72.328  1.00  0.00    -0.153 A  
ENDBRANCH  28  31
ENDBRANCH  26  28
ENDBRANCH  13  26
ENDBRANCH   7  13
TORSDOF 8
ENDMDL
MODEL      104
REMARK 921   NORMALIZED FREE ENERGY PREDICTED BY IDOCK:   -6.33 KCAL/MOL
REMARK 922        TOTAL FREE ENERGY PREDICTED BY IDOCK:  -10.54 KCAL/MOL
REMARK 923 INTER-LIGAND FREE ENERGY PREDICTED BY IDOCK:   -8.69 KCAL/MOL
REMARK 924 INTRA-LIGAND FREE ENERGY PREDICTED BY IDOCK:   -1.85 KCAL/MOL
REMARK 927      BINDING AFFINITY PREDICTED BY RF-SCORE:    0.00 PKD
ROOT
HETATM    1  C   UNL     1     -10.182   3.967  72.504  1.00  0.00    -0.233 C  
HETATM    2  C   UNL     1      -9.814   5.433  72.688  1.00  0.00    -0.184 C  
HETATM    3  C   UNL     1     -11.056   6.314  72.864  1.00  0.00    -0.268 C  
HETATM    4  C   UNL     1     -10.673   7.788  73.002  1.00  0.00    -0.384 C  
HETATM    5  N   UNL     1      -9.746   8.259  71.937  1.00  0.00    -0.207 N  
HETATM    6  C   UNL     1      -8.564   7.399  71.712  1.00  0.00    -0.115 C  
HETATM    7  C   UNL     1     -10.256   9.173  71.005  1.00  0.00    -0.302 C  
HETATM    8  O   UNL     1     -11.444   9.509  71.103  1.00  0.00    -0.299 OA 
HETATM    9  O   UNL     1      -7.715   8.260  73.801  1.00  0.00    -0.179 OA 
HETATM   10  C   UNL     1      -9.001   5.946  71.490  1.00  0.00    -0.147 C  
HETATM   11  C   UNL     1      -7.471   7.428  72.786  1.00  0.00    -0.077 C  
HETATM   12  O   UNL     1      -6.456   6.751  72.740  1.00  0.00    -0.057 OA 
ENDROOT
BRANCH   7  13
HETATM   13  C   UNL     1      -9.398   9.900  69.909  1.00  0.00    -0.216 C  
BRANCH  13  14
HETATM   14  C   UNL     1      -7.851   9.899  70.025  1.00  0.00    -0.192 C  
BRANCH  14  15
HETATM   15  C   UNL     1      -7.161   9.245  68.811  1.00  0.00    -0.073 C  
BRANCH  15  16
HETATM   16  C   UNL     1      -8.024   8.198  68.090  1.00  0.00    -0.127 C  
BRANCH  16  17
HETATM   17  N   UNL     1      -8.031   8.507  66.672  1.00  0.00    -0.099 NA 
HETATM   18  H2  UNL     1      -7.832   9.203  64.334  1.00  0.00     0.000 HD 
HETATM   19  H1  UNL     1      -9.619   9.342  64.119  1.00  0.00     0.000 HD 
HETATM   20  N   UNL     1     -10.360   8.714  66.266  1.00  0.00    -0.348 NA 
HETATM   21  N   UNL     1      -8.791   9.139  64.678  1.00  0.00    -0.176 NA 
HETATM   22  C   UNL     1      -9.128   8.775  65.931  1.00  0.00    -0.218 C  
HETATM   23  H   UNL     1      -7.130   8.522  66.194  1.00  0.00     0.000 HD 
HETATM   24  H1  UNL     1     -11.189   8.917  65.706  1.00  0.00     0.000 HD 
HETATM   25  H2  UNL     1     -10.540   8.421  67.226  1.00  0.00     0.000 HD 
ENDBRANCH  16  17
ENDBRANCH  15  16
ENDBRANCH  14  15
ENDBRANCH  13  14
BRANCH  13  26
HETATM   26  N   UNL     1      -9.844  11.297  69.647  1.00  0.00    -0.204 N  
HETATM   27  H   UNL     1      -9.791  12.005  70.379  1.00  0.00     0.000 HD 
BRANCH  26  28
HETATM   28  S   UNL     1     -10.443  11.691  68.098  1.00  0.00    -0.203 S  
HETATM   29  O   UNL     1     -11.661  10.952  67.888  1.00  0.00    -0.497 OA 
HETATM   30  O   UNL     1      -9.318  11.516  67.202  1.00  0.00    -0.168 OA 
BRANCH  28  31
HETATM   31  C   UNL     1     -10.792  13.423  68.251  1.00  0.00    -0.256 A  
HETATM   32  C   UNL     1     -12.635  15.959  70.438  1.00  0.00    -0.121 C  
HETATM   33  C   UNL     1     -10.316  14.262  67.231  1.00  0.00    -0.260 A  
HETATM   34  C   UNL     1     -14.161  15.538  72.398  1.00  0.00    -0.627 C  
HETATM   35  C   UNL     1     -10.562  15.631  67.277  1.00  0.00    -0.305 A  
HETATM   36  C   UNL     1     -13.492  14.923  71.172  1.00  0.00    -0.474 C  
HETATM   37  C   UNL     1     -12.598  13.747  71.541  1.00  0.00    -0.318 C  
HETATM   38  H   UNL     1     -12.068  12.098  70.234  1.00  0.00     0.000 HD 
HETATM   39  N   UNL     1     -12.058  13.113  70.342  1.00  0.00    -0.350 NA 
HETATM   40  C   UNL     1     -11.282  16.164  68.340  1.00  0.00    -0.358 A  
HETATM   41  C   UNL     1     -11.525  13.940  69.340  1.00  0.00    -0.280 A  
HETATM   42  C   UNL     1     -11.774  15.332  69.363  1.00  0.00    -0.361 A  
ENDBRANCH  28  31
ENDBRANCH  26  28
ENDBRANCH  13  26
ENDBRANCH   7  13
TORSDOF 8
ENDMDL
MODEL      105
REMARK 921   NORMALIZED FREE ENERGY PREDICTED BY IDOCK:   -6.32 KCAL/MOL
REMARK 922        TOTAL FREE ENERGY PREDICTED BY IDOCK:  -10.52 KCAL/MOL
REMARK 923 INTER-LIGAND FREE ENERGY PREDICTED BY IDOCK:   -8.68 KCAL/MOL
REMARK 924 INTRA-LIGAND FREE ENERGY PREDICTED BY IDOCK:   -1.84 KCAL/MOL
REMARK 927      BINDING AFFINITY PREDICTED BY RF-SCORE:    0.00 PKD
ROOT
HETATM    1  C   UNL     1      -9.061   4.997  72.230  1.00  0.00    -0.145 C  
HETATM    2  C   UNL     1      -9.704   6.001  71.284  1.00  0.00    -0.200 C  
HETATM    3  C   UNL     1     -10.764   5.345  70.392  1.00  0.00    -0.276 C  
HETATM    4  C   UNL     1     -11.369   6.356  69.417  1.00  0.00    -0.377 C  
HETATM    5  N   UNL     1     -10.346   7.133  68.664  1.00  0.00    -0.183 N  
HETATM    6  C   UNL     1      -9.282   7.735  69.497  1.00  0.00    -0.149 C  
HETATM    7  C   UNL     1     -10.238   6.882  67.289  1.00  0.00    -0.220 C  
HETATM    8  O   UNL     1     -10.970   6.017  66.791  1.00  0.00    -0.316 OA 
HETATM    9  O   UNL     1     -10.949   9.316  70.235  1.00  0.00    -0.230 OA 
HETATM   10  C   UNL     1      -8.645   6.668  70.394  1.00  0.00    -0.143 C  
HETATM   11  C   UNL     1      -9.675   8.938  70.360  1.00  0.00    -0.191 C  
HETATM   12  O   UNL     1      -8.905   9.515  71.112  1.00  0.00    -0.249 OA 
ENDROOT
BRANCH   7  13
HETATM   13  C   UNL     1      -9.335   7.705  66.302  1.00  0.00    -0.131 C  
BRANCH  13  14
HETATM   14  C   UNL     1      -7.796   7.501  66.325  1.00  0.00    -0.102 C  
BRANCH  14  15
HETATM   15  C   UNL     1      -7.382   6.141  66.923  1.00  0.00    -0.082 C  
BRANCH  15  16
HETATM   16  C   UNL     1      -6.992   5.090  65.872  1.00  0.00    -0.066 C  
BRANCH  16  17
HETATM   17  N   UNL     1      -8.178   4.332  65.519  1.00  0.00    -0.108 NA 
HETATM   18  H2  UNL     1     -10.035   2.824  65.001  1.00  0.00     0.000 HD 
HETATM   19  H1  UNL     1     -10.411   3.658  63.445  1.00  0.00     0.000 HD 
HETATM   20  N   UNL     1      -8.773   5.353  63.461  1.00  0.00    -0.334 NA 
HETATM   21  N   UNL     1      -9.867   3.547  64.301  1.00  0.00    -0.167 NA 
HETATM   22  C   UNL     1      -8.898   4.479  64.386  1.00  0.00    -0.152 C  
HETATM   23  H   UNL     1      -8.495   3.626  66.184  1.00  0.00     0.000 HD 
HETATM   24  H1  UNL     1      -9.316   5.464  62.605  1.00  0.00     0.000 HD 
HETATM   25  H2  UNL     1      -8.025   6.033  63.597  1.00  0.00     0.000 HD 
ENDBRANCH  16  17
ENDBRANCH  15  16
ENDBRANCH  14  15
ENDBRANCH  13  14
BRANCH  13  26
HETATM   26  N   UNL     1      -9.610   9.168  66.337  1.00  0.00    -0.223 N  
HETATM   27  H   UNL     1     -10.105   9.586  67.125  1.00  0.00     0.000 HD 
BRANCH  26  28
HETATM   28  S   UNL     1      -9.083  10.134  65.031  1.00  0.00    -0.227 S  
HETATM   29  O   UNL     1      -9.120   9.331  63.837  1.00  0.00    -0.146 OA 
HETATM   30  O   UNL     1      -7.838  10.724  65.477  1.00  0.00    -0.133 OA 
BRANCH  28  31
HETATM   31  C   UNL     1     -10.327  11.397  64.962  1.00  0.00    -0.287 A  
HETATM   32  C   UNL     1     -12.202  13.922  67.134  1.00  0.00    -0.353 C  
HETATM   33  C   UNL     1     -10.962  11.600  63.727  1.00  0.00    -0.495 A  
HETATM   34  C   UNL     1     -12.123  14.217  69.635  1.00  0.00    -0.400 C  
HETATM   35  C   UNL     1     -11.956  12.564  63.600  1.00  0.00    -0.621 A  
HETATM   36  C   UNL     1     -11.815  13.280  68.471  1.00  0.00    -0.384 C  
HETATM   37  C   UNL     1     -10.338  12.916  68.409  1.00  0.00    -0.244 C  
HETATM   38  H   UNL     1      -9.512  11.115  67.526  1.00  0.00     0.000 HD 
HETATM   39  N   UNL     1     -10.091  11.937  67.354  1.00  0.00    -0.195 NA 
HETATM   40  C   UNL     1     -12.316  13.329  64.704  1.00  0.00    -0.447 A  
HETATM   41  C   UNL     1     -10.674  12.160  66.097  1.00  0.00    -0.272 A  
HETATM   42  C   UNL     1     -11.695  13.128  65.950  1.00  0.00    -0.427 A  
ENDBRANCH  28  31
ENDBRANCH  26  28
ENDBRANCH  13  26
ENDBRANCH   7  13
TORSDOF 8
ENDMDL
MODEL      106
REMARK 921   NORMALIZED FREE ENERGY PREDICTED BY IDOCK:   -6.30 KCAL/MOL
REMARK 922        TOTAL FREE ENERGY PREDICTED BY IDOCK:  -10.50 KCAL/MOL
REMARK 923 INTER-LIGAND FREE ENERGY PREDICTED BY IDOCK:   -9.13 KCAL/MOL
REMARK 924 INTRA-LIGAND FREE ENERGY PREDICTED BY IDOCK:   -1.37 KCAL/MOL
REMARK 927      BINDING AFFINITY PREDICTED BY RF-SCORE:    0.00 PKD
ROOT
HETATM    1  C   UNL     1     -10.941  19.267  67.255  1.00  0.00    -0.443 C  
HETATM    2  C   UNL     1      -9.874  18.189  67.133  1.00  0.00    -0.319 C  
HETATM    3  C   UNL     1     -10.150  17.245  65.958  1.00  0.00    -0.275 C  
HETATM    4  C   UNL     1      -9.096  16.140  65.876  1.00  0.00    -0.233 C  
HETATM    5  N   UNL     1      -8.873  15.440  67.171  1.00  0.00    -0.199 N  
HETATM    6  C   UNL     1      -8.654  16.330  68.332  1.00  0.00    -0.200 C  
HETATM    7  C   UNL     1      -9.294  14.106  67.256  1.00  0.00    -0.225 C  
HETATM    8  O   UNL     1      -9.848  13.601  66.270  1.00  0.00    -0.289 OA 
HETATM    9  O   UNL     1      -6.473  16.775  67.401  1.00  0.00    -0.133 OA 
HETATM   10  C   UNL     1      -9.781  17.364  68.426  1.00  0.00    -0.304 C  
HETATM   11  C   UNL     1      -7.307  17.057  68.403  1.00  0.00    -0.213 C  
HETATM   12  O   UNL     1      -7.003  17.838  69.291  1.00  0.00    -0.238 OA 
ENDROOT
BRANCH   7  13
HETATM   13  C   UNL     1      -9.008  13.158  68.475  1.00  0.00    -0.048 C  
BRANCH  13  14
HETATM   14  C   UNL     1      -7.544  12.778  68.820  1.00  0.00    -0.025 C  
BRANCH  14  15
HETATM   15  C   UNL     1      -7.287  11.259  68.745  1.00  0.00    -0.109 C  
BRANCH  15  16
HETATM   16  C   UNL     1      -6.408  10.717  69.882  1.00  0.00    -0.110 C  
BRANCH  16  17
HETATM   17  N   UNL     1      -7.267  10.087  70.867  1.00  0.00    -0.363 NA 
HETATM   18  H2  UNL     1      -8.702   9.264  72.671  1.00  0.00     0.000 HD 
HETATM   19  H1  UNL     1      -7.877   7.660  72.732  1.00  0.00     0.000 HD 
HETATM   20  N   UNL     1      -6.269   7.941  71.032  1.00  0.00    -0.034 NA 
HETATM   21  N   UNL     1      -7.998   8.599  72.351  1.00  0.00    -0.361 NA 
HETATM   22  C   UNL     1      -7.107   8.844  71.371  1.00  0.00    -0.082 C  
HETATM   23  H   UNL     1      -8.061  10.629  71.207  1.00  0.00     0.000 HD 
HETATM   24  H1  UNL     1      -6.147   7.002  71.413  1.00  0.00     0.000 HD 
HETATM   25  H2  UNL     1      -5.632   8.193  70.276  1.00  0.00     0.000 HD 
ENDBRANCH  16  17
ENDBRANCH  15  16
ENDBRANCH  14  15
ENDBRANCH  13  14
BRANCH  13  26
HETATM   26  N   UNL     1      -9.820  11.909  68.450  1.00  0.00    -0.203 N  
HETATM   27  H   UNL     1      -9.370  11.000  68.343  1.00  0.00     0.000 HD 
BRANCH  26  28
HETATM   28  S   UNL     1     -11.516  12.029  68.603  1.00  0.00    -0.323 S  
HETATM   29  O   UNL     1     -12.111  11.528  67.392  1.00  0.00    -0.593 OA 
HETATM   30  O   UNL     1     -11.761  13.392  69.029  1.00  0.00    -0.280 OA 
BRANCH  28  31
HETATM   31  C   UNL     1     -11.857  10.934  69.956  1.00  0.00    -0.347 A  
HETATM   32  C   UNL     1     -11.317   7.346  71.158  1.00  0.00    -0.291 C  
HETATM   33  C   UNL     1     -12.647  11.438  71.001  1.00  0.00    -0.487 A  
HETATM   34  C   UNL     1     -10.300   5.403  69.917  1.00  0.00    -0.377 C  
HETATM   35  C   UNL     1     -12.966  10.633  72.090  1.00  0.00    -0.328 A  
HETATM   36  C   UNL     1     -10.921   6.791  69.786  1.00  0.00    -0.345 C  
HETATM   37  C   UNL     1      -9.966   7.781  69.134  1.00  0.00    -0.182 C  
HETATM   38  H   UNL     1     -10.542   9.560  68.033  1.00  0.00     0.000 HD 
HETATM   39  N   UNL     1     -10.622   9.068  68.924  1.00  0.00    -0.210 NA 
HETATM   40  C   UNL     1     -12.496   9.326  72.139  1.00  0.00    -0.421 A  
HETATM   41  C   UNL     1     -11.368   9.611  69.982  1.00  0.00    -0.195 A  
HETATM   42  C   UNL     1     -11.712   8.805  71.093  1.00  0.00    -0.344 A  
ENDBRANCH  28  31
ENDBRANCH  26  28
ENDBRANCH  13  26
ENDBRANCH   7  13
TORSDOF 8
ENDMDL
MODEL      107
REMARK 921   NORMALIZED FREE ENERGY PREDICTED BY IDOCK:   -6.30 KCAL/MOL
REMARK 922        TOTAL FREE ENERGY PREDICTED BY IDOCK:  -10.49 KCAL/MOL
REMARK 923 INTER-LIGAND FREE ENERGY PREDICTED BY IDOCK:  -10.28 KCAL/MOL
REMARK 924 INTRA-LIGAND FREE ENERGY PREDICTED BY IDOCK:   -0.21 KCAL/MOL
REMARK 927      BINDING AFFINITY PREDICTED BY RF-SCORE:    0.00 PKD
ROOT
HETATM    1  C   UNL     1     -10.170  19.957  69.239  1.00  0.00    -0.212 C  
HETATM    2  C   UNL     1      -9.731  19.077  68.078  1.00  0.00    -0.399 C  
HETATM    3  C   UNL     1     -10.889  18.775  67.121  1.00  0.00    -0.375 C  
HETATM    4  C   UNL     1     -10.444  17.854  65.986  1.00  0.00    -0.293 C  
HETATM    5  N   UNL     1      -9.723  16.640  66.460  1.00  0.00    -0.260 N  
HETATM    6  C   UNL     1      -8.631  16.899  67.423  1.00  0.00    -0.202 C  
HETATM    7  C   UNL     1     -10.374  15.409  66.303  1.00  0.00    -0.294 C  
HETATM    8  O   UNL     1     -11.511  15.405  65.812  1.00  0.00    -0.192 OA 
HETATM    9  O   UNL     1      -7.376  17.766  65.554  1.00  0.00    -0.489 OA 
HETATM   10  C   UNL     1      -9.146  17.751  68.589  1.00  0.00    -0.262 C  
HETATM   11  C   UNL     1      -7.354  17.538  66.868  1.00  0.00    -0.205 C  
HETATM   12  O   UNL     1      -6.386  17.828  67.554  1.00  0.00    -0.160 OA 
ENDROOT
BRANCH   7  13
HETATM   13  C   UNL     1      -9.719  14.012  66.595  1.00  0.00    -0.289 C  
BRANCH  13  14
HETATM   14  C   UNL     1      -9.818  12.885  65.532  1.00  0.00    -0.159 C  
BRANCH  14  15
HETATM   15  C   UNL     1     -10.551  13.335  64.251  1.00  0.00    -0.402 C  
BRANCH  15  16
HETATM   16  C   UNL     1     -11.156  12.179  63.440  1.00  0.00    -0.420 C  
BRANCH  16  17
HETATM   17  N   UNL     1     -10.074  11.432  62.826  1.00  0.00    -0.623 NA 
HETATM   18  H2  UNL     1      -8.375  10.222  61.546  1.00  0.00     0.000 HD 
HETATM   19  H1  UNL     1      -8.308   8.861  62.729  1.00  0.00     0.000 HD 
HETATM   20  N   UNL     1      -9.890   9.594  64.315  1.00  0.00    -0.383 NA 
HETATM   21  N   UNL     1      -8.671   9.757  62.404  1.00  0.00    -0.200 NA 
HETATM   22  C   UNL     1      -9.593  10.246  63.256  1.00  0.00    -0.256 C  
HETATM   23  H   UNL     1      -9.638  11.839  61.998  1.00  0.00     0.000 HD 
HETATM   24  H1  UNL     1      -9.527   8.697  64.640  1.00  0.00     0.000 HD 
HETATM   25  H2  UNL     1     -10.587  10.029  64.918  1.00  0.00     0.000 HD 
ENDBRANCH  16  17
ENDBRANCH  15  16
ENDBRANCH  14  15
ENDBRANCH  13  14
BRANCH  13  26
HETATM   26  N   UNL     1     -10.114  13.443  67.913  1.00  0.00    -0.232 N  
HETATM   27  H   UNL     1      -9.418  13.293  68.644  1.00  0.00     0.000 HD 
BRANCH  26  28
HETATM   28  S   UNL     1     -11.753  13.046  68.178  1.00  0.00    -0.350 S  
HETATM   29  O   UNL     1     -12.319  12.619  66.925  1.00  0.00    -0.430 OA 
HETATM   30  O   UNL     1     -12.308  14.184  68.881  1.00  0.00    -0.284 OA 
BRANCH  28  31
HETATM   31  C   UNL     1     -11.639  11.677  69.300  1.00  0.00    -0.320 A  
HETATM   32  C   UNL     1     -10.101   8.200  69.689  1.00  0.00    -0.199 C  
HETATM   33  C   UNL     1     -12.383  11.763  70.488  1.00  0.00    -0.387 A  
HETATM   34  C   UNL     1      -8.820   6.843  67.996  1.00  0.00    -0.123 C  
HETATM   35  C   UNL     1     -12.353  10.722  71.411  1.00  0.00    -0.433 A  
HETATM   36  C   UNL     1      -9.768   8.021  68.205  1.00  0.00    -0.179 C  
HETATM   37  C   UNL     1      -9.173   9.326  67.694  1.00  0.00    -0.124 C  
HETATM   38  H   UNL     1     -10.299  11.059  67.034  1.00  0.00     0.000 HD 
HETATM   39  N   UNL     1     -10.141  10.413  67.808  1.00  0.00    -0.174 NA 
HETATM   40  C   UNL     1     -11.580   9.596  71.150  1.00  0.00    -0.456 A  
HETATM   41  C   UNL     1     -10.848  10.545  69.013  1.00  0.00    -0.232 A  
HETATM   42  C   UNL     1     -10.840   9.492  69.959  1.00  0.00    -0.286 A  
ENDBRANCH  28  31
ENDBRANCH  26  28
ENDBRANCH  13  26
ENDBRANCH   7  13
TORSDOF 8
ENDMDL
MODEL      108
REMARK 921   NORMALIZED FREE ENERGY PREDICTED BY IDOCK:   -6.30 KCAL/MOL
REMARK 922        TOTAL FREE ENERGY PREDICTED BY IDOCK:  -10.49 KCAL/MOL
REMARK 923 INTER-LIGAND FREE ENERGY PREDICTED BY IDOCK:  -10.16 KCAL/MOL
REMARK 924 INTRA-LIGAND FREE ENERGY PREDICTED BY IDOCK:   -0.33 KCAL/MOL
REMARK 927      BINDING AFFINITY PREDICTED BY RF-SCORE:    0.00 PKD
ROOT
HETATM    1  C   UNL     1     -10.217  19.996  69.404  1.00  0.00    -0.102 C  
HETATM    2  C   UNL     1      -9.720  19.357  68.115  1.00  0.00    -0.470 C  
HETATM    3  C   UNL     1     -10.722  19.533  66.969  1.00  0.00    -0.592 C  
HETATM    4  C   UNL     1     -10.231  18.847  65.694  1.00  0.00     0.043 C  
HETATM    5  N   UNL     1      -9.803  17.437  65.909  1.00  0.00    -0.166 N  
HETATM    6  C   UNL     1      -8.874  17.233  67.042  1.00  0.00    -0.228 C  
HETATM    7  C   UNL     1     -10.599  16.435  65.339  1.00  0.00    -0.320 C  
HETATM    8  O   UNL     1     -11.618  16.774  64.721  1.00  0.00    -0.241 OA 
HETATM    9  O   UNL     1      -7.186  18.266  65.660  1.00  0.00    -0.503 OA 
HETATM   10  C   UNL     1      -9.449  17.859  68.317  1.00  0.00    -0.300 C  
HETATM   11  C   UNL     1      -7.435  17.724  66.854  1.00  0.00    -0.201 C  
HETATM   12  O   UNL     1      -6.572  17.642  67.714  1.00  0.00    -0.175 OA 
ENDROOT
BRANCH   7  13
HETATM   13  C   UNL     1     -10.232  14.908  65.323  1.00  0.00    -0.373 C  
BRANCH  13  14
HETATM   14  C   UNL     1     -11.277  13.877  64.822  1.00  0.00    -0.369 C  
BRANCH  14  15
HETATM   15  C   UNL     1     -10.673  12.829  63.864  1.00  0.00    -0.443 C  
BRANCH  15  16
HETATM   16  C   UNL     1     -10.783  11.383  64.372  1.00  0.00    -0.342 C  
BRANCH  16  17
HETATM   17  N   UNL     1     -10.185  10.503  63.384  1.00  0.00    -0.473 NA 
HETATM   18  H2  UNL     1      -9.396   8.849  61.761  1.00  0.00     0.000 HD 
HETATM   19  H1  UNL     1      -7.689   8.950  62.338  1.00  0.00     0.000 HD 
HETATM   20  N   UNL     1      -7.908  10.558  64.047  1.00  0.00    -0.341 NA 
HETATM   21  N   UNL     1      -8.671   9.223  62.374  1.00  0.00    -0.225 NA 
HETATM   22  C   UNL     1      -8.885  10.142  63.336  1.00  0.00    -0.231 C  
HETATM   23  H   UNL     1     -10.801  10.125  62.663  1.00  0.00     0.000 HD 
HETATM   24  H1  UNL     1      -6.925  10.285  64.011  1.00  0.00     0.000 HD 
HETATM   25  H2  UNL     1      -8.143  11.260  64.748  1.00  0.00     0.000 HD 
ENDBRANCH  16  17
ENDBRANCH  15  16
ENDBRANCH  14  15
ENDBRANCH  13  14
BRANCH  13  26
HETATM   26  N   UNL     1      -9.684  14.422  66.620  1.00  0.00    -0.267 N  
HETATM   27  H   UNL     1      -8.678  14.408  66.786  1.00  0.00     0.000 HD 
BRANCH  26  28
HETATM   28  S   UNL     1     -10.773  13.890  67.822  1.00  0.00    -0.248 S  
HETATM   29  O   UNL     1     -12.099  13.899  67.262  1.00  0.00    -0.401 OA 
HETATM   30  O   UNL     1     -10.467  14.692  68.989  1.00  0.00    -0.239 OA 
BRANCH  28  31
HETATM   31  C   UNL     1     -10.237  12.224  68.113  1.00  0.00    -0.212 A  
HETATM   32  C   UNL     1     -10.974   9.135  70.241  1.00  0.00    -0.279 C  
HETATM   33  C   UNL     1      -9.111  11.782  67.401  1.00  0.00    -0.175 A  
HETATM   34  C   UNL     1     -12.600   8.885  72.150  1.00  0.00    -0.467 C  
HETATM   35  C   UNL     1      -8.626  10.492  67.587  1.00  0.00    -0.118 A  
HETATM   36  C   UNL     1     -11.830   9.872  71.276  1.00  0.00    -0.479 C  
HETATM   37  C   UNL     1     -12.761  10.818  70.532  1.00  0.00    -0.305 C  
HETATM   38  H   UNL     1     -12.249  12.805  69.826  1.00  0.00     0.000 HD 
HETATM   39  N   UNL     1     -11.996  11.817  69.790  1.00  0.00    -0.324 NA 
HETATM   40  C   UNL     1      -9.264   9.640  68.482  1.00  0.00    -0.137 A  
HETATM   41  C   UNL     1     -10.902  11.379  69.027  1.00  0.00    -0.219 A  
HETATM   42  C   UNL     1     -10.387  10.074  69.210  1.00  0.00    -0.237 A  
ENDBRANCH  28  31
ENDBRANCH  26  28
ENDBRANCH  13  26
ENDBRANCH   7  13
TORSDOF 8
ENDMDL
MODEL      109
REMARK 921   NORMALIZED FREE ENERGY PREDICTED BY IDOCK:   -6.25 KCAL/MOL
REMARK 922        TOTAL FREE ENERGY PREDICTED BY IDOCK:  -10.43 KCAL/MOL
REMARK 923 INTER-LIGAND FREE ENERGY PREDICTED BY IDOCK:   -8.72 KCAL/MOL
REMARK 924 INTRA-LIGAND FREE ENERGY PREDICTED BY IDOCK:   -1.71 KCAL/MOL
REMARK 927      BINDING AFFINITY PREDICTED BY RF-SCORE:    0.00 PKD
ROOT
HETATM    1  C   UNL     1      -6.536  12.340  67.250  1.00  0.00    -0.146 C  
HETATM    2  C   UNL     1      -6.816  10.956  67.818  1.00  0.00    -0.072 C  
HETATM    3  C   UNL     1      -7.383  10.008  66.756  1.00  0.00    -0.095 C  
HETATM    4  C   UNL     1      -7.701   8.636  67.351  1.00  0.00    -0.098 C  
HETATM    5  N   UNL     1      -8.519   8.708  68.593  1.00  0.00    -0.129 N  
HETATM    6  C   UNL     1      -8.021   9.654  69.615  1.00  0.00    -0.137 C  
HETATM    7  C   UNL     1      -9.836   8.235  68.518  1.00  0.00    -0.176 C  
HETATM    8  O   UNL     1     -10.248   7.817  67.427  1.00  0.00    -0.202 OA 
HETATM    9  O   UNL     1      -6.263   8.055  70.035  1.00  0.00    -0.032 OA 
HETATM   10  C   UNL     1      -7.801  11.037  68.993  1.00  0.00    -0.126 C  
HETATM   11  C   UNL     1      -6.756   9.246  70.378  1.00  0.00    -0.073 C  
HETATM   12  O   UNL     1      -6.224   9.941  71.229  1.00  0.00    -0.253 OA 
ENDROOT
BRANCH   7  13
HETATM   13  C   UNL     1     -10.800   8.083  69.748  1.00  0.00    -0.194 C  
BRANCH  13  14
HETATM   14  C   UNL     1     -11.426   6.698  70.061  1.00  0.00    -0.434 C  
BRANCH  14  15
HETATM   15  C   UNL     1     -10.380   5.655  70.504  1.00  0.00    -0.327 C  
BRANCH  15  16
HETATM   16  C   UNL     1     -10.651   5.049  71.890  1.00  0.00    -0.154 C  
BRANCH  16  17
HETATM   17  N   UNL     1      -9.552   5.403  72.769  1.00  0.00    -0.149 NA 
HETATM   18  H2  UNL     1      -7.653   5.725  74.279  1.00  0.00     0.000 HD 
HETATM   19  H1  UNL     1      -8.498   7.004  75.232  1.00  0.00     0.000 HD 
HETATM   20  N   UNL     1     -10.556   7.101  74.087  1.00  0.00    -0.564 NA 
HETATM   21  N   UNL     1      -8.458   6.321  74.475  1.00  0.00    -0.126 NA 
HETATM   22  C   UNL     1      -9.606   6.308  73.770  1.00  0.00    -0.167 C  
HETATM   23  H   UNL     1      -8.662   4.928  72.617  1.00  0.00     0.000 HD 
HETATM   24  H1  UNL     1     -10.597   7.785  74.844  1.00  0.00     0.000 HD 
HETATM   25  H2  UNL     1     -11.390   7.043  73.503  1.00  0.00     0.000 HD 
ENDBRANCH  16  17
ENDBRANCH  15  16
ENDBRANCH  14  15
ENDBRANCH  13  14
BRANCH  13  26
HETATM   26  N   UNL     1     -11.887   9.101  69.772  1.00  0.00    -0.248 N  
HETATM   27  H   UNL     1     -12.262   9.480  68.902  1.00  0.00     0.000 HD 
BRANCH  26  28
HETATM   28  S   UNL     1     -12.492   9.620  71.281  1.00  0.00    -0.372 S  
HETATM   29  O   UNL     1     -11.526   9.282  72.292  1.00  0.00    -0.207 OA 
HETATM   30  O   UNL     1     -13.839   9.091  71.349  1.00  0.00    -0.361 OA 
BRANCH  28  31
HETATM   31  C   UNL     1     -12.577  11.380  71.074  1.00  0.00    -0.386 A  
HETATM   32  C   UNL     1     -11.489  14.212  68.748  1.00  0.00    -0.333 C  
HETATM   33  C   UNL     1     -13.199  12.114  72.097  1.00  0.00    -0.438 A  
HETATM   34  C   UNL     1      -9.989  14.104  66.726  1.00  0.00    -0.267 C  
HETATM   35  C   UNL     1     -13.291  13.499  72.010  1.00  0.00    -0.563 A  
HETATM   36  C   UNL     1     -10.439  13.388  67.996  1.00  0.00    -0.243 C  
HETATM   37  C   UNL     1     -11.038  12.021  67.695  1.00  0.00    -0.264 C  
HETATM   38  H   UNL     1     -11.102  10.336  69.061  1.00  0.00     0.000 HD 
HETATM   39  N   UNL     1     -11.360  11.315  68.932  1.00  0.00    -0.247 NA 
HETATM   40  C   UNL     1     -12.765  14.154  70.902  1.00  0.00    -0.432 A  
HETATM   41  C   UNL     1     -12.035  12.022  69.941  1.00  0.00    -0.318 A  
HETATM   42  C   UNL     1     -12.129  13.432  69.876  1.00  0.00    -0.389 A  
ENDBRANCH  28  31
ENDBRANCH  26  28
ENDBRANCH  13  26
ENDBRANCH   7  13
TORSDOF 8
ENDMDL
MODEL      110
REMARK 921   NORMALIZED FREE ENERGY PREDICTED BY IDOCK:   -6.25 KCAL/MOL
REMARK 922        TOTAL FREE ENERGY PREDICTED BY IDOCK:  -10.42 KCAL/MOL
REMARK 923 INTER-LIGAND FREE ENERGY PREDICTED BY IDOCK:   -9.77 KCAL/MOL
REMARK 924 INTRA-LIGAND FREE ENERGY PREDICTED BY IDOCK:   -0.64 KCAL/MOL
REMARK 927      BINDING AFFINITY PREDICTED BY RF-SCORE:    0.00 PKD
ROOT
HETATM    1  C   UNL     1     -10.303  17.898  66.336  1.00  0.00    -0.365 C  
HETATM    2  C   UNL     1      -9.953  16.422  66.463  1.00  0.00    -0.294 C  
HETATM    3  C   UNL     1     -10.569  15.591  65.332  1.00  0.00    -0.428 C  
HETATM    4  C   UNL     1     -10.247  14.106  65.497  1.00  0.00    -0.351 C  
HETATM    5  N   UNL     1     -10.550  13.586  66.860  1.00  0.00    -0.269 N  
HETATM    6  C   UNL     1     -10.008  14.397  67.972  1.00  0.00    -0.225 C  
HETATM    7  C   UNL     1     -11.613  12.680  66.976  1.00  0.00    -0.365 C  
HETATM    8  O   UNL     1     -12.252  12.391  65.955  1.00  0.00    -0.629 OA 
HETATM    9  O   UNL     1      -7.840  13.530  67.363  1.00  0.00    -0.163 OA 
HETATM   10  C   UNL     1     -10.430  15.862  67.812  1.00  0.00    -0.287 C  
HETATM   11  C   UNL     1      -8.495  14.339  68.199  1.00  0.00    -0.167 C  
HETATM   12  O   UNL     1      -7.913  14.975  69.064  1.00  0.00    -0.157 OA 
ENDROOT
BRANCH   7  13
HETATM   13  C   UNL     1     -11.984  11.906  68.291  1.00  0.00    -0.167 C  
BRANCH  13  14
HETATM   14  C   UNL     1     -11.448  12.418  69.655  1.00  0.00    -0.264 C  
BRANCH  14  15
HETATM   15  C   UNL     1     -11.668  11.408  70.800  1.00  0.00    -0.068 C  
BRANCH  15  16
HETATM   16  C   UNL     1     -13.144  11.182  71.159  1.00  0.00    -0.190 C  
BRANCH  16  17
HETATM   17  N   UNL     1     -13.463   9.784  70.932  1.00  0.00    -0.569 NA 
HETATM   18  H2  UNL     1     -14.153   7.514  70.331  1.00  0.00     0.000 HD 
HETATM   19  H1  UNL     1     -14.479   7.051  72.046  1.00  0.00     0.000 HD 
HETATM   20  N   UNL     1     -13.914   9.058  73.146  1.00  0.00    -1.215 NA 
HETATM   21  N   UNL     1     -14.186   7.718  71.331  1.00  0.00    -0.398 NA 
HETATM   22  C   UNL     1     -13.850   8.902  71.878  1.00  0.00    -0.440 C  
HETATM   23  H   UNL     1     -13.388   9.438  69.975  1.00  0.00     0.000 HD 
HETATM   24  H1  UNL     1     -14.207   8.391  73.861  1.00  0.00     0.000 HD 
HETATM   25  H2  UNL     1     -13.634   9.976  73.490  1.00  0.00     0.000 HD 
ENDBRANCH  16  17
ENDBRANCH  15  16
ENDBRANCH  14  15
ENDBRANCH  13  14
BRANCH  13  26
HETATM   26  N   UNL     1     -11.718  10.444  68.206  1.00  0.00    -0.466 N  
HETATM   27  H   UNL     1     -12.430   9.768  68.484  1.00  0.00     0.000 HD 
BRANCH  26  28
HETATM   28  S   UNL     1     -10.198   9.918  67.633  1.00  0.00    -0.224 S  
HETATM   29  O   UNL     1      -9.182  10.734  68.244  1.00  0.00    -0.145 OA 
HETATM   30  O   UNL     1     -10.332   9.875  66.191  1.00  0.00    -0.230 OA 
BRANCH  28  31
HETATM   31  C   UNL     1     -10.109   8.258  68.251  1.00  0.00    -0.198 A  
HETATM   32  C   UNL     1      -8.694   4.799  67.447  1.00  0.00    -0.103 C  
HETATM   33  C   UNL     1     -10.819   7.976  69.429  1.00  0.00    -0.104 A  
HETATM   34  C   UNL     1      -7.508   4.025  65.363  1.00  0.00    -0.081 C  
HETATM   35  C   UNL     1     -10.806   6.693  69.966  1.00  0.00    -0.331 A  
HETATM   36  C   UNL     1      -8.405   5.099  65.972  1.00  0.00    -0.116 C  
HETATM   37  C   UNL     1      -7.773   6.482  65.887  1.00  0.00    -0.090 C  
HETATM   38  H   UNL     1      -8.849   8.366  65.860  1.00  0.00     0.000 HD 
HETATM   39  N   UNL     1      -8.696   7.501  66.379  1.00  0.00    -0.138 NA 
HETATM   40  C   UNL     1     -10.083   5.690  69.330  1.00  0.00    -0.290 A  
HETATM   41  C   UNL     1      -9.369   7.257  67.587  1.00  0.00    -0.128 A  
HETATM   42  C   UNL     1      -9.377   5.956  68.143  1.00  0.00    -0.117 A  
ENDBRANCH  28  31
ENDBRANCH  26  28
ENDBRANCH  13  26
ENDBRANCH   7  13
TORSDOF 8
ENDMDL
MODEL      111
REMARK 921   NORMALIZED FREE ENERGY PREDICTED BY IDOCK:   -6.24 KCAL/MOL
REMARK 922        TOTAL FREE ENERGY PREDICTED BY IDOCK:  -10.41 KCAL/MOL
REMARK 923 INTER-LIGAND FREE ENERGY PREDICTED BY IDOCK:   -9.26 KCAL/MOL
REMARK 924 INTRA-LIGAND FREE ENERGY PREDICTED BY IDOCK:   -1.14 KCAL/MOL
REMARK 927      BINDING AFFINITY PREDICTED BY RF-SCORE:    0.00 PKD
ROOT
HETATM    1  C   UNL     1      -9.929  10.231  64.936  1.00  0.00    -0.393 C  
HETATM    2  C   UNL     1      -9.396   9.567  66.198  1.00  0.00    -0.254 C  
HETATM    3  C   UNL     1     -10.096   8.234  66.481  1.00  0.00    -0.303 C  
HETATM    4  C   UNL     1      -9.583   7.602  67.774  1.00  0.00    -0.144 C  
HETATM    5  N   UNL     1      -9.585   8.541  68.930  1.00  0.00    -0.158 N  
HETATM    6  C   UNL     1      -8.957   9.855  68.669  1.00  0.00    -0.128 C  
HETATM    7  C   UNL     1     -10.500   8.284  69.959  1.00  0.00    -0.231 C  
HETATM    8  O   UNL     1     -11.268   7.320  69.835  1.00  0.00    -0.244 OA 
HETATM    9  O   UNL     1      -6.841   8.697  68.718  1.00  0.00    -0.060 OA 
HETATM   10  C   UNL     1      -9.566  10.490  67.414  1.00  0.00    -0.181 C  
HETATM   11  C   UNL     1      -7.431   9.882  68.547  1.00  0.00    -0.082 C  
HETATM   12  O   UNL     1      -6.786  10.891  68.309  1.00  0.00    -0.065 OA 
ENDROOT
BRANCH   7  13
HETATM   13  C   UNL     1     -10.549   9.061  71.323  1.00  0.00    -0.308 C  
BRANCH  13  14
HETATM   14  C   UNL     1     -11.250   8.414  72.547  1.00  0.00    -0.406 C  
BRANCH  14  15
HETATM   15  C   UNL     1     -10.289   7.570  73.409  1.00  0.00    -0.405 C  
BRANCH  15  16
HETATM   16  C   UNL     1     -10.599   6.065  73.398  1.00  0.00    -0.260 C  
BRANCH  16  17
HETATM   17  N   UNL     1     -10.086   5.499  72.164  1.00  0.00    -0.181 NA 
HETATM   18  H2  UNL     1      -9.350   4.757  69.951  1.00  0.00     0.000 HD 
HETATM   19  H1  UNL     1      -9.716   3.024  70.300  1.00  0.00     0.000 HD 
HETATM   20  N   UNL     1     -10.518   3.192  72.510  1.00  0.00    -0.106 NA 
HETATM   21  N   UNL     1      -9.682   4.010  70.562  1.00  0.00    -0.191 NA 
HETATM   22  C   UNL     1     -10.132   4.195  71.818  1.00  0.00    -0.142 C  
HETATM   23  H   UNL     1      -9.653   6.143  71.501  1.00  0.00     0.000 HD 
HETATM   24  H1  UNL     1     -10.552   2.206  72.248  1.00  0.00     0.000 HD 
HETATM   25  H2  UNL     1     -10.835   3.406  73.455  1.00  0.00     0.000 HD 
ENDBRANCH  16  17
ENDBRANCH  15  16
ENDBRANCH  14  15
ENDBRANCH  13  14
BRANCH  13  26
HETATM   26  N   UNL     1     -11.049  10.457  71.185  1.00  0.00    -0.172 N  
HETATM   27  H   UNL     1     -10.405  11.247  71.222  1.00  0.00     0.000 HD 
BRANCH  26  28
HETATM   28  S   UNL     1     -12.723  10.711  70.963  1.00  0.00    -0.432 S  
HETATM   29  O   UNL     1     -13.423  10.037  72.025  1.00  0.00    -0.407 OA 
HETATM   30  O   UNL     1     -12.978  10.359  69.581  1.00  0.00    -0.029 OA 
BRANCH  28  31
HETATM   31  C   UNL     1     -12.872  12.469  71.145  1.00  0.00    -0.211 A  
HETATM   32  C   UNL     1     -11.634  15.779  69.688  1.00  0.00    -0.363 C  
HETATM   33  C   UNL     1     -13.662  12.936  72.207  1.00  0.00    -0.553 A  
HETATM   34  C   UNL     1      -9.874  16.168  67.926  1.00  0.00    -0.235 C  
HETATM   35  C   UNL     1     -13.814  14.302  72.419  1.00  0.00    -0.619 A  
HETATM   36  C   UNL     1     -10.451  15.171  68.927  1.00  0.00    -0.241 C  
HETATM   37  C   UNL     1     -10.933  13.897  68.247  1.00  0.00    -0.255 C  
HETATM   38  H   UNL     1     -11.089  11.943  69.179  1.00  0.00     0.000 HD 
HETATM   39  N   UNL     1     -11.379  12.920  69.237  1.00  0.00    -0.260 NA 
HETATM   40  C   UNL     1     -13.181  15.204  71.572  1.00  0.00    -0.512 A  
HETATM   41  C   UNL     1     -12.218  13.364  70.271  1.00  0.00    -0.335 A  
HETATM   42  C   UNL     1     -12.377  14.749  70.511  1.00  0.00    -0.398 A  
ENDBRANCH  28  31
ENDBRANCH  26  28
ENDBRANCH  13  26
ENDBRANCH   7  13
TORSDOF 8
ENDMDL
MODEL      112
REMARK 921   NORMALIZED FREE ENERGY PREDICTED BY IDOCK:   -6.24 KCAL/MOL
REMARK 922        TOTAL FREE ENERGY PREDICTED BY IDOCK:  -10.41 KCAL/MOL
REMARK 923 INTER-LIGAND FREE ENERGY PREDICTED BY IDOCK:   -8.59 KCAL/MOL
REMARK 924 INTRA-LIGAND FREE ENERGY PREDICTED BY IDOCK:   -1.82 KCAL/MOL
REMARK 927      BINDING AFFINITY PREDICTED BY RF-SCORE:    0.00 PKD
ROOT
HETATM    1  C   UNL     1      -7.483   8.219  72.862  1.00  0.00    -0.151 C  
HETATM    2  C   UNL     1      -7.807   8.074  71.382  1.00  0.00    -0.099 C  
HETATM    3  C   UNL     1      -6.548   8.165  70.511  1.00  0.00    -0.036 C  
HETATM    4  C   UNL     1      -6.894   8.064  69.026  1.00  0.00    -0.057 C  
HETATM    5  N   UNL     1      -7.983   8.991  68.609  1.00  0.00    -0.101 N  
HETATM    6  C   UNL     1      -9.190   8.959  69.463  1.00  0.00    -0.150 C  
HETATM    7  C   UNL     1      -7.629  10.053  67.766  1.00  0.00    -0.090 C  
HETATM    8  O   UNL     1      -6.439  10.175  67.444  1.00  0.00    -0.066 OA 
HETATM    9  O   UNL     1      -9.676   6.821  68.454  1.00  0.00    -0.128 OA 
HETATM   10  C   UNL     1      -8.804   9.153  70.933  1.00  0.00    -0.292 C  
HETATM   11  C   UNL     1     -10.090   7.724  69.345  1.00  0.00    -0.195 C  
HETATM   12  O   UNL     1     -11.102   7.556  70.007  1.00  0.00    -0.257 OA 
ENDROOT
BRANCH   7  13
HETATM   13  C   UNL     1      -8.653  11.038  67.097  1.00  0.00    -0.136 C  
BRANCH  13  14
HETATM   14  C   UNL     1      -9.666  10.494  66.056  1.00  0.00    -0.257 C  
BRANCH  14  15
HETATM   15  C   UNL     1     -11.094  10.360  66.624  1.00  0.00     0.039 C  
BRANCH  15  16
HETATM   16  C   UNL     1     -11.404  11.336  67.769  1.00  0.00    -0.285 C  
BRANCH  16  17
HETATM   17  N   UNL     1     -12.220  10.646  68.752  1.00  0.00    -0.808 NA 
HETATM   18  H2  UNL     1     -13.793   9.466  70.209  1.00  0.00     0.000 HD 
HETATM   19  H1  UNL     1     -13.456  10.546  71.616  1.00  0.00     0.000 HD 
HETATM   20  N   UNL     1     -11.851  11.991  70.671  1.00  0.00    -0.468 NA 
HETATM   21  N   UNL     1     -13.313  10.252  70.649  1.00  0.00    -0.191 NA 
HETATM   22  C   UNL     1     -12.409  11.035  70.031  1.00  0.00    -0.305 C  
HETATM   23  H   UNL     1     -12.693   9.794  68.449  1.00  0.00     0.000 HD 
HETATM   24  H1  UNL     1     -11.993  12.285  71.638  1.00  0.00     0.000 HD 
HETATM   25  H2  UNL     1     -11.169  12.535  70.143  1.00  0.00     0.000 HD 
ENDBRANCH  16  17
ENDBRANCH  15  16
ENDBRANCH  14  15
ENDBRANCH  13  14
BRANCH  13  26
HETATM   26  N   UNL     1      -8.010  12.255  66.529  1.00  0.00    -0.393 N  
HETATM   27  H   UNL     1      -7.544  12.222  65.622  1.00  0.00     0.000 HD 
BRANCH  26  28
HETATM   28  S   UNL     1      -8.066  13.707  67.424  1.00  0.00    -0.151 S  
HETATM   29  O   UNL     1      -6.746  14.283  67.429  1.00  0.00    -0.259 OA 
HETATM   30  O   UNL     1      -8.715  13.357  68.671  1.00  0.00    -0.110 OA 
BRANCH  28  31
HETATM   31  C   UNL     1      -9.171  14.708  66.462  1.00  0.00    -0.266 A  
HETATM   32  C   UNL     1     -10.375  18.306  66.005  1.00  0.00    -0.377 C  
HETATM   33  C   UNL     1      -9.991  14.044  65.536  1.00  0.00    -0.302 A  
HETATM   34  C   UNL     1      -9.830  20.341  67.388  1.00  0.00    -0.586 C  
HETATM   35  C   UNL     1     -10.891  14.761  64.756  1.00  0.00    -0.395 A  
HETATM   36  C   UNL     1      -9.826  18.815  67.341  1.00  0.00    -0.357 C  
HETATM   37  C   UNL     1      -8.426  18.245  67.523  1.00  0.00    -0.249 C  
HETATM   38  H   UNL     1      -7.950  16.275  68.298  1.00  0.00     0.000 HD 
HETATM   39  N   UNL     1      -8.466  16.787  67.582  1.00  0.00    -0.189 NA 
HETATM   40  C   UNL     1     -10.974  16.141  64.896  1.00  0.00    -0.364 A  
HETATM   41  C   UNL     1      -9.236  16.108  66.624  1.00  0.00    -0.246 A  
HETATM   42  C   UNL     1     -10.166  16.818  65.829  1.00  0.00    -0.311 A  
ENDBRANCH  28  31
ENDBRANCH  26  28
ENDBRANCH  13  26
ENDBRANCH   7  13
TORSDOF 8
ENDMDL
MODEL      113
REMARK 921   NORMALIZED FREE ENERGY PREDICTED BY IDOCK:   -6.23 KCAL/MOL
REMARK 922        TOTAL FREE ENERGY PREDICTED BY IDOCK:  -10.40 KCAL/MOL
REMARK 923 INTER-LIGAND FREE ENERGY PREDICTED BY IDOCK:   -9.28 KCAL/MOL
REMARK 924 INTRA-LIGAND FREE ENERGY PREDICTED BY IDOCK:   -1.12 KCAL/MOL
REMARK 927      BINDING AFFINITY PREDICTED BY RF-SCORE:    0.00 PKD
ROOT
HETATM    1  C   UNL     1      -9.275  19.048  67.118  1.00  0.00    -0.326 C  
HETATM    2  C   UNL     1      -9.251  17.816  68.013  1.00  0.00    -0.273 C  
HETATM    3  C   UNL     1      -7.824  17.435  68.420  1.00  0.00    -0.257 C  
HETATM    4  C   UNL     1      -7.812  16.171  69.280  1.00  0.00    -0.203 C  
HETATM    5  N   UNL     1      -8.590  15.048  68.688  1.00  0.00    -0.166 N  
HETATM    6  C   UNL     1      -9.955  15.401  68.240  1.00  0.00    -0.214 C  
HETATM    7  C   UNL     1      -7.865  13.938  68.236  1.00  0.00    -0.146 C  
HETATM    8  O   UNL     1      -6.630  13.967  68.326  1.00  0.00    -0.087 OA 
HETATM    9  O   UNL     1     -10.545  15.497  70.578  1.00  0.00    -0.323 OA 
HETATM   10  C   UNL     1      -9.908  16.619  67.310  1.00  0.00    -0.255 C  
HETATM   11  C   UNL     1     -10.999  15.653  69.333  1.00  0.00    -0.283 C  
HETATM   12  O   UNL     1     -12.155  15.975  69.107  1.00  0.00    -0.293 OA 
ENDROOT
BRANCH   7  13
HETATM   13  C   UNL     1      -8.510  12.599  67.728  1.00  0.00    -0.172 C  
BRANCH  13  14
HETATM   14  C   UNL     1      -9.603  12.647  66.627  1.00  0.00    -0.249 C  
BRANCH  14  15
HETATM   15  C   UNL     1     -10.866  11.845  67.003  1.00  0.00    -0.303 C  
BRANCH  15  16
HETATM   16  C   UNL     1     -12.156  12.679  67.010  1.00  0.00    -0.132 C  
BRANCH  16  17
HETATM   17  N   UNL     1     -12.111  13.603  65.892  1.00  0.00    -0.411 NA 
HETATM   18  H2  UNL     1     -12.123  15.358  64.186  1.00  0.00     0.000 HD 
HETATM   19  H1  UNL     1     -12.891  14.291  62.949  1.00  0.00     0.000 HD 
HETATM   20  N   UNL     1     -13.106  12.293  64.182  1.00  0.00    -0.757 NA 
HETATM   21  N   UNL     1     -12.516  14.467  63.882  1.00  0.00    -0.806 NA 
HETATM   22  C   UNL     1     -12.607  13.370  64.658  1.00  0.00    -0.265 C  
HETATM   23  H   UNL     1     -11.666  14.507  66.052  1.00  0.00     0.000 HD 
HETATM   24  H1  UNL     1     -13.481  12.117  63.249  1.00  0.00     0.000 HD 
HETATM   25  H2  UNL     1     -13.133  11.501  64.823  1.00  0.00     0.000 HD 
ENDBRANCH  16  17
ENDBRANCH  15  16
ENDBRANCH  14  15
ENDBRANCH  13  14
BRANCH  13  26
HETATM   26  N   UNL     1      -9.000  11.728  68.832  1.00  0.00    -0.386 N  
HETATM   27  H   UNL     1      -9.831  11.984  69.366  1.00  0.00     0.000 HD 
BRANCH  26  28
HETATM   28  S   UNL     1      -8.146  10.294  69.188  1.00  0.00    -0.149 S  
HETATM   29  O   UNL     1      -7.235  10.570  70.268  1.00  0.00    -0.226 OA 
HETATM   30  O   UNL     1      -7.646   9.826  67.911  1.00  0.00    -0.086 OA 
BRANCH  28  31
HETATM   31  C   UNL     1      -9.436   9.205  69.733  1.00  0.00    -0.182 A  
HETATM   32  C   UNL     1     -10.511   5.537  69.716  1.00  0.00    -0.389 C  
HETATM   33  C   UNL     1     -10.541   9.793  70.368  1.00  0.00    -0.365 A  
HETATM   34  C   UNL     1      -9.443   3.585  68.534  1.00  0.00    -0.207 C  
HETATM   35  C   UNL     1     -11.597   9.003  70.812  1.00  0.00    -0.313 A  
HETATM   36  C   UNL     1      -9.543   5.106  68.611  1.00  0.00    -0.194 C  
HETATM   37  C   UNL     1      -8.191   5.750  68.889  1.00  0.00    -0.101 C  
HETATM   38  H   UNL     1      -7.613   7.769  68.342  1.00  0.00     0.000 HD 
HETATM   39  N   UNL     1      -8.297   7.206  68.850  1.00  0.00    -0.125 NA 
HETATM   40  C   UNL     1     -11.551   7.627  70.624  1.00  0.00    -0.251 A  
HETATM   41  C   UNL     1      -9.366   7.810  69.531  1.00  0.00    -0.149 A  
HETATM   42  C   UNL     1     -10.454   7.026  69.980  1.00  0.00    -0.233 A  
ENDBRANCH  28  31
ENDBRANCH  26  28
ENDBRANCH  13  26
ENDBRANCH   7  13
TORSDOF 8
ENDMDL
MODEL      114
REMARK 921   NORMALIZED FREE ENERGY PREDICTED BY IDOCK:   -6.21 KCAL/MOL
REMARK 922        TOTAL FREE ENERGY PREDICTED BY IDOCK:  -10.37 KCAL/MOL
REMARK 923 INTER-LIGAND FREE ENERGY PREDICTED BY IDOCK:   -8.31 KCAL/MOL
REMARK 924 INTRA-LIGAND FREE ENERGY PREDICTED BY IDOCK:   -2.06 KCAL/MOL
REMARK 927      BINDING AFFINITY PREDICTED BY RF-SCORE:    0.00 PKD
ROOT
HETATM    1  C   UNL     1     -11.673  14.909  67.260  1.00  0.00    -0.308 C  
HETATM    2  C   UNL     1     -10.932  13.709  67.832  1.00  0.00    -0.277 C  
HETATM    3  C   UNL     1      -9.424  13.963  67.928  1.00  0.00    -0.212 C  
HETATM    4  C   UNL     1      -8.688  12.733  68.461  1.00  0.00    -0.045 C  
HETATM    5  N   UNL     1      -9.043  11.477  67.744  1.00  0.00    -0.160 N  
HETATM    6  C   UNL     1     -10.494  11.233  67.593  1.00  0.00    -0.193 C  
HETATM    7  C   UNL     1      -8.048  10.895  66.946  1.00  0.00    -0.137 C  
HETATM    8  O   UNL     1      -6.953  11.469  66.861  1.00  0.00    -0.131 OA 
HETATM    9  O   UNL     1     -10.508  10.713  69.950  1.00  0.00    -0.207 OA 
HETATM   10  C   UNL     1     -11.175  12.458  66.974  1.00  0.00    -0.358 C  
HETATM   11  C   UNL     1     -11.262  10.823  68.854  1.00  0.00    -0.268 C  
HETATM   12  O   UNL     1     -12.465  10.615  68.878  1.00  0.00    -0.297 OA 
ENDROOT
BRANCH   7  13
HETATM   13  C   UNL     1      -8.177   9.497  66.241  1.00  0.00    -0.115 C  
BRANCH  13  14
HETATM   14  C   UNL     1      -9.003   9.375  64.934  1.00  0.00    -0.256 C  
BRANCH  14  15
HETATM   15  C   UNL     1      -8.943  10.650  64.067  1.00  0.00    -0.210 C  
BRANCH  15  16
HETATM   16  C   UNL     1      -9.877  10.620  62.847  1.00  0.00    -0.229 C  
BRANCH  16  17
HETATM   17  N   UNL     1     -11.209  11.002  63.279  1.00  0.00    -0.662 NA 
HETATM   18  H2  UNL     1     -13.551  11.465  63.815  1.00  0.00     0.000 HD 
HETATM   19  H1  UNL     1     -13.283  13.248  63.904  1.00  0.00     0.000 HD 
HETATM   20  N   UNL     1     -10.976  13.358  63.434  1.00  0.00    -0.266 NA 
HETATM   21  N   UNL     1     -12.957  12.293  63.757  1.00  0.00    -0.786 NA 
HETATM   22  C   UNL     1     -11.640  12.266  63.474  1.00  0.00    -0.486 C  
HETATM   23  H   UNL     1     -11.877  10.250  63.450  1.00  0.00     0.000 HD 
HETATM   24  H1  UNL     1     -11.302  14.314  63.581  1.00  0.00     0.000 HD 
HETATM   25  H2  UNL     1      -9.983  13.261  63.225  1.00  0.00     0.000 HD 
ENDBRANCH  16  17
ENDBRANCH  15  16
ENDBRANCH  14  15
ENDBRANCH  13  14
BRANCH  13  26
HETATM   26  N   UNL     1      -8.605   8.411  67.166  1.00  0.00    -0.122 N  
HETATM   27  H   UNL     1      -9.595   8.217  67.315  1.00  0.00     0.000 HD 
BRANCH  26  28
HETATM   28  S   UNL     1      -7.408   7.498  67.970  1.00  0.00    -0.098 S  
HETATM   29  O   UNL     1      -6.127   8.089  67.685  1.00  0.00    -0.048 OA 
HETATM   30  O   UNL     1      -7.675   6.122  67.605  1.00  0.00    -0.095 OA 
BRANCH  28  31
HETATM   31  C   UNL     1      -7.829   7.733  69.677  1.00  0.00    -0.107 A  
HETATM   32  C   UNL     1     -10.775   7.633  72.110  1.00  0.00    -0.289 C  
HETATM   33  C   UNL     1      -6.803   8.162  70.534  1.00  0.00    -0.037 A  
HETATM   34  C   UNL     1     -13.223   7.305  71.611  1.00  0.00    -0.421 C  
HETATM   35  C   UNL     1      -7.062   8.379  71.883  1.00  0.00    -0.103 A  
HETATM   36  C   UNL     1     -11.859   7.664  71.028  1.00  0.00    -0.306 C  
HETATM   37  C   UNL     1     -11.446   6.706  69.919  1.00  0.00    -0.354 C  
HETATM   38  H   UNL     1     -10.082   7.162  68.294  1.00  0.00     0.000 HD 
HETATM   39  N   UNL     1     -10.191   7.136  69.308  1.00  0.00    -0.184 NA 
HETATM   40  C   UNL     1      -8.343   8.167  72.380  1.00  0.00    -0.227 A  
HETATM   41  C   UNL     1      -9.137   7.511  70.156  1.00  0.00    -0.147 A  
HETATM   42  C   UNL     1      -9.383   7.748  71.529  1.00  0.00    -0.165 A  
ENDBRANCH  28  31
ENDBRANCH  26  28
ENDBRANCH  13  26
ENDBRANCH   7  13
TORSDOF 8
ENDMDL
MODEL      115
REMARK 921   NORMALIZED FREE ENERGY PREDICTED BY IDOCK:   -6.20 KCAL/MOL
REMARK 922        TOTAL FREE ENERGY PREDICTED BY IDOCK:  -10.35 KCAL/MOL
REMARK 923 INTER-LIGAND FREE ENERGY PREDICTED BY IDOCK:   -8.40 KCAL/MOL
REMARK 924 INTRA-LIGAND FREE ENERGY PREDICTED BY IDOCK:   -1.95 KCAL/MOL
REMARK 927      BINDING AFFINITY PREDICTED BY RF-SCORE:    0.00 PKD
ROOT
HETATM    1  C   UNL     1     -12.354  15.054  64.272  1.00  0.00    -0.247 C  
HETATM    2  C   UNL     1     -11.804  13.760  64.856  1.00  0.00    -0.394 C  
HETATM    3  C   UNL     1     -12.467  13.411  66.193  1.00  0.00    -0.389 C  
HETATM    4  C   UNL     1     -11.873  12.135  66.789  1.00  0.00    -0.228 C  
HETATM    5  N   UNL     1     -10.385  12.144  66.839  1.00  0.00    -0.211 N  
HETATM    6  C   UNL     1      -9.720  12.526  65.573  1.00  0.00    -0.119 C  
HETATM    7  C   UNL     1      -9.789  12.211  68.105  1.00  0.00    -0.207 C  
HETATM    8  O   UNL     1     -10.526  12.289  69.098  1.00  0.00    -0.082 OA 
HETATM    9  O   UNL     1     -10.373  10.357  64.739  1.00  0.00    -0.320 OA 
HETATM   10  C   UNL     1     -10.285  13.855  65.060  1.00  0.00    -0.383 C  
HETATM   11  C   UNL     1      -9.755  11.500  64.436  1.00  0.00    -0.200 C  
HETATM   12  O   UNL     1      -9.269  11.694  63.333  1.00  0.00    -0.149 OA 
ENDROOT
BRANCH   7  13
HETATM   13  C   UNL     1      -8.247  12.075  68.372  1.00  0.00    -0.151 C  
BRANCH  13  14
HETATM   14  C   UNL     1      -7.692  10.763  68.986  1.00  0.00    -0.133 C  
BRANCH  14  15
HETATM   15  C   UNL     1      -8.769   9.668  69.131  1.00  0.00    -0.151 C  
BRANCH  15  16
HETATM   16  C   UNL     1      -9.031   9.238  70.582  1.00  0.00    -0.243 C  
BRANCH  16  17
HETATM   17  N   UNL     1     -10.273   9.846  71.024  1.00  0.00    -0.275 NA 
HETATM   18  H2  UNL     1     -12.230  10.944  72.002  1.00  0.00     0.000 HD 
HETATM   19  H1  UNL     1     -13.347   9.615  71.507  1.00  0.00     0.000 HD 
HETATM   20  N   UNL     1     -11.838   8.170  70.417  1.00  0.00    -0.472 NA 
HETATM   21  N   UNL     1     -12.424  10.047  71.557  1.00  0.00    -0.389 NA 
HETATM   22  C   UNL     1     -11.495   9.276  70.958  1.00  0.00    -0.319 C  
HETATM   23  H   UNL     1     -10.217  10.786  71.418  1.00  0.00     0.000 HD 
HETATM   24  H1  UNL     1     -12.762   7.739  70.367  1.00  0.00     0.000 HD 
HETATM   25  H2  UNL     1     -11.085   7.645  69.973  1.00  0.00     0.000 HD 
ENDBRANCH  16  17
ENDBRANCH  15  16
ENDBRANCH  14  15
ENDBRANCH  13  14
BRANCH  13  26
HETATM   26  N   UNL     1      -7.681  13.222  69.136  1.00  0.00    -0.318 N  
HETATM   27  H   UNL     1      -7.851  13.314  70.137  1.00  0.00     0.000 HD 
BRANCH  26  28
HETATM   28  S   UNL     1      -6.742  14.379  68.303  1.00  0.00    -0.130 S  
HETATM   29  O   UNL     1      -6.199  13.752  67.126  1.00  0.00    -0.215 OA 
HETATM   30  O   UNL     1      -5.860  14.941  69.305  1.00  0.00    -0.099 OA 
BRANCH  28  31
HETATM   31  C   UNL     1      -7.949  15.598  67.851  1.00  0.00    -0.142 A  
HETATM   32  C   UNL     1      -8.328  18.994  66.139  1.00  0.00    -0.230 C  
HETATM   33  C   UNL     1      -9.272  15.369  68.261  1.00  0.00    -0.188 A  
HETATM   34  C   UNL     1      -6.530  20.546  65.297  1.00  0.00    -0.301 C  
HETATM   35  C   UNL     1     -10.270  16.287  67.954  1.00  0.00    -0.261 A  
HETATM   36  C   UNL     1      -6.840  19.355  66.199  1.00  0.00    -0.247 C  
HETATM   37  C   UNL     1      -6.039  18.121  65.806  1.00  0.00    -0.239 C  
HETATM   38  H   UNL     1      -5.499  16.486  67.127  1.00  0.00     0.000 HD 
HETATM   39  N   UNL     1      -6.275  17.031  66.749  1.00  0.00    -0.198 NA 
HETATM   40  C   UNL     1      -9.951  17.434  67.236  1.00  0.00    -0.302 A  
HETATM   41  C   UNL     1      -7.600  16.754  67.122  1.00  0.00    -0.188 A  
HETATM   42  C   UNL     1      -8.627  17.681  66.829  1.00  0.00    -0.276 A  
ENDBRANCH  28  31
ENDBRANCH  26  28
ENDBRANCH  13  26
ENDBRANCH   7  13
TORSDOF 8
ENDMDL
MODEL      116
REMARK 921   NORMALIZED FREE ENERGY PREDICTED BY IDOCK:   -6.20 KCAL/MOL
REMARK 922        TOTAL FREE ENERGY PREDICTED BY IDOCK:  -10.35 KCAL/MOL
REMARK 923 INTER-LIGAND FREE ENERGY PREDICTED BY IDOCK:   -9.04 KCAL/MOL
REMARK 924 INTRA-LIGAND FREE ENERGY PREDICTED BY IDOCK:   -1.31 KCAL/MOL
REMARK 927      BINDING AFFINITY PREDICTED BY RF-SCORE:    0.00 PKD
ROOT
HETATM    1  C   UNL     1      -9.460  10.007  63.479  1.00  0.00    -0.241 C  
HETATM    2  C   UNL     1     -10.109  11.306  63.937  1.00  0.00    -0.392 C  
HETATM    3  C   UNL     1      -9.066  12.356  64.332  1.00  0.00     0.915 C  
HETATM    4  C   UNL     1      -9.733  13.638  64.832  1.00  0.00     0.178 C  
HETATM    5  N   UNL     1     -10.769  13.396  65.874  1.00  0.00    -0.277 N  
HETATM    6  C   UNL     1     -11.760  12.350  65.538  1.00  0.00    -0.407 C  
HETATM    7  C   UNL     1     -10.482  13.836  67.173  1.00  0.00    -0.272 C  
HETATM    8  O   UNL     1      -9.383  14.368  67.384  1.00  0.00    -0.189 OA 
HETATM    9  O   UNL     1     -12.699  13.938  63.983  1.00  0.00    -0.665 OA 
HETATM   10  C   UNL     1     -11.046  11.057  65.129  1.00  0.00    -0.011 C  
HETATM   11  C   UNL     1     -12.802  12.700  64.472  1.00  0.00    -0.270 C  
HETATM   12  O   UNL     1     -13.661  11.925  64.081  1.00  0.00    -0.481 OA 
ENDROOT
BRANCH   7  13
HETATM   13  C   UNL     1     -11.503  13.813  68.367  1.00  0.00    -0.316 C  
BRANCH  13  14
HETATM   14  C   UNL     1     -12.070  15.150  68.912  1.00  0.00    -0.227 C  
BRANCH  14  15
HETATM   15  C   UNL     1     -11.071  15.901  69.815  1.00  0.00    -0.324 C  
BRANCH  15  16
HETATM   16  C   UNL     1     -10.531  17.202  69.204  1.00  0.00    -0.296 C  
BRANCH  16  17
HETATM   17  N   UNL     1     -10.898  17.236  67.800  1.00  0.00    -0.321 NA 
HETATM   18  H2  UNL     1     -11.664  17.061  65.482  1.00  0.00     0.000 HD 
HETATM   19  H1  UNL     1     -10.034  17.442  64.808  1.00  0.00     0.000 HD 
HETATM   20  N   UNL     1      -8.806  17.738  66.798  1.00  0.00    -0.252 NA 
HETATM   21  N   UNL     1     -10.676  17.291  65.586  1.00  0.00    -0.441 NA 
HETATM   22  C   UNL     1     -10.048  17.436  66.769  1.00  0.00    -0.313 C  
HETATM   23  H   UNL     1     -11.882  17.097  67.572  1.00  0.00     0.000 HD 
HETATM   24  H1  UNL     1      -8.164  17.889  66.019  1.00  0.00     0.000 HD 
HETATM   25  H2  UNL     1      -8.400  17.841  67.727  1.00  0.00     0.000 HD 
ENDBRANCH  16  17
ENDBRANCH  15  16
ENDBRANCH  14  15
ENDBRANCH  13  14
BRANCH  13  26
HETATM   26  N   UNL     1     -11.033  13.001  69.524  1.00  0.00    -0.459 N  
HETATM   27  H   UNL     1     -10.287  13.343  70.130  1.00  0.00     0.000 HD 
BRANCH  26  28
HETATM   28  S   UNL     1     -11.768  11.488  69.817  1.00  0.00    -0.366 S  
HETATM   29  O   UNL     1     -12.486  11.102  68.631  1.00  0.00    -0.463 OA 
HETATM   30  O   UNL     1     -12.466  11.646  71.076  1.00  0.00    -0.379 OA 
BRANCH  28  31
HETATM   31  C   UNL     1     -10.369  10.425  70.065  1.00  0.00    -0.128 A  
HETATM   32  C   UNL     1      -9.124   7.506  72.195  1.00  0.00    -0.165 C  
HETATM   33  C   UNL     1      -9.226  10.685  69.293  1.00  0.00    -0.121 A  
HETATM   34  C   UNL     1     -10.230   6.417  74.180  1.00  0.00    -0.361 C  
HETATM   35  C   UNL     1      -8.086   9.901  69.442  1.00  0.00    -0.139 A  
HETATM   36  C   UNL     1     -10.197   7.649  73.279  1.00  0.00    -0.398 C  
HETATM   37  C   UNL     1     -11.535   7.886  72.592  1.00  0.00    -0.395 C  
HETATM   38  H   UNL     1     -12.273   9.798  71.881  1.00  0.00     0.000 HD 
HETATM   39  N   UNL     1     -11.507   9.127  71.823  1.00  0.00    -0.368 NA 
HETATM   40  C   UNL     1      -8.087   8.856  70.358  1.00  0.00    -0.133 A  
HETATM   41  C   UNL     1     -10.394   9.371  71.002  1.00  0.00    -0.312 A  
HETATM   42  C   UNL     1      -9.222   8.592  71.146  1.00  0.00    -0.248 A  
ENDBRANCH  28  31
ENDBRANCH  26  28
ENDBRANCH  13  26
ENDBRANCH   7  13
TORSDOF 8
ENDMDL
MODEL      117
REMARK 921   NORMALIZED FREE ENERGY PREDICTED BY IDOCK:   -6.20 KCAL/MOL
REMARK 922        TOTAL FREE ENERGY PREDICTED BY IDOCK:  -10.35 KCAL/MOL
REMARK 923 INTER-LIGAND FREE ENERGY PREDICTED BY IDOCK:   -9.48 KCAL/MOL
REMARK 924 INTRA-LIGAND FREE ENERGY PREDICTED BY IDOCK:   -0.86 KCAL/MOL
REMARK 927      BINDING AFFINITY PREDICTED BY RF-SCORE:    0.00 PKD
ROOT
HETATM    1  C   UNL     1      -9.317   8.013  70.733  1.00  0.00    -0.167 C  
HETATM    2  C   UNL     1      -9.137   8.184  69.231  1.00  0.00    -0.151 C  
HETATM    3  C   UNL     1      -8.097   9.260  68.901  1.00  0.00    -0.103 C  
HETATM    4  C   UNL     1      -7.960   9.453  67.391  1.00  0.00    -0.106 C  
HETATM    5  N   UNL     1      -9.265   9.646  66.700  1.00  0.00    -0.147 N  
HETATM    6  C   UNL     1     -10.304   8.649  67.040  1.00  0.00    -0.298 C  
HETATM    7  C   UNL     1      -9.521  10.914  66.162  1.00  0.00    -0.200 C  
HETATM    8  O   UNL     1      -8.670  11.801  66.317  1.00  0.00    -0.181 OA 
HETATM    9  O   UNL     1      -9.040   7.085  65.707  1.00  0.00    -0.080 OA 
HETATM   10  C   UNL     1     -10.469   8.554  68.561  1.00  0.00    -0.205 C  
HETATM   11  C   UNL     1     -10.123   7.238  66.471  1.00  0.00    -0.093 C  
HETATM   12  O   UNL     1     -10.890   6.314  66.691  1.00  0.00    -0.289 OA 
ENDROOT
BRANCH   7  13
HETATM   13  C   UNL     1     -10.763  11.269  65.269  1.00  0.00    -0.237 C  
BRANCH  13  14
HETATM   14  C   UNL     1     -10.547  11.670  63.786  1.00  0.00    -0.473 C  
BRANCH  14  15
HETATM   15  C   UNL     1      -9.782  10.599  62.982  1.00  0.00    -0.362 C  
BRANCH  15  16
HETATM   16  C   UNL     1      -8.369  11.029  62.556  1.00  0.00    -0.179 C  
BRANCH  16  17
HETATM   17  N   UNL     1      -7.449   9.950  62.864  1.00  0.00    -0.126 NA 
HETATM   18  H2  UNL     1      -6.116   7.957  63.356  1.00  0.00     0.000 HD 
HETATM   19  H1  UNL     1      -5.249   8.751  64.725  1.00  0.00     0.000 HD 
HETATM   20  N   UNL     1      -6.237  10.891  64.674  1.00  0.00    -0.347 NA 
HETATM   21  N   UNL     1      -5.929   8.754  63.965  1.00  0.00    -0.071 NA 
HETATM   22  C   UNL     1      -6.549   9.947  63.870  1.00  0.00    -0.126 C  
HETATM   23  H   UNL     1      -7.486   9.122  62.269  1.00  0.00     0.000 HD 
HETATM   24  H1  UNL     1      -5.557  10.888  65.435  1.00  0.00     0.000 HD 
HETATM   25  H2  UNL     1      -6.739  11.768  64.537  1.00  0.00     0.000 HD 
ENDBRANCH  16  17
ENDBRANCH  15  16
ENDBRANCH  14  15
ENDBRANCH  13  14
BRANCH  13  26
HETATM   26  N   UNL     1     -11.669  12.272  65.895  1.00  0.00    -0.408 N  
HETATM   27  H   UNL     1     -12.375  11.983  66.572  1.00  0.00     0.000 HD 
BRANCH  26  28
HETATM   28  S   UNL     1     -11.502  13.914  65.458  1.00  0.00    -0.325 S  
HETATM   29  O   UNL     1     -12.719  14.332  64.812  1.00  0.00    -0.646 OA 
HETATM   30  O   UNL     1     -10.237  13.991  64.756  1.00  0.00    -0.416 OA 
BRANCH  28  31
HETATM   31  C   UNL     1     -11.335  14.714  67.032  1.00  0.00    -0.355 A  
HETATM   32  C   UNL     1     -10.229  17.990  68.662  1.00  0.00    -0.385 C  
HETATM   33  C   UNL     1     -11.639  13.951  68.171  1.00  0.00    -0.370 A  
HETATM   34  C   UNL     1      -9.147  19.998  67.591  1.00  0.00    -0.441 C  
HETATM   35  C   UNL     1     -11.519  14.508  69.440  1.00  0.00    -0.323 A  
HETATM   36  C   UNL     1      -9.476  18.516  67.436  1.00  0.00    -0.294 C  
HETATM   37  C   UNL     1     -10.333  18.250  66.206  1.00  0.00    -0.405 C  
HETATM   38  H   UNL     1     -10.428  16.382  65.106  1.00  0.00     0.000 HD 
HETATM   39  N   UNL     1     -10.542  16.817  66.022  1.00  0.00    -0.275 NA 
HETATM   40  C   UNL     1     -11.097  15.826  69.575  1.00  0.00    -0.306 A  
HETATM   41  C   UNL     1     -10.904  16.053  67.143  1.00  0.00    -0.239 A  
HETATM   42  C   UNL     1     -10.778  16.597  68.443  1.00  0.00    -0.353 A  
ENDBRANCH  28  31
ENDBRANCH  26  28
ENDBRANCH  13  26
ENDBRANCH   7  13
TORSDOF 8
ENDMDL
MODEL      118
REMARK 921   NORMALIZED FREE ENERGY PREDICTED BY IDOCK:   -6.20 KCAL/MOL
REMARK 922        TOTAL FREE ENERGY PREDICTED BY IDOCK:  -10.34 KCAL/MOL
REMARK 923 INTER-LIGAND FREE ENERGY PREDICTED BY IDOCK:   -9.59 KCAL/MOL
REMARK 924 INTRA-LIGAND FREE ENERGY PREDICTED BY IDOCK:   -0.76 KCAL/MOL
REMARK 927      BINDING AFFINITY PREDICTED BY RF-SCORE:    0.00 PKD
ROOT
HETATM    1  C   UNL     1      -9.672   8.866  71.525  1.00  0.00    -0.372 C  
HETATM    2  C   UNL     1      -9.430   8.861  70.022  1.00  0.00    -0.189 C  
HETATM    3  C   UNL     1      -8.406   9.922  69.606  1.00  0.00    -0.181 C  
HETATM    4  C   UNL     1      -8.207   9.936  68.091  1.00  0.00    -0.109 C  
HETATM    5  N   UNL     1      -9.484  10.001  67.329  1.00  0.00    -0.152 N  
HETATM    6  C   UNL     1     -10.510   9.019  67.744  1.00  0.00    -0.245 C  
HETATM    7  C   UNL     1      -9.751  11.186  66.630  1.00  0.00    -0.196 C  
HETATM    8  O   UNL     1      -8.931  12.112  66.710  1.00  0.00    -0.195 OA 
HETATM    9  O   UNL     1      -9.144   7.347  66.666  1.00  0.00    -0.141 OA 
HETATM   10  C   UNL     1     -10.740   9.104  69.257  1.00  0.00    -0.199 C  
HETATM   11  C   UNL     1     -10.265   7.557  67.361  1.00  0.00    -0.249 C  
HETATM   12  O   UNL     1     -11.015   6.641  67.660  1.00  0.00    -0.293 OA 
ENDROOT
BRANCH   7  13
HETATM   13  C   UNL     1     -10.961  11.389  65.649  1.00  0.00    -0.190 C  
BRANCH  13  14
HETATM   14  C   UNL     1     -10.729  11.282  64.119  1.00  0.00    -0.436 C  
BRANCH  14  15
HETATM   15  C   UNL     1      -9.780  10.128  63.737  1.00  0.00    -0.203 C  
BRANCH  15  16
HETATM   16  C   UNL     1      -8.466  10.589  63.087  1.00  0.00    -0.167 C  
BRANCH  16  17
HETATM   17  N   UNL     1      -7.437  10.627  64.109  1.00  0.00    -0.346 NA 
HETATM   18  H2  UNL     1      -5.577  10.890  65.678  1.00  0.00     0.000 HD 
HETATM   19  H1  UNL     1      -5.380   9.109  65.899  1.00  0.00     0.000 HD 
HETATM   20  N   UNL     1      -7.090   8.310  64.487  1.00  0.00    -0.075 NA 
HETATM   21  N   UNL     1      -5.838   9.922  65.486  1.00  0.00    -0.067 NA 
HETATM   22  C   UNL     1      -6.831   9.551  64.655  1.00  0.00    -0.101 C  
HETATM   23  H   UNL     1      -7.145  11.546  64.443  1.00  0.00     0.000 HD 
HETATM   24  H1  UNL     1      -6.632   7.497  64.900  1.00  0.00     0.000 HD 
HETATM   25  H2  UNL     1      -7.861   8.105  63.853  1.00  0.00     0.000 HD 
ENDBRANCH  16  17
ENDBRANCH  15  16
ENDBRANCH  14  15
ENDBRANCH  13  14
BRANCH  13  26
HETATM   26  N   UNL     1     -11.730  12.636  65.918  1.00  0.00    -0.398 N  
HETATM   27  H   UNL     1     -12.406  12.676  66.680  1.00  0.00     0.000 HD 
BRANCH  26  28
HETATM   28  S   UNL     1     -11.458  13.998  64.925  1.00  0.00    -0.378 S  
HETATM   29  O   UNL     1     -12.687  14.306  64.241  1.00  0.00    -0.660 OA 
HETATM   30  O   UNL     1     -10.262  13.683  64.171  1.00  0.00    -0.297 OA 
BRANCH  28  31
HETATM   31  C   UNL     1     -11.076  15.264  66.107  1.00  0.00    -0.280 A  
HETATM   32  C   UNL     1     -11.444  16.166  69.803  1.00  0.00    -0.282 C  
HETATM   33  C   UNL     1     -10.463  16.429  65.619  1.00  0.00    -0.364 A  
HETATM   34  C   UNL     1     -12.712  14.945  71.606  1.00  0.00    -0.401 C  
HETATM   35  C   UNL     1     -10.145  17.470  66.485  1.00  0.00    -0.331 A  
HETATM   36  C   UNL     1     -12.522  15.119  70.102  1.00  0.00    -0.361 C  
HETATM   37  C   UNL     1     -12.115  13.817  69.426  1.00  0.00    -0.328 C  
HETATM   38  H   UNL     1     -12.467  13.303  67.348  1.00  0.00     0.000 HD 
HETATM   39  N   UNL     1     -12.046  13.987  67.978  1.00  0.00    -0.338 NA 
HETATM   40  C   UNL     1     -10.437  17.350  67.839  1.00  0.00    -0.383 A  
HETATM   41  C   UNL     1     -11.383  15.119  67.476  1.00  0.00    -0.320 A  
HETATM   42  C   UNL     1     -11.062  16.193  68.339  1.00  0.00    -0.359 A  
ENDBRANCH  28  31
ENDBRANCH  26  28
ENDBRANCH  13  26
ENDBRANCH   7  13
TORSDOF 8
ENDMDL
MODEL      119
REMARK 921   NORMALIZED FREE ENERGY PREDICTED BY IDOCK:   -6.19 KCAL/MOL
REMARK 922        TOTAL FREE ENERGY PREDICTED BY IDOCK:  -10.33 KCAL/MOL
REMARK 923 INTER-LIGAND FREE ENERGY PREDICTED BY IDOCK:   -9.25 KCAL/MOL
REMARK 924 INTRA-LIGAND FREE ENERGY PREDICTED BY IDOCK:   -1.08 KCAL/MOL
REMARK 927      BINDING AFFINITY PREDICTED BY RF-SCORE:    0.00 PKD
ROOT
HETATM    1  C   UNL     1     -12.694  14.540  64.672  1.00  0.00    -0.062 C  
HETATM    2  C   UNL     1     -11.687  14.213  65.765  1.00  0.00    -0.360 C  
HETATM    3  C   UNL     1     -10.272  14.038  65.203  1.00  0.00    -0.396 C  
HETATM    4  C   UNL     1      -9.281  13.666  66.305  1.00  0.00    -0.058 C  
HETATM    5  N   UNL     1      -9.738  12.528  67.150  1.00  0.00    -0.202 N  
HETATM    6  C   UNL     1     -11.119  12.649  67.665  1.00  0.00    -0.263 C  
HETATM    7  C   UNL     1      -9.031  11.323  67.035  1.00  0.00    -0.154 C  
HETATM    8  O   UNL     1      -8.096  11.266  66.224  1.00  0.00    -0.165 OA 
HETATM    9  O   UNL     1     -10.262  14.329  69.170  1.00  0.00    -0.193 OA 
HETATM   10  C   UNL     1     -12.090  12.933  66.513  1.00  0.00    -0.375 C  
HETATM   11  C   UNL     1     -11.356  13.674  68.778  1.00  0.00    -0.289 C  
HETATM   12  O   UNL     1     -12.449  13.893  69.277  1.00  0.00    -0.255 OA 
ENDROOT
BRANCH   7  13
HETATM   13  C   UNL     1      -9.259  10.066  67.948  1.00  0.00    -0.137 C  
BRANCH  13  14
HETATM   14  C   UNL     1     -10.554   9.227  67.781  1.00  0.00    -0.307 C  
BRANCH  14  15
HETATM   15  C   UNL     1     -10.318   7.910  67.013  1.00  0.00    -0.411 C  
BRANCH  15  16
HETATM   16  C   UNL     1     -10.941   6.676  67.683  1.00  0.00    -0.309 C  
BRANCH  16  17
HETATM   17  N   UNL     1     -10.192   5.503  67.270  1.00  0.00    -0.189 NA 
HETATM   18  H2  UNL     1      -8.699   3.682  66.603  1.00  0.00     0.000 HD 
HETATM   19  H1  UNL     1      -9.761   3.178  65.233  1.00  0.00     0.000 HD 
HETATM   20  N   UNL     1     -11.510   4.743  65.449  1.00  0.00    -1.023 NA 
HETATM   21  N   UNL     1      -9.536   3.777  66.028  1.00  0.00    -0.179 NA 
HETATM   22  C   UNL     1     -10.489   4.710  66.218  1.00  0.00    -0.207 C  
HETATM   23  H   UNL     1      -9.370   5.256  67.822  1.00  0.00     0.000 HD 
HETATM   24  H1  UNL     1     -11.735   4.144  64.654  1.00  0.00     0.000 HD 
HETATM   25  H2  UNL     1     -12.195   5.469  65.659  1.00  0.00     0.000 HD 
ENDBRANCH  16  17
ENDBRANCH  15  16
ENDBRANCH  14  15
ENDBRANCH  13  14
BRANCH  13  26
HETATM   26  N   UNL     1      -9.074  10.353  69.397  1.00  0.00    -0.323 N  
HETATM   27  H   UNL     1      -9.274  11.279  69.774  1.00  0.00     0.000 HD 
BRANCH  26  28
HETATM   28  S   UNL     1      -8.520   9.101  70.417  1.00  0.00    -0.217 S  
HETATM   29  O   UNL     1      -7.639   9.679  71.398  1.00  0.00    -0.260 OA 
HETATM   30  O   UNL     1      -8.039   8.069  69.521  1.00  0.00    -0.115 OA 
BRANCH  28  31
HETATM   31  C   UNL     1     -10.018   8.542  71.187  1.00  0.00    -0.207 A  
HETATM   32  C   UNL     1     -11.581   5.523  72.932  1.00  0.00    -0.280 C  
HETATM   33  C   UNL     1     -11.113   9.419  71.161  1.00  0.00    -0.432 A  
HETATM   34  C   UNL     1     -10.629   3.210  73.239  1.00  0.00    -0.269 C  
HETATM   35  C   UNL     1     -12.324   9.045  71.734  1.00  0.00    -0.438 A  
HETATM   36  C   UNL     1     -10.525   4.518  72.460  1.00  0.00    -0.251 C  
HETATM   37  C   UNL     1      -9.156   5.165  72.616  1.00  0.00    -0.131 C  
HETATM   38  H   UNL     1      -8.224   6.518  71.198  1.00  0.00     0.000 HD 
HETATM   39  N   UNL     1      -9.049   6.355  71.777  1.00  0.00    -0.143 NA 
HETATM   40  C   UNL     1     -12.444   7.797  72.333  1.00  0.00    -0.157 A  
HETATM   41  C   UNL     1     -10.114   7.270  71.788  1.00  0.00    -0.179 A  
HETATM   42  C   UNL     1     -11.357   6.903  72.355  1.00  0.00    -0.308 A  
ENDBRANCH  28  31
ENDBRANCH  26  28
ENDBRANCH  13  26
ENDBRANCH   7  13
TORSDOF 8
ENDMDL
MODEL      120
REMARK 921   NORMALIZED FREE ENERGY PREDICTED BY IDOCK:   -6.18 KCAL/MOL
REMARK 922        TOTAL FREE ENERGY PREDICTED BY IDOCK:  -10.32 KCAL/MOL
REMARK 923 INTER-LIGAND FREE ENERGY PREDICTED BY IDOCK:   -9.07 KCAL/MOL
REMARK 924 INTRA-LIGAND FREE ENERGY PREDICTED BY IDOCK:   -1.25 KCAL/MOL
REMARK 927      BINDING AFFINITY PREDICTED BY RF-SCORE:    0.00 PKD
ROOT
HETATM    1  C   UNL     1     -13.145  11.842  63.008  1.00  0.00     0.436 C  
HETATM    2  C   UNL     1     -11.949  12.477  63.704  1.00  0.00    -0.621 C  
HETATM    3  C   UNL     1     -10.669  11.662  63.494  1.00  0.00    -0.495 C  
HETATM    4  C   UNL     1      -9.487  12.287  64.235  1.00  0.00     0.255 C  
HETATM    5  N   UNL     1      -9.780  12.589  65.664  1.00  0.00    -0.208 N  
HETATM    6  C   UNL     1     -11.038  13.332  65.899  1.00  0.00    -0.285 C  
HETATM    7  C   UNL     1      -9.115  11.821  66.628  1.00  0.00    -0.194 C  
HETATM    8  O   UNL     1      -8.352  10.925  66.241  1.00  0.00    -0.155 OA 
HETATM    9  O   UNL     1      -9.901  15.262  65.002  1.00  0.00    -0.228 OA 
HETATM   10  C   UNL     1     -12.209  12.621  65.211  1.00  0.00    -0.532 C  
HETATM   11  C   UNL     1     -11.054  14.811  65.501  1.00  0.00    -0.346 C  
HETATM   12  O   UNL     1     -12.030  15.535  65.617  1.00  0.00     0.236 OA 
ENDROOT
BRANCH   7  13
HETATM   13  C   UNL     1      -9.171  12.090  68.175  1.00  0.00    -0.195 C  
BRANCH  13  14
HETATM   14  C   UNL     1      -8.105  13.007  68.830  1.00  0.00     0.086 C  
BRANCH  14  15
HETATM   15  C   UNL     1      -8.194  14.469  68.344  1.00  0.00    -0.150 C  
BRANCH  15  16
HETATM   16  C   UNL     1      -9.368  15.256  68.946  1.00  0.00    -0.213 C  
BRANCH  16  17
HETATM   17  N   UNL     1      -9.013  16.663  68.968  1.00  0.00    -0.240 NA 
HETATM   18  H2  UNL     1      -8.456  19.026  69.283  1.00  0.00     0.000 HD 
HETATM   19  H1  UNL     1      -9.407  19.547  67.840  1.00  0.00     0.000 HD 
HETATM   20  N   UNL     1     -10.220  17.465  67.090  1.00  0.00    -0.314 NA 
HETATM   21  N   UNL     1      -9.054  18.834  68.479  1.00  0.00    -0.334 NA 
HETATM   22  C   UNL     1      -9.480  17.607  68.123  1.00  0.00    -0.286 C  
HETATM   23  H   UNL     1      -8.352  16.966  69.685  1.00  0.00     0.000 HD 
HETATM   24  H1  UNL     1     -10.573  18.178  66.450  1.00  0.00     0.000 HD 
HETATM   25  H2  UNL     1     -10.495  16.507  66.874  1.00  0.00     0.000 HD 
ENDBRANCH  16  17
ENDBRANCH  15  16
ENDBRANCH  14  15
ENDBRANCH  13  14
BRANCH  13  26
HETATM   26  N   UNL     1      -9.271  10.843  68.983  1.00  0.00    -0.324 N  
HETATM   27  H   UNL     1      -8.572  10.626  69.693  1.00  0.00     0.000 HD 
BRANCH  26  28
HETATM   28  S   UNL     1     -10.579   9.783  68.699  1.00  0.00    -0.216 S  
HETATM   29  O   UNL     1     -10.080   8.433  68.742  1.00  0.00    -0.186 OA 
HETATM   30  O   UNL     1     -11.221  10.288  67.502  1.00  0.00    -0.295 OA 
BRANCH  28  31
HETATM   31  C   UNL     1     -11.634  10.094  70.091  1.00  0.00    -0.277 A  
HETATM   32  C   UNL     1     -13.421  12.904  71.967  1.00  0.00    -0.568 C  
HETATM   33  C   UNL     1     -11.955   8.997  70.906  1.00  0.00    -0.274 A  
HETATM   34  C   UNL     1     -13.275  15.392  71.596  1.00  0.00    -0.563 C  
HETATM   35  C   UNL     1     -12.767   9.167  72.022  1.00  0.00    -0.473 A  
HETATM   36  C   UNL     1     -12.617  14.041  71.329  1.00  0.00    -0.444 C  
HETATM   37  C   UNL     1     -12.496  13.753  69.838  1.00  0.00    -0.201 C  
HETATM   38  H   UNL     1     -11.025  12.453  68.914  1.00  0.00     0.000 HD 
HETATM   39  N   UNL     1     -11.768  12.507  69.611  1.00  0.00    -0.311 NA 
HETATM   40  C   UNL     1     -13.260  10.431  72.327  1.00  0.00    -0.285 A  
HETATM   41  C   UNL     1     -12.121  11.386  70.379  1.00  0.00    -0.384 A  
HETATM   42  C   UNL     1     -12.936  11.541  71.526  1.00  0.00    -0.485 A  
ENDBRANCH  28  31
ENDBRANCH  26  28
ENDBRANCH  13  26
ENDBRANCH   7  13
TORSDOF 8
ENDMDL
MODEL      121
REMARK 921   NORMALIZED FREE ENERGY PREDICTED BY IDOCK:   -6.15 KCAL/MOL
REMARK 922        TOTAL FREE ENERGY PREDICTED BY IDOCK:  -10.28 KCAL/MOL
REMARK 923 INTER-LIGAND FREE ENERGY PREDICTED BY IDOCK:   -7.60 KCAL/MOL
REMARK 924 INTRA-LIGAND FREE ENERGY PREDICTED BY IDOCK:   -2.68 KCAL/MOL
REMARK 927      BINDING AFFINITY PREDICTED BY RF-SCORE:    0.00 PKD
ROOT
HETATM    1  C   UNL     1     -11.930  11.888  70.286  1.00  0.00    -0.416 C  
HETATM    2  C   UNL     1     -10.985  11.278  69.261  1.00  0.00    -0.297 C  
HETATM    3  C   UNL     1     -11.746  10.592  68.122  1.00  0.00     0.001 C  
HETATM    4  C   UNL     1     -10.785   9.945  67.124  1.00  0.00    -0.207 C  
HETATM    5  N   UNL     1      -9.760   9.079  67.770  1.00  0.00    -0.150 N  
HETATM    6  C   UNL     1      -9.044   9.701  68.906  1.00  0.00    -0.144 C  
HETATM    7  C   UNL     1      -9.857   7.699  67.546  1.00  0.00    -0.165 C  
HETATM    8  O   UNL     1     -10.797   7.281  66.857  1.00  0.00    -0.355 OA 
HETATM    9  O   UNL     1      -7.888  11.039  67.263  1.00  0.00    -0.114 OA 
HETATM   10  C   UNL     1     -10.048  10.256  69.923  1.00  0.00    -0.219 C  
HETATM   11  C   UNL     1      -8.024  10.793  68.568  1.00  0.00    -0.130 C  
HETATM   12  O   UNL     1      -7.382  11.405  69.407  1.00  0.00    -0.085 OA 
ENDROOT
BRANCH   7  13
HETATM   13  C   UNL     1      -8.788   6.645  68.008  1.00  0.00    -0.115 C  
BRANCH  13  14
HETATM   14  C   UNL     1      -7.591   6.315  67.079  1.00  0.00    -0.095 C  
BRANCH  14  15
HETATM   15  C   UNL     1      -7.912   5.200  66.062  1.00  0.00    -0.107 C  
BRANCH  15  16
HETATM   16  C   UNL     1      -8.562   5.707  64.765  1.00  0.00    -0.061 C  
BRANCH  16  17
HETATM   17  N   UNL     1      -9.260   4.599  64.138  1.00  0.00    -0.295 NA 
HETATM   18  H2  UNL     1     -10.344   2.834  62.836  1.00  0.00     0.000 HD 
HETATM   19  H1  UNL     1     -11.869   2.922  63.797  1.00  0.00     0.000 HD 
HETATM   20  N   UNL     1     -11.307   4.616  65.337  1.00  0.00    -1.028 NA 
HETATM   21  N   UNL     1     -10.918   3.223  63.584  1.00  0.00    -0.283 NA 
HETATM   22  C   UNL     1     -10.518   4.201  64.420  1.00  0.00    -0.137 C  
HETATM   23  H   UNL     1      -8.754   4.076  63.422  1.00  0.00     0.000 HD 
HETATM   24  H1  UNL     1     -12.259   4.315  65.550  1.00  0.00     0.000 HD 
HETATM   25  H2  UNL     1     -10.934   5.350  65.938  1.00  0.00     0.000 HD 
ENDBRANCH  16  17
ENDBRANCH  15  16
ENDBRANCH  14  15
ENDBRANCH  13  14
BRANCH  13  26
HETATM   26  N   UNL     1      -9.390   5.362  68.465  1.00  0.00    -0.114 N  
HETATM   27  H   UNL     1     -10.149   4.927  67.940  1.00  0.00     0.000 HD 
BRANCH  26  28
HETATM   28  S   UNL     1      -8.787   4.632  69.885  1.00  0.00    -0.093 S  
HETATM   29  O   UNL     1      -7.391   4.344  69.683  1.00  0.00    -0.050 OA 
HETATM   30  O   UNL     1      -9.717   3.563  70.185  1.00  0.00    -0.180 OA 
BRANCH  28  31
HETATM   31  C   UNL     1      -8.982   5.919  71.091  1.00  0.00    -0.139 A  
HETATM   32  C   UNL     1     -11.519   8.431  72.454  1.00  0.00    -0.451 C  
HETATM   33  C   UNL     1      -7.848   6.267  71.842  1.00  0.00    -0.101 A  
HETATM   34  C   UNL     1     -13.834   8.953  71.607  1.00  0.00    -0.432 C  
HETATM   35  C   UNL     1      -7.922   7.276  72.796  1.00  0.00    -0.116 A  
HETATM   36  C   UNL     1     -12.489   8.315  71.274  1.00  0.00    -0.264 C  
HETATM   37  C   UNL     1     -12.631   6.840  70.924  1.00  0.00    -0.137 C  
HETATM   38  H   UNL     1     -11.275   5.697  69.673  1.00  0.00     0.000 HD 
HETATM   39  N   UNL     1     -11.347   6.283  70.506  1.00  0.00    -0.358 NA 
HETATM   40  C   UNL     1      -9.126   7.937  73.005  1.00  0.00    -0.300 A  
HETATM   41  C   UNL     1     -10.215   6.576  71.283  1.00  0.00    -0.198 A  
HETATM   42  C   UNL     1     -10.267   7.606  72.251  1.00  0.00    -0.268 A  
ENDBRANCH  28  31
ENDBRANCH  26  28
ENDBRANCH  13  26
ENDBRANCH   7  13
TORSDOF 8
ENDMDL
MODEL      122
REMARK 921   NORMALIZED FREE ENERGY PREDICTED BY IDOCK:   -6.15 KCAL/MOL
REMARK 922        TOTAL FREE ENERGY PREDICTED BY IDOCK:  -10.27 KCAL/MOL
REMARK 923 INTER-LIGAND FREE ENERGY PREDICTED BY IDOCK:   -7.79 KCAL/MOL
REMARK 924 INTRA-LIGAND FREE ENERGY PREDICTED BY IDOCK:   -2.48 KCAL/MOL
REMARK 927      BINDING AFFINITY PREDICTED BY RF-SCORE:    0.00 PKD
ROOT
HETATM    1  C   UNL     1     -11.551   7.691  70.761  1.00  0.00    -0.284 C  
HETATM    2  C   UNL     1     -10.130   7.960  70.287  1.00  0.00    -0.196 C  
HETATM    3  C   UNL     1      -9.589   9.286  70.831  1.00  0.00    -0.339 C  
HETATM    4  C   UNL     1      -8.179   9.565  70.310  1.00  0.00    -0.187 C  
HETATM    5  N   UNL     1      -8.058   9.427  68.832  1.00  0.00    -0.101 N  
HETATM    6  C   UNL     1      -8.618   8.176  68.274  1.00  0.00    -0.130 C  
HETATM    7  C   UNL     1      -7.836  10.599  68.097  1.00  0.00    -0.110 C  
HETATM    8  O   UNL     1      -7.784  11.675  68.710  1.00  0.00    -0.134 OA 
HETATM    9  O   UNL     1      -6.707   7.058  69.233  1.00  0.00    -0.046 OA 
HETATM   10  C   UNL     1     -10.062   7.984  68.752  1.00  0.00    -0.206 C  
HETATM   11  C   UNL     1      -7.833   6.887  68.538  1.00  0.00    -0.118 C  
HETATM   12  O   UNL     1      -8.193   5.784  68.158  1.00  0.00    -0.103 OA 
ENDROOT
BRANCH   7  13
HETATM   13  C   UNL     1      -7.528  10.640  66.558  1.00  0.00    -0.134 C  
BRANCH  13  14
HETATM   14  C   UNL     1      -6.055  10.706  66.075  1.00  0.00    -0.131 C  
BRANCH  14  15
HETATM   15  C   UNL     1      -5.370   9.325  66.056  1.00  0.00    -0.040 C  
BRANCH  15  16
HETATM   16  C   UNL     1      -5.506   8.578  64.720  1.00  0.00    -0.043 C  
BRANCH  16  17
HETATM   17  N   UNL     1      -6.420   7.466  64.907  1.00  0.00    -0.037 NA 
HETATM   18  H2  UNL     1      -7.753   5.426  65.131  1.00  0.00     0.000 HD 
HETATM   19  H1  UNL     1      -9.223   6.186  64.409  1.00  0.00     0.000 HD 
HETATM   20  N   UNL     1      -8.415   8.359  63.984  1.00  0.00    -0.384 NA 
HETATM   21  N   UNL     1      -8.250   6.214  64.716  1.00  0.00    -0.134 NA 
HETATM   22  C   UNL     1      -7.707   7.429  64.501  1.00  0.00    -0.126 C  
HETATM   23  H   UNL     1      -6.058   6.641  65.387  1.00  0.00     0.000 HD 
HETATM   24  H1  UNL     1      -9.388   8.331  63.677  1.00  0.00     0.000 HD 
HETATM   25  H2  UNL     1      -7.942   9.254  63.860  1.00  0.00     0.000 HD 
ENDBRANCH  16  17
ENDBRANCH  15  16
ENDBRANCH  14  15
ENDBRANCH  13  14
BRANCH  13  26
HETATM   26  N   UNL     1      -8.302  11.686  65.833  1.00  0.00    -0.373 N  
HETATM   27  H   UNL     1      -7.849  12.544  65.519  1.00  0.00     0.000 HD 
BRANCH  26  28
HETATM   28  S   UNL     1      -9.962  11.421  65.537  1.00  0.00    -0.250 S  
HETATM   29  O   UNL     1     -10.209  10.004  65.601  1.00  0.00    -0.267 OA 
HETATM   30  O   UNL     1     -10.252  12.159  64.325  1.00  0.00    -0.299 OA 
BRANCH  28  31
HETATM   31  C   UNL     1     -10.732  12.243  66.908  1.00  0.00    -0.232 A  
HETATM   32  C   UNL     1     -11.392  15.709  68.378  1.00  0.00    -0.365 C  
HETATM   33  C   UNL     1     -11.291  11.430  67.907  1.00  0.00    -0.371 A  
HETATM   34  C   UNL     1     -10.534  17.945  67.594  1.00  0.00    -0.406 C  
HETATM   35  C   UNL     1     -11.900  12.004  69.018  1.00  0.00    -0.372 A  
HETATM   36  C   UNL     1     -10.347  16.432  67.522  1.00  0.00    -0.288 C  
HETATM   37  C   UNL     1     -10.464  15.912  66.096  1.00  0.00    -0.326 C  
HETATM   38  H   UNL     1      -9.554  14.097  65.329  1.00  0.00     0.000 HD 
HETATM   39  N   UNL     1     -10.175  14.482  66.043  1.00  0.00    -0.300 NA 
HETATM   40  C   UNL     1     -11.954  13.388  69.133  1.00  0.00    -0.363 A  
HETATM   41  C   UNL     1     -10.774  13.650  67.002  1.00  0.00    -0.278 A  
HETATM   42  C   UNL     1     -11.389  14.214  68.144  1.00  0.00    -0.316 A  
ENDBRANCH  28  31
ENDBRANCH  26  28
ENDBRANCH  13  26
ENDBRANCH   7  13
TORSDOF 8
ENDMDL
MODEL      123
REMARK 921   NORMALIZED FREE ENERGY PREDICTED BY IDOCK:   -6.14 KCAL/MOL
REMARK 922        TOTAL FREE ENERGY PREDICTED BY IDOCK:  -10.26 KCAL/MOL
REMARK 923 INTER-LIGAND FREE ENERGY PREDICTED BY IDOCK:   -9.15 KCAL/MOL
REMARK 924 INTRA-LIGAND FREE ENERGY PREDICTED BY IDOCK:   -1.11 KCAL/MOL
REMARK 927      BINDING AFFINITY PREDICTED BY RF-SCORE:    0.00 PKD
ROOT
HETATM    1  C   UNL     1      -6.412   5.101  67.832  1.00  0.00    -0.048 C  
HETATM    2  C   UNL     1      -7.817   5.665  67.680  1.00  0.00    -0.097 C  
HETATM    3  C   UNL     1      -8.126   6.040  66.226  1.00  0.00    -0.112 C  
HETATM    4  C   UNL     1      -9.524   6.647  66.097  1.00  0.00    -0.009 C  
HETATM    5  N   UNL     1      -9.783   7.743  67.070  1.00  0.00    -0.180 N  
HETATM    6  C   UNL     1      -9.446   7.424  68.474  1.00  0.00    -0.144 C  
HETATM    7  C   UNL     1      -9.904   9.040  66.553  1.00  0.00    -0.268 C  
HETATM    8  O   UNL     1      -9.760   9.202  65.334  1.00  0.00    -0.207 OA 
HETATM    9  O   UNL     1     -11.406   6.015  68.477  1.00  0.00    -0.230 OA 
HETATM   10  C   UNL     1      -8.007   6.904  68.568  1.00  0.00    -0.120 C  
HETATM   11  C   UNL     1     -10.375   6.448  69.205  1.00  0.00    -0.207 C  
HETATM   12  O   UNL     1     -10.201   6.080  70.356  1.00  0.00    -0.185 OA 
ENDROOT
BRANCH   7  13
HETATM   13  C   UNL     1     -10.330  10.297  67.393  1.00  0.00    -0.233 C  
BRANCH  13  14
HETATM   14  C   UNL     1     -11.247  10.114  68.631  1.00  0.00    -0.223 C  
BRANCH  14  15
HETATM   15  C   UNL     1     -10.539  10.463  69.956  1.00  0.00    -0.282 C  
BRANCH  15  16
HETATM   16  C   UNL     1     -10.973   9.592  71.145  1.00  0.00    -0.368 C  
BRANCH  16  17
HETATM   17  N   UNL     1     -12.226   8.943  70.805  1.00  0.00    -0.484 NA 
HETATM   18  H2  UNL     1     -14.354   8.027  70.016  1.00  0.00     0.000 HD 
HETATM   19  H1  UNL     1     -15.046   7.933  71.680  1.00  0.00     0.000 HD 
HETATM   20  N   UNL     1     -13.237   8.761  72.944  1.00  0.00    -0.793 NA 
HETATM   21  N   UNL     1     -14.296   8.157  71.026  1.00  0.00    -0.128 NA 
HETATM   22  C   UNL     1     -13.218   8.646  71.670  1.00  0.00    -0.346 C  
HETATM   23  H   UNL     1     -12.369   8.689  69.827  1.00  0.00     0.000 HD 
HETATM   24  H1  UNL     1     -13.987   8.537  73.598  1.00  0.00     0.000 HD 
HETATM   25  H2  UNL     1     -12.383   9.129  73.364  1.00  0.00     0.000 HD 
ENDBRANCH  16  17
ENDBRANCH  15  16
ENDBRANCH  14  15
ENDBRANCH  13  14
BRANCH  13  26
HETATM   26  N   UNL     1     -10.889  11.397  66.559  1.00  0.00    -0.281 N  
HETATM   27  H   UNL     1     -11.820  11.317  66.149  1.00  0.00     0.000 HD 
BRANCH  26  28
HETATM   28  S   UNL     1      -9.944  12.795  66.302  1.00  0.00    -0.267 S  
HETATM   29  O   UNL     1     -10.180  13.256  64.959  1.00  0.00    -0.321 OA 
HETATM   30  O   UNL     1      -8.607  12.429  66.725  1.00  0.00    -0.190 OA 
BRANCH  28  31
HETATM   31  C   UNL     1     -10.625  13.939  67.475  1.00  0.00    -0.256 A  
HETATM   32  C   UNL     1     -10.389  17.567  68.653  1.00  0.00    -0.369 C  
HETATM   33  C   UNL     1     -11.562  13.433  68.389  1.00  0.00    -0.368 A  
HETATM   34  C   UNL     1      -8.759  19.354  67.945  1.00  0.00    -0.359 C  
HETATM   35  C   UNL     1     -12.130  14.268  69.346  1.00  0.00    -0.361 A  
HETATM   36  C   UNL     1      -9.047  17.855  67.972  1.00  0.00    -0.267 C  
HETATM   37  C   UNL     1      -9.092  17.260  66.571  1.00  0.00    -0.265 C  
HETATM   38  H   UNL     1      -8.688  15.190  66.060  1.00  0.00     0.000 HD 
HETATM   39  N   UNL     1      -9.262  15.811  66.632  1.00  0.00    -0.233 NA 
HETATM   40  C   UNL     1     -11.765  15.609  69.391  1.00  0.00    -0.395 A  
HETATM   41  C   UNL     1     -10.238  15.295  67.500  1.00  0.00    -0.239 A  
HETATM   42  C   UNL     1     -10.818  16.126  68.487  1.00  0.00    -0.313 A  
ENDBRANCH  28  31
ENDBRANCH  26  28
ENDBRANCH  13  26
ENDBRANCH   7  13
TORSDOF 8
ENDMDL
MODEL      124
REMARK 921   NORMALIZED FREE ENERGY PREDICTED BY IDOCK:   -6.11 KCAL/MOL
REMARK 922        TOTAL FREE ENERGY PREDICTED BY IDOCK:  -10.21 KCAL/MOL
REMARK 923 INTER-LIGAND FREE ENERGY PREDICTED BY IDOCK:   -7.98 KCAL/MOL
REMARK 924 INTRA-LIGAND FREE ENERGY PREDICTED BY IDOCK:   -2.23 KCAL/MOL
REMARK 927      BINDING AFFINITY PREDICTED BY RF-SCORE:    0.00 PKD
ROOT
HETATM    1  C   UNL     1      -9.666  17.286  68.698  1.00  0.00    -0.301 C  
HETATM    2  C   UNL     1     -10.529  16.155  68.155  1.00  0.00    -0.279 C  
HETATM    3  C   UNL     1     -11.547  15.668  69.191  1.00  0.00    -0.393 C  
HETATM    4  C   UNL     1     -12.376  14.504  68.648  1.00  0.00    -0.004 C  
HETATM    5  N   UNL     1     -11.547  13.415  68.059  1.00  0.00    -0.313 N  
HETATM    6  C   UNL     1     -10.522  13.864  67.093  1.00  0.00    -0.269 C  
HETATM    7  C   UNL     1     -11.516  12.194  68.746  1.00  0.00    -0.307 C  
HETATM    8  O   UNL     1     -12.148  12.102  69.808  1.00  0.00    -0.290 OA 
HETATM    9  O   UNL     1     -12.342  14.257  65.558  1.00  0.00    -0.416 OA 
HETATM   10  C   UNL     1      -9.659  14.969  67.712  1.00  0.00    -0.203 C  
HETATM   11  C   UNL     1     -11.020  14.334  65.722  1.00  0.00    -0.305 C  
HETATM   12  O   UNL     1     -10.287  14.752  64.840  1.00  0.00    -0.406 OA 
ENDROOT
BRANCH   7  13
HETATM   13  C   UNL     1     -10.832  10.887  68.209  1.00  0.00    -0.225 C  
BRANCH  13  14
HETATM   14  C   UNL     1     -10.971  10.514  66.709  1.00  0.00    -0.150 C  
BRANCH  14  15
HETATM   15  C   UNL     1      -9.611  10.424  65.986  1.00  0.00    -0.251 C  
BRANCH  15  16
HETATM   16  C   UNL     1      -8.455  11.090  66.748  1.00  0.00    -0.148 C  
BRANCH  16  17
HETATM   17  N   UNL     1      -7.216  10.439  66.362  1.00  0.00    -0.112 NA 
HETATM   18  H2  UNL     1      -5.227   9.345  65.447  1.00  0.00     0.000 HD 
HETATM   19  H1  UNL     1      -5.146   8.144  66.792  1.00  0.00     0.000 HD 
HETATM   20  N   UNL     1      -7.002   8.817  68.080  1.00  0.00    -0.077 NA 
HETATM   21  N   UNL     1      -5.573   8.940  66.317  1.00  0.00    -0.044 NA 
HETATM   22  C   UNL     1      -6.652   9.386  66.989  1.00  0.00    -0.068 C  
HETATM   23  H   UNL     1      -6.730  10.810  65.545  1.00  0.00     0.000 HD 
HETATM   24  H1  UNL     1      -6.575   8.021  68.554  1.00  0.00     0.000 HD 
HETATM   25  H2  UNL     1      -7.821   9.214  68.539  1.00  0.00     0.000 HD 
ENDBRANCH  16  17
ENDBRANCH  15  16
ENDBRANCH  14  15
ENDBRANCH  13  14
BRANCH  13  26
HETATM   26  N   UNL     1     -11.155   9.680  69.020  1.00  0.00    -0.422 N  
HETATM   27  H   UNL     1     -11.958   9.096  68.787  1.00  0.00     0.000 HD 
BRANCH  26  28
HETATM   28  S   UNL     1     -10.154   9.292  70.347  1.00  0.00    -0.256 S  
HETATM   29  O   UNL     1     -10.783   9.789  71.543  1.00  0.00    -0.218 OA 
HETATM   30  O   UNL     1      -8.833   9.752  69.971  1.00  0.00    -0.209 OA 
BRANCH  28  31
HETATM   31  C   UNL     1     -10.170   7.518  70.334  1.00  0.00    -0.202 A  
HETATM   32  C   UNL     1      -9.866   4.504  68.003  1.00  0.00    -0.154 C  
HETATM   33  C   UNL     1     -10.434   6.874  71.553  1.00  0.00    -0.231 A  
HETATM   34  C   UNL     1      -9.715   4.464  65.488  1.00  0.00    -0.206 C  
HETATM   35  C   UNL     1     -10.475   5.485  71.617  1.00  0.00    -0.292 A  
HETATM   36  C   UNL     1     -10.091   5.296  66.711  1.00  0.00    -0.255 C  
HETATM   37  C   UNL     1      -9.277   6.580  66.797  1.00  0.00    -0.147 C  
HETATM   38  H   UNL     1      -9.892   8.406  67.795  1.00  0.00     0.000 HD 
HETATM   39  N   UNL     1      -9.732   7.405  67.912  1.00  0.00    -0.140 NA 
HETATM   40  C   UNL     1     -10.253   4.737  70.467  1.00  0.00    -0.252 A  
HETATM   41  C   UNL     1      -9.942   6.782  69.153  1.00  0.00    -0.159 A  
HETATM   42  C   UNL     1      -9.999   5.371  69.236  1.00  0.00    -0.277 A  
ENDBRANCH  28  31
ENDBRANCH  26  28
ENDBRANCH  13  26
ENDBRANCH   7  13
TORSDOF 8
ENDMDL
MODEL      125
REMARK 921   NORMALIZED FREE ENERGY PREDICTED BY IDOCK:   -6.09 KCAL/MOL
REMARK 922        TOTAL FREE ENERGY PREDICTED BY IDOCK:  -10.18 KCAL/MOL
REMARK 923 INTER-LIGAND FREE ENERGY PREDICTED BY IDOCK:   -8.53 KCAL/MOL
REMARK 924 INTRA-LIGAND FREE ENERGY PREDICTED BY IDOCK:   -1.65 KCAL/MOL
REMARK 927      BINDING AFFINITY PREDICTED BY RF-SCORE:    0.00 PKD
ROOT
HETATM    1  C   UNL     1     -10.086  18.124  66.640  1.00  0.00    -0.376 C  
HETATM    2  C   UNL     1     -10.774  16.766  66.653  1.00  0.00    -0.107 C  
HETATM    3  C   UNL     1     -10.977  16.244  68.080  1.00  0.00    -0.328 C  
HETATM    4  C   UNL     1     -11.628  14.861  68.076  1.00  0.00    -0.341 C  
HETATM    5  N   UNL     1     -10.948  13.892  67.172  1.00  0.00    -0.287 N  
HETATM    6  C   UNL     1     -10.694  14.389  65.802  1.00  0.00    -0.307 C  
HETATM    7  C   UNL     1     -10.262  12.829  67.775  1.00  0.00    -0.223 C  
HETATM    8  O   UNL     1     -10.236  12.774  69.013  1.00  0.00    -0.050 OA 
HETATM    9  O   UNL     1     -13.065  14.143  65.425  1.00  0.00    -0.743 OA 
HETATM   10  C   UNL     1      -9.962  15.735  65.855  1.00  0.00    -0.380 C  
HETATM   11  C   UNL     1     -11.908  14.521  64.877  1.00  0.00    -0.416 C  
HETATM   12  O   UNL     1     -11.847  14.940  63.732  1.00  0.00    -0.212 OA 
ENDROOT
BRANCH   7  13
HETATM   13  C   UNL     1      -9.619  11.627  66.995  1.00  0.00    -0.184 C  
BRANCH  13  14
HETATM   14  C   UNL     1     -10.030  11.366  65.522  1.00  0.00    -0.282 C  
BRANCH  14  15
HETATM   15  C   UNL     1      -8.884  10.771  64.678  1.00  0.00    -0.155 C  
BRANCH  15  16
HETATM   16  C   UNL     1      -9.264   9.485  63.928  1.00  0.00    -0.039 C  
BRANCH  16  17
HETATM   17  N   UNL     1      -8.472   8.392  64.461  1.00  0.00    -0.352 NA 
HETATM   18  H2  UNL     1      -7.085   6.477  65.093  1.00  0.00     0.000 HD 
HETATM   19  H1  UNL     1      -8.226   5.950  66.390  1.00  0.00     0.000 HD 
HETATM   20  N   UNL     1      -9.887   7.611  66.198  1.00  0.00    -0.451 NA 
HETATM   21  N   UNL     1      -7.942   6.579  65.637  1.00  0.00    -0.108 NA 
HETATM   22  C   UNL     1      -8.847   7.561  65.457  1.00  0.00     0.024 C  
HETATM   23  H   UNL     1      -7.552   8.238  64.047  1.00  0.00     0.000 HD 
HETATM   24  H1  UNL     1     -10.171   6.983  66.950  1.00  0.00     0.000 HD 
HETATM   25  H2  UNL     1     -10.522   8.387  66.011  1.00  0.00     0.000 HD 
ENDBRANCH  16  17
ENDBRANCH  15  16
ENDBRANCH  14  15
ENDBRANCH  13  14
BRANCH  13  26
HETATM   26  N   UNL     1      -9.699  10.338  67.736  1.00  0.00    -0.155 N  
HETATM   27  H   UNL     1     -10.558   9.786  67.728  1.00  0.00     0.000 HD 
BRANCH  26  28
HETATM   28  S   UNL     1      -8.328   9.800  68.598  1.00  0.00    -0.114 S  
HETATM   29  O   UNL     1      -7.880  10.876  69.444  1.00  0.00    -0.126 OA 
HETATM   30  O   UNL     1      -7.445   9.243  67.594  1.00  0.00    -0.087 OA 
BRANCH  28  31
HETATM   31  C   UNL     1      -8.987   8.478  69.581  1.00  0.00    -0.145 A  
HETATM   32  C   UNL     1     -11.967   7.536  71.781  1.00  0.00    -0.334 C  
HETATM   33  C   UNL     1      -8.193   7.328  69.718  1.00  0.00    -0.130 A  
HETATM   34  C   UNL     1     -13.885   8.981  72.544  1.00  0.00    -0.491 C  
HETATM   35  C   UNL     1      -8.639   6.256  70.484  1.00  0.00    -0.139 A  
HETATM   36  C   UNL     1     -12.473   8.970  71.963  1.00  0.00    -0.460 C  
HETATM   37  C   UNL     1     -12.410   9.668  70.611  1.00  0.00    -0.128 C  
HETATM   38  H   UNL     1     -10.652  10.603  69.749  1.00  0.00     0.000 HD 
HETATM   39  N   UNL     1     -11.032   9.737  70.131  1.00  0.00    -0.270 NA 
HETATM   40  C   UNL     1      -9.877   6.328  71.112  1.00  0.00    -0.203 A  
HETATM   41  C   UNL     1     -10.246   8.576  70.208  1.00  0.00    -0.193 A  
HETATM   42  C   UNL     1     -10.677   7.479  70.992  1.00  0.00    -0.243 A  
ENDBRANCH  28  31
ENDBRANCH  26  28
ENDBRANCH  13  26
ENDBRANCH   7  13
TORSDOF 8
ENDMDL
MODEL      126
REMARK 921   NORMALIZED FREE ENERGY PREDICTED BY IDOCK:   -6.08 KCAL/MOL
REMARK 922        TOTAL FREE ENERGY PREDICTED BY IDOCK:  -10.17 KCAL/MOL
REMARK 923 INTER-LIGAND FREE ENERGY PREDICTED BY IDOCK:  -10.17 KCAL/MOL
REMARK 924 INTRA-LIGAND FREE ENERGY PREDICTED BY IDOCK:   -0.00 KCAL/MOL
REMARK 927      BINDING AFFINITY PREDICTED BY RF-SCORE:    0.00 PKD
ROOT
HETATM    1  C   UNL     1      -6.117   7.692  66.024  1.00  0.00    -0.038 C  
HETATM    2  C   UNL     1      -6.873   8.985  65.756  1.00  0.00    -0.076 C  
HETATM    3  C   UNL     1      -6.366  10.134  66.634  1.00  0.00    -0.072 C  
HETATM    4  C   UNL     1      -7.165  11.414  66.386  1.00  0.00     0.001 C  
HETATM    5  N   UNL     1      -8.638  11.212  66.450  1.00  0.00    -0.169 N  
HETATM    6  C   UNL     1      -9.148  10.077  65.650  1.00  0.00    -0.183 C  
HETATM    7  C   UNL     1      -9.317  11.797  67.528  1.00  0.00    -0.174 C  
HETATM    8  O   UNL     1      -8.654  12.416  68.372  1.00  0.00    -0.173 OA 
HETATM    9  O   UNL     1      -8.720  11.439  63.704  1.00  0.00     0.132 OA 
HETATM   10  C   UNL     1      -8.379   8.798  65.997  1.00  0.00    -0.130 C  
HETATM   11  C   UNL     1      -9.159  10.252  64.128  1.00  0.00    -0.251 C  
HETATM   12  O   UNL     1      -9.530   9.389  63.348  1.00  0.00     0.109 OA 
ENDROOT
BRANCH   7  13
HETATM   13  C   UNL     1     -10.879  11.828  67.686  1.00  0.00    -0.217 C  
BRANCH  13  14
HETATM   14  C   UNL     1     -11.596  10.663  68.418  1.00  0.00    -0.269 C  
BRANCH  14  15
HETATM   15  C   UNL     1     -11.321  10.651  69.936  1.00  0.00    -0.386 C  
BRANCH  15  16
HETATM   16  C   UNL     1     -12.584  10.503  70.798  1.00  0.00    -0.382 C  
BRANCH  16  17
HETATM   17  N   UNL     1     -12.908   9.092  70.899  1.00  0.00    -0.516 NA 
HETATM   18  H2  UNL     1     -13.491   6.718  70.792  1.00  0.00     0.000 HD 
HETATM   19  H1  UNL     1     -14.551   6.809  72.250  1.00  0.00     0.000 HD 
HETATM   20  N   UNL     1     -14.316   9.087  72.809  1.00  0.00    -1.030 NA 
HETATM   21  N   UNL     1     -13.923   7.227  71.563  1.00  0.00    -0.399 NA 
HETATM   22  C   UNL     1     -13.739   8.539  71.808  1.00  0.00    -0.407 C  
HETATM   23  H   UNL     1     -12.469   8.464  70.225  1.00  0.00     0.000 HD 
HETATM   24  H1  UNL     1     -14.945   8.669  73.496  1.00  0.00     0.000 HD 
HETATM   25  H2  UNL     1     -14.123  10.080  72.938  1.00  0.00     0.000 HD 
ENDBRANCH  16  17
ENDBRANCH  15  16
ENDBRANCH  14  15
ENDBRANCH  13  14
BRANCH  13  26
HETATM   26  N   UNL     1     -11.593  12.082  66.404  1.00  0.00    -0.355 N  
HETATM   27  H   UNL     1     -11.955  11.306  65.849  1.00  0.00     0.000 HD 
BRANCH  26  28
HETATM   28  S   UNL     1     -11.794  13.694  65.881  1.00  0.00    -0.402 S  
HETATM   29  O   UNL     1     -13.130  13.834  65.362  1.00  0.00    -0.727 OA 
HETATM   30  O   UNL     1     -10.649  13.963  65.035  1.00  0.00    -0.354 OA 
BRANCH  28  31
HETATM   31  C   UNL     1     -11.621  14.611  67.390  1.00  0.00    -0.389 A  
HETATM   32  C   UNL     1     -10.169  17.845  68.820  1.00  0.00    -0.362 C  
HETATM   33  C   UNL     1     -12.109  14.009  68.561  1.00  0.00    -0.329 A  
HETATM   34  C   UNL     1      -8.738  19.573  67.674  1.00  0.00    -0.361 C  
HETATM   35  C   UNL     1     -11.997  14.663  69.784  1.00  0.00    -0.378 A  
HETATM   36  C   UNL     1      -9.266  18.142  67.619  1.00  0.00    -0.259 C  
HETATM   37  C   UNL     1     -10.066  17.881  66.350  1.00  0.00    -0.369 C  
HETATM   38  H   UNL     1     -10.354  15.947  65.409  1.00  0.00     0.000 HD 
HETATM   39  N   UNL     1     -10.467  16.479  66.273  1.00  0.00    -0.303 NA 
HETATM   40  C   UNL     1     -11.400  15.917  69.840  1.00  0.00    -0.348 A  
HETATM   41  C   UNL     1     -11.011  15.882  67.421  1.00  0.00    -0.257 A  
HETATM   42  C   UNL     1     -10.897  16.526  68.676  1.00  0.00    -0.345 A  
ENDBRANCH  28  31
ENDBRANCH  26  28
ENDBRANCH  13  26
ENDBRANCH   7  13
TORSDOF 8
ENDMDL
MODEL      127
REMARK 921   NORMALIZED FREE ENERGY PREDICTED BY IDOCK:   -6.08 KCAL/MOL
REMARK 922        TOTAL FREE ENERGY PREDICTED BY IDOCK:  -10.17 KCAL/MOL
REMARK 923 INTER-LIGAND FREE ENERGY PREDICTED BY IDOCK:   -8.38 KCAL/MOL
REMARK 924 INTRA-LIGAND FREE ENERGY PREDICTED BY IDOCK:   -1.79 KCAL/MOL
REMARK 927      BINDING AFFINITY PREDICTED BY RF-SCORE:    0.00 PKD
ROOT
HETATM    1  C   UNL     1      -9.820  16.324  65.594  1.00  0.00    -0.255 C  
HETATM    2  C   UNL     1     -10.756  15.138  65.778  1.00  0.00    -0.359 C  
HETATM    3  C   UNL     1     -11.479  15.187  67.129  1.00  0.00    -0.254 C  
HETATM    4  C   UNL     1     -12.380  13.967  67.318  1.00  0.00    -0.166 C  
HETATM    5  N   UNL     1     -11.688  12.675  67.052  1.00  0.00    -0.363 N  
HETATM    6  C   UNL     1     -10.941  12.619  65.777  1.00  0.00    -0.280 C  
HETATM    7  C   UNL     1     -11.456  11.837  68.151  1.00  0.00    -0.316 C  
HETATM    8  O   UNL     1     -11.809  12.227  69.272  1.00  0.00    -0.302 OA 
HETATM    9  O   UNL     1     -13.089  12.492  64.685  1.00  0.00    -0.845 OA 
HETATM   10  C   UNL     1      -9.986  13.813  65.670  1.00  0.00    -0.275 C  
HETATM   11  C   UNL     1     -11.769  12.531  64.491  1.00  0.00    -0.362 C  
HETATM   12  O   UNL     1     -11.284  12.503  63.371  1.00  0.00    -0.469 OA 
ENDROOT
BRANCH   7  13
HETATM   13  C   UNL     1     -10.885  10.377  68.052  1.00  0.00    -0.270 C  
BRANCH  13  14
HETATM   14  C   UNL     1     -11.008   9.598  66.716  1.00  0.00     0.078 C  
BRANCH  14  15
HETATM   15  C   UNL     1      -9.829   8.632  66.477  1.00  0.00    -0.348 C  
BRANCH  15  16
HETATM   16  C   UNL     1      -8.451   9.308  66.509  1.00  0.00    -0.126 C  
BRANCH  16  17
HETATM   17  N   UNL     1      -7.737   8.841  67.684  1.00  0.00    -0.101 NA 
HETATM   18  H2  UNL     1      -6.364   8.274  69.629  1.00  0.00     0.000 HD 
HETATM   19  H1  UNL     1      -6.324   6.518  69.215  1.00  0.00     0.000 HD 
HETATM   20  N   UNL     1      -7.624   6.512  67.248  1.00  0.00    -0.095 NA 
HETATM   21  N   UNL     1      -6.611   7.481  69.037  1.00  0.00    -0.043 NA 
HETATM   22  C   UNL     1      -7.358   7.567  67.919  1.00  0.00    -0.099 C  
HETATM   23  H   UNL     1      -7.502   9.536  68.393  1.00  0.00     0.000 HD 
HETATM   24  H1  UNL     1      -7.337   5.549  67.426  1.00  0.00     0.000 HD 
HETATM   25  H2  UNL     1      -8.202   6.652  66.420  1.00  0.00     0.000 HD 
ENDBRANCH  16  17
ENDBRANCH  15  16
ENDBRANCH  14  15
ENDBRANCH  13  14
BRANCH  13  26
HETATM   26  N   UNL     1     -11.353   9.489  69.153  1.00  0.00    -0.449 N  
HETATM   27  H   UNL     1     -12.282   9.070  69.123  1.00  0.00     0.000 HD 
BRANCH  26  28
HETATM   28  S   UNL     1     -10.304   9.187  70.465  1.00  0.00    -0.257 S  
HETATM   29  O   UNL     1     -10.994   9.534  71.680  1.00  0.00    -0.362 OA 
HETATM   30  O   UNL     1      -9.062   9.846  70.115  1.00  0.00    -0.223 OA 
BRANCH  28  31
HETATM   31  C   UNL     1     -10.069   7.431  70.371  1.00  0.00    -0.192 A  
HETATM   32  C   UNL     1      -8.257   4.523  72.066  1.00  0.00    -0.101 C  
HETATM   33  C   UNL     1     -10.676   6.763  69.296  1.00  0.00    -0.288 A  
HETATM   34  C   UNL     1      -6.568   4.591  73.934  1.00  0.00    -0.058 C  
HETATM   35  C   UNL     1     -10.525   5.388  69.150  1.00  0.00    -0.277 A  
HETATM   36  C   UNL     1      -7.278   5.400  72.853  1.00  0.00    -0.090 C  
HETATM   37  C   UNL     1      -8.057   6.570  73.438  1.00  0.00    -0.108 C  
HETATM   38  H   UNL     1      -8.562   8.405  72.395  1.00  0.00     0.000 HD 
HETATM   39  N   UNL     1      -8.636   7.387  72.375  1.00  0.00    -0.114 NA 
HETATM   40  C   UNL     1      -9.770   4.677  70.076  1.00  0.00    -0.277 A  
HETATM   41  C   UNL     1      -9.297   6.733  71.324  1.00  0.00    -0.165 A  
HETATM   42  C   UNL     1      -9.147   5.337  71.152  1.00  0.00    -0.170 A  
ENDBRANCH  28  31
ENDBRANCH  26  28
ENDBRANCH  13  26
ENDBRANCH   7  13
TORSDOF 8
ENDMDL
MODEL      128
REMARK 921   NORMALIZED FREE ENERGY PREDICTED BY IDOCK:   -6.06 KCAL/MOL
REMARK 922        TOTAL FREE ENERGY PREDICTED BY IDOCK:  -10.15 KCAL/MOL
REMARK 923 INTER-LIGAND FREE ENERGY PREDICTED BY IDOCK:   -8.66 KCAL/MOL
REMARK 924 INTRA-LIGAND FREE ENERGY PREDICTED BY IDOCK:   -1.49 KCAL/MOL
REMARK 927      BINDING AFFINITY PREDICTED BY RF-SCORE:    0.00 PKD
ROOT
HETATM    1  C   UNL     1      -9.521   3.827  62.497  1.00  0.00    -0.110 C  
HETATM    2  C   UNL     1      -9.338   4.122  63.979  1.00  0.00    -0.153 C  
HETATM    3  C   UNL     1     -10.678   4.377  64.679  1.00  0.00    -0.044 C  
HETATM    4  C   UNL     1     -10.475   4.717  66.155  1.00  0.00    -0.241 C  
HETATM    5  N   UNL     1      -9.465   5.788  66.381  1.00  0.00    -0.155 N  
HETATM    6  C   UNL     1      -8.179   5.591  65.676  1.00  0.00    -0.127 C  
HETATM    7  C   UNL     1      -9.935   7.020  66.854  1.00  0.00    -0.217 C  
HETATM    8  O   UNL     1     -11.154   7.155  67.027  1.00  0.00    -0.345 OA 
HETATM    9  O   UNL     1      -7.721   3.855  67.288  1.00  0.00    -0.079 OA 
HETATM   10  C   UNL     1      -8.427   5.342  64.184  1.00  0.00    -0.108 C  
HETATM   11  C   UNL     1      -7.254   4.495  66.214  1.00  0.00    -0.076 C  
HETATM   12  O   UNL     1      -6.177   4.210  65.715  1.00  0.00    -0.030 OA 
ENDROOT
BRANCH   7  13
HETATM   13  C   UNL     1      -9.016   8.213  67.299  1.00  0.00    -0.137 C  
BRANCH  13  14
HETATM   14  C   UNL     1      -8.595   8.339  68.787  1.00  0.00    -0.133 C  
BRANCH  14  15
HETATM   15  C   UNL     1      -9.507   9.290  69.588  1.00  0.00    -0.188 C  
BRANCH  15  16
HETATM   16  C   UNL     1     -10.674   8.587  70.297  1.00  0.00    -0.230 C  
BRANCH  16  17
HETATM   17  N   UNL     1     -11.635   9.593  70.710  1.00  0.00    -0.299 NA 
HETATM   18  H2  UNL     1     -13.049  11.478  71.372  1.00  0.00     0.000 HD 
HETATM   19  H1  UNL     1     -13.777  10.576  72.755  1.00  0.00     0.000 HD 
HETATM   20  N   UNL     1     -12.669   8.506  72.547  1.00  0.00    -0.566 NA 
HETATM   21  N   UNL     1     -13.148  10.647  71.955  1.00  0.00    -0.487 NA 
HETATM   22  C   UNL     1     -12.467   9.499  71.769  1.00  0.00    -0.401 C  
HETATM   23  H   UNL     1     -11.686  10.446  70.151  1.00  0.00     0.000 HD 
HETATM   24  H1  UNL     1     -13.298   8.435  73.348  1.00  0.00     0.000 HD 
HETATM   25  H2  UNL     1     -12.127   7.668  72.340  1.00  0.00     0.000 HD 
ENDBRANCH  16  17
ENDBRANCH  15  16
ENDBRANCH  14  15
ENDBRANCH  13  14
BRANCH  13  26
HETATM   26  N   UNL     1      -9.516   9.539  66.842  1.00  0.00    -0.151 N  
HETATM   27  H   UNL     1     -10.180  10.067  67.409  1.00  0.00     0.000 HD 
BRANCH  26  28
HETATM   28  S   UNL     1      -8.956  10.160  65.354  1.00  0.00    -0.193 S  
HETATM   29  O   UNL     1      -9.001   9.100  64.381  1.00  0.00    -0.173 OA 
HETATM   30  O   UNL     1      -7.701  10.814  65.666  1.00  0.00    -0.138 OA 
BRANCH  28  31
HETATM   31  C   UNL     1     -10.169  11.397  64.974  1.00  0.00    -0.281 A  
HETATM   32  C   UNL     1     -11.926  14.463  66.431  1.00  0.00    -0.402 C  
HETATM   33  C   UNL     1     -10.830  11.285  63.741  1.00  0.00    -0.424 A  
HETATM   34  C   UNL     1     -11.778  15.407  68.762  1.00  0.00    -0.369 C  
HETATM   35  C   UNL     1     -11.803  12.211  63.380  1.00  0.00    -0.553 A  
HETATM   36  C   UNL     1     -11.523  14.187  67.882  1.00  0.00    -0.340 C  
HETATM   37  C   UNL     1     -10.057  13.775  67.894  1.00  0.00    -0.246 C  
HETATM   38  H   UNL     1      -9.298  11.779  67.506  1.00  0.00     0.000 HD 
HETATM   39  N   UNL     1      -9.861  12.544  67.133  1.00  0.00    -0.207 NA 
HETATM   40  C   UNL     1     -12.116  13.252  64.247  1.00  0.00    -0.475 A  
HETATM   41  C   UNL     1     -10.469  12.444  65.871  1.00  0.00    -0.256 A  
HETATM   42  C   UNL     1     -11.469  13.369  65.491  1.00  0.00    -0.324 A  
ENDBRANCH  28  31
ENDBRANCH  26  28
ENDBRANCH  13  26
ENDBRANCH   7  13
TORSDOF 8
ENDMDL
MODEL      129
REMARK 921   NORMALIZED FREE ENERGY PREDICTED BY IDOCK:   -6.02 KCAL/MOL
REMARK 922        TOTAL FREE ENERGY PREDICTED BY IDOCK:  -10.08 KCAL/MOL
REMARK 923 INTER-LIGAND FREE ENERGY PREDICTED BY IDOCK:   -8.98 KCAL/MOL
REMARK 924 INTRA-LIGAND FREE ENERGY PREDICTED BY IDOCK:   -1.11 KCAL/MOL
REMARK 927      BINDING AFFINITY PREDICTED BY RF-SCORE:    0.00 PKD
ROOT
HETATM    1  C   UNL     1      -5.494   9.374  63.272  1.00  0.00    -0.075 C  
HETATM    2  C   UNL     1      -6.938   9.426  63.750  1.00  0.00    -0.095 C  
HETATM    3  C   UNL     1      -7.879   9.959  62.664  1.00  0.00    -0.131 C  
HETATM    4  C   UNL     1      -9.318  10.048  63.173  1.00  0.00    -0.260 C  
HETATM    5  N   UNL     1      -9.439  10.757  64.477  1.00  0.00    -0.232 N  
HETATM    6  C   UNL     1      -8.507  10.295  65.528  1.00  0.00    -0.162 C  
HETATM    7  C   UNL     1     -10.076  12.006  64.468  1.00  0.00    -0.265 C  
HETATM    8  O   UNL     1     -10.470  12.455  63.383  1.00  0.00    -0.426 OA 
HETATM    9  O   UNL     1      -9.883   8.319  65.683  1.00  0.00     0.166 OA 
HETATM   10  C   UNL     1      -7.067  10.307  65.001  1.00  0.00    -0.111 C  
HETATM   11  C   UNL     1      -8.793   8.927  66.156  1.00  0.00    -0.161 C  
HETATM   12  O   UNL     1      -8.094   8.414  67.015  1.00  0.00    -0.102 OA 
ENDROOT
BRANCH   7  13
HETATM   13  C   UNL     1     -10.437  12.831  65.754  1.00  0.00    -0.276 C  
BRANCH  13  14
HETATM   14  C   UNL     1     -11.804  13.562  65.833  1.00  0.00    -0.405 C  
BRANCH  14  15
HETATM   15  C   UNL     1     -11.657  15.091  65.969  1.00  0.00    -0.158 C  
BRANCH  15  16
HETATM   16  C   UNL     1     -11.285  15.802  64.658  1.00  0.00    -0.363 C  
BRANCH  16  17
HETATM   17  N   UNL     1     -11.134  17.219  64.932  1.00  0.00    -0.817 NA 
HETATM   18  H2  UNL     1     -10.901  19.649  65.115  1.00  0.00     0.000 HD 
HETATM   19  H1  UNL     1      -9.553  19.530  66.310  1.00  0.00     0.000 HD 
HETATM   20  N   UNL     1      -9.366  17.190  66.513  1.00  0.00    -0.255 NA 
HETATM   21  N   UNL     1     -10.253  19.115  65.694  1.00  0.00    -0.469 NA 
HETATM   22  C   UNL     1     -10.208  17.769  65.746  1.00  0.00    -0.136 C  
HETATM   23  H   UNL     1     -11.784  17.855  64.468  1.00  0.00     0.000 HD 
HETATM   24  H1  UNL     1      -8.666  17.605  67.129  1.00  0.00     0.000 HD 
HETATM   25  H2  UNL     1      -9.396  16.170  66.509  1.00  0.00     0.000 HD 
ENDBRANCH  16  17
ENDBRANCH  15  16
ENDBRANCH  14  15
ENDBRANCH  13  14
BRANCH  13  26
HETATM   26  N   UNL     1      -9.372  13.792  66.152  1.00  0.00    -0.487 N  
HETATM   27  H   UNL     1      -9.084  14.540  65.521  1.00  0.00     0.000 HD 
BRANCH  26  28
HETATM   28  S   UNL     1      -8.642  13.619  67.686  1.00  0.00    -0.199 S  
HETATM   29  O   UNL     1      -8.423  14.934  68.229  1.00  0.00    -0.140 OA 
HETATM   30  O   UNL     1      -7.526  12.721  67.473  1.00  0.00    -0.133 OA 
BRANCH  28  31
HETATM   31  C   UNL     1      -9.894  12.770  68.612  1.00  0.00    -0.063 A  
HETATM   32  C   UNL     1     -12.886  13.369  70.914  1.00  0.00    -0.279 C  
HETATM   33  C   UNL     1      -9.838  11.367  68.624  1.00  0.00    -0.199 A  
HETATM   34  C   UNL     1     -13.720  15.539  71.885  1.00  0.00    -0.593 C  
HETATM   35  C   UNL     1     -10.779  10.634  69.339  1.00  0.00    -0.281 A  
HETATM   36  C   UNL     1     -12.543  14.829  71.223  1.00  0.00    -0.403 C  
HETATM   37  C   UNL     1     -12.132  15.503  69.921  1.00  0.00    -0.355 C  
HETATM   38  H   UNL     1     -10.158  15.430  69.023  1.00  0.00     0.000 HD 
HETATM   39  N   UNL     1     -10.939  14.870  69.366  1.00  0.00    -0.262 NA 
HETATM   40  C   UNL     1     -11.778  11.299  70.043  1.00  0.00    -0.428 A  
HETATM   41  C   UNL     1     -10.897  13.468  69.318  1.00  0.00    -0.063 A  
HETATM   42  C   UNL     1     -11.838  12.704  70.049  1.00  0.00    -0.358 A  
ENDBRANCH  28  31
ENDBRANCH  26  28
ENDBRANCH  13  26
ENDBRANCH   7  13
TORSDOF 8
ENDMDL
MODEL      130
REMARK 921   NORMALIZED FREE ENERGY PREDICTED BY IDOCK:   -6.01 KCAL/MOL
REMARK 922        TOTAL FREE ENERGY PREDICTED BY IDOCK:  -10.07 KCAL/MOL
REMARK 923 INTER-LIGAND FREE ENERGY PREDICTED BY IDOCK:   -8.30 KCAL/MOL
REMARK 924 INTRA-LIGAND FREE ENERGY PREDICTED BY IDOCK:   -1.77 KCAL/MOL
REMARK 927      BINDING AFFINITY PREDICTED BY RF-SCORE:    0.00 PKD
ROOT
HETATM    1  C   UNL     1     -11.845  16.815  73.831  1.00  0.00    -0.080 C  
HETATM    2  C   UNL     1     -12.277  16.054  72.586  1.00  0.00    -0.619 C  
HETATM    3  C   UNL     1     -13.464  15.126  72.868  1.00  0.00    -0.589 C  
HETATM    4  C   UNL     1     -13.857  14.336  71.620  1.00  0.00    -0.393 C  
HETATM    5  N   UNL     1     -12.705  13.658  70.964  1.00  0.00    -0.343 N  
HETATM    6  C   UNL     1     -11.527  14.520  70.725  1.00  0.00    -0.136 C  
HETATM    7  C   UNL     1     -12.672  12.258  71.020  1.00  0.00    -0.225 C  
HETATM    8  O   UNL     1     -13.576  11.673  71.632  1.00  0.00    -0.082 OA 
HETATM    9  O   UNL     1     -12.817  15.555  68.967  1.00  0.00     0.358 OA 
HETATM   10  C   UNL     1     -11.115  15.223  72.023  1.00  0.00    -0.173 C  
HETATM   11  C   UNL     1     -11.648  15.565  69.611  1.00  0.00    -0.348 C  
HETATM   12  O   UNL     1     -10.764  16.357  69.324  1.00  0.00    -0.282 OA 
ENDROOT
BRANCH   7  13
HETATM   13  C   UNL     1     -11.631  11.361  70.260  1.00  0.00    -0.243 C  
BRANCH  13  14
HETATM   14  C   UNL     1     -10.806  10.311  71.051  1.00  0.00     0.147 C  
BRANCH  14  15
HETATM   15  C   UNL     1     -10.750   8.940  70.347  1.00  0.00    -0.261 C  
BRANCH  15  16
HETATM   16  C   UNL     1      -9.351   8.553  69.845  1.00  0.00    -0.159 C  
BRANCH  16  17
HETATM   17  N   UNL     1      -8.432   9.627  70.173  1.00  0.00    -0.197 NA 
HETATM   18  H2  UNL     1      -7.047  11.605  70.572  1.00  0.00     0.000 HD 
HETATM   19  H1  UNL     1      -5.506  10.704  70.308  1.00  0.00     0.000 HD 
HETATM   20  N   UNL     1      -6.342   8.547  69.859  1.00  0.00    -0.034 NA 
HETATM   21  N   UNL     1      -6.524  10.756  70.359  1.00  0.00    -0.279 NA 
HETATM   22  C   UNL     1      -7.085   9.558  70.106  1.00  0.00    -0.099 C  
HETATM   23  H   UNL     1      -8.838  10.511  70.480  1.00  0.00     0.000 HD 
HETATM   24  H1  UNL     1      -5.324   8.494  69.809  1.00  0.00     0.000 HD 
HETATM   25  H2  UNL     1      -6.836   7.671  69.688  1.00  0.00     0.000 HD 
ENDBRANCH  16  17
ENDBRANCH  15  16
ENDBRANCH  14  15
ENDBRANCH  13  14
BRANCH  13  26
HETATM   26  N   UNL     1     -10.693  12.144  69.408  1.00  0.00    -0.448 N  
HETATM   27  H   UNL     1     -10.218  12.967  69.779  1.00  0.00     0.000 HD 
BRANCH  26  28
HETATM   28  S   UNL     1     -10.428  11.637  67.800  1.00  0.00    -0.194 S  
HETATM   29  O   UNL     1     -11.527  10.794  67.408  1.00  0.00    -0.467 OA 
HETATM   30  O   UNL     1      -9.072  11.126  67.784  1.00  0.00    -0.144 OA 
BRANCH  28  31
HETATM   31  C   UNL     1     -10.476  13.167  66.903  1.00  0.00    -0.256 A  
HETATM   32  C   UNL     1      -8.583  16.452  66.417  1.00  0.00    -0.358 C  
HETATM   33  C   UNL     1     -11.592  13.390  66.082  1.00  0.00    -0.378 A  
HETATM   34  C   UNL     1      -6.570  17.313  67.665  1.00  0.00    -0.169 C  
HETATM   35  C   UNL     1     -11.704  14.573  65.358  1.00  0.00    -0.354 A  
HETATM   36  C   UNL     1      -7.723  16.313  67.677  1.00  0.00    -0.161 C  
HETATM   37  C   UNL     1      -7.228  14.876  67.755  1.00  0.00    -0.172 C  
HETATM   38  H   UNL     1      -8.337  13.194  68.560  1.00  0.00     0.000 HD 
HETATM   39  N   UNL     1      -8.350  13.949  67.873  1.00  0.00    -0.153 NA 
HETATM   40  C   UNL     1     -10.704  15.533  65.452  1.00  0.00    -0.422 A  
HETATM   41  C   UNL     1      -9.447  14.126  67.016  1.00  0.00    -0.251 A  
HETATM   42  C   UNL     1      -9.586  15.327  66.281  1.00  0.00    -0.331 A  
ENDBRANCH  28  31
ENDBRANCH  26  28
ENDBRANCH  13  26
ENDBRANCH   7  13
TORSDOF 8
ENDMDL
MODEL      131
REMARK 921   NORMALIZED FREE ENERGY PREDICTED BY IDOCK:   -6.01 KCAL/MOL
REMARK 922        TOTAL FREE ENERGY PREDICTED BY IDOCK:  -10.07 KCAL/MOL
REMARK 923 INTER-LIGAND FREE ENERGY PREDICTED BY IDOCK:   -8.22 KCAL/MOL
REMARK 924 INTRA-LIGAND FREE ENERGY PREDICTED BY IDOCK:   -1.85 KCAL/MOL
REMARK 927      BINDING AFFINITY PREDICTED BY RF-SCORE:    0.00 PKD
ROOT
HETATM    1  C   UNL     1      -7.375  10.247  65.364  1.00  0.00    -0.144 C  
HETATM    2  C   UNL     1      -7.434   9.174  66.442  1.00  0.00    -0.092 C  
HETATM    3  C   UNL     1      -8.032   7.867  65.912  1.00  0.00    -0.106 C  
HETATM    4  C   UNL     1      -8.127   6.814  67.017  1.00  0.00    -0.109 C  
HETATM    5  N   UNL     1      -8.781   7.317  68.256  1.00  0.00    -0.126 N  
HETATM    6  C   UNL     1      -8.255   8.604  68.761  1.00  0.00    -0.121 C  
HETATM    7  C   UNL     1     -10.041   6.791  68.572  1.00  0.00    -0.162 C  
HETATM    8  O   UNL     1     -10.546   5.969  67.794  1.00  0.00    -0.212 OA 
HETATM    9  O   UNL     1      -6.302   7.371  69.459  1.00  0.00    -0.034 OA 
HETATM   10  C   UNL     1      -8.262   9.653  67.644  1.00  0.00    -0.114 C  
HETATM   11  C   UNL     1      -6.867   8.579  69.409  1.00  0.00    -0.046 C  
HETATM   12  O   UNL     1      -6.303   9.570  69.845  1.00  0.00    -0.044 OA 
ENDROOT
BRANCH   7  13
HETATM   13  C   UNL     1     -10.816   7.076  69.908  1.00  0.00    -0.251 C  
BRANCH  13  14
HETATM   14  C   UNL     1     -11.396   5.889  70.722  1.00  0.00    -0.205 C  
BRANCH  14  15
HETATM   15  C   UNL     1     -10.322   4.857  71.122  1.00  0.00    -0.222 C  
BRANCH  15  16
HETATM   16  C   UNL     1     -10.288   4.541  72.625  1.00  0.00    -0.193 C  
BRANCH  16  17
HETATM   17  N   UNL     1      -9.352   5.447  73.264  1.00  0.00    -0.135 NA 
HETATM   18  H2  UNL     1      -7.640   6.747  74.435  1.00  0.00     0.000 HD 
HETATM   19  H1  UNL     1      -8.841   7.916  75.104  1.00  0.00     0.000 HD 
HETATM   20  N   UNL     1     -10.835   7.052  74.191  1.00  0.00    -0.447 NA 
HETATM   21  N   UNL     1      -8.591   7.096  74.551  1.00  0.00    -0.192 NA 
HETATM   22  C   UNL     1      -9.682   6.533  73.995  1.00  0.00    -0.248 C  
HETATM   23  H   UNL     1      -8.358   5.246  73.151  1.00  0.00     0.000 HD 
HETATM   24  H1  UNL     1     -11.084   7.872  74.743  1.00  0.00     0.000 HD 
HETATM   25  H2  UNL     1     -11.612   6.579  73.731  1.00  0.00     0.000 HD 
ENDBRANCH  16  17
ENDBRANCH  15  16
ENDBRANCH  14  15
ENDBRANCH  13  14
BRANCH  13  26
HETATM   26  N   UNL     1     -11.884   8.103  69.758  1.00  0.00    -0.048 N  
HETATM   27  H   UNL     1     -12.464   8.131  68.919  1.00  0.00     0.000 HD 
BRANCH  26  28
HETATM   28  S   UNL     1     -12.119   9.232  71.016  1.00  0.00    -0.253 S  
HETATM   29  O   UNL     1     -11.031   9.097  71.949  1.00  0.00    -0.364 OA 
HETATM   30  O   UNL     1     -13.486   9.032  71.452  1.00  0.00    -0.339 OA 
BRANCH  28  31
HETATM   31  C   UNL     1     -12.010  10.784  70.164  1.00  0.00    -0.349 A  
HETATM   32  C   UNL     1     -12.885  14.490  70.497  1.00  0.00    -0.361 C  
HETATM   33  C   UNL     1     -11.473  10.763  68.867  1.00  0.00    -0.362 A  
HETATM   34  C   UNL     1     -14.210  15.642  72.304  1.00  0.00    -0.538 C  
HETATM   35  C   UNL     1     -11.368  11.940  68.133  1.00  0.00    -0.350 A  
HETATM   36  C   UNL     1     -13.872  14.304  71.654  1.00  0.00    -0.473 C  
HETATM   37  C   UNL     1     -13.255  13.329  72.647  1.00  0.00    -0.266 C  
HETATM   38  H   UNL     1     -13.314  11.165  72.503  1.00  0.00     0.000 HD 
HETATM   39  N   UNL     1     -13.042  12.025  72.026  1.00  0.00    -0.427 NA 
HETATM   40  C   UNL     1     -11.796  13.139  68.691  1.00  0.00    -0.363 A  
HETATM   41  C   UNL     1     -12.451  11.988  70.753  1.00  0.00    -0.279 A  
HETATM   42  C   UNL     1     -12.346  13.172  69.986  1.00  0.00    -0.241 A  
ENDBRANCH  28  31
ENDBRANCH  26  28
ENDBRANCH  13  26
ENDBRANCH   7  13
TORSDOF 8
ENDMDL
MODEL      132
REMARK 921   NORMALIZED FREE ENERGY PREDICTED BY IDOCK:   -6.00 KCAL/MOL
REMARK 922        TOTAL FREE ENERGY PREDICTED BY IDOCK:  -10.06 KCAL/MOL
REMARK 923 INTER-LIGAND FREE ENERGY PREDICTED BY IDOCK:   -8.09 KCAL/MOL
REMARK 924 INTRA-LIGAND FREE ENERGY PREDICTED BY IDOCK:   -1.97 KCAL/MOL
REMARK 927      BINDING AFFINITY PREDICTED BY RF-SCORE:    0.00 PKD
ROOT
HETATM    1  C   UNL     1      -5.494  11.884  67.438  1.00  0.00    -0.107 C  
HETATM    2  C   UNL     1      -6.270  10.636  67.836  1.00  0.00    -0.054 C  
HETATM    3  C   UNL     1      -7.239  10.192  66.735  1.00  0.00    -0.093 C  
HETATM    4  C   UNL     1      -8.044   8.966  67.166  1.00  0.00    -0.103 C  
HETATM    5  N   UNL     1      -8.682   9.120  68.503  1.00  0.00    -0.129 N  
HETATM    6  C   UNL     1      -7.779   9.596  69.574  1.00  0.00    -0.109 C  
HETATM    7  C   UNL     1     -10.079   9.215  68.537  1.00  0.00    -0.191 C  
HETATM    8  O   UNL     1     -10.695   9.196  67.462  1.00  0.00    -0.273 OA 
HETATM    9  O   UNL     1      -6.791   7.395  69.526  1.00  0.00    -0.047 OA 
HETATM   10  C   UNL     1      -7.061  10.876  69.131  1.00  0.00    -0.109 C  
HETATM   11  C   UNL     1      -6.739   8.600  70.097  1.00  0.00    -0.039 C  
HETATM   12  O   UNL     1      -5.917   8.866  70.960  1.00  0.00    -0.036 OA 
ENDROOT
BRANCH   7  13
HETATM   13  C   UNL     1     -10.940   9.225  69.850  1.00  0.00    -0.213 C  
BRANCH  13  14
HETATM   14  C   UNL     1     -11.234  10.573  70.560  1.00  0.00    -0.348 C  
BRANCH  14  15
HETATM   15  C   UNL     1     -12.186  11.479  69.753  1.00  0.00    -0.310 C  
BRANCH  15  16
HETATM   16  C   UNL     1     -11.467  12.484  68.840  1.00  0.00    -0.307 C  
BRANCH  16  17
HETATM   17  N   UNL     1     -11.848  12.211  67.467  1.00  0.00    -0.553 NA 
HETATM   18  H2  UNL     1     -12.271  11.578  65.141  1.00  0.00     0.000 HD 
HETATM   19  H1  UNL     1     -12.612  13.276  64.634  1.00  0.00     0.000 HD 
HETATM   20  N   UNL     1     -12.327  14.400  66.687  1.00  0.00    -0.518 NA 
HETATM   21  N   UNL     1     -12.364  12.575  65.333  1.00  0.00    -0.635 NA 
HETATM   22  C   UNL     1     -12.176  13.139  66.542  1.00  0.00    -0.291 C  
HETATM   23  H   UNL     1     -11.870  11.234  67.175  1.00  0.00     0.000 HD 
HETATM   24  H1  UNL     1     -12.575  15.102  65.988  1.00  0.00     0.000 HD 
HETATM   25  H2  UNL     1     -12.179  14.755  67.631  1.00  0.00     0.000 HD 
ENDBRANCH  16  17
ENDBRANCH  15  16
ENDBRANCH  14  15
ENDBRANCH  13  14
BRANCH  13  26
HETATM   26  N   UNL     1     -10.459   8.255  70.873  1.00  0.00    -0.194 N  
HETATM   27  H   UNL     1      -9.461   8.134  71.046  1.00  0.00     0.000 HD 
BRANCH  26  28
HETATM   28  S   UNL     1     -11.611   7.351  71.752  1.00  0.00    -0.283 S  
HETATM   29  O   UNL     1     -12.824   7.297  70.978  1.00  0.00    -0.315 OA 
HETATM   30  O   UNL     1     -11.614   7.933  73.078  1.00  0.00    -0.351 OA 
BRANCH  28  31
HETATM   31  C   UNL     1     -10.859   5.746  71.830  1.00  0.00    -0.252 A  
HETATM   32  C   UNL     1      -9.169   3.085  69.668  1.00  0.00    -0.219 C  
HETATM   33  C   UNL     1     -10.876   5.093  73.073  1.00  0.00    -0.336 A  
HETATM   34  C   UNL     1      -8.894   3.028  67.164  1.00  0.00    -0.161 C  
HETATM   35  C   UNL     1     -10.316   3.827  73.208  1.00  0.00    -0.242 A  
HETATM   36  C   UNL     1      -9.651   3.656  68.331  1.00  0.00    -0.164 C  
HETATM   37  C   UNL     1      -9.478   5.168  68.373  1.00  0.00    -0.129 C  
HETATM   38  H   UNL     1     -10.869   6.580  69.257  1.00  0.00     0.000 HD 
HETATM   39  N   UNL     1     -10.297   5.752  69.431  1.00  0.00    -0.235 NA 
HETATM   40  C   UNL     1      -9.737   3.211  72.104  1.00  0.00    -0.230 A  
HETATM   41  C   UNL     1     -10.278   5.142  70.695  1.00  0.00    -0.256 A  
HETATM   42  C   UNL     1      -9.723   3.850  70.850  1.00  0.00    -0.253 A  
ENDBRANCH  28  31
ENDBRANCH  26  28
ENDBRANCH  13  26
ENDBRANCH   7  13
TORSDOF 8
ENDMDL
MODEL      133
REMARK 921   NORMALIZED FREE ENERGY PREDICTED BY IDOCK:   -6.00 KCAL/MOL
REMARK 922        TOTAL FREE ENERGY PREDICTED BY IDOCK:  -10.06 KCAL/MOL
REMARK 923 INTER-LIGAND FREE ENERGY PREDICTED BY IDOCK:   -7.99 KCAL/MOL
REMARK 924 INTRA-LIGAND FREE ENERGY PREDICTED BY IDOCK:   -2.06 KCAL/MOL
REMARK 927      BINDING AFFINITY PREDICTED BY RF-SCORE:    0.00 PKD
ROOT
HETATM    1  C   UNL     1     -13.491   7.089  71.593  1.00  0.00    -0.350 C  
HETATM    2  C   UNL     1     -11.974   6.996  71.511  1.00  0.00    -0.372 C  
HETATM    3  C   UNL     1     -11.294   8.228  72.116  1.00  0.00    -0.419 C  
HETATM    4  C   UNL     1      -9.773   8.141  71.986  1.00  0.00    -0.227 C  
HETATM    5  N   UNL     1      -9.317   7.818  70.606  1.00  0.00    -0.162 N  
HETATM    6  C   UNL     1      -9.994   6.661  69.980  1.00  0.00    -0.172 C  
HETATM    7  C   UNL     1      -8.647   8.827  69.902  1.00  0.00    -0.133 C  
HETATM    8  O   UNL     1      -8.501   9.928  70.451  1.00  0.00    -0.145 OA 
HETATM    9  O   UNL     1      -8.707   5.275  71.478  1.00  0.00    -0.131 OA 
HETATM   10  C   UNL     1     -11.515   6.835  70.054  1.00  0.00    -0.390 C  
HETATM   11  C   UNL     1      -9.627   5.272  70.511  1.00  0.00    -0.176 C  
HETATM   12  O   UNL     1     -10.126   4.235  70.103  1.00  0.00    -0.194 OA 
ENDROOT
BRANCH   7  13
HETATM   13  C   UNL     1      -7.957   8.631  68.505  1.00  0.00    -0.116 C  
BRANCH  13  14
HETATM   14  C   UNL     1      -6.410   8.543  68.423  1.00  0.00    -0.055 C  
BRANCH  14  15
HETATM   15  C   UNL     1      -5.810   9.499  67.372  1.00  0.00    -0.045 C  
BRANCH  15  16
HETATM   16  C   UNL     1      -5.384   8.806  66.069  1.00  0.00    -0.037 C  
BRANCH  16  17
HETATM   17  N   UNL     1      -5.793   9.638  64.952  1.00  0.00    -0.070 NA 
HETATM   18  H2  UNL     1      -6.630  11.190  63.255  1.00  0.00     0.000 HD 
HETATM   19  H1  UNL     1      -6.985   9.869  62.076  1.00  0.00     0.000 HD 
HETATM   20  N   UNL     1      -6.290   7.990  63.318  1.00  0.00    -0.071 NA 
HETATM   21  N   UNL     1      -6.650  10.208  62.979  1.00  0.00    -0.132 NA 
HETATM   22  C   UNL     1      -6.236   9.189  63.758  1.00  0.00    -0.088 C  
HETATM   23  H   UNL     1      -5.742  10.649  65.080  1.00  0.00     0.000 HD 
HETATM   24  H1  UNL     1      -6.624   7.651  62.416  1.00  0.00     0.000 HD 
HETATM   25  H2  UNL     1      -5.951   7.272  63.958  1.00  0.00     0.000 HD 
ENDBRANCH  16  17
ENDBRANCH  15  16
ENDBRANCH  14  15
ENDBRANCH  13  14
BRANCH  13  26
HETATM   26  N   UNL     1      -8.421   9.606  67.480  1.00  0.00    -0.125 N  
HETATM   27  H   UNL     1      -8.077  10.566  67.481  1.00  0.00     0.000 HD 
BRANCH  26  28
HETATM   28  S   UNL     1      -9.542   9.087  66.301  1.00  0.00    -0.276 S  
HETATM   29  O   UNL     1     -10.658   8.481  66.980  1.00  0.00    -0.306 OA 
HETATM   30  O   UNL     1      -8.762   8.322  65.350  1.00  0.00    -0.164 OA 
BRANCH  28  31
HETATM   31  C   UNL     1     -10.037  10.613  65.544  1.00  0.00    -0.280 A  
HETATM   32  C   UNL     1     -11.208  14.158  66.360  1.00  0.00    -0.328 C  
HETATM   33  C   UNL     1     -10.115  10.633  64.142  1.00  0.00    -0.402 A  
HETATM   34  C   UNL     1     -11.774  15.155  68.603  1.00  0.00    -0.364 C  
HETATM   35  C   UNL     1     -10.508  11.791  63.479  1.00  0.00    -0.500 A  
HETATM   36  C   UNL     1     -11.561  13.863  67.821  1.00  0.00    -0.381 C  
HETATM   37  C   UNL     1     -10.442  13.018  68.415  1.00  0.00    -0.252 C  
HETATM   38  H   UNL     1     -10.244  10.865  68.229  1.00  0.00     0.000 HD 
HETATM   39  N   UNL     1     -10.332  11.742  67.714  1.00  0.00    -0.190 NA 
HETATM   40  C   UNL     1     -10.822  12.930  64.212  1.00  0.00    -0.423 A  
HETATM   41  C   UNL     1     -10.350  11.755  66.310  1.00  0.00    -0.224 A  
HETATM   42  C   UNL     1     -10.758  12.919  65.617  1.00  0.00    -0.295 A  
ENDBRANCH  28  31
ENDBRANCH  26  28
ENDBRANCH  13  26
ENDBRANCH   7  13
TORSDOF 8
ENDMDL
MODEL      134
REMARK 921   NORMALIZED FREE ENERGY PREDICTED BY IDOCK:   -5.99 KCAL/MOL
REMARK 922        TOTAL FREE ENERGY PREDICTED BY IDOCK:  -10.03 KCAL/MOL
REMARK 923 INTER-LIGAND FREE ENERGY PREDICTED BY IDOCK:   -9.26 KCAL/MOL
REMARK 924 INTRA-LIGAND FREE ENERGY PREDICTED BY IDOCK:   -0.78 KCAL/MOL
REMARK 927      BINDING AFFINITY PREDICTED BY RF-SCORE:    0.00 PKD
ROOT
HETATM    1  C   UNL     1     -10.239   4.753  71.936  1.00  0.00    -0.261 C  
HETATM    2  C   UNL     1      -9.752   5.605  70.773  1.00  0.00    -0.228 C  
HETATM    3  C   UNL     1      -8.595   6.522  71.182  1.00  0.00    -0.130 C  
HETATM    4  C   UNL     1      -8.147   7.403  70.016  1.00  0.00    -0.129 C  
HETATM    5  N   UNL     1      -9.272   8.116  69.350  1.00  0.00    -0.155 N  
HETATM    6  C   UNL     1     -10.425   7.261  68.988  1.00  0.00    -0.211 C  
HETATM    7  C   UNL     1      -9.327   9.507  69.504  1.00  0.00    -0.190 C  
HETATM    8  O   UNL     1      -8.464  10.055  70.203  1.00  0.00    -0.169 OA 
HETATM    9  O   UNL     1      -9.032   6.368  67.232  1.00  0.00    -0.108 OA 
HETATM   10  C   UNL     1     -10.895   6.464  70.209  1.00  0.00    -0.350 C  
HETATM   11  C   UNL     1     -10.232   6.299  67.811  1.00  0.00    -0.170 C  
HETATM   12  O   UNL     1     -11.090   5.522  67.423  1.00  0.00    -0.010 OA 
ENDROOT
BRANCH   7  13
HETATM   13  C   UNL     1     -10.339  10.447  68.755  1.00  0.00    -0.196 C  
BRANCH  13  14
HETATM   14  C   UNL     1     -11.785  10.597  69.296  1.00  0.00    -0.336 C  
BRANCH  14  15
HETATM   15  C   UNL     1     -11.921  11.731  70.333  1.00  0.00    -0.422 C  
BRANCH  15  16
HETATM   16  C   UNL     1     -12.258  13.099  69.721  1.00  0.00    -0.202 C  
BRANCH  16  17
HETATM   17  N   UNL     1     -11.851  14.133  70.655  1.00  0.00    -0.444 NA 
HETATM   18  H2  UNL     1     -11.055  15.670  72.385  1.00  0.00     0.000 HD 
HETATM   19  H1  UNL     1     -12.586  16.627  72.381  1.00  0.00     0.000 HD 
HETATM   20  N   UNL     1     -13.809  15.471  70.731  1.00  0.00    -0.865 NA 
HETATM   21  N   UNL     1     -11.998  15.863  72.046  1.00  0.00    -0.466 NA 
HETATM   22  C   UNL     1     -12.629  15.144  71.098  1.00  0.00    -0.367 C  
HETATM   23  H   UNL     1     -10.894  14.092  71.006  1.00  0.00     0.000 HD 
HETATM   24  H1  UNL     1     -14.397  16.235  71.066  1.00  0.00     0.000 HD 
HETATM   25  H2  UNL     1     -14.220  14.889  70.002  1.00  0.00     0.000 HD 
ENDBRANCH  16  17
ENDBRANCH  15  16
ENDBRANCH  14  15
ENDBRANCH  13  14
BRANCH  13  26
HETATM   26  N   UNL     1     -10.416  10.179  67.292  1.00  0.00    -0.240 N  
HETATM   27  H   UNL     1     -10.349   9.226  66.934  1.00  0.00     0.000 HD 
BRANCH  26  28
HETATM   28  S   UNL     1     -10.617  11.497  66.226  1.00  0.00    -0.271 S  
HETATM   29  O   UNL     1     -11.940  12.031  66.418  1.00  0.00    -0.611 OA 
HETATM   30  O   UNL     1     -10.212  10.998  64.928  1.00  0.00    -0.271 OA 
BRANCH  28  31
HETATM   31  C   UNL     1      -9.398  12.648  66.805  1.00  0.00    -0.232 A  
HETATM   32  C   UNL     1      -8.856  16.353  67.576  1.00  0.00    -0.187 C  
HETATM   33  C   UNL     1      -8.112  12.144  67.055  1.00  0.00    -0.154 A  
HETATM   34  C   UNL     1     -10.410  18.293  67.164  1.00  0.00    -0.402 C  
HETATM   35  C   UNL     1      -7.101  12.990  67.499  1.00  0.00    -0.158 A  
HETATM   36  C   UNL     1     -10.092  16.842  66.814  1.00  0.00    -0.294 C  
HETATM   37  C   UNL     1     -11.250  15.911  67.145  1.00  0.00    -0.060 C  
HETATM   38  H   UNL     1     -11.656  14.005  66.191  1.00  0.00     0.000 HD 
HETATM   39  N   UNL     1     -10.961  14.550  66.701  1.00  0.00    -0.315 NA 
HETATM   40  C   UNL     1      -7.372  14.339  67.696  1.00  0.00    -0.192 A  
HETATM   41  C   UNL     1      -9.698  14.013  66.997  1.00  0.00    -0.256 A  
HETATM   42  C   UNL     1      -8.653  14.859  67.439  1.00  0.00    -0.208 A  
ENDBRANCH  28  31
ENDBRANCH  26  28
ENDBRANCH  13  26
ENDBRANCH   7  13
TORSDOF 8
ENDMDL
MODEL      135
REMARK 921   NORMALIZED FREE ENERGY PREDICTED BY IDOCK:   -5.98 KCAL/MOL
REMARK 922        TOTAL FREE ENERGY PREDICTED BY IDOCK:  -10.03 KCAL/MOL
REMARK 923 INTER-LIGAND FREE ENERGY PREDICTED BY IDOCK:   -9.29 KCAL/MOL
REMARK 924 INTRA-LIGAND FREE ENERGY PREDICTED BY IDOCK:   -0.74 KCAL/MOL
REMARK 927      BINDING AFFINITY PREDICTED BY RF-SCORE:    0.00 PKD
ROOT
HETATM    1  C   UNL     1     -10.630   6.805  67.001  1.00  0.00    -0.405 C  
HETATM    2  C   UNL     1      -9.754   8.018  66.721  1.00  0.00    -0.305 C  
HETATM    3  C   UNL     1      -8.653   8.181  67.775  1.00  0.00    -0.131 C  
HETATM    4  C   UNL     1      -7.809   9.427  67.506  1.00  0.00    -0.099 C  
HETATM    5  N   UNL     1      -8.624  10.655  67.292  1.00  0.00    -0.126 N  
HETATM    6  C   UNL     1      -9.725  10.510  66.315  1.00  0.00    -0.205 C  
HETATM    7  C   UNL     1      -8.559  11.645  68.281  1.00  0.00    -0.162 C  
HETATM    8  O   UNL     1      -7.860  11.431  69.281  1.00  0.00    -0.039 OA 
HETATM    9  O   UNL     1      -8.022  10.500  64.606  1.00  0.00    -0.134 OA 
HETATM   10  C   UNL     1     -10.596   9.301  66.675  1.00  0.00    -0.161 C  
HETATM   11  C   UNL     1      -9.333  10.416  64.837  1.00  0.00    -0.243 C  
HETATM   12  O   UNL     1     -10.137  10.271  63.929  1.00  0.00    -0.228 OA 
ENDROOT
BRANCH   7  13
HETATM   13  C   UNL     1      -9.217  13.066  68.164  1.00  0.00    -0.212 C  
BRANCH  13  14
HETATM   14  C   UNL     1      -9.464  13.680  66.760  1.00  0.00    -0.275 C  
BRANCH  14  15
HETATM   15  C   UNL     1     -10.955  13.959  66.482  1.00  0.00    -0.300 C  
BRANCH  15  16
HETATM   16  C   UNL     1     -11.901  13.444  67.578  1.00  0.00    -0.366 C  
BRANCH  16  17
HETATM   17  N   UNL     1     -12.276  14.562  68.424  1.00  0.00    -0.608 NA 
HETATM   18  H2  UNL     1     -12.775  16.612  69.665  1.00  0.00     0.000 HD 
HETATM   19  H1  UNL     1     -12.385  15.861  71.259  1.00  0.00     0.000 HD 
HETATM   20  N   UNL     1     -11.802  13.682  70.575  1.00  0.00    -0.514 NA 
HETATM   21  N   UNL     1     -12.477  15.826  70.244  1.00  0.00    -0.348 NA 
HETATM   22  C   UNL     1     -12.154  14.608  69.767  1.00  0.00    -0.324 C  
HETATM   23  H   UNL     1     -12.665  15.385  67.962  1.00  0.00     0.000 HD 
HETATM   24  H1  UNL     1     -11.710  13.716  71.591  1.00  0.00     0.000 HD 
HETATM   25  H2  UNL     1     -11.583  12.784  70.145  1.00  0.00     0.000 HD 
ENDBRANCH  16  17
ENDBRANCH  15  16
ENDBRANCH  14  15
ENDBRANCH  13  14
BRANCH  13  26
HETATM   26  N   UNL     1      -8.549  14.093  69.010  1.00  0.00    -0.364 N  
HETATM   27  H   UNL     1      -9.050  14.540  69.778  1.00  0.00     0.000 HD 
BRANCH  26  28
HETATM   28  S   UNL     1      -6.928  14.509  68.669  1.00  0.00    -0.111 S  
HETATM   29  O   UNL     1      -6.668  14.202  67.287  1.00  0.00    -0.250 OA 
HETATM   30  O   UNL     1      -6.150  13.882  69.717  1.00  0.00    -0.115 OA 
BRANCH  28  31
HETATM   31  C   UNL     1      -6.922  16.265  68.922  1.00  0.00    -0.170 A  
HETATM   32  C   UNL     1      -8.802  19.463  68.002  1.00  0.00    -0.369 C  
HETATM   33  C   UNL     1      -5.862  16.798  69.672  1.00  0.00    -0.207 A  
HETATM   34  C   UNL     1     -10.715  19.760  66.388  1.00  0.00    -0.499 C  
HETATM   35  C   UNL     1      -5.784  18.168  69.900  1.00  0.00    -0.249 A  
HETATM   36  C   UNL     1      -9.576  18.846  66.832  1.00  0.00    -0.348 C  
HETATM   37  C   UNL     1     -10.084  17.479  67.271  1.00  0.00    -0.327 C  
HETATM   38  H   UNL     1      -8.943  15.634  67.238  1.00  0.00     0.000 HD 
HETATM   39  N   UNL     1      -8.967  16.592  67.587  1.00  0.00    -0.204 NA 
HETATM   40  C   UNL     1      -6.764  19.007  69.383  1.00  0.00    -0.300 A  
HETATM   41  C   UNL     1      -7.929  17.096  68.386  1.00  0.00    -0.250 A  
HETATM   42  C   UNL     1      -7.825  18.487  68.620  1.00  0.00    -0.338 A  
ENDBRANCH  28  31
ENDBRANCH  26  28
ENDBRANCH  13  26
ENDBRANCH   7  13
TORSDOF 8
ENDMDL
MODEL      136
REMARK 921   NORMALIZED FREE ENERGY PREDICTED BY IDOCK:   -5.98 KCAL/MOL
REMARK 922        TOTAL FREE ENERGY PREDICTED BY IDOCK:  -10.02 KCAL/MOL
REMARK 923 INTER-LIGAND FREE ENERGY PREDICTED BY IDOCK:   -8.23 KCAL/MOL
REMARK 924 INTRA-LIGAND FREE ENERGY PREDICTED BY IDOCK:   -1.78 KCAL/MOL
REMARK 927      BINDING AFFINITY PREDICTED BY RF-SCORE:    0.00 PKD
ROOT
HETATM    1  C   UNL     1      -7.983   5.888  71.175  1.00  0.00    -0.113 C  
HETATM    2  C   UNL     1      -8.137   5.996  69.665  1.00  0.00    -0.107 C  
HETATM    3  C   UNL     1      -6.780   6.105  68.960  1.00  0.00    -0.060 C  
HETATM    4  C   UNL     1      -6.953   6.258  67.448  1.00  0.00    -0.068 C  
HETATM    5  N   UNL     1      -7.915   7.330  67.070  1.00  0.00    -0.108 N  
HETATM    6  C   UNL     1      -9.216   7.277  67.774  1.00  0.00    -0.126 C  
HETATM    7  C   UNL     1      -7.389   8.471  66.450  1.00  0.00    -0.080 C  
HETATM    8  O   UNL     1      -6.164   8.535  66.281  1.00  0.00    -0.051 OA 
HETATM    9  O   UNL     1      -9.727   5.366  66.391  1.00  0.00    -0.150 OA 
HETATM   10  C   UNL     1      -8.995   7.214  69.289  1.00  0.00    -0.138 C  
HETATM   11  C   UNL     1     -10.179   6.158  67.366  1.00  0.00    -0.184 C  
HETATM   12  O   UNL     1     -11.273   5.982  67.880  1.00  0.00    -0.245 OA 
ENDROOT
BRANCH   7  13
HETATM   13  C   UNL     1      -8.254   9.632  65.840  1.00  0.00    -0.119 C  
BRANCH  13  14
HETATM   14  C   UNL     1      -7.957  10.130  64.401  1.00  0.00    -0.153 C  
BRANCH  14  15
HETATM   15  C   UNL     1      -9.221  10.204  63.521  1.00  0.00    -0.322 C  
BRANCH  15  16
HETATM   16  C   UNL     1      -9.809  11.617  63.391  1.00  0.00    -0.404 C  
BRANCH  16  17
HETATM   17  N   UNL     1     -11.224  11.500  63.087  1.00  0.00    -0.833 NA 
HETATM   18  H2  UNL     1     -13.546  11.404  62.321  1.00  0.00     0.000 HD 
HETATM   19  H1  UNL     1     -14.190  12.070  63.871  1.00  0.00     0.000 HD 
HETATM   20  N   UNL     1     -12.187  12.356  65.080  1.00  0.00    -0.469 NA 
HETATM   21  N   UNL     1     -13.426  11.765  63.268  1.00  0.00    -0.213 NA 
HETATM   22  C   UNL     1     -12.236  11.903  63.885  1.00  0.00    -0.392 C  
HETATM   23  H   UNL     1     -11.475  11.077  62.193  1.00  0.00     0.000 HD 
HETATM   24  H1  UNL     1     -12.952  12.660  65.683  1.00  0.00     0.000 HD 
HETATM   25  H2  UNL     1     -11.254  12.422  65.486  1.00  0.00     0.000 HD 
ENDBRANCH  16  17
ENDBRANCH  15  16
ENDBRANCH  14  15
ENDBRANCH  13  14
BRANCH  13  26
HETATM   26  N   UNL     1      -8.353  10.820  66.733  1.00  0.00    -0.132 N  
HETATM   27  H   UNL     1      -7.616  11.525  66.743  1.00  0.00     0.000 HD 
BRANCH  26  28
HETATM   28  S   UNL     1      -9.723  10.979  67.739  1.00  0.00    -0.172 S  
HETATM   29  O   UNL     1      -9.384  10.470  69.042  1.00  0.00    -0.183 OA 
HETATM   30  O   UNL     1     -10.813  10.393  66.986  1.00  0.00    -0.259 OA 
BRANCH  28  31
HETATM   31  C   UNL     1      -9.948  12.737  67.803  1.00  0.00    -0.219 A  
HETATM   32  C   UNL     1     -11.883  15.477  69.638  1.00  0.00    -0.384 C  
HETATM   33  C   UNL     1      -9.259  13.504  66.851  1.00  0.00    -0.254 A  
HETATM   34  C   UNL     1     -13.711  15.237  71.355  1.00  0.00    -0.602 C  
HETATM   35  C   UNL     1      -9.397  14.888  66.832  1.00  0.00    -0.258 A  
HETATM   36  C   UNL     1     -12.920  14.534  70.255  1.00  0.00    -0.148 C  
HETATM   37  C   UNL     1     -12.190  13.305  70.778  1.00  0.00    -0.308 C  
HETATM   38  H   UNL     1     -11.608  11.579  69.598  1.00  0.00     0.000 HD 
HETATM   39  N   UNL     1     -11.532  12.593  69.686  1.00  0.00    -0.224 NA 
HETATM   40  C   UNL     1     -10.221  15.509  67.764  1.00  0.00    -0.243 A  
HETATM   41  C   UNL     1     -10.790  13.343  68.759  1.00  0.00    -0.246 A  
HETATM   42  C   UNL     1     -10.926  14.751  68.717  1.00  0.00    -0.267 A  
ENDBRANCH  28  31
ENDBRANCH  26  28
ENDBRANCH  13  26
ENDBRANCH   7  13
TORSDOF 8
ENDMDL
MODEL      137
REMARK 921   NORMALIZED FREE ENERGY PREDICTED BY IDOCK:   -5.97 KCAL/MOL
REMARK 922        TOTAL FREE ENERGY PREDICTED BY IDOCK:  -10.01 KCAL/MOL
REMARK 923 INTER-LIGAND FREE ENERGY PREDICTED BY IDOCK:   -9.43 KCAL/MOL
REMARK 924 INTRA-LIGAND FREE ENERGY PREDICTED BY IDOCK:   -0.57 KCAL/MOL
REMARK 927      BINDING AFFINITY PREDICTED BY RF-SCORE:    0.00 PKD
ROOT
HETATM    1  C   UNL     1      -6.686  19.961  65.811  1.00  0.00    -0.283 C  
HETATM    2  C   UNL     1      -7.392  19.112  66.859  1.00  0.00    -0.220 C  
HETATM    3  C   UNL     1      -6.403  18.498  67.855  1.00  0.00    -0.196 C  
HETATM    4  C   UNL     1      -7.120  17.612  68.873  1.00  0.00    -0.254 C  
HETATM    5  N   UNL     1      -8.039  16.620  68.248  1.00  0.00    -0.190 N  
HETATM    6  C   UNL     1      -8.971  17.179  67.245  1.00  0.00    -0.221 C  
HETATM    7  C   UNL     1      -7.674  15.270  68.334  1.00  0.00    -0.124 C  
HETATM    8  O   UNL     1      -6.606  14.984  68.892  1.00  0.00    -0.091 OA 
HETATM    9  O   UNL     1     -10.164  18.154  69.103  1.00  0.00    -0.344 OA 
HETATM   10  C   UNL     1      -8.198  17.985  66.195  1.00  0.00    -0.180 C  
HETATM   11  C   UNL     1     -10.127  18.034  67.774  1.00  0.00    -0.353 C  
HETATM   12  O   UNL     1     -10.954  18.576  67.058  1.00  0.00    -0.293 OA 
ENDROOT
BRANCH   7  13
HETATM   13  C   UNL     1      -8.581  14.072  67.877  1.00  0.00    -0.181 C  
BRANCH  13  14
HETATM   14  C   UNL     1      -8.117  12.616  68.149  1.00  0.00    -0.164 C  
BRANCH  14  15
HETATM   15  C   UNL     1      -7.089  12.114  67.115  1.00  0.00    -0.120 C  
BRANCH  15  16
HETATM   16  C   UNL     1      -7.507  10.822  66.395  1.00  0.00    -0.142 C  
BRANCH  16  17
HETATM   17  N   UNL     1      -8.102   9.926  67.369  1.00  0.00    -0.113 NA 
HETATM   18  H2  UNL     1      -8.858   8.421  69.145  1.00  0.00     0.000 HD 
HETATM   19  H1  UNL     1      -9.682   7.307  67.987  1.00  0.00     0.000 HD 
HETATM   20  N   UNL     1      -9.228   8.397  65.947  1.00  0.00    -0.330 NA 
HETATM   21  N   UNL     1      -9.135   8.141  68.203  1.00  0.00    -0.135 NA 
HETATM   22  C   UNL     1      -8.826   8.823  67.083  1.00  0.00    -0.127 C  
HETATM   23  H   UNL     1      -7.961  10.149  68.355  1.00  0.00     0.000 HD 
HETATM   24  H1  UNL     1      -9.776   7.563  65.731  1.00  0.00     0.000 HD 
HETATM   25  H2  UNL     1      -8.966   8.969  65.145  1.00  0.00     0.000 HD 
ENDBRANCH  16  17
ENDBRANCH  15  16
ENDBRANCH  14  15
ENDBRANCH  13  14
BRANCH  13  26
HETATM   26  N   UNL     1      -9.005  14.167  66.453  1.00  0.00    -0.482 N  
HETATM   27  H   UNL     1      -8.337  14.431  65.729  1.00  0.00     0.000 HD 
BRANCH  26  28
HETATM   28  S   UNL     1     -10.630  13.824  66.055  1.00  0.00    -0.296 S  
HETATM   29  O   UNL     1     -10.636  12.953  64.909  1.00  0.00    -0.297 OA 
HETATM   30  O   UNL     1     -11.284  15.115  65.997  1.00  0.00    -0.338 OA 
BRANCH  28  31
HETATM   31  C   UNL     1     -11.201  12.955  67.492  1.00  0.00    -0.290 A  
HETATM   32  C   UNL     1     -12.433  13.498  71.069  1.00  0.00    -0.451 C  
HETATM   33  C   UNL     1     -11.193  11.552  67.434  1.00  0.00    -0.367 A  
HETATM   34  C   UNL     1     -12.533  15.639  72.396  1.00  0.00    -0.513 C  
HETATM   35  C   UNL     1     -11.615  10.803  68.528  1.00  0.00    -0.325 A  
HETATM   36  C   UNL     1     -11.930  14.941  71.179  1.00  0.00    -0.389 C  
HETATM   37  C   UNL     1     -12.274  15.661  69.883  1.00  0.00    -0.294 C  
HETATM   38  H   UNL     1     -11.112  15.600  68.051  1.00  0.00     0.000 HD 
HETATM   39  N   UNL     1     -11.597  15.036  68.750  1.00  0.00    -0.319 NA 
HETATM   40  C   UNL     1     -12.047  11.451  69.679  1.00  0.00    -0.373 A  
HETATM   41  C   UNL     1     -11.633  13.636  68.649  1.00  0.00    -0.329 A  
HETATM   42  C   UNL     1     -12.048  12.856  69.754  1.00  0.00    -0.312 A  
ENDBRANCH  28  31
ENDBRANCH  26  28
ENDBRANCH  13  26
ENDBRANCH   7  13
TORSDOF 8
ENDMDL
MODEL      138
REMARK 921   NORMALIZED FREE ENERGY PREDICTED BY IDOCK:   -5.96 KCAL/MOL
REMARK 922        TOTAL FREE ENERGY PREDICTED BY IDOCK:  -10.00 KCAL/MOL
REMARK 923 INTER-LIGAND FREE ENERGY PREDICTED BY IDOCK:   -8.25 KCAL/MOL
REMARK 924 INTRA-LIGAND FREE ENERGY PREDICTED BY IDOCK:   -1.75 KCAL/MOL
REMARK 927      BINDING AFFINITY PREDICTED BY RF-SCORE:    0.00 PKD
ROOT
HETATM    1  C   UNL     1      -6.095  19.988  69.427  1.00  0.00    -0.351 C  
HETATM    2  C   UNL     1      -7.316  19.387  68.748  1.00  0.00    -0.390 C  
HETATM    3  C   UNL     1      -8.527  19.343  69.686  1.00  0.00     0.423 C  
HETATM    4  C   UNL     1      -9.733  18.696  69.005  1.00  0.00    -0.259 C  
HETATM    5  N   UNL     1      -9.418  17.387  68.368  1.00  0.00    -0.283 N  
HETATM    6  C   UNL     1      -8.223  17.389  67.496  1.00  0.00    -0.201 C  
HETATM    7  C   UNL     1      -9.979  16.242  68.950  1.00  0.00    -0.248 C  
HETATM    8  O   UNL     1     -10.673  16.381  69.966  1.00  0.00    -0.319 OA 
HETATM    9  O   UNL     1      -9.556  18.629  65.911  1.00  0.00    -0.479 OA 
HETATM   10  C   UNL     1      -7.019  17.965  68.249  1.00  0.00    -0.222 C  
HETATM   11  C   UNL     1      -8.351  18.104  66.147  1.00  0.00    -0.122 C  
HETATM   12  O   UNL     1      -7.439  18.204  65.341  1.00  0.00    -0.499 OA 
ENDROOT
BRANCH   7  13
HETATM   13  C   UNL     1      -9.893  14.799  68.337  1.00  0.00    -0.220 C  
BRANCH  13  14
HETATM   14  C   UNL     1     -11.189  14.094  67.857  1.00  0.00    -0.299 C  
BRANCH  14  15
HETATM   15  C   UNL     1     -11.609  14.519  66.435  1.00  0.00    -0.370 C  
BRANCH  15  16
HETATM   16  C   UNL     1     -12.264  13.397  65.616  1.00  0.00    -0.463 C  
BRANCH  16  17
HETATM   17  N   UNL     1     -11.237  12.753  64.818  1.00  0.00    -0.294 NA 
HETATM   18  H2  UNL     1      -9.339  11.881  63.542  1.00  0.00     0.000 HD 
HETATM   19  H1  UNL     1     -10.366  11.438  62.124  1.00  0.00     0.000 HD 
HETATM   20  N   UNL     1     -12.485  12.118  62.902  1.00  0.00    -0.534 NA 
HETATM   21  N   UNL     1     -10.237  11.823  63.061  1.00  0.00    -0.315 NA 
HETATM   22  C   UNL     1     -11.408  12.244  63.579  1.00  0.00    -0.470 C  
HETATM   23  H   UNL     1     -10.306  12.678  65.228  1.00  0.00     0.000 HD 
HETATM   24  H1  UNL     1     -12.614  11.733  61.965  1.00  0.00     0.000 HD 
HETATM   25  H2  UNL     1     -13.333  12.448  63.361  1.00  0.00     0.000 HD 
ENDBRANCH  16  17
ENDBRANCH  15  16
ENDBRANCH  14  15
ENDBRANCH  13  14
BRANCH  13  26
HETATM   26  N   UNL     1      -9.134  13.844  69.192  1.00  0.00    -0.347 N  
HETATM   27  H   UNL     1      -9.459  13.615  70.131  1.00  0.00     0.000 HD 
BRANCH  26  28
HETATM   28  S   UNL     1      -7.709  13.139  68.570  1.00  0.00    -0.084 S  
HETATM   29  O   UNL     1      -6.908  12.694  69.680  1.00  0.00     0.011 OA 
HETATM   30  O   UNL     1      -7.185  14.113  67.634  1.00  0.00    -0.155 OA 
BRANCH  28  31
HETATM   31  C   UNL     1      -8.334  11.748  67.663  1.00  0.00    -0.145 A  
HETATM   32  C   UNL     1     -10.313   8.505  68.078  1.00  0.00    -0.272 C  
HETATM   33  C   UNL     1      -8.002  11.674  66.301  1.00  0.00     0.082 A  
HETATM   34  C   UNL     1     -11.140   7.421  70.197  1.00  0.00    -0.265 C  
HETATM   35  C   UNL     1      -8.445  10.605  65.529  1.00  0.00    -0.177 A  
HETATM   36  C   UNL     1     -10.176   8.445  69.602  1.00  0.00    -0.209 C  
HETATM   37  C   UNL     1     -10.420   9.843  70.154  1.00  0.00    -0.285 C  
HETATM   38  H   UNL     1      -8.947  11.431  70.278  1.00  0.00     0.000 HD 
HETATM   39  N   UNL     1      -9.418  10.778  69.651  1.00  0.00     0.077 NA 
HETATM   40  C   UNL     1      -9.222   9.611  66.114  1.00  0.00    -0.222 A  
HETATM   41  C   UNL     1      -9.119  10.753  68.279  1.00  0.00    -0.157 A  
HETATM   42  C   UNL     1      -9.552   9.668  67.480  1.00  0.00    -0.180 A  
ENDBRANCH  28  31
ENDBRANCH  26  28
ENDBRANCH  13  26
ENDBRANCH   7  13
TORSDOF 8
ENDMDL
MODEL      139
REMARK 921   NORMALIZED FREE ENERGY PREDICTED BY IDOCK:   -5.93 KCAL/MOL
REMARK 922        TOTAL FREE ENERGY PREDICTED BY IDOCK:   -9.96 KCAL/MOL
REMARK 923 INTER-LIGAND FREE ENERGY PREDICTED BY IDOCK:  -10.02 KCAL/MOL
REMARK 924 INTRA-LIGAND FREE ENERGY PREDICTED BY IDOCK:    0.06 KCAL/MOL
REMARK 927      BINDING AFFINITY PREDICTED BY RF-SCORE:    0.00 PKD
ROOT
HETATM    1  C   UNL     1     -10.492  19.019  67.523  1.00  0.00    -0.537 C  
HETATM    2  C   UNL     1     -10.220  17.807  68.402  1.00  0.00    -0.384 C  
HETATM    3  C   UNL     1      -8.726  17.470  68.462  1.00  0.00    -0.282 C  
HETATM    4  C   UNL     1      -8.473  16.225  69.312  1.00  0.00    -0.148 C  
HETATM    5  N   UNL     1      -9.335  15.070  68.937  1.00  0.00    -0.202 N  
HETATM    6  C   UNL     1     -10.778  15.380  68.823  1.00  0.00    -0.241 C  
HETATM    7  C   UNL     1      -8.706  13.970  68.339  1.00  0.00    -0.179 C  
HETATM    8  O   UNL     1      -7.486  14.033  68.132  1.00  0.00    -0.106 OA 
HETATM    9  O   UNL     1     -10.797  15.507  71.233  1.00  0.00    -0.280 OA 
HETATM   10  C   UNL     1     -10.989  16.579  67.892  1.00  0.00    -0.288 C  
HETATM   11  C   UNL     1     -11.539  15.626  70.129  1.00  0.00    -0.354 C  
HETATM   12  O   UNL     1     -12.724  15.914  70.181  1.00  0.00    -0.301 OA 
ENDROOT
BRANCH   7  13
HETATM   13  C   UNL     1      -9.413  12.605  68.018  1.00  0.00    -0.209 C  
BRANCH  13  14
HETATM   14  C   UNL     1      -9.916  12.327  66.576  1.00  0.00    -0.234 C  
BRANCH  14  15
HETATM   15  C   UNL     1     -10.617  13.546  65.942  1.00  0.00    -0.284 C  
BRANCH  15  16
HETATM   16  C   UNL     1     -12.148  13.520  66.067  1.00  0.00    -0.445 C  
BRANCH  16  17
HETATM   17  N   UNL     1     -12.674  12.595  65.080  1.00  0.00    -0.771 NA 
HETATM   18  H2  UNL     1     -13.427  10.833  63.557  1.00  0.00     0.000 HD 
HETATM   19  H1  UNL     1     -13.100  11.827  62.085  1.00  0.00     0.000 HD 
HETATM   20  N   UNL     1     -12.296  13.808  63.076  1.00  0.00    -1.030 NA 
HETATM   21  N   UNL     1     -13.112  11.687  63.096  1.00  0.00    -0.336 NA 
HETATM   22  C   UNL     1     -12.658  12.779  63.742  1.00  0.00    -0.293 C  
HETATM   23  H   UNL     1     -13.091  11.731  65.427  1.00  0.00     0.000 HD 
HETATM   24  H1  UNL     1     -12.284  13.947  62.065  1.00  0.00     0.000 HD 
HETATM   25  H2  UNL     1     -11.973  14.600  63.631  1.00  0.00     0.000 HD 
ENDBRANCH  16  17
ENDBRANCH  15  16
ENDBRANCH  14  15
ENDBRANCH  13  14
BRANCH  13  26
HETATM   26  N   UNL     1     -10.514  12.278  68.966  1.00  0.00    -0.419 N  
HETATM   27  H   UNL     1     -10.921  13.001  69.560  1.00  0.00     0.000 HD 
BRANCH  26  28
HETATM   28  S   UNL     1     -11.083  10.670  69.039  1.00  0.00    -0.274 S  
HETATM   29  O   UNL     1     -11.592  10.315  67.740  1.00  0.00    -0.331 OA 
HETATM   30  O   UNL     1     -11.948  10.628  70.200  1.00  0.00    -0.283 OA 
BRANCH  28  31
HETATM   31  C   UNL     1      -9.603   9.756  69.391  1.00  0.00    -0.207 A  
HETATM   32  C   UNL     1      -8.304   6.212  69.992  1.00  0.00    -0.125 C  
HETATM   33  C   UNL     1      -8.429  10.498  69.597  1.00  0.00     0.013 A  
HETATM   34  C   UNL     1      -9.610   4.068  70.207  1.00  0.00    -0.271 C  
HETATM   35  C   UNL     1      -7.233   9.850  69.890  1.00  0.00    -0.129 A  
HETATM   36  C   UNL     1      -9.682   5.592  70.243  1.00  0.00    -0.242 C  
HETATM   37  C   UNL     1     -10.644   6.141  69.198  1.00  0.00    -0.282 C  
HETATM   38  H   UNL     1     -11.691   8.038  69.311  1.00  0.00     0.000 HD 
HETATM   39  N   UNL     1     -10.775   7.589  69.328  1.00  0.00    -0.210 NA 
HETATM   40  C   UNL     1      -7.207   8.463  69.977  1.00  0.00    -0.054 A  
HETATM   41  C   UNL     1      -9.602   8.348  69.475  1.00  0.00    -0.170 A  
HETATM   42  C   UNL     1      -8.379   7.709  69.784  1.00  0.00    -0.133 A  
ENDBRANCH  28  31
ENDBRANCH  26  28
ENDBRANCH  13  26
ENDBRANCH   7  13
TORSDOF 8
ENDMDL
MODEL      140
REMARK 921   NORMALIZED FREE ENERGY PREDICTED BY IDOCK:   -5.93 KCAL/MOL
REMARK 922        TOTAL FREE ENERGY PREDICTED BY IDOCK:   -9.95 KCAL/MOL
REMARK 923 INTER-LIGAND FREE ENERGY PREDICTED BY IDOCK:   -8.05 KCAL/MOL
REMARK 924 INTRA-LIGAND FREE ENERGY PREDICTED BY IDOCK:   -1.90 KCAL/MOL
REMARK 927      BINDING AFFINITY PREDICTED BY RF-SCORE:    0.00 PKD
ROOT
HETATM    1  C   UNL     1     -10.373  17.467  68.915  1.00  0.00    -0.340 C  
HETATM    2  C   UNL     1     -11.062  16.207  68.409  1.00  0.00    -0.359 C  
HETATM    3  C   UNL     1     -11.799  15.470  69.532  1.00  0.00    -0.390 C  
HETATM    4  C   UNL     1     -12.447  14.185  69.018  1.00  0.00     0.079 C  
HETATM    5  N   UNL     1     -11.513  13.322  68.244  1.00  0.00    -0.294 N  
HETATM    6  C   UNL     1     -10.751  14.020  67.185  1.00  0.00    -0.283 C  
HETATM    7  C   UNL     1     -11.137  12.104  68.826  1.00  0.00    -0.250 C  
HETATM    8  O   UNL     1     -11.575  11.832  69.953  1.00  0.00    -0.299 OA 
HETATM    9  O   UNL     1     -12.818  14.094  65.942  1.00  0.00    -0.471 OA 
HETATM   10  C   UNL     1     -10.046  15.251  67.765  1.00  0.00    -0.230 C  
HETATM   11  C   UNL     1     -11.529  14.438  65.933  1.00  0.00    -0.341 C  
HETATM   12  O   UNL     1     -11.032  15.041  64.995  1.00  0.00    -0.373 OA 
ENDROOT
BRANCH   7  13
HETATM   13  C   UNL     1     -10.291  10.995  68.105  1.00  0.00    -0.182 C  
BRANCH  13  14
HETATM   14  C   UNL     1     -10.775  10.430  66.743  1.00  0.00    -0.235 C  
BRANCH  14  15
HETATM   15  C   UNL     1      -9.667  10.421  65.671  1.00  0.00    -0.294 C  
BRANCH  15  16
HETATM   16  C   UNL     1      -9.989  11.271  64.432  1.00  0.00    -0.288 C  
BRANCH  16  17
HETATM   17  N   UNL     1     -11.406  11.144  64.144  1.00  0.00    -0.274 NA 
HETATM   18  H2  UNL     1     -13.742  10.659  63.599  1.00  0.00     0.000 HD 
HETATM   19  H1  UNL     1     -13.942  12.182  62.651  1.00  0.00     0.000 HD 
HETATM   20  N   UNL     1     -11.791  13.117  62.884  1.00  0.00    -0.678 NA 
HETATM   21  N   UNL     1     -13.390  11.537  63.217  1.00  0.00    -0.081 NA 
HETATM   22  C   UNL     1     -12.136  11.997  63.395  1.00  0.00    -0.493 C  
HETATM   23  H   UNL     1     -11.892  10.339  64.542  1.00  0.00     0.000 HD 
HETATM   24  H1  UNL     1     -12.343  13.762  62.318  1.00  0.00     0.000 HD 
HETATM   25  H2  UNL     1     -10.831  13.406  63.068  1.00  0.00     0.000 HD 
ENDBRANCH  16  17
ENDBRANCH  15  16
ENDBRANCH  14  15
ENDBRANCH  13  14
BRANCH  13  26
HETATM   26  N   UNL     1      -9.952   9.847  68.991  1.00  0.00    -0.177 N  
HETATM   27  H   UNL     1     -10.657   9.149  69.230  1.00  0.00     0.000 HD 
BRANCH  26  28
HETATM   28  S   UNL     1      -8.362   9.720  69.598  1.00  0.00    -0.188 S  
HETATM   29  O   UNL     1      -8.440   9.306  70.975  1.00  0.00    -0.248 OA 
HETATM   30  O   UNL     1      -7.723  10.972  69.246  1.00  0.00    -0.129 OA 
BRANCH  28  31
HETATM   31  C   UNL     1      -7.673   8.423  68.603  1.00  0.00    -0.107 A  
HETATM   32  C   UNL     1      -7.944   4.675  67.903  1.00  0.00    -0.089 C  
HETATM   33  C   UNL     1      -6.598   8.763  67.767  1.00  0.00    -0.061 A  
HETATM   34  C   UNL     1      -9.335   2.945  69.094  1.00  0.00    -0.211 C  
HETATM   35  C   UNL     1      -5.999   7.795  66.967  1.00  0.00    -0.051 A  
HETATM   36  C   UNL     1      -8.739   4.347  69.171  1.00  0.00    -0.116 C  
HETATM   37  C   UNL     1      -9.813   5.412  69.343  1.00  0.00    -0.184 C  
HETATM   38  H   UNL     1      -9.532   7.361  70.256  1.00  0.00     0.000 HD 
HETATM   39  N   UNL     1      -9.209   6.730  69.522  1.00  0.00    -0.147 NA 
HETATM   40  C   UNL     1      -6.472   6.489  66.999  1.00  0.00    -0.043 A  
HETATM   41  C   UNL     1      -8.172   7.105  68.653  1.00  0.00    -0.125 A  
HETATM   42  C   UNL     1      -7.542   6.133  67.840  1.00  0.00    -0.101 A  
ENDBRANCH  28  31
ENDBRANCH  26  28
ENDBRANCH  13  26
ENDBRANCH   7  13
TORSDOF 8
ENDMDL
MODEL      141
REMARK 921   NORMALIZED FREE ENERGY PREDICTED BY IDOCK:   -5.92 KCAL/MOL
REMARK 922        TOTAL FREE ENERGY PREDICTED BY IDOCK:   -9.94 KCAL/MOL
REMARK 923 INTER-LIGAND FREE ENERGY PREDICTED BY IDOCK:   -8.63 KCAL/MOL
REMARK 924 INTRA-LIGAND FREE ENERGY PREDICTED BY IDOCK:   -1.31 KCAL/MOL
REMARK 927      BINDING AFFINITY PREDICTED BY RF-SCORE:    0.00 PKD
ROOT
HETATM    1  C   UNL     1      -8.215   3.838  73.167  1.00  0.00    -0.087 C  
HETATM    2  C   UNL     1      -9.098   4.994  72.716  1.00  0.00    -0.137 C  
HETATM    3  C   UNL     1     -10.270   4.512  71.854  1.00  0.00    -0.241 C  
HETATM    4  C   UNL     1     -11.121   5.687  71.371  1.00  0.00    -0.151 C  
HETATM    5  N   UNL     1     -10.322   6.776  70.745  1.00  0.00    -0.202 N  
HETATM    6  C   UNL     1      -9.154   7.225  71.534  1.00  0.00    -0.140 C  
HETATM    7  C   UNL     1     -10.474   6.969  69.366  1.00  0.00    -0.214 C  
HETATM    8  O   UNL     1     -11.235   6.210  68.748  1.00  0.00    -0.367 OA 
HETATM    9  O   UNL     1     -10.738   8.289  73.012  1.00  0.00    -0.262 OA 
HETATM   10  C   UNL     1      -8.283   6.025  71.920  1.00  0.00    -0.115 C  
HETATM   11  C   UNL     1      -9.443   8.052  72.791  1.00  0.00    -0.269 C  
HETATM   12  O   UNL     1      -8.577   8.466  73.546  1.00  0.00    -0.304 OA 
ENDROOT
BRANCH   7  13
HETATM   13  C   UNL     1      -9.842   8.157  68.556  1.00  0.00    -0.179 C  
BRANCH  13  14
HETATM   14  C   UNL     1      -8.320   8.149  68.253  1.00  0.00    -0.126 C  
BRANCH  14  15
HETATM   15  C   UNL     1      -8.009   7.918  66.760  1.00  0.00    -0.107 C  
BRANCH  15  16
HETATM   16  C   UNL     1      -9.128   7.196  65.993  1.00  0.00    -0.069 C  
BRANCH  16  17
HETATM   17  N   UNL     1      -8.800   5.784  65.926  1.00  0.00    -0.149 NA 
HETATM   18  H2  UNL     1      -8.050   3.473  65.625  1.00  0.00     0.000 HD 
HETATM   19  H1  UNL     1      -9.735   2.829  65.554  1.00  0.00     0.000 HD 
HETATM   20  N   UNL     1     -10.966   4.821  65.829  1.00  0.00    -0.852 NA 
HETATM   21  N   UNL     1      -9.063   3.592  65.647  1.00  0.00    -0.143 NA 
HETATM   22  C   UNL     1      -9.689   4.775  65.803  1.00  0.00    -0.188 C  
HETATM   23  H   UNL     1      -7.813   5.532  65.975  1.00  0.00     0.000 HD 
HETATM   24  H1  UNL     1     -11.638   4.058  65.736  1.00  0.00     0.000 HD 
HETATM   25  H2  UNL     1     -11.370   5.748  65.960  1.00  0.00     0.000 HD 
ENDBRANCH  16  17
ENDBRANCH  15  16
ENDBRANCH  14  15
ENDBRANCH  13  14
BRANCH  13  26
HETATM   26  N   UNL     1     -10.200   9.495  69.103  1.00  0.00    -0.193 N  
HETATM   27  H   UNL     1     -10.259   9.646  70.110  1.00  0.00     0.000 HD 
BRANCH  26  28
HETATM   28  S   UNL     1     -10.510  10.770  68.011  1.00  0.00    -0.209 S  
HETATM   29  O   UNL     1     -11.446  10.298  67.024  1.00  0.00    -0.113 OA 
HETATM   30  O   UNL     1      -9.204  11.250  67.610  1.00  0.00    -0.153 OA 
BRANCH  28  31
HETATM   31  C   UNL     1     -11.275  11.987  69.052  1.00  0.00    -0.258 A  
HETATM   32  C   UNL     1     -11.784  15.756  69.433  1.00  0.00    -0.379 C  
HETATM   33  C   UNL     1     -11.909  11.524  70.216  1.00  0.00    -0.431 A  
HETATM   34  C   UNL     1     -10.778  17.629  68.080  1.00  0.00    -0.333 C  
HETATM   35  C   UNL     1     -12.519  12.421  71.086  1.00  0.00    -0.323 A  
HETATM   36  C   UNL     1     -10.674  16.153  68.454  1.00  0.00    -0.298 C  
HETATM   37  C   UNL     1     -10.776  15.249  67.233  1.00  0.00    -0.311 C  
HETATM   38  H   UNL     1      -9.946  13.251  67.063  1.00  0.00     0.000 HD 
HETATM   39  N   UNL     1     -10.566  13.853  67.607  1.00  0.00    -0.244 NA 
HETATM   40  C   UNL     1     -12.499  13.781  70.796  1.00  0.00    -0.441 A  
HETATM   41  C   UNL     1     -11.241  13.362  68.736  1.00  0.00    -0.275 A  
HETATM   42  C   UNL     1     -11.857  14.259  69.639  1.00  0.00    -0.370 A  
ENDBRANCH  28  31
ENDBRANCH  26  28
ENDBRANCH  13  26
ENDBRANCH   7  13
TORSDOF 8
ENDMDL
MODEL      142
REMARK 921   NORMALIZED FREE ENERGY PREDICTED BY IDOCK:   -5.91 KCAL/MOL
REMARK 922        TOTAL FREE ENERGY PREDICTED BY IDOCK:   -9.92 KCAL/MOL
REMARK 923 INTER-LIGAND FREE ENERGY PREDICTED BY IDOCK:   -8.16 KCAL/MOL
REMARK 924 INTRA-LIGAND FREE ENERGY PREDICTED BY IDOCK:   -1.76 KCAL/MOL
REMARK 927      BINDING AFFINITY PREDICTED BY RF-SCORE:    0.00 PKD
ROOT
HETATM    1  C   UNL     1      -5.595   5.845  63.475  1.00  0.00    -0.017 C  
HETATM    2  C   UNL     1      -6.219   7.095  64.080  1.00  0.00    -0.044 C  
HETATM    3  C   UNL     1      -5.565   7.469  65.414  1.00  0.00    -0.033 C  
HETATM    4  C   UNL     1      -6.231   8.699  66.031  1.00  0.00    -0.052 C  
HETATM    5  N   UNL     1      -7.715   8.596  66.095  1.00  0.00    -0.096 N  
HETATM    6  C   UNL     1      -8.368   8.188  64.832  1.00  0.00    -0.123 C  
HETATM    7  C   UNL     1      -8.293   8.477  67.366  1.00  0.00    -0.120 C  
HETATM    8  O   UNL     1      -7.542   8.435  68.351  1.00  0.00    -0.093 OA 
HETATM    9  O   UNL     1      -7.861  10.402  64.018  1.00  0.00    -0.139 OA 
HETATM   10  C   UNL     1      -7.727   6.902  64.298  1.00  0.00    -0.113 C  
HETATM   11  C   UNL     1      -8.410   9.226  63.706  1.00  0.00    -0.180 C  
HETATM   12  O   UNL     1      -8.894   9.015  62.606  1.00  0.00    -0.212 OA 
ENDROOT
BRANCH   7  13
HETATM   13  C   UNL     1      -9.837   8.514  67.650  1.00  0.00    -0.174 C  
BRANCH  13  14
HETATM   14  C   UNL     1     -10.682   7.228  67.444  1.00  0.00    -0.358 C  
BRANCH  14  15
HETATM   15  C   UNL     1     -10.523   6.217  68.597  1.00  0.00    -0.285 C  
BRANCH  15  16
HETATM   16  C   UNL     1     -11.413   6.514  69.814  1.00  0.00    -0.379 C  
BRANCH  16  17
HETATM   17  N   UNL     1     -10.580   7.062  70.869  1.00  0.00    -0.215 NA 
HETATM   18  H2  UNL     1      -9.234   7.753  72.793  1.00  0.00     0.000 HD 
HETATM   19  H1  UNL     1      -9.852   9.448  72.744  1.00  0.00     0.000 HD 
HETATM   20  N   UNL     1     -11.310   9.319  70.897  1.00  0.00    -0.285 NA 
HETATM   21  N   UNL     1      -9.814   8.491  72.393  1.00  0.00    -0.301 NA 
HETATM   22  C   UNL     1     -10.630   8.328  71.333  1.00  0.00    -0.223 C  
HETATM   23  H   UNL     1      -9.897   6.435  71.297  1.00  0.00     0.000 HD 
HETATM   24  H1  UNL     1     -11.348  10.276  71.247  1.00  0.00     0.000 HD 
HETATM   25  H2  UNL     1     -11.897   9.125  70.086  1.00  0.00     0.000 HD 
ENDBRANCH  16  17
ENDBRANCH  15  16
ENDBRANCH  14  15
ENDBRANCH  13  14
BRANCH  13  26
HETATM   26  N   UNL     1     -10.532   9.641  66.970  1.00  0.00    -0.246 N  
HETATM   27  H   UNL     1     -10.842   9.553  66.002  1.00  0.00     0.000 HD 
BRANCH  26  28
HETATM   28  S   UNL     1     -10.801  11.085  67.841  1.00  0.00    -0.259 S  
HETATM   29  O   UNL     1      -9.721  11.250  68.779  1.00  0.00    -0.205 OA 
HETATM   30  O   UNL     1     -12.168  10.994  68.309  1.00  0.00    -0.582 OA 
BRANCH  28  31
HETATM   31  C   UNL     1     -10.708  12.321  66.572  1.00  0.00    -0.246 A  
HETATM   32  C   UNL     1     -10.322  16.085  66.033  1.00  0.00    -0.366 C  
HETATM   33  C   UNL     1     -10.876  11.888  65.247  1.00  0.00    -0.347 A  
HETATM   34  C   UNL     1     -10.281  17.929  67.750  1.00  0.00    -0.372 C  
HETATM   35  C   UNL     1     -10.828  12.802  64.199  1.00  0.00    -0.437 A  
HETATM   36  C   UNL     1     -10.653  16.474  67.477  1.00  0.00    -0.313 C  
HETATM   37  C   UNL     1      -9.918  15.516  68.404  1.00  0.00    -0.214 C  
HETATM   38  H   UNL     1     -10.599  13.539  68.984  1.00  0.00     0.000 HD 
HETATM   39  N   UNL     1     -10.372  14.144  68.194  1.00  0.00    -0.234 NA 
HETATM   40  C   UNL     1     -10.612  14.148  64.472  1.00  0.00    -0.285 A  
HETATM   41  C   UNL     1     -10.487  13.681  66.874  1.00  0.00    -0.272 A  
HETATM   42  C   UNL     1     -10.453  14.597  65.796  1.00  0.00    -0.338 A  
ENDBRANCH  28  31
ENDBRANCH  26  28
ENDBRANCH  13  26
ENDBRANCH   7  13
TORSDOF 8
ENDMDL
MODEL      143
REMARK 921   NORMALIZED FREE ENERGY PREDICTED BY IDOCK:   -5.91 KCAL/MOL
REMARK 922        TOTAL FREE ENERGY PREDICTED BY IDOCK:   -9.92 KCAL/MOL
REMARK 923 INTER-LIGAND FREE ENERGY PREDICTED BY IDOCK:   -8.78 KCAL/MOL
REMARK 924 INTRA-LIGAND FREE ENERGY PREDICTED BY IDOCK:   -1.14 KCAL/MOL
REMARK 927      BINDING AFFINITY PREDICTED BY RF-SCORE:    0.00 PKD
ROOT
HETATM    1  C   UNL     1      -9.432  18.564  66.729  1.00  0.00    -0.304 C  
HETATM    2  C   UNL     1      -9.259  17.419  67.717  1.00  0.00    -0.248 C  
HETATM    3  C   UNL     1      -7.783  17.164  68.041  1.00  0.00    -0.189 C  
HETATM    4  C   UNL     1      -7.622  15.983  68.998  1.00  0.00    -0.209 C  
HETATM    5  N   UNL     1      -8.362  14.766  68.563  1.00  0.00    -0.153 N  
HETATM    6  C   UNL     1      -9.777  14.994  68.197  1.00  0.00    -0.215 C  
HETATM    7  C   UNL     1      -7.598  13.668  68.149  1.00  0.00    -0.137 C  
HETATM    8  O   UNL     1      -6.364  13.781  68.139  1.00  0.00    -0.096 OA 
HETATM    9  O   UNL     1     -10.200  15.256  70.559  1.00  0.00    -0.144 OA 
HETATM   10  C   UNL     1      -9.882  16.126  67.169  1.00  0.00    -0.241 C  
HETATM   11  C   UNL     1     -10.754  15.275  69.344  1.00  0.00    -0.265 C  
HETATM   12  O   UNL     1     -11.942  15.504  69.184  1.00  0.00    -0.348 OA 
ENDROOT
BRANCH   7  13
HETATM   13  C   UNL     1      -8.185  12.252  67.805  1.00  0.00    -0.161 C  
BRANCH  13  14
HETATM   14  C   UNL     1      -9.280  12.125  66.713  1.00  0.00    -0.207 C  
BRANCH  14  15
HETATM   15  C   UNL     1     -10.327  11.041  67.040  1.00  0.00    -0.269 C  
BRANCH  15  16
HETATM   16  C   UNL     1     -11.658  11.598  67.567  1.00  0.00    -0.272 C  
BRANCH  16  17
HETATM   17  N   UNL     1     -12.001  10.890  68.787  1.00  0.00    -0.681 NA 
HETATM   18  H2  UNL     1     -12.773   9.561  70.692  1.00  0.00     0.000 HD 
HETATM   19  H1  UNL     1     -12.748  10.973  71.816  1.00  0.00     0.000 HD 
HETATM   20  N   UNL     1     -11.996  12.667  70.359  1.00  0.00    -0.522 NA 
HETATM   21  N   UNL     1     -12.610  10.546  70.900  1.00  0.00    -0.367 NA 
HETATM   22  C   UNL     1     -12.183  11.454  70.000  1.00  0.00    -0.301 C  
HETATM   23  H   UNL     1     -12.114   9.878  68.722  1.00  0.00     0.000 HD 
HETATM   24  H1  UNL     1     -12.134  13.094  71.276  1.00  0.00     0.000 HD 
HETATM   25  H2  UNL     1     -11.664  13.295  69.628  1.00  0.00     0.000 HD 
ENDBRANCH  16  17
ENDBRANCH  15  16
ENDBRANCH  14  15
ENDBRANCH  13  14
BRANCH  13  26
HETATM   26  N   UNL     1      -8.637  11.497  69.006  1.00  0.00    -0.375 N  
HETATM   27  H   UNL     1      -9.489  11.765  69.499  1.00  0.00     0.000 HD 
BRANCH  26  28
HETATM   28  S   UNL     1      -7.700  10.175  69.545  1.00  0.00    -0.167 S  
HETATM   29  O   UNL     1      -6.989  10.582  70.728  1.00  0.00    -0.263 OA 
HETATM   30  O   UNL     1      -6.976   9.725  68.374  1.00  0.00    -0.067 OA 
BRANCH  28  31
HETATM   31  C   UNL     1      -8.937   8.971  69.954  1.00  0.00    -0.164 A  
HETATM   32  C   UNL     1     -10.837   5.977  68.527  1.00  0.00    -0.363 C  
HETATM   33  C   UNL     1      -9.552   9.090  71.210  1.00  0.00    -0.361 A  
HETATM   34  C   UNL     1     -10.797   5.054  66.183  1.00  0.00    -0.160 C  
HETATM   35  C   UNL     1     -10.540   8.190  71.595  1.00  0.00    -0.292 A  
HETATM   36  C   UNL     1     -10.475   6.257  67.066  1.00  0.00    -0.341 C  
HETATM   37  C   UNL     1      -8.998   6.624  67.007  1.00  0.00    -0.118 C  
HETATM   38  H   UNL     1      -8.165   8.591  67.389  1.00  0.00     0.000 HD 
HETATM   39  N   UNL     1      -8.739   7.840  67.774  1.00  0.00    -0.124 NA 
HETATM   40  C   UNL     1     -10.915   7.169  70.729  1.00  0.00    -0.278 A  
HETATM   41  C   UNL     1      -9.300   7.945  69.057  1.00  0.00    -0.151 A  
HETATM   42  C   UNL     1     -10.314   7.046  69.462  1.00  0.00    -0.225 A  
ENDBRANCH  28  31
ENDBRANCH  26  28
ENDBRANCH  13  26
ENDBRANCH   7  13
TORSDOF 8
ENDMDL
MODEL      144
REMARK 921   NORMALIZED FREE ENERGY PREDICTED BY IDOCK:   -5.89 KCAL/MOL
REMARK 922        TOTAL FREE ENERGY PREDICTED BY IDOCK:   -9.90 KCAL/MOL
REMARK 923 INTER-LIGAND FREE ENERGY PREDICTED BY IDOCK:   -8.88 KCAL/MOL
REMARK 924 INTRA-LIGAND FREE ENERGY PREDICTED BY IDOCK:   -1.02 KCAL/MOL
REMARK 927      BINDING AFFINITY PREDICTED BY RF-SCORE:    0.00 PKD
ROOT
HETATM    1  C   UNL     1      -9.622  19.037  66.108  1.00  0.00    -0.291 C  
HETATM    2  C   UNL     1     -10.334  17.746  66.487  1.00  0.00    -0.345 C  
HETATM    3  C   UNL     1     -10.592  17.659  67.995  1.00  0.00    -0.379 C  
HETATM    4  C   UNL     1     -11.267  16.339  68.367  1.00  0.00    -0.349 C  
HETATM    5  N   UNL     1     -10.575  15.145  67.805  1.00  0.00    -0.259 N  
HETATM    6  C   UNL     1     -10.270  15.224  66.360  1.00  0.00    -0.277 C  
HETATM    7  C   UNL     1      -9.928  14.296  68.712  1.00  0.00    -0.205 C  
HETATM    8  O   UNL     1      -9.943  14.600  69.913  1.00  0.00     0.111 OA 
HETATM    9  O   UNL     1     -12.631  14.898  65.985  1.00  0.00     0.081 OA 
HETATM   10  C   UNL     1      -9.516  16.522  66.049  1.00  0.00    -0.317 C  
HETATM   11  C   UNL     1     -11.451  15.093  65.393  1.00  0.00    -0.239 C  
HETATM   12  O   UNL     1     -11.346  15.164  64.179  1.00  0.00    -0.129 OA 
ENDROOT
BRANCH   7  13
HETATM   13  C   UNL     1      -9.282  12.915  68.335  1.00  0.00    -0.137 C  
BRANCH  13  14
HETATM   14  C   UNL     1      -9.141  12.522  66.841  1.00  0.00    -0.213 C  
BRANCH  14  15
HETATM   15  C   UNL     1      -8.199  11.319  66.626  1.00  0.00    -0.164 C  
BRANCH  15  16
HETATM   16  C   UNL     1      -8.600  10.414  65.452  1.00  0.00    -0.174 C  
BRANCH  16  17
HETATM   17  N   UNL     1      -8.286   9.041  65.803  1.00  0.00    -0.115 NA 
HETATM   18  H2  UNL     1      -7.610   6.715  66.155  1.00  0.00     0.000 HD 
HETATM   19  H1  UNL     1      -9.257   6.213  66.697  1.00  0.00     0.000 HD 
HETATM   20  N   UNL     1     -10.404   8.266  66.540  1.00  0.00    -0.423 NA 
HETATM   21  N   UNL     1      -8.589   6.910  66.365  1.00  0.00    -0.128 NA 
HETATM   22  C   UNL     1      -9.169   8.119  66.241  1.00  0.00    -0.191 C  
HETATM   23  H   UNL     1      -7.313   8.747  65.710  1.00  0.00     0.000 HD 
HETATM   24  H1  UNL     1     -11.072   7.570  66.872  1.00  0.00     0.000 HD 
HETATM   25  H2  UNL     1     -10.772   9.211  66.432  1.00  0.00     0.000 HD 
ENDBRANCH  16  17
ENDBRANCH  15  16
ENDBRANCH  14  15
ENDBRANCH  13  14
BRANCH  13  26
HETATM   26  N   UNL     1      -9.888  11.766  69.064  1.00  0.00    -0.413 N  
HETATM   27  H   UNL     1      -9.319  11.182  69.676  1.00  0.00     0.000 HD 
BRANCH  26  28
HETATM   28  S   UNL     1     -11.552  11.446  68.854  1.00  0.00    -0.352 S  
HETATM   29  O   UNL     1     -11.723  10.773  67.593  1.00  0.00    -0.538 OA 
HETATM   30  O   UNL     1     -12.213  12.710  69.104  1.00  0.00    -0.191 OA 
BRANCH  28  31
HETATM   31  C   UNL     1     -11.901  10.340  70.196  1.00  0.00    -0.263 A  
HETATM   32  C   UNL     1     -10.719   7.092  71.829  1.00  0.00    -0.241 C  
HETATM   33  C   UNL     1     -13.028  10.627  70.983  1.00  0.00    -0.456 A  
HETATM   34  C   UNL     1      -8.945   5.486  71.042  1.00  0.00    -0.153 C  
HETATM   35  C   UNL     1     -13.371   9.797  72.045  1.00  0.00    -0.547 A  
HETATM   36  C   UNL     1      -9.867   6.633  70.641  1.00  0.00    -0.198 C  
HETATM   37  C   UNL     1      -9.087   7.836  70.127  1.00  0.00    -0.153 C  
HETATM   38  H   UNL     1      -9.838   9.343  68.759  1.00  0.00     0.000 HD 
HETATM   39  N   UNL     1      -9.996   8.875  69.652  1.00  0.00    -0.186 NA 
HETATM   40  C   UNL     1     -12.591   8.680  72.324  1.00  0.00    -0.457 A  
HETATM   41  C   UNL     1     -11.094   9.213  70.458  1.00  0.00    -0.260 A  
HETATM   42  C   UNL     1     -11.466   8.375  71.536  1.00  0.00    -0.335 A  
ENDBRANCH  28  31
ENDBRANCH  26  28
ENDBRANCH  13  26
ENDBRANCH   7  13
TORSDOF 8
ENDMDL
MODEL      145
REMARK 921   NORMALIZED FREE ENERGY PREDICTED BY IDOCK:   -5.89 KCAL/MOL
REMARK 922        TOTAL FREE ENERGY PREDICTED BY IDOCK:   -9.89 KCAL/MOL
REMARK 923 INTER-LIGAND FREE ENERGY PREDICTED BY IDOCK:   -8.16 KCAL/MOL
REMARK 924 INTRA-LIGAND FREE ENERGY PREDICTED BY IDOCK:   -1.74 KCAL/MOL
REMARK 927      BINDING AFFINITY PREDICTED BY RF-SCORE:    0.00 PKD
ROOT
HETATM    1  C   UNL     1      -6.572  13.231  67.713  1.00  0.00    -0.156 C  
HETATM    2  C   UNL     1      -6.722  11.730  67.913  1.00  0.00    -0.072 C  
HETATM    3  C   UNL     1      -7.160  11.024  66.625  1.00  0.00    -0.139 C  
HETATM    4  C   UNL     1      -7.350   9.525  66.854  1.00  0.00    -0.087 C  
HETATM    5  N   UNL     1      -8.205   9.211  68.032  1.00  0.00    -0.112 N  
HETATM    6  C   UNL     1      -7.834   9.918  69.277  1.00  0.00    -0.117 C  
HETATM    7  C   UNL     1      -9.463   8.650  67.778  1.00  0.00    -0.142 C  
HETATM    8  O   UNL     1      -9.801   8.478  66.598  1.00  0.00    -0.226 OA 
HETATM    9  O   UNL     1      -5.932   8.437  69.386  1.00  0.00    -0.036 OA 
HETATM   10  C   UNL     1      -7.742  11.427  69.022  1.00  0.00    -0.064 C  
HETATM   11  C   UNL     1      -6.554   9.456  69.982  1.00  0.00    -0.059 C  
HETATM   12  O   UNL     1      -6.119   9.966  71.002  1.00  0.00    -0.114 OA 
ENDROOT
BRANCH   7  13
HETATM   13  C   UNL     1     -10.438   8.110  68.884  1.00  0.00    -0.185 C  
BRANCH  13  14
HETATM   14  C   UNL     1     -11.095   6.715  68.708  1.00  0.00    -0.297 C  
BRANCH  14  15
HETATM   15  C   UNL     1     -10.689   5.720  69.814  1.00  0.00    -0.418 C  
BRANCH  15  16
HETATM   16  C   UNL     1      -9.548   4.773  69.413  1.00  0.00    -0.179 C  
BRANCH  16  17
HETATM   17  N   UNL     1      -9.391   4.826  67.972  1.00  0.00    -0.127 NA 
HETATM   18  H2  UNL     1      -9.314   5.127  65.544  1.00  0.00     0.000 HD 
HETATM   19  H1  UNL     1      -9.358   3.351  65.222  1.00  0.00     0.000 HD 
HETATM   20  N   UNL     1      -9.434   2.518  67.425  1.00  0.00    -0.399 NA 
HETATM   21  N   UNL     1      -9.351   4.155  65.851  1.00  0.00    -0.151 NA 
HETATM   22  C   UNL     1      -9.400   3.763  67.139  1.00  0.00    -0.196 C  
HETATM   23  H   UNL     1      -9.264   5.747  67.551  1.00  0.00     0.000 HD 
HETATM   24  H1  UNL     1      -9.440   1.714  66.796  1.00  0.00     0.000 HD 
HETATM   25  H2  UNL     1      -9.459   2.296  68.420  1.00  0.00     0.000 HD 
ENDBRANCH  16  17
ENDBRANCH  15  16
ENDBRANCH  14  15
ENDBRANCH  13  14
BRANCH  13  26
HETATM   26  N   UNL     1     -11.504   9.083  69.252  1.00  0.00    -0.263 N  
HETATM   27  H   UNL     1     -12.075   9.525  68.532  1.00  0.00     0.000 HD 
BRANCH  26  28
HETATM   28  S   UNL     1     -11.752   9.444  70.902  1.00  0.00    -0.314 S  
HETATM   29  O   UNL     1     -10.494   9.296  71.587  1.00  0.00    -0.344 OA 
HETATM   30  O   UNL     1     -12.897   8.647  71.294  1.00  0.00    -0.287 OA 
BRANCH  28  31
HETATM   31  C   UNL     1     -12.230  11.152  70.853  1.00  0.00    -0.364 A  
HETATM   32  C   UNL     1     -11.825  14.352  68.803  1.00  0.00    -0.360 C  
HETATM   33  C   UNL     1     -12.991  11.632  71.931  1.00  0.00    -0.442 A  
HETATM   34  C   UNL     1     -10.358  14.765  66.796  1.00  0.00    -0.268 C  
HETATM   35  C   UNL     1     -13.391  12.964  71.967  1.00  0.00    -0.579 A  
HETATM   36  C   UNL     1     -10.624  13.855  67.992  1.00  0.00    -0.252 C  
HETATM   37  C   UNL     1     -10.905  12.421  67.563  1.00  0.00    -0.236 C  
HETATM   38  H   UNL     1     -10.578  10.649  68.771  1.00  0.00     0.000 HD 
HETATM   39  N   UNL     1     -11.050  11.553  68.728  1.00  0.00    -0.215 NA 
HETATM   40  C   UNL     1     -13.035  13.817  70.929  1.00  0.00    -0.287 A  
HETATM   41  C   UNL     1     -11.856  11.997  69.788  1.00  0.00    -0.331 A  
HETATM   42  C   UNL     1     -12.264  13.351  69.849  1.00  0.00    -0.337 A  
ENDBRANCH  28  31
ENDBRANCH  26  28
ENDBRANCH  13  26
ENDBRANCH   7  13
TORSDOF 8
ENDMDL
MODEL      146
REMARK 921   NORMALIZED FREE ENERGY PREDICTED BY IDOCK:   -5.88 KCAL/MOL
REMARK 922        TOTAL FREE ENERGY PREDICTED BY IDOCK:   -9.88 KCAL/MOL
REMARK 923 INTER-LIGAND FREE ENERGY PREDICTED BY IDOCK:   -7.90 KCAL/MOL
REMARK 924 INTRA-LIGAND FREE ENERGY PREDICTED BY IDOCK:   -1.99 KCAL/MOL
REMARK 927      BINDING AFFINITY PREDICTED BY RF-SCORE:    0.00 PKD
ROOT
HETATM    1  C   UNL     1     -11.265   7.913  72.919  1.00  0.00    -0.429 C  
HETATM    2  C   UNL     1     -10.077   7.858  71.969  1.00  0.00    -0.260 C  
HETATM    3  C   UNL     1      -8.803   8.412  72.616  1.00  0.00    -0.288 C  
HETATM    4  C   UNL     1      -7.630   8.393  71.636  1.00  0.00    -0.104 C  
HETATM    5  N   UNL     1      -7.953   9.008  70.319  1.00  0.00    -0.105 N  
HETATM    6  C   UNL     1      -9.205   8.526  69.695  1.00  0.00    -0.157 C  
HETATM    7  C   UNL     1      -7.321  10.219  70.008  1.00  0.00    -0.149 C  
HETATM    8  O   UNL     1      -6.562  10.719  70.850  1.00  0.00    -0.296 OA 
HETATM    9  O   UNL     1      -8.019   6.476  69.232  1.00  0.00    -0.108 OA 
HETATM   10  C   UNL     1     -10.369   8.647  70.684  1.00  0.00    -0.241 C  
HETATM   11  C   UNL     1      -9.190   7.107  69.118  1.00  0.00    -0.139 C  
HETATM   12  O   UNL     1     -10.158   6.575  68.598  1.00  0.00    -0.148 OA 
ENDROOT
BRANCH   7  13
HETATM   13  C   UNL     1      -7.410  10.938  68.614  1.00  0.00    -0.101 C  
BRANCH  13  14
HETATM   14  C   UNL     1      -6.108  11.235  67.824  1.00  0.00    -0.048 C  
BRANCH  14  15
HETATM   15  C   UNL     1      -6.184  10.780  66.353  1.00  0.00    -0.119 C  
BRANCH  15  16
HETATM   16  C   UNL     1      -7.247   9.703  66.087  1.00  0.00    -0.098 C  
BRANCH  16  17
HETATM   17  N   UNL     1      -7.987  10.073  64.894  1.00  0.00    -0.136 NA 
HETATM   18  H2  UNL     1      -9.097  10.942  62.893  1.00  0.00     0.000 HD 
HETATM   19  H1  UNL     1     -10.716  10.327  63.403  1.00  0.00     0.000 HD 
HETATM   20  N   UNL     1     -10.161   9.303  65.452  1.00  0.00    -0.277 NA 
HETATM   21  N   UNL     1      -9.714  10.456  63.545  1.00  0.00    -0.309 NA 
HETATM   22  C   UNL     1      -9.313   9.902  64.705  1.00  0.00    -0.278 C  
HETATM   23  H   UNL     1      -7.459  10.499  64.132  1.00  0.00     0.000 HD 
HETATM   24  H1  UNL     1     -11.163   9.174  65.309  1.00  0.00     0.000 HD 
HETATM   25  H2  UNL     1      -9.783   8.899  66.309  1.00  0.00     0.000 HD 
ENDBRANCH  16  17
ENDBRANCH  15  16
ENDBRANCH  14  15
ENDBRANCH  13  14
BRANCH  13  26
HETATM   26  N   UNL     1      -8.228  12.182  68.648  1.00  0.00    -0.315 N  
HETATM   27  H   UNL     1      -7.907  13.002  69.164  1.00  0.00     0.000 HD 
BRANCH  26  28
HETATM   28  S   UNL     1      -9.712  12.211  67.805  1.00  0.00    -0.203 S  
HETATM   29  O   UNL     1     -10.432  11.006  68.124  1.00  0.00    -0.175 OA 
HETATM   30  O   UNL     1      -9.360  12.512  66.432  1.00  0.00    -0.234 OA 
BRANCH  28  31
HETATM   31  C   UNL     1     -10.526  13.621  68.511  1.00  0.00    -0.244 A  
HETATM   32  C   UNL     1     -10.205  17.406  68.932  1.00  0.00    -0.352 C  
HETATM   33  C   UNL     1     -11.693  13.378  69.252  1.00  0.00    -0.383 A  
HETATM   34  C   UNL     1      -8.287  18.908  68.290  1.00  0.00    -0.364 C  
HETATM   35  C   UNL     1     -12.378  14.433  69.846  1.00  0.00    -0.365 A  
HETATM   36  C   UNL     1      -8.722  17.470  68.556  1.00  0.00    -0.282 C  
HETATM   37  C   UNL     1      -8.504  16.577  67.342  1.00  0.00    -0.177 C  
HETATM   38  H   UNL     1      -8.202  14.429  67.386  1.00  0.00     0.000 HD 
HETATM   39  N   UNL     1      -8.827  15.189  67.659  1.00  0.00    -0.169 NA 
HETATM   40  C   UNL     1     -11.901  15.731  69.700  1.00  0.00    -0.352 A  
HETATM   41  C   UNL     1     -10.022  14.928  68.348  1.00  0.00    -0.222 A  
HETATM   42  C   UNL     1     -10.727  15.986  68.969  1.00  0.00    -0.274 A  
ENDBRANCH  28  31
ENDBRANCH  26  28
ENDBRANCH  13  26
ENDBRANCH   7  13
TORSDOF 8
ENDMDL
MODEL      147
REMARK 921   NORMALIZED FREE ENERGY PREDICTED BY IDOCK:   -5.88 KCAL/MOL
REMARK 922        TOTAL FREE ENERGY PREDICTED BY IDOCK:   -9.88 KCAL/MOL
REMARK 923 INTER-LIGAND FREE ENERGY PREDICTED BY IDOCK:   -7.96 KCAL/MOL
REMARK 924 INTRA-LIGAND FREE ENERGY PREDICTED BY IDOCK:   -1.92 KCAL/MOL
REMARK 927      BINDING AFFINITY PREDICTED BY RF-SCORE:    0.00 PKD
ROOT
HETATM    1  C   UNL     1     -12.156  13.338  63.335  1.00  0.00    -0.508 C  
HETATM    2  C   UNL     1     -11.671  12.447  64.470  1.00  0.00    -0.427 C  
HETATM    3  C   UNL     1     -12.229  12.896  65.825  1.00  0.00    -0.498 C  
HETATM    4  C   UNL     1     -11.698  12.020  66.960  1.00  0.00    -0.267 C  
HETATM    5  N   UNL     1     -10.217  11.863  66.940  1.00  0.00    -0.206 N  
HETATM    6  C   UNL     1      -9.648  11.478  65.630  1.00  0.00    -0.231 C  
HETATM    7  C   UNL     1      -9.496  12.474  67.975  1.00  0.00    -0.209 C  
HETATM    8  O   UNL     1     -10.123  13.128  68.820  1.00  0.00    -0.178 OA 
HETATM    9  O   UNL     1     -10.572   9.285  66.030  1.00  0.00     0.028 OA 
HETATM   10  C   UNL     1     -10.137  12.437  64.538  1.00  0.00    -0.276 C  
HETATM   11  C   UNL     1      -9.886  10.037  65.167  1.00  0.00    -0.318 C  
HETATM   12  O   UNL     1      -9.494   9.593  64.100  1.00  0.00    -0.192 OA 
ENDROOT
BRANCH   7  13
HETATM   13  C   UNL     1      -7.954  12.294  68.214  1.00  0.00    -0.163 C  
BRANCH  13  14
HETATM   14  C   UNL     1      -6.953  13.206  67.457  1.00  0.00    -0.155 C  
BRANCH  14  15
HETATM   15  C   UNL     1      -6.823  14.606  68.090  1.00  0.00    -0.128 C  
BRANCH  15  16
HETATM   16  C   UNL     1      -7.471  15.728  67.264  1.00  0.00    -0.217 C  
BRANCH  16  17
HETATM   17  N   UNL     1      -8.877  15.802  67.614  1.00  0.00    -0.174 NA 
HETATM   18  H2  UNL     1     -11.198  15.721  68.387  1.00  0.00     0.000 HD 
HETATM   19  H1  UNL     1     -11.865  15.854  66.714  1.00  0.00     0.000 HD 
HETATM   20  N   UNL     1      -9.869  15.985  65.467  1.00  0.00    -0.451 NA 
HETATM   21  N   UNL     1     -11.089  15.805  67.376  1.00  0.00    -0.281 NA 
HETATM   22  C   UNL     1      -9.903  15.867  66.739  1.00  0.00    -0.244 C  
HETATM   23  H   UNL     1      -9.110  15.806  68.608  1.00  0.00     0.000 HD 
HETATM   24  H1  UNL     1     -10.645  16.034  64.805  1.00  0.00     0.000 HD 
HETATM   25  H2  UNL     1      -8.938  16.036  65.055  1.00  0.00     0.000 HD 
ENDBRANCH  16  17
ENDBRANCH  15  16
ENDBRANCH  14  15
ENDBRANCH  13  14
BRANCH  13  26
HETATM   26  N   UNL     1      -7.500  10.883  68.069  1.00  0.00    -0.088 N  
HETATM   27  H   UNL     1      -7.454  10.443  67.150  1.00  0.00     0.000 HD 
BRANCH  26  28
HETATM   28  S   UNL     1      -7.057  10.016  69.471  1.00  0.00    -0.107 S  
HETATM   29  O   UNL     1      -6.843  10.962  70.535  1.00  0.00    -0.241 OA 
HETATM   30  O   UNL     1      -5.986   9.137  69.048  1.00  0.00    -0.042 OA 
BRANCH  28  31
HETATM   31  C   UNL     1      -8.505   9.043  69.794  1.00  0.00    -0.132 A  
HETATM   32  C   UNL     1     -10.635   6.215  68.355  1.00  0.00    -0.324 C  
HETATM   33  C   UNL     1      -9.253   9.372  70.936  1.00  0.00    -0.242 A  
HETATM   34  C   UNL     1     -10.432   5.066  66.122  1.00  0.00    -0.334 C  
HETATM   35  C   UNL     1     -10.407   8.661  71.246  1.00  0.00    -0.308 A  
HETATM   36  C   UNL     1     -10.048   6.294  66.942  1.00  0.00    -0.236 C  
HETATM   37  C   UNL     1      -8.538   6.444  67.067  1.00  0.00    -0.112 C  
HETATM   38  H   UNL     1      -7.473   8.304  67.406  1.00  0.00     0.000 HD 
HETATM   39  N   UNL     1      -8.198   7.682  67.763  1.00  0.00    -0.118 NA 
HETATM   40  C   UNL     1     -10.817   7.621  70.419  1.00  0.00    -0.252 A  
HETATM   41  C   UNL     1      -8.899   7.993  68.939  1.00  0.00    -0.141 A  
HETATM   42  C   UNL     1     -10.083   7.289  69.266  1.00  0.00    -0.183 A  
ENDBRANCH  28  31
ENDBRANCH  26  28
ENDBRANCH  13  26
ENDBRANCH   7  13
TORSDOF 8
ENDMDL
MODEL      148
REMARK 921   NORMALIZED FREE ENERGY PREDICTED BY IDOCK:   -5.87 KCAL/MOL
REMARK 922        TOTAL FREE ENERGY PREDICTED BY IDOCK:   -9.87 KCAL/MOL
REMARK 923 INTER-LIGAND FREE ENERGY PREDICTED BY IDOCK:   -8.62 KCAL/MOL
REMARK 924 INTRA-LIGAND FREE ENERGY PREDICTED BY IDOCK:   -1.25 KCAL/MOL
REMARK 927      BINDING AFFINITY PREDICTED BY RF-SCORE:    0.00 PKD
ROOT
HETATM    1  C   UNL     1      -6.319  12.646  67.614  1.00  0.00    -0.147 C  
HETATM    2  C   UNL     1      -7.177  11.392  67.697  1.00  0.00    -0.097 C  
HETATM    3  C   UNL     1      -8.388  11.466  66.760  1.00  0.00    -0.163 C  
HETATM    4  C   UNL     1      -9.264  10.220  66.888  1.00  0.00    -0.150 C  
HETATM    5  N   UNL     1      -9.613   9.887  68.297  1.00  0.00    -0.139 N  
HETATM    6  C   UNL     1      -8.469   9.858  69.234  1.00  0.00    -0.158 C  
HETATM    7  C   UNL     1     -10.952  10.048  68.678  1.00  0.00    -0.204 C  
HETATM    8  O   UNL     1     -11.754  10.482  67.839  1.00  0.00    -0.453 OA 
HETATM    9  O   UNL     1      -7.831   7.788  68.169  1.00  0.00    -0.116 OA 
HETATM   10  C   UNL     1      -7.670  11.163  69.134  1.00  0.00    -0.076 C  
HETATM   11  C   UNL     1      -7.502   8.675  69.110  1.00  0.00    -0.083 C  
HETATM   12  O   UNL     1      -6.505   8.538  69.801  1.00  0.00    -0.035 OA 
ENDROOT
BRANCH   7  13
HETATM   13  C   UNL     1     -11.543   9.605  70.064  1.00  0.00    -0.088 C  
BRANCH  13  14
HETATM   14  C   UNL     1     -11.851  10.678  71.142  1.00  0.00    -0.339 C  
BRANCH  14  15
HETATM   15  C   UNL     1     -12.173  12.059  70.535  1.00  0.00    -0.414 C  
BRANCH  15  16
HETATM   16  C   UNL     1     -12.985  12.975  71.463  1.00  0.00    -0.305 C  
BRANCH  16  17
HETATM   17  N   UNL     1     -12.219  14.185  71.698  1.00  0.00    -0.287 NA 
HETATM   18  H2  UNL     1     -10.907  16.142  72.362  1.00  0.00     0.000 HD 
HETATM   19  H1  UNL     1     -11.948  17.282  71.427  1.00  0.00     0.000 HD 
HETATM   20  N   UNL     1     -13.507  15.777  70.500  1.00  0.00    -0.724 NA 
HETATM   21  N   UNL     1     -11.698  16.348  71.752  1.00  0.00    -0.434 NA 
HETATM   22  C   UNL     1     -12.549  15.422  71.269  1.00  0.00    -0.412 C  
HETATM   23  H   UNL     1     -11.355  14.093  72.235  1.00  0.00     0.000 HD 
HETATM   24  H1  UNL     1     -13.757  16.712  70.175  1.00  0.00     0.000 HD 
HETATM   25  H2  UNL     1     -14.104  15.022  70.164  1.00  0.00     0.000 HD 
ENDBRANCH  16  17
ENDBRANCH  15  16
ENDBRANCH  14  15
ENDBRANCH  13  14
BRANCH  13  26
HETATM   26  N   UNL     1     -10.768   8.508  70.708  1.00  0.00    -0.211 N  
HETATM   27  H   UNL     1      -9.749   8.503  70.675  1.00  0.00     0.000 HD 
BRANCH  26  28
HETATM   28  S   UNL     1     -11.618   7.260  71.504  1.00  0.00    -0.290 S  
HETATM   29  O   UNL     1     -12.959   7.227  70.981  1.00  0.00    -0.307 OA 
HETATM   30  O   UNL     1     -11.390   7.488  72.916  1.00  0.00    -0.339 OA 
BRANCH  28  31
HETATM   31  C   UNL     1     -10.726   5.810  71.004  1.00  0.00    -0.258 A  
HETATM   32  C   UNL     1      -9.525   3.909  67.913  1.00  0.00    -0.227 C  
HETATM   33  C   UNL     1     -10.302   4.940  72.021  1.00  0.00    -0.263 A  
HETATM   34  C   UNL     1     -10.019   4.371  65.486  1.00  0.00    -0.242 C  
HETATM   35  C   UNL     1      -9.608   3.777  71.704  1.00  0.00    -0.227 A  
HETATM   36  C   UNL     1     -10.443   4.638  66.928  1.00  0.00    -0.048 C  
HETATM   37  C   UNL     1     -10.412   6.123  67.263  1.00  0.00    -0.255 C  
HETATM   38  H   UNL     1     -11.599   7.102  68.794  1.00  0.00     0.000 HD 
HETATM   39  N   UNL     1     -10.924   6.358  68.610  1.00  0.00    -0.321 NA 
HETATM   40  C   UNL     1      -9.335   3.481  70.374  1.00  0.00    -0.239 A  
HETATM   41  C   UNL     1     -10.462   5.532  69.647  1.00  0.00    -0.309 A  
HETATM   42  C   UNL     1      -9.765   4.338  69.345  1.00  0.00    -0.257 A  
ENDBRANCH  28  31
ENDBRANCH  26  28
ENDBRANCH  13  26
ENDBRANCH   7  13
TORSDOF 8
ENDMDL
MODEL      149
REMARK 921   NORMALIZED FREE ENERGY PREDICTED BY IDOCK:   -5.87 KCAL/MOL
REMARK 922        TOTAL FREE ENERGY PREDICTED BY IDOCK:   -9.87 KCAL/MOL
REMARK 923 INTER-LIGAND FREE ENERGY PREDICTED BY IDOCK:   -8.09 KCAL/MOL
REMARK 924 INTRA-LIGAND FREE ENERGY PREDICTED BY IDOCK:   -1.77 KCAL/MOL
REMARK 927      BINDING AFFINITY PREDICTED BY RF-SCORE:    0.00 PKD
ROOT
HETATM    1  C   UNL     1     -12.284  15.621  64.004  1.00  0.00     0.158 C  
HETATM    2  C   UNL     1     -11.915  14.289  64.643  1.00  0.00    -0.468 C  
HETATM    3  C   UNL     1     -12.615  14.090  65.991  1.00  0.00    -0.452 C  
HETATM    4  C   UNL     1     -12.199  12.770  66.641  1.00  0.00    -0.092 C  
HETATM    5  N   UNL     1     -10.724  12.578  66.695  1.00  0.00    -0.234 N  
HETATM    6  C   UNL     1     -10.017  12.813  65.416  1.00  0.00    -0.199 C  
HETATM    7  C   UNL     1     -10.120  12.616  67.959  1.00  0.00    -0.229 C  
HETATM    8  O   UNL     1     -10.837  12.835  68.945  1.00  0.00    -0.238 OA 
HETATM    9  O   UNL     1     -10.962  10.722  64.671  1.00  0.00    -0.123 OA 
HETATM   10  C   UNL     1     -10.396  14.185  64.847  1.00  0.00    -0.435 C  
HETATM   11  C   UNL     1     -10.194  11.756  64.322  1.00  0.00    -0.302 C  
HETATM   12  O   UNL     1      -9.689  11.835  63.213  1.00  0.00    -0.377 OA 
ENDROOT
BRANCH   7  13
HETATM   13  C   UNL     1      -8.611  12.282  68.236  1.00  0.00    -0.172 C  
BRANCH  13  14
HETATM   14  C   UNL     1      -7.507  13.227  67.691  1.00  0.00    -0.173 C  
BRANCH  14  15
HETATM   15  C   UNL     1      -7.682  14.685  68.162  1.00  0.00    -0.125 C  
BRANCH  15  16
HETATM   16  C   UNL     1      -8.133  15.650  67.055  1.00  0.00    -0.241 C  
BRANCH  16  17
HETATM   17  N   UNL     1      -8.720  16.821  67.678  1.00  0.00    -0.202 NA 
HETATM   18  H2  UNL     1      -9.471  18.821  68.873  1.00  0.00     0.000 HD 
HETATM   19  H1  UNL     1     -11.114  18.141  69.185  1.00  0.00     0.000 HD 
HETATM   20  N   UNL     1     -10.913  16.039  68.138  1.00  0.00    -0.328 NA 
HETATM   21  N   UNL     1     -10.170  18.082  68.801  1.00  0.00    -0.379 NA 
HETATM   22  C   UNL     1      -9.969  16.900  68.186  1.00  0.00    -0.285 C  
HETATM   23  H   UNL     1      -8.139  17.658  67.737  1.00  0.00     0.000 HD 
HETATM   24  H1  UNL     1     -11.856  16.098  68.522  1.00  0.00     0.000 HD 
HETATM   25  H2  UNL     1     -10.692  15.172  67.649  1.00  0.00     0.000 HD 
ENDBRANCH  16  17
ENDBRANCH  15  16
ENDBRANCH  14  15
ENDBRANCH  13  14
BRANCH  13  26
HETATM   26  N   UNL     1      -8.245  10.883  67.877  1.00  0.00    -0.112 N  
HETATM   27  H   UNL     1      -8.522  10.487  66.979  1.00  0.00     0.000 HD 
BRANCH  26  28
HETATM   28  S   UNL     1      -7.351   9.956  68.998  1.00  0.00    -0.086 S  
HETATM   29  O   UNL     1      -7.233  10.716  70.215  1.00  0.00    -0.208 OA 
HETATM   30  O   UNL     1      -6.166   9.535  68.280  1.00  0.00    -0.051 OA 
BRANCH  28  31
HETATM   31  C   UNL     1      -8.400   8.547  69.252  1.00  0.00    -0.120 A  
HETATM   32  C   UNL     1     -11.733   7.493  70.797  1.00  0.00    -0.281 C  
HETATM   33  C   UNL     1      -7.914   7.304  68.817  1.00  0.00    -0.123 A  
HETATM   34  C   UNL     1     -13.332   8.860  72.183  1.00  0.00    -0.489 C  
HETATM   35  C   UNL     1      -8.676   6.153  68.993  1.00  0.00    -0.124 A  
HETATM   36  C   UNL     1     -11.909   8.758  71.642  1.00  0.00    -0.399 C  
HETATM   37  C   UNL     1     -11.542   9.958  70.779  1.00  0.00    -0.349 C  
HETATM   38  H   UNL     1      -9.534  10.702  70.431  1.00  0.00     0.000 HD 
HETATM   39  N   UNL     1     -10.144   9.886  70.365  1.00  0.00    -0.250 NA 
HETATM   40  C   UNL     1      -9.922   6.241  69.602  1.00  0.00    -0.201 A  
HETATM   41  C   UNL     1      -9.661   8.663  69.872  1.00  0.00    -0.173 A  
HETATM   42  C   UNL     1     -10.416   7.480  70.053  1.00  0.00    -0.231 A  
ENDBRANCH  28  31
ENDBRANCH  26  28
ENDBRANCH  13  26
ENDBRANCH   7  13
TORSDOF 8
ENDMDL
MODEL      150
REMARK 921   NORMALIZED FREE ENERGY PREDICTED BY IDOCK:   -5.87 KCAL/MOL
REMARK 922        TOTAL FREE ENERGY PREDICTED BY IDOCK:   -9.86 KCAL/MOL
REMARK 923 INTER-LIGAND FREE ENERGY PREDICTED BY IDOCK:   -8.53 KCAL/MOL
REMARK 924 INTRA-LIGAND FREE ENERGY PREDICTED BY IDOCK:   -1.33 KCAL/MOL
REMARK 927      BINDING AFFINITY PREDICTED BY RF-SCORE:    0.00 PKD
ROOT
HETATM    1  C   UNL     1     -12.160  13.850  64.187  1.00  0.00    -0.464 C  
HETATM    2  C   UNL     1     -11.027  13.236  64.997  1.00  0.00    -0.328 C  
HETATM    3  C   UNL     1     -10.365  12.068  64.257  1.00  0.00    -0.357 C  
HETATM    4  C   UNL     1      -9.259  11.434  65.100  1.00  0.00    -0.103 C  
HETATM    5  N   UNL     1      -9.692  11.100  66.486  1.00  0.00    -0.194 N  
HETATM    6  C   UNL     1     -10.379  12.195  67.205  1.00  0.00    -0.212 C  
HETATM    7  C   UNL     1      -9.797   9.742  66.812  1.00  0.00    -0.208 C  
HETATM    8  O   UNL     1      -9.555   8.906  65.931  1.00  0.00    -0.253 OA 
HETATM    9  O   UNL     1      -8.213  13.244  67.389  1.00  0.00    -0.169 OA 
HETATM   10  C   UNL     1     -11.535  12.741  66.359  1.00  0.00    -0.409 C  
HETATM   11  C   UNL     1      -9.511  13.368  67.674  1.00  0.00    -0.216 C  
HETATM   12  O   UNL     1      -9.950  14.347  68.256  1.00  0.00    -0.219 OA 
ENDROOT
BRANCH   7  13
HETATM   13  C   UNL     1     -10.084   9.192  68.255  1.00  0.00    -0.191 C  
BRANCH  13  14
HETATM   14  C   UNL     1      -9.668  10.035  69.490  1.00  0.00    -0.253 C  
BRANCH  14  15
HETATM   15  C   UNL     1     -10.523   9.731  70.737  1.00  0.00    -0.339 C  
BRANCH  15  16
HETATM   16  C   UNL     1     -11.907  10.396  70.723  1.00  0.00    -0.368 C  
BRANCH  16  17
HETATM   17  N   UNL     1     -12.917   9.354  70.718  1.00  0.00    -0.534 NA 
HETATM   18  H2  UNL     1     -14.780   7.774  70.560  1.00  0.00     0.000 HD 
HETATM   19  H1  UNL     1     -14.644   7.285  72.293  1.00  0.00     0.000 HD 
HETATM   20  N   UNL     1     -12.828   8.624  72.974  1.00  0.00    -0.622 NA 
HETATM   21  N   UNL     1     -14.347   7.830  71.482  1.00  0.00    -0.448 NA 
HETATM   22  C   UNL     1     -13.310   8.633  71.790  1.00  0.00    -0.374 C  
HETATM   23  H   UNL     1     -13.370   9.148  69.827  1.00  0.00     0.000 HD 
HETATM   24  H1  UNL     1     -13.124   8.079  73.784  1.00  0.00     0.000 HD 
HETATM   25  H2  UNL     1     -12.038   9.249  73.131  1.00  0.00     0.000 HD 
ENDBRANCH  16  17
ENDBRANCH  15  16
ENDBRANCH  14  15
ENDBRANCH  13  14
BRANCH  13  26
HETATM   26  N   UNL     1      -9.601   7.798  68.459  1.00  0.00    -0.148 N  
HETATM   27  H   UNL     1      -8.610   7.608  68.605  1.00  0.00     0.000 HD 
BRANCH  26  28
HETATM   28  S   UNL     1     -10.739   6.525  68.444  1.00  0.00    -0.293 S  
HETATM   29  O   UNL     1     -11.465   6.588  67.202  1.00  0.00    -0.221 OA 
HETATM   30  O   UNL     1     -11.439   6.630  69.707  1.00  0.00    -0.351 OA 
BRANCH  28  31
HETATM   31  C   UNL     1      -9.702   5.086  68.479  1.00  0.00    -0.154 A  
HETATM   32  C   UNL     1      -7.194   3.109  66.379  1.00  0.00    -0.070 C  
HETATM   33  C   UNL     1      -9.785   4.268  69.617  1.00  0.00    -0.284 A  
HETATM   34  C   UNL     1      -6.520   3.464  63.977  1.00  0.00    -0.031 C  
HETATM   35  C   UNL     1      -9.012   3.115  69.709  1.00  0.00    -0.175 A  
HETATM   36  C   UNL     1      -7.563   3.772  65.048  1.00  0.00    -0.077 C  
HETATM   37  C   UNL     1      -7.705   5.268  65.290  1.00  0.00    -0.084 C  
HETATM   38  H   UNL     1      -9.472   6.267  66.056  1.00  0.00     0.000 HD 
HETATM   39  N   UNL     1      -8.782   5.538  66.239  1.00  0.00    -0.124 NA 
HETATM   40  C   UNL     1      -8.154   2.778  68.668  1.00  0.00    -0.069 A  
HETATM   41  C   UNL     1      -8.840   4.765  67.409  1.00  0.00    -0.104 A  
HETATM   42  C   UNL     1      -8.070   3.583  67.518  1.00  0.00    -0.081 A  
ENDBRANCH  28  31
ENDBRANCH  26  28
ENDBRANCH  13  26
ENDBRANCH   7  13
TORSDOF 8
ENDMDL
MODEL      151
REMARK 921   NORMALIZED FREE ENERGY PREDICTED BY IDOCK:   -5.87 KCAL/MOL
REMARK 922        TOTAL FREE ENERGY PREDICTED BY IDOCK:   -9.86 KCAL/MOL
REMARK 923 INTER-LIGAND FREE ENERGY PREDICTED BY IDOCK:   -8.50 KCAL/MOL
REMARK 924 INTRA-LIGAND FREE ENERGY PREDICTED BY IDOCK:   -1.35 KCAL/MOL
REMARK 927      BINDING AFFINITY PREDICTED BY RF-SCORE:    0.00 PKD
ROOT
HETATM    1  C   UNL     1      -8.763   5.247  64.858  1.00  0.00    -0.122 C  
HETATM    2  C   UNL     1      -8.661   5.477  66.359  1.00  0.00    -0.121 C  
HETATM    3  C   UNL     1      -9.791   4.778  67.122  1.00  0.00    -0.222 C  
HETATM    4  C   UNL     1      -9.701   5.055  68.623  1.00  0.00    -0.158 C  
HETATM    5  N   UNL     1      -9.561   6.502  68.947  1.00  0.00    -0.128 N  
HETATM    6  C   UNL     1      -8.509   7.213  68.188  1.00  0.00    -0.123 C  
HETATM    7  C   UNL     1     -10.647   7.123  69.579  1.00  0.00    -0.234 C  
HETATM    8  O   UNL     1     -11.661   6.447  69.801  1.00  0.00    -0.431 OA 
HETATM    9  O   UNL     1      -6.915   6.035  69.565  1.00  0.00    -0.062 OA 
HETATM   10  C   UNL     1      -8.692   6.978  66.684  1.00  0.00    -0.131 C  
HETATM   11  C   UNL     1      -7.056   6.907  68.564  1.00  0.00    -0.082 C  
HETATM   12  O   UNL     1      -6.090   7.402  68.005  1.00  0.00    -0.033 OA 
ENDROOT
BRANCH   7  13
HETATM   13  C   UNL     1     -10.632   8.590  70.138  1.00  0.00    -0.232 C  
BRANCH  13  14
HETATM   14  C   UNL     1     -10.695   8.823  71.671  1.00  0.00    -0.397 C  
BRANCH  14  15
HETATM   15  C   UNL     1      -9.913   7.761  72.470  1.00  0.00    -0.284 C  
BRANCH  15  16
HETATM   16  C   UNL     1      -8.387   7.934  72.412  1.00  0.00    -0.138 C  
BRANCH  16  17
HETATM   17  N   UNL     1      -8.083   9.029  71.510  1.00  0.00    -0.339 NA 
HETATM   18  H2  UNL     1      -7.706  10.729  69.790  1.00  0.00     0.000 HD 
HETATM   19  H1  UNL     1      -5.985  10.980  70.273  1.00  0.00     0.000 HD 
HETATM   20  N   UNL     1      -5.815   9.453  72.060  1.00  0.00    -0.222 NA 
HETATM   21  N   UNL     1      -6.894  10.527  70.373  1.00  0.00    -0.299 NA 
HETATM   22  C   UNL     1      -6.881   9.628  71.377  1.00  0.00     0.258 C  
HETATM   23  H   UNL     1      -8.844   9.376  70.925  1.00  0.00     0.000 HD 
HETATM   24  H1  UNL     1      -4.906   9.906  71.960  1.00  0.00     0.000 HD 
HETATM   25  H2  UNL     1      -5.881   8.765  72.810  1.00  0.00     0.000 HD 
ENDBRANCH  16  17
ENDBRANCH  15  16
ENDBRANCH  14  15
ENDBRANCH  13  14
BRANCH  13  26
HETATM   26  N   UNL     1     -11.641   9.474  69.491  1.00  0.00    -0.433 N  
HETATM   27  H   UNL     1     -12.639   9.299  69.611  1.00  0.00     0.000 HD 
BRANCH  26  28
HETATM   28  S   UNL     1     -11.096  10.786  68.545  1.00  0.00    -0.285 S  
HETATM   29  O   UNL     1     -11.750  10.718  67.264  1.00  0.00    -0.396 OA 
HETATM   30  O   UNL     1      -9.651  10.739  68.632  1.00  0.00    -0.171 OA 
BRANCH  28  31
HETATM   31  C   UNL     1     -11.681  12.188  69.461  1.00  0.00    -0.336 A  
HETATM   32  C   UNL     1     -11.685  16.011  69.473  1.00  0.00    -0.275 C  
HETATM   33  C   UNL     1     -12.357  11.928  70.664  1.00  0.00    -0.405 A  
HETATM   34  C   UNL     1     -10.457  17.594  67.946  1.00  0.00    -0.392 C  
HETATM   35  C   UNL     1     -12.833  12.978  71.442  1.00  0.00    -0.385 A  
HETATM   36  C   UNL     1     -10.544  16.161  68.462  1.00  0.00    -0.284 C  
HETATM   37  C   UNL     1     -10.778  15.164  67.335  1.00  0.00    -0.286 C  
HETATM   38  H   UNL     1     -10.221  13.067  67.361  1.00  0.00     0.000 HD 
HETATM   39  N   UNL     1     -10.749  13.795  67.843  1.00  0.00    -0.244 NA 
HETATM   40  C   UNL     1     -12.638  14.288  71.021  1.00  0.00    -0.428 A  
HETATM   41  C   UNL     1     -11.470  13.509  69.013  1.00  0.00    -0.303 A  
HETATM   42  C   UNL     1     -11.953  14.563  69.824  1.00  0.00    -0.383 A  
ENDBRANCH  28  31
ENDBRANCH  26  28
ENDBRANCH  13  26
ENDBRANCH   7  13
TORSDOF 8
ENDMDL
MODEL      152
REMARK 921   NORMALIZED FREE ENERGY PREDICTED BY IDOCK:   -5.85 KCAL/MOL
REMARK 922        TOTAL FREE ENERGY PREDICTED BY IDOCK:   -9.83 KCAL/MOL
REMARK 923 INTER-LIGAND FREE ENERGY PREDICTED BY IDOCK:   -7.67 KCAL/MOL
REMARK 924 INTRA-LIGAND FREE ENERGY PREDICTED BY IDOCK:   -2.16 KCAL/MOL
REMARK 927      BINDING AFFINITY PREDICTED BY RF-SCORE:    0.00 PKD
ROOT
HETATM    1  C   UNL     1     -14.410   7.762  71.512  1.00  0.00    -0.574 C  
HETATM    2  C   UNL     1     -12.933   8.119  71.602  1.00  0.00    -0.352 C  
HETATM    3  C   UNL     1     -12.647   9.509  71.024  1.00  0.00    -0.331 C  
HETATM    4  C   UNL     1     -11.154   9.835  71.080  1.00  0.00    -0.344 C  
HETATM    5  N   UNL     1     -10.294   8.759  70.516  1.00  0.00    -0.195 N  
HETATM    6  C   UNL     1     -10.583   7.399  71.021  1.00  0.00    -0.224 C  
HETATM    7  C   UNL     1      -9.625   9.040  69.317  1.00  0.00    -0.162 C  
HETATM    8  O   UNL     1      -9.810  10.144  68.786  1.00  0.00    -0.162 OA 
HETATM    9  O   UNL     1      -9.552   8.099  73.087  1.00  0.00    -0.271 OA 
HETATM   10  C   UNL     1     -12.075   7.083  70.862  1.00  0.00    -0.403 C  
HETATM   11  C   UNL     1     -10.161   7.090  72.460  1.00  0.00    -0.184 C  
HETATM   12  O   UNL     1     -10.360   6.019  73.011  1.00  0.00    -0.186 OA 
ENDROOT
BRANCH   7  13
HETATM   13  C   UNL     1      -8.558   8.099  68.651  1.00  0.00    -0.127 C  
BRANCH  13  14
HETATM   14  C   UNL     1      -7.347   7.606  69.487  1.00  0.00    -0.086 C  
BRANCH  14  15
HETATM   15  C   UNL     1      -7.173   6.075  69.441  1.00  0.00    -0.074 C  
BRANCH  15  16
HETATM   16  C   UNL     1      -8.363   5.329  68.818  1.00  0.00    -0.092 C  
BRANCH  16  17
HETATM   17  N   UNL     1      -7.867   4.485  67.747  1.00  0.00    -0.085 NA 
HETATM   18  H2  UNL     1      -6.940   3.299  65.817  1.00  0.00     0.000 HD 
HETATM   19  H1  UNL     1      -8.378   2.218  65.664  1.00  0.00     0.000 HD 
HETATM   20  N   UNL     1      -9.696   3.003  67.454  1.00  0.00    -0.334 NA 
HETATM   21  N   UNL     1      -7.860   2.974  66.114  1.00  0.00    -0.080 NA 
HETATM   22  C   UNL     1      -8.551   3.486  67.151  1.00  0.00    -0.110 C  
HETATM   23  H   UNL     1      -6.918   4.663  67.415  1.00  0.00     0.000 HD 
HETATM   24  H1  UNL     1     -10.213   2.247  67.004  1.00  0.00     0.000 HD 
HETATM   25  H2  UNL     1     -10.156   3.432  68.256  1.00  0.00     0.000 HD 
ENDBRANCH  16  17
ENDBRANCH  15  16
ENDBRANCH  14  15
ENDBRANCH  13  14
BRANCH  13  26
HETATM   26  N   UNL     1      -8.046   8.620  67.353  1.00  0.00    -0.102 N  
HETATM   27  H   UNL     1      -7.702   9.577  67.276  1.00  0.00     0.000 HD 
BRANCH  26  28
HETATM   28  S   UNL     1      -8.046   7.584  65.996  1.00  0.00    -0.130 S  
HETATM   29  O   UNL     1      -9.268   6.823  66.013  1.00  0.00    -0.132 OA 
HETATM   30  O   UNL     1      -6.764   6.911  66.035  1.00  0.00    -0.050 OA 
BRANCH  28  31
HETATM   31  C   UNL     1      -8.052   8.729  64.640  1.00  0.00    -0.157 A  
HETATM   32  C   UNL     1      -9.925  11.751  63.238  1.00  0.00    -0.435 C  
HETATM   33  C   UNL     1      -7.106   8.520  63.624  1.00  0.00    -0.089 A  
HETATM   34  C   UNL     1     -12.055  12.811  64.068  1.00  0.00    -0.533 C  
HETATM   35  C   UNL     1      -7.060   9.369  62.524  1.00  0.00    -0.099 A  
HETATM   36  C   UNL     1     -11.171  11.568  64.110  1.00  0.00    -0.393 C  
HETATM   37  C   UNL     1     -10.714  11.244  65.525  1.00  0.00    -0.220 C  
HETATM   38  H   UNL     1     -10.150   9.280  66.257  1.00  0.00     0.000 HD 
HETATM   39  N   UNL     1      -9.962   9.992  65.550  1.00  0.00    -0.303 NA 
HETATM   40  C   UNL     1      -7.955  10.429  62.436  1.00  0.00    -0.189 A  
HETATM   41  C   UNL     1      -8.972   9.797  64.574  1.00  0.00    -0.238 A  
HETATM   42  C   UNL     1      -8.915  10.643  63.442  1.00  0.00    -0.226 A  
ENDBRANCH  28  31
ENDBRANCH  26  28
ENDBRANCH  13  26
ENDBRANCH   7  13
TORSDOF 8
ENDMDL
MODEL      153
REMARK 921   NORMALIZED FREE ENERGY PREDICTED BY IDOCK:   -5.84 KCAL/MOL
REMARK 922        TOTAL FREE ENERGY PREDICTED BY IDOCK:   -9.83 KCAL/MOL
REMARK 923 INTER-LIGAND FREE ENERGY PREDICTED BY IDOCK:   -8.25 KCAL/MOL
REMARK 924 INTRA-LIGAND FREE ENERGY PREDICTED BY IDOCK:   -1.58 KCAL/MOL
REMARK 927      BINDING AFFINITY PREDICTED BY RF-SCORE:    0.00 PKD
ROOT
HETATM    1  C   UNL     1      -6.411   9.520  70.991  1.00  0.00    -0.077 C  
HETATM    2  C   UNL     1      -6.998   9.064  69.663  1.00  0.00    -0.054 C  
HETATM    3  C   UNL     1      -6.093   9.433  68.482  1.00  0.00    -0.044 C  
HETATM    4  C   UNL     1      -6.717   9.009  67.153  1.00  0.00    -0.066 C  
HETATM    5  N   UNL     1      -8.128   9.459  66.993  1.00  0.00    -0.105 N  
HETATM    6  C   UNL     1      -9.012   9.159  68.141  1.00  0.00    -0.129 C  
HETATM    7  C   UNL     1      -8.379  10.444  66.028  1.00  0.00    -0.149 C  
HETATM    8  O   UNL     1      -7.419  10.900  65.392  1.00  0.00    -0.013 OA 
HETATM    9  O   UNL     1      -8.932   6.857  67.421  1.00  0.00    -0.117 OA 
HETATM   10  C   UNL     1      -8.387   9.681  69.440  1.00  0.00    -0.145 C  
HETATM   11  C   UNL     1      -9.418   7.695  68.339  1.00  0.00    -0.150 C  
HETATM   12  O   UNL     1     -10.122   7.304  69.257  1.00  0.00    -0.174 OA 
ENDROOT
BRANCH   7  13
HETATM   13  C   UNL     1      -9.810  10.932  65.606  1.00  0.00    -0.241 C  
BRANCH  13  14
HETATM   14  C   UNL     1     -10.168  11.037  64.099  1.00  0.00    -0.419 C  
BRANCH  14  15
HETATM   15  C   UNL     1      -8.949  10.819  63.179  1.00  0.00    -0.239 C  
BRANCH  15  16
HETATM   16  C   UNL     1      -8.925   9.447  62.489  1.00  0.00    -0.229 C  
BRANCH  16  17
HETATM   17  N   UNL     1      -7.733   8.738  62.917  1.00  0.00    -0.112 NA 
HETATM   18  H2  UNL     1      -5.651   7.533  63.367  1.00  0.00     0.000 HD 
HETATM   19  H1  UNL     1      -6.436   6.413  64.545  1.00  0.00     0.000 HD 
HETATM   20  N   UNL     1      -8.651   7.217  64.490  1.00  0.00    -0.331 NA 
HETATM   21  N   UNL     1      -6.460   7.191  63.886  1.00  0.00    -0.043 NA 
HETATM   22  C   UNL     1      -7.701   7.708  63.789  1.00  0.00    -0.126 C  
HETATM   23  H   UNL     1      -6.843   9.044  62.524  1.00  0.00     0.000 HD 
HETATM   24  H1  UNL     1      -8.627   6.439  65.150  1.00  0.00     0.000 HD 
HETATM   25  H2  UNL     1      -9.560   7.665  64.373  1.00  0.00     0.000 HD 
ENDBRANCH  16  17
ENDBRANCH  15  16
ENDBRANCH  14  15
ENDBRANCH  13  14
BRANCH  13  26
HETATM   26  N   UNL     1     -10.216  12.203  66.269  1.00  0.00    -0.219 N  
HETATM   27  H   UNL     1      -9.573  12.993  66.315  1.00  0.00     0.000 HD 
BRANCH  26  28
HETATM   28  S   UNL     1     -11.777  12.311  66.951  1.00  0.00    -0.274 S  
HETATM   29  O   UNL     1     -12.002  11.131  67.745  1.00  0.00    -0.630 OA 
HETATM   30  O   UNL     1     -12.653  12.623  65.841  1.00  0.00    -0.526 OA 
BRANCH  28  31
HETATM   31  C   UNL     1     -11.641  13.739  67.995  1.00  0.00    -0.333 A  
HETATM   32  C   UNL     1     -10.427  17.363  68.025  1.00  0.00    -0.383 C  
HETATM   33  C   UNL     1     -12.046  13.593  69.331  1.00  0.00    -0.364 A  
HETATM   34  C   UNL     1      -9.177  18.623  66.236  1.00  0.00    -0.242 C  
HETATM   35  C   UNL     1     -11.956  14.666  70.212  1.00  0.00    -0.370 A  
HETATM   36  C   UNL     1      -9.585  17.245  66.751  1.00  0.00    -0.279 C  
HETATM   37  C   UNL     1     -10.394  16.470  65.720  1.00  0.00    -0.341 C  
HETATM   38  H   UNL     1     -10.543  14.309  65.589  1.00  0.00     0.000 HD 
HETATM   39  N   UNL     1     -10.677  15.119  66.196  1.00  0.00    -0.318 NA 
HETATM   40  C   UNL     1     -11.465  15.886  69.760  1.00  0.00    -0.342 A  
HETATM   41  C   UNL     1     -11.139  14.966  67.513  1.00  0.00    -0.317 A  
HETATM   42  C   UNL     1     -11.046  16.042  68.427  1.00  0.00    -0.351 A  
ENDBRANCH  28  31
ENDBRANCH  26  28
ENDBRANCH  13  26
ENDBRANCH   7  13
TORSDOF 8
ENDMDL
MODEL      154
REMARK 921   NORMALIZED FREE ENERGY PREDICTED BY IDOCK:   -5.84 KCAL/MOL
REMARK 922        TOTAL FREE ENERGY PREDICTED BY IDOCK:   -9.81 KCAL/MOL
REMARK 923 INTER-LIGAND FREE ENERGY PREDICTED BY IDOCK:   -8.13 KCAL/MOL
REMARK 924 INTRA-LIGAND FREE ENERGY PREDICTED BY IDOCK:   -1.68 KCAL/MOL
REMARK 927      BINDING AFFINITY PREDICTED BY RF-SCORE:    0.00 PKD
ROOT
HETATM    1  C   UNL     1     -12.172   7.786  72.653  1.00  0.00    -0.117 C  
HETATM    2  C   UNL     1     -10.819   7.482  72.025  1.00  0.00    -0.273 C  
HETATM    3  C   UNL     1      -9.693   8.291  72.678  1.00  0.00    -0.357 C  
HETATM    4  C   UNL     1      -8.348   8.008  72.008  1.00  0.00    -0.139 C  
HETATM    5  N   UNL     1      -8.393   8.127  70.524  1.00  0.00    -0.120 N  
HETATM    6  C   UNL     1      -9.501   7.395  69.872  1.00  0.00    -0.153 C  
HETATM    7  C   UNL     1      -7.695   9.196  69.948  1.00  0.00    -0.087 C  
HETATM    8  O   UNL     1      -7.113   9.991  70.699  1.00  0.00    -0.281 OA 
HETATM    9  O   UNL     1      -8.276   5.377  70.371  1.00  0.00    -0.101 OA 
HETATM   10  C   UNL     1     -10.838   7.776  70.518  1.00  0.00    -0.245 C  
HETATM   11  C   UNL     1      -9.391   5.868  69.826  1.00  0.00    -0.148 C  
HETATM   12  O   UNL     1     -10.243   5.140  69.342  1.00  0.00    -0.222 OA 
ENDROOT
BRANCH   7  13
HETATM   13  C   UNL     1      -7.494   9.400  68.403  1.00  0.00    -0.078 C  
BRANCH  13  14
HETATM   14  C   UNL     1      -6.492  10.473  67.899  1.00  0.00    -0.060 C  
BRANCH  14  15
HETATM   15  C   UNL     1      -7.162  11.552  67.024  1.00  0.00    -0.146 C  
BRANCH  15  16
HETATM   16  C   UNL     1      -7.745  12.729  67.820  1.00  0.00    -0.152 C  
BRANCH  16  17
HETATM   17  N   UNL     1      -8.485  13.580  66.907  1.00  0.00    -0.407 NA 
HETATM   18  H2  UNL     1      -9.600  14.881  65.159  1.00  0.00     0.000 HD 
HETATM   19  H1  UNL     1      -9.397  16.439  66.048  1.00  0.00     0.000 HD 
HETATM   20  N   UNL     1      -8.287  15.684  67.986  1.00  0.00    -0.144 NA 
HETATM   21  N   UNL     1      -9.279  15.429  65.957  1.00  0.00    -0.325 NA 
HETATM   22  C   UNL     1      -8.642  14.916  67.028  1.00  0.00    -0.238 C  
HETATM   23  H   UNL     1      -8.925  13.130  66.104  1.00  0.00     0.000 HD 
HETATM   24  H1  UNL     1      -8.405  16.693  68.077  1.00  0.00     0.000 HD 
HETATM   25  H2  UNL     1      -7.820  15.224  68.767  1.00  0.00     0.000 HD 
ENDBRANCH  16  17
ENDBRANCH  15  16
ENDBRANCH  14  15
ENDBRANCH  13  14
BRANCH  13  26
HETATM   26  N   UNL     1      -8.774   9.574  67.663  1.00  0.00    -0.122 N  
HETATM   27  H   UNL     1      -9.420  10.324  67.911  1.00  0.00     0.000 HD 
BRANCH  26  28
HETATM   28  S   UNL     1      -9.140   8.496  66.391  1.00  0.00    -0.198 S  
HETATM   29  O   UNL     1     -10.368   7.819  66.717  1.00  0.00    -0.301 OA 
HETATM   30  O   UNL     1      -7.924   7.741  66.175  1.00  0.00    -0.097 OA 
BRANCH  28  31
HETATM   31  C   UNL     1      -9.387   9.593  65.019  1.00  0.00    -0.255 A  
HETATM   32  C   UNL     1     -11.273  12.746  63.963  1.00  0.00    -0.463 C  
HETATM   33  C   UNL     1      -8.754   9.257  63.812  1.00  0.00    -0.190 A  
HETATM   34  C   UNL     1     -13.017  14.042  65.238  1.00  0.00    -0.315 C  
HETATM   35  C   UNL     1      -8.912  10.063  62.689  1.00  0.00    -0.278 A  
HETATM   36  C   UNL     1     -12.268  12.717  65.127  1.00  0.00    -0.530 C  
HETATM   37  C   UNL     1     -11.497  12.392  66.399  1.00  0.00    -0.373 C  
HETATM   38  H   UNL     1     -10.946  10.405  67.075  1.00  0.00     0.000 HD 
HETATM   39  N   UNL     1     -10.880  11.072  66.305  1.00  0.00    -0.216 NA 
HETATM   40  C   UNL     1      -9.700  11.205  62.769  1.00  0.00    -0.298 A  
HETATM   41  C   UNL     1     -10.192  10.746  65.125  1.00  0.00    -0.298 A  
HETATM   42  C   UNL     1     -10.350  11.547  63.969  1.00  0.00    -0.406 A  
ENDBRANCH  28  31
ENDBRANCH  26  28
ENDBRANCH  13  26
ENDBRANCH   7  13
TORSDOF 8
ENDMDL
MODEL      155
REMARK 921   NORMALIZED FREE ENERGY PREDICTED BY IDOCK:   -5.83 KCAL/MOL
REMARK 922        TOTAL FREE ENERGY PREDICTED BY IDOCK:   -9.80 KCAL/MOL
REMARK 923 INTER-LIGAND FREE ENERGY PREDICTED BY IDOCK:   -8.19 KCAL/MOL
REMARK 924 INTRA-LIGAND FREE ENERGY PREDICTED BY IDOCK:   -1.61 KCAL/MOL
REMARK 927      BINDING AFFINITY PREDICTED BY RF-SCORE:    0.00 PKD
ROOT
HETATM    1  C   UNL     1      -9.143   7.818  73.822  1.00  0.00    -0.333 C  
HETATM    2  C   UNL     1      -9.259   7.779  72.305  1.00  0.00    -0.207 C  
HETATM    3  C   UNL     1      -7.934   8.135  71.623  1.00  0.00    -0.144 C  
HETATM    4  C   UNL     1      -8.077   8.137  70.101  1.00  0.00    -0.113 C  
HETATM    5  N   UNL     1      -9.236   8.938  69.619  1.00  0.00    -0.148 N  
HETATM    6  C   UNL     1     -10.519   8.649  70.296  1.00  0.00    -0.210 C  
HETATM    7  C   UNL     1      -8.950  10.119  68.922  1.00  0.00    -0.155 C  
HETATM    8  O   UNL     1      -7.763  10.441  68.774  1.00  0.00    -0.090 OA 
HETATM    9  O   UNL     1     -10.545   6.578  69.058  1.00  0.00    -0.201 OA 
HETATM   10  C   UNL     1     -10.349   8.746  71.816  1.00  0.00    -0.413 C  
HETATM   11  C   UNL     1     -11.197   7.318  69.957  1.00  0.00    -0.209 C  
HETATM   12  O   UNL     1     -12.245   6.942  70.460  1.00  0.00    -0.340 OA 
ENDROOT
BRANCH   7  13
HETATM   13  C   UNL     1     -10.024  11.013  68.204  1.00  0.00    -0.177 C  
BRANCH  13  14
HETATM   14  C   UNL     1     -10.985  10.369  67.170  1.00  0.00    -0.263 C  
BRANCH  14  15
HETATM   15  C   UNL     1     -10.414  10.376  65.737  1.00  0.00    -0.187 C  
BRANCH  15  16
HETATM   16  C   UNL     1      -9.442   9.222  65.446  1.00  0.00    -0.210 C  
BRANCH  16  17
HETATM   17  N   UNL     1      -8.225   9.777  64.885  1.00  0.00    -0.133 NA 
HETATM   18  H2  UNL     1      -6.269  10.633  63.687  1.00  0.00     0.000 HD 
HETATM   19  H1  UNL     1      -5.110   9.973  64.903  1.00  0.00     0.000 HD 
HETATM   20  N   UNL     1      -6.608   8.968  66.420  1.00  0.00    -0.066 NA 
HETATM   21  N   UNL     1      -6.054  10.127  64.546  1.00  0.00    -0.126 NA 
HETATM   22  C   UNL     1      -6.976   9.574  65.357  1.00  0.00    -0.094 C  
HETATM   23  H   UNL     1      -8.321  10.372  64.061  1.00  0.00     0.000 HD 
HETATM   24  H1  UNL     1      -5.664   8.814  66.778  1.00  0.00     0.000 HD 
HETATM   25  H2  UNL     1      -7.361   8.584  66.991  1.00  0.00     0.000 HD 
ENDBRANCH  16  17
ENDBRANCH  15  16
ENDBRANCH  14  15
ENDBRANCH  13  14
BRANCH  13  26
HETATM   26  N   UNL     1      -9.452  12.248  67.601  1.00  0.00    -0.183 N  
HETATM   27  H   UNL     1      -8.877  12.197  66.760  1.00  0.00     0.000 HD 
BRANCH  26  28
HETATM   28  S   UNL     1      -9.775  13.750  68.343  1.00  0.00    -0.196 S  
HETATM   29  O   UNL     1      -8.553  14.231  68.933  1.00  0.00    -0.133 OA 
HETATM   30  O   UNL     1     -10.944  13.520  69.168  1.00  0.00    -0.239 OA 
BRANCH  28  31
HETATM   31  C   UNL     1     -10.236  14.768  66.965  1.00  0.00    -0.253 A  
HETATM   32  C   UNL     1     -10.481  18.412  65.839  1.00  0.00    -0.346 C  
HETATM   33  C   UNL     1     -10.766  14.116  65.840  1.00  0.00    -0.298 A  
HETATM   34  C   UNL     1     -10.109  20.508  67.188  1.00  0.00    -0.430 C  
HETATM   35  C   UNL     1     -11.161  14.850  64.726  1.00  0.00    -0.393 A  
HETATM   36  C   UNL     1     -10.377  19.007  67.247  1.00  0.00    -0.505 C  
HETATM   37  C   UNL     1      -9.279  18.263  67.994  1.00  0.00    -0.290 C  
HETATM   38  H   UNL     1      -9.506  16.365  69.022  1.00  0.00     0.000 HD 
HETATM   39  N   UNL     1      -9.614  16.848  68.129  1.00  0.00    -0.249 NA 
HETATM   40  C   UNL     1     -11.027  16.233  64.732  1.00  0.00    -0.288 A  
HETATM   41  C   UNL     1     -10.090  16.170  66.995  1.00  0.00    -0.270 A  
HETATM   42  C   UNL     1     -10.507  16.900  65.857  1.00  0.00    -0.294 A  
ENDBRANCH  28  31
ENDBRANCH  26  28
ENDBRANCH  13  26
ENDBRANCH   7  13
TORSDOF 8
ENDMDL
MODEL      156
REMARK 921   NORMALIZED FREE ENERGY PREDICTED BY IDOCK:   -5.81 KCAL/MOL
REMARK 922        TOTAL FREE ENERGY PREDICTED BY IDOCK:   -9.77 KCAL/MOL
REMARK 923 INTER-LIGAND FREE ENERGY PREDICTED BY IDOCK:   -8.70 KCAL/MOL
REMARK 924 INTRA-LIGAND FREE ENERGY PREDICTED BY IDOCK:   -1.07 KCAL/MOL
REMARK 927      BINDING AFFINITY PREDICTED BY RF-SCORE:    0.00 PKD
ROOT
HETATM    1  C   UNL     1     -10.836  15.733  70.463  1.00  0.00    -0.319 C  
HETATM    2  C   UNL     1     -10.690  15.534  68.961  1.00  0.00    -0.243 C  
HETATM    3  C   UNL     1     -12.021  15.151  68.306  1.00  0.00    -0.187 C  
HETATM    4  C   UNL     1     -11.850  14.910  66.806  1.00  0.00    -0.174 C  
HETATM    5  N   UNL     1     -10.731  13.984  66.481  1.00  0.00    -0.280 N  
HETATM    6  C   UNL     1      -9.446  14.302  67.141  1.00  0.00    -0.227 C  
HETATM    7  C   UNL     1     -11.071  12.727  65.963  1.00  0.00    -0.285 C  
HETATM    8  O   UNL     1     -12.272  12.451  65.834  1.00  0.00    -0.629 OA 
HETATM    9  O   UNL     1      -9.278  16.157  65.606  1.00  0.00    -0.407 OA 
HETATM   10  C   UNL     1      -9.649  14.447  68.653  1.00  0.00    -0.208 C  
HETATM   11  C   UNL     1      -8.686  15.528  66.624  1.00  0.00    -0.291 C  
HETATM   12  O   UNL     1      -7.628  15.919  67.091  1.00  0.00    -0.177 OA 
ENDROOT
BRANCH   7  13
HETATM   13  C   UNL     1     -10.037  11.679  65.417  1.00  0.00    -0.259 C  
BRANCH  13  14
HETATM   14  C   UNL     1     -10.451  10.729  64.261  1.00  0.00    -0.330 C  
BRANCH  14  15
HETATM   15  C   UNL     1      -9.599  10.927  62.991  1.00  0.00    -0.382 C  
BRANCH  15  16
HETATM   16  C   UNL     1      -8.542   9.835  62.771  1.00  0.00    -0.192 C  
BRANCH  16  17
HETATM   17  N   UNL     1      -7.906   9.549  64.044  1.00  0.00    -0.123 NA 
HETATM   18  H2  UNL     1      -7.087   9.101  66.307  1.00  0.00     0.000 HD 
HETATM   19  H1  UNL     1      -5.610  10.114  66.081  1.00  0.00     0.000 HD 
HETATM   20  N   UNL     1      -5.925  10.842  63.862  1.00  0.00    -0.373 NA 
HETATM   21  N   UNL     1      -6.487   9.709  65.750  1.00  0.00    -0.076 NA 
HETATM   22  C   UNL     1      -6.746  10.084  64.482  1.00  0.00    -0.128 C  
HETATM   23  H   UNL     1      -8.376   8.886  64.662  1.00  0.00     0.000 HD 
HETATM   24  H1  UNL     1      -5.048  11.246  64.193  1.00  0.00     0.000 HD 
HETATM   25  H2  UNL     1      -6.181  11.075  62.903  1.00  0.00     0.000 HD 
ENDBRANCH  16  17
ENDBRANCH  15  16
ENDBRANCH  14  15
ENDBRANCH  13  14
BRANCH  13  26
HETATM   26  N   UNL     1      -9.411  10.859  66.491  1.00  0.00    -0.181 N  
HETATM   27  H   UNL     1      -8.422  10.964  66.715  1.00  0.00     0.000 HD 
BRANCH  26  28
HETATM   28  S   UNL     1     -10.381   9.739  67.339  1.00  0.00    -0.254 S  
HETATM   29  O   UNL     1     -10.493   8.547  66.540  1.00  0.00    -0.256 OA 
HETATM   30  O   UNL     1     -11.567  10.479  67.720  1.00  0.00    -0.462 OA 
BRANCH  28  31
HETATM   31  C   UNL     1      -9.413   9.418  68.791  1.00  0.00    -0.150 A  
HETATM   32  C   UNL     1      -9.350   7.317  71.984  1.00  0.00    -0.150 C  
HETATM   33  C   UNL     1      -8.255  10.191  68.970  1.00  0.00    -0.132 A  
HETATM   34  C   UNL     1     -11.129   5.787  72.902  1.00  0.00    -0.321 C  
HETATM   35  C   UNL     1      -7.454  10.004  70.091  1.00  0.00    -0.176 A  
HETATM   36  C   UNL     1     -10.830   6.926  71.931  1.00  0.00    -0.258 C  
HETATM   37  C   UNL     1     -11.168   6.552  70.494  1.00  0.00    -0.344 C  
HETATM   38  H   UNL     1     -11.677   7.943  68.908  1.00  0.00     0.000 HD 
HETATM   39  N   UNL     1     -10.974   7.694  69.605  1.00  0.00    -0.190 NA 
HETATM   40  C   UNL     1      -7.805   9.045  71.035  1.00  0.00    -0.174 A  
HETATM   41  C   UNL     1      -9.792   8.439  69.734  1.00  0.00    -0.187 A  
HETATM   42  C   UNL     1      -8.969   8.272  70.873  1.00  0.00    -0.174 A  
ENDBRANCH  28  31
ENDBRANCH  26  28
ENDBRANCH  13  26
ENDBRANCH   7  13
TORSDOF 8
ENDMDL
MODEL      157
REMARK 921   NORMALIZED FREE ENERGY PREDICTED BY IDOCK:   -5.80 KCAL/MOL
REMARK 922        TOTAL FREE ENERGY PREDICTED BY IDOCK:   -9.77 KCAL/MOL
REMARK 923 INTER-LIGAND FREE ENERGY PREDICTED BY IDOCK:   -8.46 KCAL/MOL
REMARK 924 INTRA-LIGAND FREE ENERGY PREDICTED BY IDOCK:   -1.31 KCAL/MOL
REMARK 927      BINDING AFFINITY PREDICTED BY RF-SCORE:    0.00 PKD
ROOT
HETATM    1  C   UNL     1      -7.183   4.631  68.035  1.00  0.00    -0.065 C  
HETATM    2  C   UNL     1      -7.934   5.952  68.127  1.00  0.00    -0.109 C  
HETATM    3  C   UNL     1      -7.063   7.063  68.722  1.00  0.00    -0.089 C  
HETATM    4  C   UNL     1      -7.844   8.370  68.851  1.00  0.00    -0.113 C  
HETATM    5  N   UNL     1      -9.159   8.207  69.531  1.00  0.00    -0.150 N  
HETATM    6  C   UNL     1     -10.000   7.108  69.007  1.00  0.00    -0.174 C  
HETATM    7  C   UNL     1      -9.297   8.782  70.801  1.00  0.00    -0.208 C  
HETATM    8  O   UNL     1      -8.318   9.360  71.293  1.00  0.00    -0.308 OA 
HETATM    9  O   UNL     1     -10.385   8.508  67.080  1.00  0.00    -0.275 OA 
HETATM   10  C   UNL     1      -9.203   5.799  68.980  1.00  0.00    -0.133 C  
HETATM   11  C   UNL     1     -10.647   7.323  67.635  1.00  0.00    -0.246 C  
HETATM   12  O   UNL     1     -11.343   6.491  67.075  1.00  0.00    -0.342 OA 
ENDROOT
BRANCH   7  13
HETATM   13  C   UNL     1     -10.644   8.852  71.606  1.00  0.00    -0.352 C  
BRANCH  13  14
HETATM   14  C   UNL     1     -10.940   7.787  72.694  1.00  0.00    -0.422 C  
BRANCH  14  15
HETATM   15  C   UNL     1     -11.370   6.429  72.100  1.00  0.00    -0.332 C  
BRANCH  15  16
HETATM   16  C   UNL     1     -10.620   5.225  72.689  1.00  0.00    -0.228 C  
BRANCH  16  17
HETATM   17  N   UNL     1      -9.341   5.684  73.199  1.00  0.00    -0.140 NA 
HETATM   18  H2  UNL     1      -7.292   6.719  74.048  1.00  0.00     0.000 HD 
HETATM   19  H1  UNL     1      -6.226   5.702  73.003  1.00  0.00     0.000 HD 
HETATM   20  N   UNL     1      -7.841   4.399  71.884  1.00  0.00    -0.083 NA 
HETATM   21  N   UNL     1      -7.143   5.994  73.345  1.00  0.00    -0.084 NA 
HETATM   22  C   UNL     1      -8.129   5.298  72.747  1.00  0.00    -0.109 C  
HETATM   23  H   UNL     1      -9.360   6.358  73.965  1.00  0.00     0.000 HD 
HETATM   24  H1  UNL     1      -6.925   4.107  71.543  1.00  0.00     0.000 HD 
HETATM   25  H2  UNL     1      -8.637   3.906  71.481  1.00  0.00     0.000 HD 
ENDBRANCH  16  17
ENDBRANCH  15  16
ENDBRANCH  14  15
ENDBRANCH  13  14
BRANCH  13  26
HETATM   26  N   UNL     1     -11.844   8.970  70.731  1.00  0.00    -0.404 N  
HETATM   27  H   UNL     1     -11.829   8.609  69.777  1.00  0.00     0.000 HD 
BRANCH  26  28
HETATM   28  S   UNL     1     -13.244   9.720  71.356  1.00  0.00    -0.379 S  
HETATM   29  O   UNL     1     -13.315   9.434  72.765  1.00  0.00    -0.322 OA 
HETATM   30  O   UNL     1     -14.317   9.312  70.472  1.00  0.00     0.321 OA 
BRANCH  28  31
HETATM   31  C   UNL     1     -12.906  11.442  71.093  1.00  0.00    -0.341 A  
HETATM   32  C   UNL     1     -11.406  13.880  68.561  1.00  0.00    -0.311 C  
HETATM   33  C   UNL     1     -13.208  12.319  72.146  1.00  0.00    -0.466 A  
HETATM   34  C   UNL     1     -10.213  13.375  66.400  1.00  0.00    -0.293 C  
HETATM   35  C   UNL     1     -12.958  13.681  72.017  1.00  0.00    -0.427 A  
HETATM   36  C   UNL     1     -10.685  12.809  67.736  1.00  0.00    -0.237 C  
HETATM   37  C   UNL     1     -11.638  11.636  67.551  1.00  0.00    -0.272 C  
HETATM   38  H   UNL     1     -11.972  10.037  68.979  1.00  0.00     0.000 HD 
HETATM   39  N   UNL     1     -11.989  11.048  68.840  1.00  0.00    -0.472 NA 
HETATM   40  C   UNL     1     -12.410  14.170  70.837  1.00  0.00    -0.438 A  
HETATM   41  C   UNL     1     -12.349  11.913  69.886  1.00  0.00    -0.099 A  
HETATM   42  C   UNL     1     -12.093  13.300  69.778  1.00  0.00    -0.355 A  
ENDBRANCH  28  31
ENDBRANCH  26  28
ENDBRANCH  13  26
ENDBRANCH   7  13
TORSDOF 8
ENDMDL
MODEL      158
REMARK 921   NORMALIZED FREE ENERGY PREDICTED BY IDOCK:   -5.80 KCAL/MOL
REMARK 922        TOTAL FREE ENERGY PREDICTED BY IDOCK:   -9.76 KCAL/MOL
REMARK 923 INTER-LIGAND FREE ENERGY PREDICTED BY IDOCK:   -8.53 KCAL/MOL
REMARK 924 INTRA-LIGAND FREE ENERGY PREDICTED BY IDOCK:   -1.23 KCAL/MOL
REMARK 927      BINDING AFFINITY PREDICTED BY RF-SCORE:    0.00 PKD
ROOT
HETATM    1  C   UNL     1      -6.109  19.968  69.396  1.00  0.00    -0.351 C  
HETATM    2  C   UNL     1      -7.320  19.392  68.677  1.00  0.00    -0.375 C  
HETATM    3  C   UNL     1      -8.573  19.421  69.558  1.00  0.00     0.267 C  
HETATM    4  C   UNL     1      -9.770  18.799  68.839  1.00  0.00    -0.344 C  
HETATM    5  N   UNL     1      -9.476  17.461  68.254  1.00  0.00    -0.280 N  
HETATM    6  C   UNL     1      -8.243  17.394  67.439  1.00  0.00    -0.201 C  
HETATM    7  C   UNL     1     -10.107  16.356  68.839  1.00  0.00    -0.255 C  
HETATM    8  O   UNL     1     -10.841  16.549  69.818  1.00  0.00    -0.331 OA 
HETATM    9  O   UNL     1      -9.454  18.635  65.760  1.00  0.00    -0.423 OA 
HETATM   10  C   UNL     1      -7.054  17.946  68.232  1.00  0.00    -0.232 C  
HETATM   11  C   UNL     1      -8.282  18.073  66.066  1.00  0.00    -0.054 C  
HETATM   12  O   UNL     1      -7.331  18.115  65.302  1.00  0.00    -0.408 OA 
ENDROOT
BRANCH   7  13
HETATM   13  C   UNL     1     -10.048  14.892  68.272  1.00  0.00    -0.221 C  
BRANCH  13  14
HETATM   14  C   UNL     1     -11.366  14.167  67.892  1.00  0.00    -0.318 C  
BRANCH  14  15
HETATM   15  C   UNL     1     -11.798  14.435  66.436  1.00  0.00    -0.402 C  
BRANCH  15  16
HETATM   16  C   UNL     1     -12.494  13.244  65.762  1.00  0.00    -0.417 C  
BRANCH  16  17
HETATM   17  N   UNL     1     -11.488  12.448  65.084  1.00  0.00    -0.323 NA 
HETATM   18  H2  UNL     1      -9.617  11.323  63.977  1.00  0.00     0.000 HD 
HETATM   19  H1  UNL     1     -10.654  10.693  62.641  1.00  0.00     0.000 HD 
HETATM   20  N   UNL     1     -12.751  11.556  63.285  1.00  0.00    -0.720 NA 
HETATM   21  N   UNL     1     -10.515  11.218  63.505  1.00  0.00    -0.389 NA 
HETATM   22  C   UNL     1     -11.672  11.753  63.941  1.00  0.00    -0.365 C  
HETATM   23  H   UNL     1     -10.560  12.410  65.508  1.00  0.00     0.000 HD 
HETATM   24  H1  UNL     1     -12.891  11.031  62.421  1.00  0.00     0.000 HD 
HETATM   25  H2  UNL     1     -13.589  11.982  63.679  1.00  0.00     0.000 HD 
ENDBRANCH  16  17
ENDBRANCH  15  16
ENDBRANCH  14  15
ENDBRANCH  13  14
BRANCH  13  26
HETATM   26  N   UNL     1      -9.235  13.970  69.112  1.00  0.00    -0.380 N  
HETATM   27  H   UNL     1      -9.438  13.856  70.105  1.00  0.00     0.000 HD 
BRANCH  26  28
HETATM   28  S   UNL     1      -7.956  13.107  68.382  1.00  0.00    -0.103 S  
HETATM   29  O   UNL     1      -6.991  12.787  69.401  1.00  0.00    -0.024 OA 
HETATM   30  O   UNL     1      -7.570  13.903  67.234  1.00  0.00    -0.160 OA 
BRANCH  28  31
HETATM   31  C   UNL     1      -8.764  11.633  67.813  1.00  0.00    -0.152 A  
HETATM   32  C   UNL     1      -8.576   8.921  65.126  1.00  0.00    -0.208 C  
HETATM   33  C   UNL     1      -9.939  11.253  68.480  1.00  0.00    -0.206 A  
HETATM   34  C   UNL     1      -7.038   8.776  63.136  1.00  0.00    -0.089 C  
HETATM   35  C   UNL     1     -10.634  10.115  68.081  1.00  0.00    -0.262 A  
HETATM   36  C   UNL     1      -7.622   9.692  64.207  1.00  0.00    -0.128 C  
HETATM   37  C   UNL     1      -6.538  10.320  65.072  1.00  0.00    -0.114 C  
HETATM   38  H   UNL     1      -6.704  12.194  66.152  1.00  0.00     0.000 HD 
HETATM   39  N   UNL     1      -7.117  11.271  66.016  1.00  0.00     0.056 NA 
HETATM   40  C   UNL     1     -10.157   9.356  67.020  1.00  0.00    -0.304 A  
HETATM   41  C   UNL     1      -8.259  10.880  66.733  1.00  0.00    -0.140 A  
HETATM   42  C   UNL     1      -8.986   9.732  66.336  1.00  0.00    -0.176 A  
ENDBRANCH  28  31
ENDBRANCH  26  28
ENDBRANCH  13  26
ENDBRANCH   7  13
TORSDOF 8
ENDMDL
MODEL      159
REMARK 921   NORMALIZED FREE ENERGY PREDICTED BY IDOCK:   -5.79 KCAL/MOL
REMARK 922        TOTAL FREE ENERGY PREDICTED BY IDOCK:   -9.75 KCAL/MOL
REMARK 923 INTER-LIGAND FREE ENERGY PREDICTED BY IDOCK:   -8.03 KCAL/MOL
REMARK 924 INTRA-LIGAND FREE ENERGY PREDICTED BY IDOCK:   -1.72 KCAL/MOL
REMARK 927      BINDING AFFINITY PREDICTED BY RF-SCORE:    0.00 PKD
ROOT
HETATM    1  C   UNL     1     -12.505  15.341  64.238  1.00  0.00    -0.015 C  
HETATM    2  C   UNL     1     -11.934  14.016  64.723  1.00  0.00    -0.432 C  
HETATM    3  C   UNL     1     -12.526  13.600  66.074  1.00  0.00    -0.477 C  
HETATM    4  C   UNL     1     -11.910  12.291  66.569  1.00  0.00    -0.306 C  
HETATM    5  N   UNL     1     -10.421  12.292  66.538  1.00  0.00    -0.224 N  
HETATM    6  C   UNL     1      -9.823  12.737  65.261  1.00  0.00    -0.101 C  
HETATM    7  C   UNL     1      -9.757  12.289  67.772  1.00  0.00    -0.199 C  
HETATM    8  O   UNL     1     -10.440  12.318  68.806  1.00  0.00    -0.220 OA 
HETATM    9  O   UNL     1     -10.536  10.618  64.351  1.00  0.00    -0.350 OA 
HETATM   10  C   UNL     1     -10.405  14.094  64.849  1.00  0.00    -0.435 C  
HETATM   11  C   UNL     1      -9.927  11.773  64.074  1.00  0.00    -0.293 C  
HETATM   12  O   UNL     1      -9.499  12.022  62.958  1.00  0.00    -0.332 OA 
ENDROOT
BRANCH   7  13
HETATM   13  C   UNL     1      -8.205  12.133  67.948  1.00  0.00    -0.155 C  
BRANCH  13  14
HETATM   14  C   UNL     1      -7.602  10.724  68.193  1.00  0.00    -0.093 C  
BRANCH  14  15
HETATM   15  C   UNL     1      -8.509   9.588  67.677  1.00  0.00    -0.122 C  
BRANCH  15  16
HETATM   16  C   UNL     1      -8.365   8.271  68.455  1.00  0.00    -0.129 C  
BRANCH  16  17
HETATM   17  N   UNL     1      -8.816   8.491  69.817  1.00  0.00    -0.135 NA 
HETATM   18  H2  UNL     1      -9.334   8.748  72.196  1.00  0.00     0.000 HD 
HETATM   19  H1  UNL     1     -11.035   8.180  71.990  1.00  0.00     0.000 HD 
HETATM   20  N   UNL     1     -11.072   7.772  69.669  1.00  0.00    -0.439 NA 
HETATM   21  N   UNL     1     -10.108   8.406  71.627  1.00  0.00    -0.217 NA 
HETATM   22  C   UNL     1     -10.042   8.193  70.298  1.00  0.00    -0.192 C  
HETATM   23  H   UNL     1      -8.149   8.908  70.468  1.00  0.00     0.000 HD 
HETATM   24  H1  UNL     1     -11.999   7.546  70.032  1.00  0.00     0.000 HD 
HETATM   25  H2  UNL     1     -10.952   7.643  68.665  1.00  0.00     0.000 HD 
ENDBRANCH  16  17
ENDBRANCH  15  16
ENDBRANCH  14  15
ENDBRANCH  13  14
BRANCH  13  26
HETATM   26  N   UNL     1      -7.632  13.065  68.958  1.00  0.00    -0.323 N  
HETATM   27  H   UNL     1      -7.630  12.821  69.949  1.00  0.00     0.000 HD 
BRANCH  26  28
HETATM   28  S   UNL     1      -6.979  14.550  68.427  1.00  0.00    -0.120 S  
HETATM   29  O   UNL     1      -6.134  14.288  67.291  1.00  0.00    -0.302 OA 
HETATM   30  O   UNL     1      -6.432  15.169  69.617  1.00  0.00    -0.137 OA 
BRANCH  28  31
HETATM   31  C   UNL     1      -8.425  15.447  67.925  1.00  0.00    -0.147 A  
HETATM   32  C   UNL     1     -12.013  16.241  68.976  1.00  0.00     0.060 C  
HETATM   33  C   UNL     1      -8.371  16.100  66.683  1.00  0.00    -0.321 A  
HETATM   34  C   UNL     1     -13.333  15.309  70.910  1.00  0.00    -0.475 C  
HETATM   35  C   UNL     1      -9.472  16.812  66.217  1.00  0.00    -0.314 A  
HETATM   36  C   UNL     1     -12.113  15.118  70.014  1.00  0.00    -0.384 C  
HETATM   37  C   UNL     1     -10.817  15.098  70.814  1.00  0.00    -0.151 C  
HETATM   38  H   UNL     1      -8.974  14.121  70.217  1.00  0.00     0.000 HD 
HETATM   39  N   UNL     1      -9.680  14.806  69.946  1.00  0.00     0.194 NA 
HETATM   40  C   UNL     1     -10.625  16.876  66.990  1.00  0.00    -0.230 A  
HETATM   41  C   UNL     1      -9.584  15.496  68.727  1.00  0.00    -0.208 A  
HETATM   42  C   UNL     1     -10.696  16.217  68.231  1.00  0.00    -0.307 A  
ENDBRANCH  28  31
ENDBRANCH  26  28
ENDBRANCH  13  26
ENDBRANCH   7  13
TORSDOF 8
ENDMDL
MODEL      160
REMARK 921   NORMALIZED FREE ENERGY PREDICTED BY IDOCK:   -5.78 KCAL/MOL
REMARK 922        TOTAL FREE ENERGY PREDICTED BY IDOCK:   -9.73 KCAL/MOL
REMARK 923 INTER-LIGAND FREE ENERGY PREDICTED BY IDOCK:   -8.41 KCAL/MOL
REMARK 924 INTRA-LIGAND FREE ENERGY PREDICTED BY IDOCK:   -1.33 KCAL/MOL
REMARK 927      BINDING AFFINITY PREDICTED BY RF-SCORE:    0.00 PKD
ROOT
HETATM    1  C   UNL     1      -8.232   5.849  70.896  1.00  0.00    -0.125 C  
HETATM    2  C   UNL     1      -8.154   6.159  69.407  1.00  0.00    -0.112 C  
HETATM    3  C   UNL     1      -6.707   6.346  68.939  1.00  0.00    -0.060 C  
HETATM    4  C   UNL     1      -6.648   6.701  67.453  1.00  0.00    -0.057 C  
HETATM    5  N   UNL     1      -7.552   7.823  67.079  1.00  0.00    -0.098 N  
HETATM    6  C   UNL     1      -8.944   7.692  67.562  1.00  0.00    -0.126 C  
HETATM    7  C   UNL     1      -6.948   9.031  66.703  1.00  0.00    -0.081 C  
HETATM    8  O   UNL     1      -5.712   9.104  66.733  1.00  0.00    -0.046 OA 
HETATM    9  O   UNL     1      -9.219   5.987  65.876  1.00  0.00    -0.146 OA 
HETATM   10  C   UNL     1      -8.957   7.425  69.071  1.00  0.00    -0.131 C  
HETATM   11  C   UNL     1      -9.823   6.647  66.866  1.00  0.00    -0.171 C  
HETATM   12  O   UNL     1     -10.980   6.417  67.179  1.00  0.00    -0.354 OA 
ENDROOT
BRANCH   7  13
HETATM   13  C   UNL     1      -7.721  10.272  66.129  1.00  0.00    -0.123 C  
BRANCH  13  14
HETATM   14  C   UNL     1      -7.893  10.420  64.594  1.00  0.00    -0.077 C  
BRANCH  14  15
HETATM   15  C   UNL     1      -9.325  10.098  64.119  1.00  0.00    -0.340 C  
BRANCH  15  16
HETATM   16  C   UNL     1      -9.757  10.875  62.867  1.00  0.00    -0.317 C  
BRANCH  16  17
HETATM   17  N   UNL     1     -11.151  11.251  63.018  1.00  0.00    -0.841 NA 
HETATM   18  H2  UNL     1     -13.541  11.777  63.016  1.00  0.00     0.000 HD 
HETATM   19  H1  UNL     1     -13.283  13.420  63.717  1.00  0.00     0.000 HD 
HETATM   20  N   UNL     1     -10.937  13.424  63.946  1.00  0.00    -0.546 NA 
HETATM   21  N   UNL     1     -12.943  12.520  63.377  1.00  0.00    -0.624 NA 
HETATM   22  C   UNL     1     -11.601  12.441  63.468  1.00  0.00    -0.497 C  
HETATM   23  H   UNL     1     -11.852  10.554  62.761  1.00  0.00     0.000 HD 
HETATM   24  H1  UNL     1     -11.277  14.324  64.286  1.00  0.00     0.000 HD 
HETATM   25  H2  UNL     1      -9.927  13.289  63.994  1.00  0.00     0.000 HD 
ENDBRANCH  16  17
ENDBRANCH  15  16
ENDBRANCH  14  15
ENDBRANCH  13  14
BRANCH  13  26
HETATM   26  N   UNL     1      -7.229  11.570  66.669  1.00  0.00    -0.298 N  
HETATM   27  H   UNL     1      -6.681  12.202  66.085  1.00  0.00     0.000 HD 
BRANCH  26  28
HETATM   28  S   UNL     1      -7.601  11.980  68.284  1.00  0.00    -0.124 S  
HETATM   29  O   UNL     1      -6.705  13.028  68.698  1.00  0.00    -0.083 OA 
HETATM   30  O   UNL     1      -7.629  10.719  68.997  1.00  0.00    -0.106 OA 
BRANCH  28  31
HETATM   31  C   UNL     1      -9.257  12.602  68.151  1.00  0.00    -0.209 A  
HETATM   32  C   UNL     1     -11.270  15.618  66.943  1.00  0.00    -0.106 C  
HETATM   33  C   UNL     1     -10.280  11.813  68.699  1.00  0.00    -0.211 A  
HETATM   34  C   UNL     1     -10.431  17.829  66.073  1.00  0.00    -0.286 C  
HETATM   35  C   UNL     1     -11.602  12.242  68.643  1.00  0.00    -0.372 A  
HETATM   36  C   UNL     1     -10.071  16.567  66.852  1.00  0.00    -0.281 C  
HETATM   37  C   UNL     1      -8.919  15.810  66.205  1.00  0.00    -0.345 C  
HETATM   38  H   UNL     1      -7.543  14.480  67.229  1.00  0.00     0.000 HD 
HETATM   39  N   UNL     1      -8.525  14.669  67.027  1.00  0.00    -0.221 NA 
HETATM   40  C   UNL     1     -11.905  13.457  68.039  1.00  0.00    -0.392 A  
HETATM   41  C   UNL     1      -9.538  13.838  67.533  1.00  0.00    -0.219 A  
HETATM   42  C   UNL     1     -10.887  14.262  67.496  1.00  0.00    -0.284 A  
ENDBRANCH  28  31
ENDBRANCH  26  28
ENDBRANCH  13  26
ENDBRANCH   7  13
TORSDOF 8
ENDMDL
MODEL      161
REMARK 921   NORMALIZED FREE ENERGY PREDICTED BY IDOCK:   -5.78 KCAL/MOL
REMARK 922        TOTAL FREE ENERGY PREDICTED BY IDOCK:   -9.73 KCAL/MOL
REMARK 923 INTER-LIGAND FREE ENERGY PREDICTED BY IDOCK:   -8.42 KCAL/MOL
REMARK 924 INTRA-LIGAND FREE ENERGY PREDICTED BY IDOCK:   -1.31 KCAL/MOL
REMARK 927      BINDING AFFINITY PREDICTED BY RF-SCORE:    0.00 PKD
ROOT
HETATM    1  C   UNL     1      -9.647   3.879  69.730  1.00  0.00    -0.271 C  
HETATM    2  C   UNL     1      -9.338   5.309  69.311  1.00  0.00    -0.167 C  
HETATM    3  C   UNL     1      -8.450   6.024  70.336  1.00  0.00    -0.132 C  
HETATM    4  C   UNL     1      -8.185   7.472  69.924  1.00  0.00    -0.131 C  
HETATM    5  N   UNL     1      -9.424   8.222  69.575  1.00  0.00    -0.161 N  
HETATM    6  C   UNL     1     -10.323   7.531  68.624  1.00  0.00    -0.200 C  
HETATM    7  C   UNL     1      -9.817   9.247  70.445  1.00  0.00    -0.241 C  
HETATM    8  O   UNL     1      -9.137   9.448  71.460  1.00  0.00    -0.275 OA 
HETATM    9  O   UNL     1      -8.694   8.051  66.922  1.00  0.00    -0.124 OA 
HETATM   10  C   UNL     1     -10.632   6.115  69.122  1.00  0.00    -0.345 C  
HETATM   11  C   UNL     1      -9.863   7.454  67.165  1.00  0.00    -0.193 C  
HETATM   12  O   UNL     1     -10.494   6.894  66.283  1.00  0.00     0.058 OA 
ENDROOT
BRANCH   7  13
HETATM   13  C   UNL     1     -10.997  10.246  70.169  1.00  0.00    -0.314 C  
BRANCH  13  14
HETATM   14  C   UNL     1     -12.356  10.041  70.891  1.00  0.00    -0.438 C  
BRANCH  14  15
HETATM   15  C   UNL     1     -12.586   8.579  71.328  1.00  0.00    -0.248 C  
BRANCH  15  16
HETATM   16  C   UNL     1     -12.608   8.379  72.851  1.00  0.00     0.185 C  
BRANCH  16  17
HETATM   17  N   UNL     1     -11.335   7.813  73.258  1.00  0.00    -0.587 NA 
HETATM   18  H2  UNL     1      -9.068   7.067  73.800  1.00  0.00     0.000 HD 
HETATM   19  H1  UNL     1      -9.460   5.330  73.502  1.00  0.00     0.000 HD 
HETATM   20  N   UNL     1     -11.735   5.501  72.908  1.00  0.00    -0.519 NA 
HETATM   21  N   UNL     1      -9.711   6.319  73.541  1.00  0.00    -0.159 NA 
HETATM   22  C   UNL     1     -11.003   6.506  73.207  1.00  0.00    -0.195 C  
HETATM   23  H   UNL     1     -10.630   8.460  73.614  1.00  0.00     0.000 HD 
HETATM   24  H1  UNL     1     -11.484   4.513  72.869  1.00  0.00     0.000 HD 
HETATM   25  H2  UNL     1     -12.704   5.717  72.676  1.00  0.00     0.000 HD 
ENDBRANCH  16  17
ENDBRANCH  15  16
ENDBRANCH  14  15
ENDBRANCH  13  14
BRANCH  13  26
HETATM   26  N   UNL     1     -11.267  10.448  68.719  1.00  0.00    -0.336 N  
HETATM   27  H   UNL     1     -11.307   9.652  68.082  1.00  0.00     0.000 HD 
BRANCH  26  28
HETATM   28  S   UNL     1     -11.509  12.037  68.143  1.00  0.00    -0.343 S  
HETATM   29  O   UNL     1     -12.160  12.795  69.180  1.00  0.00    -0.261 OA 
HETATM   30  O   UNL     1     -12.140  11.877  66.849  1.00  0.00    -0.599 OA 
BRANCH  28  31
HETATM   31  C   UNL     1      -9.849  12.615  67.906  1.00  0.00    -0.218 A  
HETATM   32  C   UNL     1      -7.821  15.761  67.131  1.00  0.00    -0.247 C  
HETATM   33  C   UNL     1      -8.827  11.653  67.940  1.00  0.00    -0.155 A  
HETATM   34  C   UNL     1      -8.648  18.061  66.521  1.00  0.00    -0.280 C  
HETATM   35  C   UNL     1      -7.502  12.031  67.749  1.00  0.00    -0.121 A  
HETATM   36  C   UNL     1      -9.012  16.584  66.631  1.00  0.00    -0.285 C  
HETATM   37  C   UNL     1     -10.177  16.355  67.584  1.00  0.00    -0.272 C  
HETATM   38  H   UNL     1     -11.555  14.679  67.523  1.00  0.00     0.000 HD 
HETATM   39  N   UNL     1     -10.573  14.949  67.587  1.00  0.00    -0.260 NA 
HETATM   40  C   UNL     1      -7.195  13.368  67.526  1.00  0.00    -0.163 A  
HETATM   41  C   UNL     1      -9.563  13.978  67.680  1.00  0.00    -0.221 A  
HETATM   42  C   UNL     1      -8.210  14.341  67.478  1.00  0.00    -0.201 A  
ENDBRANCH  28  31
ENDBRANCH  26  28
ENDBRANCH  13  26
ENDBRANCH   7  13
TORSDOF 8
ENDMDL
MODEL      162
REMARK 921   NORMALIZED FREE ENERGY PREDICTED BY IDOCK:   -5.77 KCAL/MOL
REMARK 922        TOTAL FREE ENERGY PREDICTED BY IDOCK:   -9.72 KCAL/MOL
REMARK 923 INTER-LIGAND FREE ENERGY PREDICTED BY IDOCK:   -7.52 KCAL/MOL
REMARK 924 INTRA-LIGAND FREE ENERGY PREDICTED BY IDOCK:   -2.20 KCAL/MOL
REMARK 927      BINDING AFFINITY PREDICTED BY RF-SCORE:    0.00 PKD
ROOT
HETATM    1  C   UNL     1      -8.786   5.465  70.365  1.00  0.00    -0.144 C  
HETATM    2  C   UNL     1      -8.548   5.712  68.882  1.00  0.00    -0.101 C  
HETATM    3  C   UNL     1      -7.060   5.906  68.569  1.00  0.00    -0.081 C  
HETATM    4  C   UNL     1      -6.841   6.198  67.084  1.00  0.00    -0.063 C  
HETATM    5  N   UNL     1      -7.713   7.286  66.562  1.00  0.00    -0.092 N  
HETATM    6  C   UNL     1      -9.148   7.148  66.893  1.00  0.00    -0.141 C  
HETATM    7  C   UNL     1      -7.088   8.487  66.201  1.00  0.00    -0.077 C  
HETATM    8  O   UNL     1      -5.864   8.584  66.365  1.00  0.00    -0.046 OA 
HETATM    9  O   UNL     1      -9.210   5.368  65.265  1.00  0.00    -0.112 OA 
HETATM   10  C   UNL     1      -9.325   6.947  68.402  1.00  0.00    -0.129 C  
HETATM   11  C   UNL     1      -9.929   6.059  66.152  1.00  0.00     0.051 C  
HETATM   12  O   UNL     1     -11.111   5.820  66.345  1.00  0.00    -0.151 OA 
ENDROOT
BRANCH   7  13
HETATM   13  C   UNL     1      -7.809   9.687  65.490  1.00  0.00    -0.111 C  
BRANCH  13  14
HETATM   14  C   UNL     1      -7.745   9.808  63.944  1.00  0.00    -0.136 C  
BRANCH  14  15
HETATM   15  C   UNL     1      -9.124   9.638  63.273  1.00  0.00    -0.223 C  
BRANCH  15  16
HETATM   16  C   UNL     1      -9.792  10.962  62.875  1.00  0.00    -0.277 C  
BRANCH  16  17
HETATM   17  N   UNL     1     -11.084  11.040  63.532  1.00  0.00    -0.578 NA 
HETATM   18  H2  UNL     1     -13.323  10.926  64.515  1.00  0.00     0.000 HD 
HETATM   19  H1  UNL     1     -13.661  12.671  64.195  1.00  0.00     0.000 HD 
HETATM   20  N   UNL     1     -11.638  13.319  63.175  1.00  0.00    -0.658 NA 
HETATM   21  N   UNL     1     -13.061  11.846  64.159  1.00  0.00    -0.599 NA 
HETATM   22  C   UNL     1     -11.878  12.131  63.580  1.00  0.00    -0.516 C  
HETATM   23  H   UNL     1     -11.422  10.197  63.998  1.00  0.00     0.000 HD 
HETATM   24  H1  UNL     1     -12.238  14.144  63.211  1.00  0.00     0.000 HD 
HETATM   25  H2  UNL     1     -10.719  13.463  62.757  1.00  0.00     0.000 HD 
ENDBRANCH  16  17
ENDBRANCH  15  16
ENDBRANCH  14  15
ENDBRANCH  13  14
BRANCH  13  26
HETATM   26  N   UNL     1      -7.459  11.011  66.075  1.00  0.00    -0.322 N  
HETATM   27  H   UNL     1      -6.551  11.437  65.891  1.00  0.00     0.000 HD 
BRANCH  26  28
HETATM   28  S   UNL     1      -8.608  11.803  67.059  1.00  0.00    -0.177 S  
HETATM   29  O   UNL     1      -9.901  11.662  66.441  1.00  0.00    -0.199 OA 
HETATM   30  O   UNL     1      -8.053  13.119  67.302  1.00  0.00    -0.174 OA 
BRANCH  28  31
HETATM   31  C   UNL     1      -8.538  10.863  68.562  1.00  0.00    -0.152 A  
HETATM   32  C   UNL     1     -10.726   9.489  71.379  1.00  0.00    -0.348 C  
HETATM   33  C   UNL     1      -7.267  10.469  69.009  1.00  0.00    -0.090 A  
HETATM   34  C   UNL     1     -13.178   9.882  71.807  1.00  0.00    -0.535 C  
HETATM   35  C   UNL     1      -7.133   9.740  70.186  1.00  0.00    -0.130 A  
HETATM   36  C   UNL     1     -11.936  10.375  71.069  1.00  0.00    -0.481 C  
HETATM   37  C   UNL     1     -12.139  10.387  69.560  1.00  0.00    -0.054 C  
HETATM   38  H   UNL     1     -11.090  11.659  68.149  1.00  0.00     0.000 HD 
HETATM   39  N   UNL     1     -10.978  10.963  68.888  1.00  0.00    -0.210 NA 
HETATM   40  C   UNL     1      -8.266   9.402  70.918  1.00  0.00    -0.103 A  
HETATM   41  C   UNL     1      -9.702  10.533  69.286  1.00  0.00    -0.196 A  
HETATM   42  C   UNL     1      -9.544   9.801  70.486  1.00  0.00    -0.166 A  
ENDBRANCH  28  31
ENDBRANCH  26  28
ENDBRANCH  13  26
ENDBRANCH   7  13
TORSDOF 8
ENDMDL
MODEL      163
REMARK 921   NORMALIZED FREE ENERGY PREDICTED BY IDOCK:   -5.77 KCAL/MOL
REMARK 922        TOTAL FREE ENERGY PREDICTED BY IDOCK:   -9.72 KCAL/MOL
REMARK 923 INTER-LIGAND FREE ENERGY PREDICTED BY IDOCK:   -9.16 KCAL/MOL
REMARK 924 INTRA-LIGAND FREE ENERGY PREDICTED BY IDOCK:   -0.56 KCAL/MOL
REMARK 927      BINDING AFFINITY PREDICTED BY RF-SCORE:    0.00 PKD
ROOT
HETATM    1  C   UNL     1     -10.399  19.457  67.858  1.00  0.00    -0.542 C  
HETATM    2  C   UNL     1     -10.127  18.134  68.559  1.00  0.00    -0.413 C  
HETATM    3  C   UNL     1      -8.634  17.788  68.563  1.00  0.00    -0.291 C  
HETATM    4  C   UNL     1      -8.381  16.436  69.230  1.00  0.00    -0.101 C  
HETATM    5  N   UNL     1      -9.250  15.347  68.705  1.00  0.00    -0.190 N  
HETATM    6  C   UNL     1     -10.691  15.674  68.644  1.00  0.00    -0.256 C  
HETATM    7  C   UNL     1      -8.628  14.338  67.957  1.00  0.00    -0.169 C  
HETATM    8  O   UNL     1      -7.409  14.426  67.753  1.00  0.00    -0.138 OA 
HETATM    9  O   UNL     1     -10.697  15.466  71.048  1.00  0.00    -0.272 OA 
HETATM   10  C   UNL     1     -10.904  16.991  67.889  1.00  0.00    -0.302 C  
HETATM   11  C   UNL     1     -11.444  15.739  69.976  1.00  0.00    -0.356 C  
HETATM   12  O   UNL     1     -12.628  16.021  70.074  1.00  0.00    -0.226 OA 
ENDROOT
BRANCH   7  13
HETATM   13  C   UNL     1      -9.342  13.033  67.454  1.00  0.00    -0.209 C  
BRANCH  13  14
HETATM   14  C   UNL     1      -9.746  12.911  65.961  1.00  0.00    -0.228 C  
BRANCH  14  15
HETATM   15  C   UNL     1     -10.245  14.243  65.365  1.00  0.00    -0.395 C  
BRANCH  15  16
HETATM   16  C   UNL     1     -11.770  14.418  65.416  1.00  0.00    -0.362 C  
BRANCH  16  17
HETATM   17  N   UNL     1     -12.388  13.200  64.923  1.00  0.00    -0.448 NA 
HETATM   18  H2  UNL     1     -13.258  11.009  64.267  1.00  0.00     0.000 HD 
HETATM   19  H1  UNL     1     -13.272  11.429  62.511  1.00  0.00     0.000 HD 
HETATM   20  N   UNL     1     -12.462  13.641  62.593  1.00  0.00    -0.616 NA 
HETATM   21  N   UNL     1     -13.096  11.652  63.491  1.00  0.00    -0.347 NA 
HETATM   22  C   UNL     1     -12.621  12.905  63.627  1.00  0.00    -0.232 C  
HETATM   23  H   UNL     1     -12.670  12.507  65.617  1.00  0.00     0.000 HD 
HETATM   24  H1  UNL     1     -12.638  13.418  61.613  1.00  0.00     0.000 HD 
HETATM   25  H2  UNL     1     -12.109  14.580  62.773  1.00  0.00     0.000 HD 
ENDBRANCH  16  17
ENDBRANCH  15  16
ENDBRANCH  14  15
ENDBRANCH  13  14
BRANCH  13  26
HETATM   26  N   UNL     1     -10.516  12.650  68.286  1.00  0.00    -0.233 N  
HETATM   27  H   UNL     1     -10.878  13.284  68.998  1.00  0.00     0.000 HD 
BRANCH  26  28
HETATM   28  S   UNL     1     -11.244  11.128  68.026  1.00  0.00    -0.312 S  
HETATM   29  O   UNL     1     -11.514  10.994  66.618  1.00  0.00    -0.291 OA 
HETATM   30  O   UNL     1     -12.325  11.057  68.988  1.00  0.00    -0.481 OA 
BRANCH  28  31
HETATM   31  C   UNL     1      -9.964  10.002  68.518  1.00  0.00    -0.162 A  
HETATM   32  C   UNL     1      -7.542   7.384  67.142  1.00  0.00    -0.107 C  
HETATM   33  C   UNL     1      -9.686   9.912  69.891  1.00  0.00    -0.274 A  
HETATM   34  C   UNL     1      -7.387   6.450  64.807  1.00  0.00    -0.076 C  
HETATM   35  C   UNL     1      -8.704   9.041  70.352  1.00  0.00    -0.224 A  
HETATM   36  C   UNL     1      -8.261   7.210  65.801  1.00  0.00    -0.132 C  
HETATM   37  C   UNL     1      -8.639   8.592  65.285  1.00  0.00    -0.180 C  
HETATM   38  H   UNL     1     -10.398   9.723  65.862  1.00  0.00     0.000 HD 
HETATM   39  N   UNL     1      -9.561   9.252  66.206  1.00  0.00    -0.226 NA 
HETATM   40  C   UNL     1      -7.998   8.260  69.444  1.00  0.00    -0.113 A  
HETATM   41  C   UNL     1      -9.262   9.220  67.577  1.00  0.00    -0.124 A  
HETATM   42  C   UNL     1      -8.275   8.332  68.067  1.00  0.00    -0.128 A  
ENDBRANCH  28  31
ENDBRANCH  26  28
ENDBRANCH  13  26
ENDBRANCH   7  13
TORSDOF 8
ENDMDL
MODEL      164
REMARK 921   NORMALIZED FREE ENERGY PREDICTED BY IDOCK:   -5.76 KCAL/MOL
REMARK 922        TOTAL FREE ENERGY PREDICTED BY IDOCK:   -9.70 KCAL/MOL
REMARK 923 INTER-LIGAND FREE ENERGY PREDICTED BY IDOCK:  -10.19 KCAL/MOL
REMARK 924 INTRA-LIGAND FREE ENERGY PREDICTED BY IDOCK:    0.50 KCAL/MOL
REMARK 927      BINDING AFFINITY PREDICTED BY RF-SCORE:    0.00 PKD
ROOT
HETATM    1  C   UNL     1     -14.115  15.005  71.559  1.00  0.00    -0.613 C  
HETATM    2  C   UNL     1     -12.780  14.967  70.830  1.00  0.00    -0.438 C  
HETATM    3  C   UNL     1     -11.781  15.970  71.417  1.00  0.00    -0.536 C  
HETATM    4  C   UNL     1     -10.461  15.954  70.646  1.00  0.00     0.154 C  
HETATM    5  N   UNL     1     -10.638  16.073  69.172  1.00  0.00    -0.240 N  
HETATM    6  C   UNL     1     -11.633  15.149  68.586  1.00  0.00    -0.338 C  
HETATM    7  C   UNL     1     -10.199  17.260  68.571  1.00  0.00    -0.358 C  
HETATM    8  O   UNL     1      -9.723  18.145  69.296  1.00  0.00    -0.144 OA 
HETATM    9  O   UNL     1     -10.015  13.397  68.952  1.00  0.00    -0.109 OA 
HETATM   10  C   UNL     1     -12.966  15.265  69.334  1.00  0.00     0.555 C  
HETATM   11  C   UNL     1     -11.240  13.671  68.499  1.00  0.00    -0.280 C  
HETATM   12  O   UNL     1     -11.973  12.798  68.062  1.00  0.00    -0.346 OA 
ENDROOT
BRANCH   7  13
HETATM   13  C   UNL     1     -10.156  17.510  67.021  1.00  0.00    -0.323 C  
BRANCH  13  14
HETATM   14  C   UNL     1      -9.597  16.406  66.085  1.00  0.00    -0.356 C  
BRANCH  14  15
HETATM   15  C   UNL     1     -10.699  15.697  65.271  1.00  0.00    -0.444 C  
BRANCH  15  16
HETATM   16  C   UNL     1     -10.377  14.235  64.927  1.00  0.00    -0.401 C  
BRANCH  16  17
HETATM   17  N   UNL     1     -11.597  13.590  64.478  1.00  0.00    -0.365 NA 
HETATM   18  H2  UNL     1     -13.737  12.507  63.989  1.00  0.00     0.000 HD 
HETATM   19  H1  UNL     1     -12.987  11.302  62.873  1.00  0.00     0.000 HD 
HETATM   20  N   UNL     1     -10.728  11.965  62.984  1.00  0.00    -0.675 NA 
HETATM   21  N   UNL     1     -12.934  12.098  63.510  1.00  0.00    -0.784 NA 
HETATM   22  C   UNL     1     -11.667  12.537  63.635  1.00  0.00    -0.515 C  
HETATM   23  H   UNL     1     -12.479  13.965  64.829  1.00  0.00     0.000 HD 
HETATM   24  H1  UNL     1     -10.780  11.169  62.347  1.00  0.00     0.000 HD 
HETATM   25  H2  UNL     1      -9.796  12.357  63.120  1.00  0.00     0.000 HD 
ENDBRANCH  16  17
ENDBRANCH  15  16
ENDBRANCH  14  15
ENDBRANCH  13  14
BRANCH  13  26
HETATM   26  N   UNL     1      -9.512  18.802  66.653  1.00  0.00    -0.319 N  
HETATM   27  H   UNL     1     -10.050  19.669  66.653  1.00  0.00     0.000 HD 
BRANCH  26  28
HETATM   28  S   UNL     1      -7.858  18.804  66.232  1.00  0.00    -0.245 S  
HETATM   29  O   UNL     1      -7.573  20.034  65.541  1.00  0.00    -0.312 OA 
HETATM   30  O   UNL     1      -7.633  17.530  65.580  1.00  0.00    -0.480 OA 
BRANCH  28  31
HETATM   31  C   UNL     1      -7.059  18.788  67.816  1.00  0.00    -0.223 A  
HETATM   32  C   UNL     1      -5.572  16.433  70.434  1.00  0.00    -0.142 C  
HETATM   33  C   UNL     1      -6.910  20.023  68.467  1.00  0.00    -0.336 A  
HETATM   34  C   UNL     1      -5.599  13.914  70.487  1.00  0.00    -0.147 C  
HETATM   35  C   UNL     1      -6.304  20.087  69.718  1.00  0.00    -0.389 A  
HETATM   36  C   UNL     1      -6.227  15.165  69.878  1.00  0.00    -0.154 C  
HETATM   37  C   UNL     1      -6.090  15.189  68.362  1.00  0.00    -0.107 C  
HETATM   38  H   UNL     1      -7.401  16.236  66.987  1.00  0.00     0.000 HD 
HETATM   39  N   UNL     1      -6.792  16.339  67.799  1.00  0.00    -0.125 NA 
HETATM   40  C   UNL     1      -5.846  18.920  70.320  1.00  0.00    -0.214 A  
HETATM   41  C   UNL     1      -6.603  17.591  68.406  1.00  0.00    -0.190 A  
HETATM   42  C   UNL     1      -6.000  17.675  69.683  1.00  0.00    -0.254 A  
ENDBRANCH  28  31
ENDBRANCH  26  28
ENDBRANCH  13  26
ENDBRANCH   7  13
TORSDOF 8
ENDMDL
MODEL      165
REMARK 921   NORMALIZED FREE ENERGY PREDICTED BY IDOCK:   -5.75 KCAL/MOL
REMARK 922        TOTAL FREE ENERGY PREDICTED BY IDOCK:   -9.69 KCAL/MOL
REMARK 923 INTER-LIGAND FREE ENERGY PREDICTED BY IDOCK:   -9.14 KCAL/MOL
REMARK 924 INTRA-LIGAND FREE ENERGY PREDICTED BY IDOCK:   -0.55 KCAL/MOL
REMARK 927      BINDING AFFINITY PREDICTED BY RF-SCORE:    0.00 PKD
ROOT
HETATM    1  C   UNL     1     -12.328  16.327  73.979  1.00  0.00    -0.650 C  
HETATM    2  C   UNL     1     -12.571  15.716  72.606  1.00  0.00    -0.532 C  
HETATM    3  C   UNL     1     -13.654  14.633  72.649  1.00  0.00    -0.571 C  
HETATM    4  C   UNL     1     -13.856  13.997  71.273  1.00  0.00    -0.105 C  
HETATM    5  N   UNL     1     -12.585  13.552  70.638  1.00  0.00    -0.305 N  
HETATM    6  C   UNL     1     -11.505  14.563  70.628  1.00  0.00    -0.163 C  
HETATM    7  C   UNL     1     -12.387  12.171  70.504  1.00  0.00    -0.272 C  
HETATM    8  O   UNL     1     -13.257  11.408  70.944  1.00  0.00    -0.075 OA 
HETATM    9  O   UNL     1     -12.775  15.699  68.919  1.00  0.00     0.294 OA 
HETATM   10  C   UNL     1     -11.278  15.108  72.043  1.00  0.00    -0.232 C  
HETATM   11  C   UNL     1     -11.667  15.742  69.663  1.00  0.00    -0.355 C  
HETATM   12  O   UNL     1     -10.866  16.658  69.569  1.00  0.00    -0.321 OA 
ENDROOT
BRANCH   7  13
HETATM   13  C   UNL     1     -11.192  11.514  69.725  1.00  0.00    -0.161 C  
BRANCH  13  14
HETATM   14  C   UNL     1     -10.415  10.337  70.372  1.00  0.00    -0.141 C  
BRANCH  14  15
HETATM   15  C   UNL     1     -10.962   8.957  69.951  1.00  0.00    -0.190 C  
BRANCH  15  16
HETATM   16  C   UNL     1      -9.880   7.877  69.799  1.00  0.00    -0.179 C  
BRANCH  16  17
HETATM   17  N   UNL     1      -9.319   7.974  68.464  1.00  0.00    -0.142 NA 
HETATM   18  H2  UNL     1      -8.294   8.399  66.282  1.00  0.00     0.000 HD 
HETATM   19  H1  UNL     1      -9.663   7.643  65.380  1.00  0.00     0.000 HD 
HETATM   20  N   UNL     1     -11.051   6.996  67.171  1.00  0.00    -0.591 NA 
HETATM   21  N   UNL     1      -9.198   7.927  66.243  1.00  0.00    -0.187 NA 
HETATM   22  C   UNL     1      -9.933   7.598  67.322  1.00  0.00    -0.208 C  
HETATM   23  H   UNL     1      -8.378   8.360  68.381  1.00  0.00     0.000 HD 
HETATM   24  H1  UNL     1     -11.517   6.712  66.309  1.00  0.00     0.000 HD 
HETATM   25  H2  UNL     1     -11.548   6.769  68.033  1.00  0.00     0.000 HD 
ENDBRANCH  16  17
ENDBRANCH  15  16
ENDBRANCH  14  15
ENDBRANCH  13  14
BRANCH  13  26
HETATM   26  N   UNL     1     -10.200  12.507  69.226  1.00  0.00    -0.316 N  
HETATM   27  H   UNL     1      -9.951  13.321  69.789  1.00  0.00     0.000 HD 
BRANCH  26  28
HETATM   28  S   UNL     1      -9.487  12.257  67.695  1.00  0.00    -0.195 S  
HETATM   29  O   UNL     1      -9.597  10.858  67.373  1.00  0.00    -0.162 OA 
HETATM   30  O   UNL     1      -8.186  12.889  67.777  1.00  0.00    -0.147 OA 
BRANCH  28  31
HETATM   31  C   UNL     1     -10.527  13.219  66.627  1.00  0.00    -0.279 A  
HETATM   32  C   UNL     1     -11.014  16.752  65.254  1.00  0.00    -0.084 C  
HETATM   33  C   UNL     1     -11.637  12.570  66.064  1.00  0.00    -0.456 A  
HETATM   34  C   UNL     1      -9.786  18.866  65.866  1.00  0.00    -0.097 C  
HETATM   35  C   UNL     1     -12.504  13.263  65.226  1.00  0.00    -0.543 A  
HETATM   36  C   UNL     1     -10.113  17.436  66.287  1.00  0.00    -0.328 C  
HETATM   37  C   UNL     1      -8.857  16.591  66.450  1.00  0.00    -0.310 C  
HETATM   38  H   UNL     1      -8.661  14.843  67.721  1.00  0.00     0.000 HD 
HETATM   39  N   UNL     1      -9.191  15.263  66.956  1.00  0.00    -0.208 NA 
HETATM   40  C   UNL     1     -12.265  14.604  64.948  1.00  0.00    -0.363 A  
HETATM   41  C   UNL     1     -10.263  14.579  66.361  1.00  0.00    -0.287 A  
HETATM   42  C   UNL     1     -11.162  15.269  65.515  1.00  0.00    -0.277 A  
ENDBRANCH  28  31
ENDBRANCH  26  28
ENDBRANCH  13  26
ENDBRANCH   7  13
TORSDOF 8
ENDMDL
MODEL      166
REMARK 921   NORMALIZED FREE ENERGY PREDICTED BY IDOCK:   -5.71 KCAL/MOL
REMARK 922        TOTAL FREE ENERGY PREDICTED BY IDOCK:   -9.63 KCAL/MOL
REMARK 923 INTER-LIGAND FREE ENERGY PREDICTED BY IDOCK:   -8.79 KCAL/MOL
REMARK 924 INTRA-LIGAND FREE ENERGY PREDICTED BY IDOCK:   -0.84 KCAL/MOL
REMARK 927      BINDING AFFINITY PREDICTED BY RF-SCORE:    0.00 PKD
ROOT
HETATM    1  C   UNL     1     -12.217  13.339  63.734  1.00  0.00    -0.508 C  
HETATM    2  C   UNL     1     -11.201  12.772  64.716  1.00  0.00    -0.339 C  
HETATM    3  C   UNL     1     -10.890  11.299  64.427  1.00  0.00    -0.373 C  
HETATM    4  C   UNL     1      -9.904  10.732  65.448  1.00  0.00    -0.262 C  
HETATM    5  N   UNL     1     -10.296  10.999  66.859  1.00  0.00    -0.225 N  
HETATM    6  C   UNL     1     -10.649  12.405  67.153  1.00  0.00    -0.224 C  
HETATM    7  C   UNL     1     -10.692   9.898  67.631  1.00  0.00    -0.281 C  
HETATM    8  O   UNL     1     -10.721   8.783  67.092  1.00  0.00    -0.271 OA 
HETATM    9  O   UNL     1      -8.290  12.886  66.986  1.00  0.00    -0.174 OA 
HETATM   10  C   UNL     1     -11.706  12.903  66.160  1.00  0.00    -0.451 C  
HETATM   11  C   UNL     1      -9.497  13.414  67.199  1.00  0.00    -0.244 C  
HETATM   12  O   UNL     1      -9.648  14.607  67.406  1.00  0.00    -0.210 OA 
ENDROOT
BRANCH   7  13
HETATM   13  C   UNL     1     -10.990   9.952  69.172  1.00  0.00    -0.200 C  
BRANCH  13  14
HETATM   14  C   UNL     1     -12.116  10.880  69.700  1.00  0.00    -0.400 C  
BRANCH  14  15
HETATM   15  C   UNL     1     -12.149  10.964  71.240  1.00  0.00    -0.322 C  
BRANCH  15  16
HETATM   16  C   UNL     1     -13.508  11.392  71.813  1.00  0.00    -0.117 C  
BRANCH  16  17
HETATM   17  N   UNL     1     -13.342  12.666  72.488  1.00  0.00    -0.523 NA 
HETATM   18  H2  UNL     1     -13.235  14.715  73.823  1.00  0.00     0.000 HD 
HETATM   19  H1  UNL     1     -13.387  15.785  72.377  1.00  0.00     0.000 HD 
HETATM   20  N   UNL     1     -13.525  14.172  70.663  1.00  0.00    -0.253 NA 
HETATM   21  N   UNL     1     -13.334  14.866  72.819  1.00  0.00    -0.452 NA 
HETATM   22  C   UNL     1     -13.412  13.881  71.903  1.00  0.00    -0.427 C  
HETATM   23  H   UNL     1     -13.156  12.641  73.491  1.00  0.00     0.000 HD 
HETATM   24  H1  UNL     1     -13.578  15.090  70.221  1.00  0.00     0.000 HD 
HETATM   25  H2  UNL     1     -13.568  13.376  70.027  1.00  0.00     0.000 HD 
ENDBRANCH  16  17
ENDBRANCH  15  16
ENDBRANCH  14  15
ENDBRANCH  13  14
BRANCH  13  26
HETATM   26  N   UNL     1      -9.772  10.184  69.997  1.00  0.00    -0.404 N  
HETATM   27  H   UNL     1      -9.390  11.124  70.108  1.00  0.00     0.000 HD 
BRANCH  26  28
HETATM   28  S   UNL     1      -9.026   8.848  70.753  1.00  0.00    -0.228 S  
HETATM   29  O   UNL     1     -10.050   8.067  71.396  1.00  0.00    -0.180 OA 
HETATM   30  O   UNL     1      -7.940   9.411  71.529  1.00  0.00    -0.298 OA 
BRANCH  28  31
HETATM   31  C   UNL     1      -8.347   7.958  69.377  1.00  0.00    -0.132 A  
HETATM   32  C   UNL     1      -8.346   4.527  67.692  1.00  0.00    -0.099 C  
HETATM   33  C   UNL     1      -7.421   8.640  68.571  1.00  0.00    -0.093 A  
HETATM   34  C   UNL     1      -9.407   2.383  68.480  1.00  0.00    -0.252 C  
HETATM   35  C   UNL     1      -6.837   8.002  67.481  1.00  0.00    -0.070 A  
HETATM   36  C   UNL     1      -8.942   3.778  68.887  1.00  0.00    -0.178 C  
HETATM   37  C   UNL     1     -10.082   4.616  69.449  1.00  0.00    -0.124 C  
HETATM   38  H   UNL     1      -9.875   6.271  70.836  1.00  0.00     0.000 HD 
HETATM   39  N   UNL     1      -9.589   5.903  69.929  1.00  0.00    -0.155 NA 
HETATM   40  C   UNL     1      -7.177   6.686  67.192  1.00  0.00    -0.081 A  
HETATM   41  C   UNL     1      -8.708   6.622  69.105  1.00  0.00    -0.130 A  
HETATM   42  C   UNL     1      -8.095   5.988  67.999  1.00  0.00    -0.110 A  
ENDBRANCH  28  31
ENDBRANCH  26  28
ENDBRANCH  13  26
ENDBRANCH   7  13
TORSDOF 8
ENDMDL
MODEL      167
REMARK 921   NORMALIZED FREE ENERGY PREDICTED BY IDOCK:   -5.71 KCAL/MOL
REMARK 922        TOTAL FREE ENERGY PREDICTED BY IDOCK:   -9.62 KCAL/MOL
REMARK 923 INTER-LIGAND FREE ENERGY PREDICTED BY IDOCK:   -8.76 KCAL/MOL
REMARK 924 INTRA-LIGAND FREE ENERGY PREDICTED BY IDOCK:   -0.87 KCAL/MOL
REMARK 927      BINDING AFFINITY PREDICTED BY RF-SCORE:    0.00 PKD
ROOT
HETATM    1  C   UNL     1     -12.542  15.974  73.495  1.00  0.00    -0.688 C  
HETATM    2  C   UNL     1     -12.486  15.576  72.027  1.00  0.00    -0.476 C  
HETATM    3  C   UNL     1     -13.334  14.332  71.740  1.00  0.00    -0.450 C  
HETATM    4  C   UNL     1     -13.232  13.918  70.273  1.00  0.00     0.390 C  
HETATM    5  N   UNL     1     -11.828  13.814  69.786  1.00  0.00    -0.313 N  
HETATM    6  C   UNL     1     -10.973  14.981  70.093  1.00  0.00    -0.221 C  
HETATM    7  C   UNL     1     -11.350  12.531  69.485  1.00  0.00    -0.171 C  
HETATM    8  O   UNL     1     -12.105  11.566  69.667  1.00  0.00    -0.309 OA 
HETATM    9  O   UNL     1     -12.213  16.160  68.390  1.00  0.00     0.127 OA 
HETATM   10  C   UNL     1     -11.038  15.305  71.590  1.00  0.00    -0.251 C  
HETATM   11  C   UNL     1     -11.238  16.263  69.297  1.00  0.00    -0.312 C  
HETATM   12  O   UNL     1     -10.625  17.305  69.464  1.00  0.00    -0.264 OA 
ENDROOT
BRANCH   7  13
HETATM   13  C   UNL     1      -9.961  12.233  68.815  1.00  0.00    -0.034 C  
BRANCH  13  14
HETATM   14  C   UNL     1      -9.214  10.918  69.161  1.00  0.00    -0.077 C  
BRANCH  14  15
HETATM   15  C   UNL     1      -9.281   9.876  68.025  1.00  0.00    -0.129 C  
BRANCH  15  16
HETATM   16  C   UNL     1     -10.546   9.003  68.052  1.00  0.00    -0.186 C  
BRANCH  16  17
HETATM   17  N   UNL     1     -11.052   8.971  69.412  1.00  0.00    -0.434 NA 
HETATM   18  H2  UNL     1     -11.777   9.163  71.742  1.00  0.00     0.000 HD 
HETATM   19  H1  UNL     1     -11.408   7.434  72.104  1.00  0.00     0.000 HD 
HETATM   20  N   UNL     1     -10.618   6.715  70.004  1.00  0.00    -0.210 NA 
HETATM   21  N   UNL     1     -11.446   8.236  71.475  1.00  0.00    -0.263 NA 
HETATM   22  C   UNL     1     -11.002   7.910  70.245  1.00  0.00    -0.248 C  
HETATM   23  H   UNL     1     -11.483   9.824  69.769  1.00  0.00     0.000 HD 
HETATM   24  H1  UNL     1     -10.580   5.913  70.633  1.00  0.00     0.000 HD 
HETATM   25  H2  UNL     1     -10.305   6.538  69.049  1.00  0.00     0.000 HD 
ENDBRANCH  16  17
ENDBRANCH  15  16
ENDBRANCH  14  15
ENDBRANCH  13  14
BRANCH  13  26
HETATM   26  N   UNL     1      -8.997  13.361  68.938  1.00  0.00    -0.375 N  
HETATM   27  H   UNL     1      -8.900  13.869  69.818  1.00  0.00     0.000 HD 
BRANCH  26  28
HETATM   28  S   UNL     1      -8.057  13.789  67.579  1.00  0.00    -0.186 S  
HETATM   29  O   UNL     1      -7.579  12.577  66.965  1.00  0.00    -0.119 OA 
HETATM   30  O   UNL     1      -7.120  14.781  68.065  1.00  0.00    -0.110 OA 
BRANCH  28  31
HETATM   31  C   UNL     1      -9.243  14.585  66.527  1.00  0.00    -0.255 A  
HETATM   32  C   UNL     1     -12.104  13.861  64.098  1.00  0.00    -0.464 C  
HETATM   33  C   UNL     1      -9.171  15.984  66.429  1.00  0.00    -0.339 A  
HETATM   34  C   UNL     1     -12.905  11.639  63.222  1.00  0.00    -0.073 C  
HETATM   35  C   UNL     1     -10.060  16.676  65.613  1.00  0.00    -0.244 A  
HETATM   36  C   UNL     1     -11.760  12.381  63.905  1.00  0.00    -0.529 C  
HETATM   37  C   UNL     1     -11.433  11.790  65.269  1.00  0.00    -0.186 C  
HETATM   38  H   UNL     1      -9.514  11.906  66.275  1.00  0.00     0.000 HD 
HETATM   39  N   UNL     1     -10.267  12.449  65.851  1.00  0.00    -0.247 NA 
HETATM   40  C   UNL     1     -11.024  15.975  64.897  1.00  0.00    -0.399 A  
HETATM   41  C   UNL     1     -10.211  13.851  65.811  1.00  0.00    -0.318 A  
HETATM   42  C   UNL     1     -11.100  14.572  64.979  1.00  0.00    -0.393 A  
ENDBRANCH  28  31
ENDBRANCH  26  28
ENDBRANCH  13  26
ENDBRANCH   7  13
TORSDOF 8
ENDMDL
MODEL      168
REMARK 921   NORMALIZED FREE ENERGY PREDICTED BY IDOCK:   -5.70 KCAL/MOL
REMARK 922        TOTAL FREE ENERGY PREDICTED BY IDOCK:   -9.62 KCAL/MOL
REMARK 923 INTER-LIGAND FREE ENERGY PREDICTED BY IDOCK:   -7.78 KCAL/MOL
REMARK 924 INTRA-LIGAND FREE ENERGY PREDICTED BY IDOCK:   -1.84 KCAL/MOL
REMARK 927      BINDING AFFINITY PREDICTED BY RF-SCORE:    0.00 PKD
ROOT
HETATM    1  C   UNL     1      -9.814  17.113  68.707  1.00  0.00    -0.293 C  
HETATM    2  C   UNL     1     -10.580  15.885  68.236  1.00  0.00    -0.276 C  
HETATM    3  C   UNL     1     -11.514  15.343  69.324  1.00  0.00    -0.344 C  
HETATM    4  C   UNL     1     -12.242  14.085  68.853  1.00  0.00    -0.226 C  
HETATM    5  N   UNL     1     -11.331  13.058  68.276  1.00  0.00    -0.268 N  
HETATM    6  C   UNL     1     -10.384  13.564  67.258  1.00  0.00    -0.241 C  
HETATM    7  C   UNL     1     -11.160  11.874  69.005  1.00  0.00    -0.246 C  
HETATM    8  O   UNL     1     -11.747  11.763  70.091  1.00  0.00    -0.316 OA 
HETATM    9  O   UNL     1     -12.281  13.720  65.775  1.00  0.00    -0.403 OA 
HETATM   10  C   UNL     1      -9.614  14.770  67.806  1.00  0.00    -0.209 C  
HETATM   11  C   UNL     1     -10.968  13.929  65.889  1.00  0.00    -0.284 C  
HETATM   12  O   UNL     1     -10.307  14.381  64.968  1.00  0.00    -0.402 OA 
ENDROOT
BRANCH   7  13
HETATM   13  C   UNL     1     -10.370  10.617  68.492  1.00  0.00    -0.183 C  
BRANCH  13  14
HETATM   14  C   UNL     1     -10.769   9.962  67.143  1.00  0.00    -0.276 C  
BRANCH  14  15
HETATM   15  C   UNL     1      -9.608   9.925  66.129  1.00  0.00    -0.275 C  
BRANCH  15  16
HETATM   16  C   UNL     1      -9.066   8.514  65.853  1.00  0.00    -0.183 C  
BRANCH  16  17
HETATM   17  N   UNL     1      -9.932   7.553  66.509  1.00  0.00    -0.423 NA 
HETATM   18  H2  UNL     1     -11.370   6.091  67.846  1.00  0.00     0.000 HD 
HETATM   19  H1  UNL     1     -10.589   4.587  67.225  1.00  0.00     0.000 HD 
HETATM   20  N   UNL     1      -8.991   5.508  65.758  1.00  0.00    -0.155 NA 
HETATM   21  N   UNL     1     -10.688   5.602  67.266  1.00  0.00    -0.252 NA 
HETATM   22  C   UNL     1      -9.801   6.210  66.455  1.00  0.00    -0.133 C  
HETATM   23  H   UNL     1     -10.707   7.924  67.059  1.00  0.00     0.000 HD 
HETATM   24  H1  UNL     1      -8.892   4.493  65.717  1.00  0.00     0.000 HD 
HETATM   25  H2  UNL     1      -8.356   6.036  65.159  1.00  0.00     0.000 HD 
ENDBRANCH  16  17
ENDBRANCH  15  16
ENDBRANCH  14  15
ENDBRANCH  13  14
BRANCH  13  26
HETATM   26  N   UNL     1     -10.251   9.541  69.515  1.00  0.00    -0.201 N  
HETATM   27  H   UNL     1     -11.041   8.927  69.717  1.00  0.00     0.000 HD 
BRANCH  26  28
HETATM   28  S   UNL     1      -8.769   9.354  70.341  1.00  0.00    -0.232 S  
HETATM   29  O   UNL     1      -9.043   9.339  71.754  1.00  0.00    -0.303 OA 
HETATM   30  O   UNL     1      -7.893  10.359  69.776  1.00  0.00    -0.157 OA 
BRANCH  28  31
HETATM   31  C   UNL     1      -8.230   7.752  69.802  1.00  0.00    -0.129 A  
HETATM   32  C   UNL     1      -8.804   4.015  70.366  1.00  0.00    -0.137 C  
HETATM   33  C   UNL     1      -7.181   7.712  68.871  1.00  0.00    -0.081 A  
HETATM   34  C   UNL     1     -10.247   2.884  72.094  1.00  0.00    -0.151 C  
HETATM   35  C   UNL     1      -6.696   6.492  68.412  1.00  0.00    -0.068 A  
HETATM   36  C   UNL     1      -9.549   4.181  71.694  1.00  0.00    -0.232 C  
HETATM   37  C   UNL     1     -10.535   5.332  71.542  1.00  0.00    -0.210 C  
HETATM   38  H   UNL     1     -10.066   7.439  71.764  1.00  0.00     0.000 HD 
HETATM   39  N   UNL     1      -9.830   6.580  71.265  1.00  0.00    -0.181 NA 
HETATM   40  C   UNL     1      -7.259   5.310  68.880  1.00  0.00    -0.062 A  
HETATM   41  C   UNL     1      -8.817   6.567  70.292  1.00  0.00    -0.151 A  
HETATM   42  C   UNL     1      -8.303   5.335  69.822  1.00  0.00    -0.098 A  
ENDBRANCH  28  31
ENDBRANCH  26  28
ENDBRANCH  13  26
ENDBRANCH   7  13
TORSDOF 8
ENDMDL
MODEL      169
REMARK 921   NORMALIZED FREE ENERGY PREDICTED BY IDOCK:   -5.70 KCAL/MOL
REMARK 922        TOTAL FREE ENERGY PREDICTED BY IDOCK:   -9.61 KCAL/MOL
REMARK 923 INTER-LIGAND FREE ENERGY PREDICTED BY IDOCK:   -8.83 KCAL/MOL
REMARK 924 INTRA-LIGAND FREE ENERGY PREDICTED BY IDOCK:   -0.78 KCAL/MOL
REMARK 927      BINDING AFFINITY PREDICTED BY RF-SCORE:    0.00 PKD
ROOT
HETATM    1  C   UNL     1     -10.798   6.753  66.724  1.00  0.00    -0.296 C  
HETATM    2  C   UNL     1      -9.861   7.945  66.581  1.00  0.00    -0.311 C  
HETATM    3  C   UNL     1      -8.765   7.940  67.652  1.00  0.00    -0.126 C  
HETATM    4  C   UNL     1      -7.860   9.165  67.524  1.00  0.00    -0.100 C  
HETATM    5  N   UNL     1      -8.612  10.447  67.438  1.00  0.00    -0.125 N  
HETATM    6  C   UNL     1      -9.709  10.462  66.445  1.00  0.00    -0.201 C  
HETATM    7  C   UNL     1      -8.511  11.321  68.529  1.00  0.00    -0.156 C  
HETATM    8  O   UNL     1      -7.833  10.967  69.504  1.00  0.00    -0.095 OA 
HETATM    9  O   UNL     1      -7.989  10.552  64.755  1.00  0.00    -0.135 OA 
HETATM   10  C   UNL     1     -10.640   9.266  66.669  1.00  0.00    -0.161 C  
HETATM   11  C   UNL     1      -9.306  10.508  64.968  1.00  0.00    -0.222 C  
HETATM   12  O   UNL     1     -10.105  10.500  64.046  1.00  0.00    -0.334 OA 
ENDROOT
BRANCH   7  13
HETATM   13  C   UNL     1      -9.098  12.777  68.561  1.00  0.00    -0.049 C  
BRANCH  13  14
HETATM   14  C   UNL     1      -9.588  13.432  67.243  1.00  0.00    -0.234 C  
BRANCH  14  15
HETATM   15  C   UNL     1     -11.077  13.832  67.291  1.00  0.00    -0.319 C  
BRANCH  15  16
HETATM   16  C   UNL     1     -11.625  14.359  65.956  1.00  0.00    -0.363 C  
BRANCH  16  17
HETATM   17  N   UNL     1     -12.536  13.369  65.411  1.00  0.00    -0.477 NA 
HETATM   18  H2  UNL     1     -14.026  11.551  64.727  1.00  0.00     0.000 HD 
HETATM   19  H1  UNL     1     -13.392  11.533  63.037  1.00  0.00     0.000 HD 
HETATM   20  N   UNL     1     -11.791  13.259  63.161  1.00  0.00    -0.788 NA 
HETATM   21  N   UNL     1     -13.409  11.896  63.990  1.00  0.00    -0.545 NA 
HETATM   22  C   UNL     1     -12.513  12.889  64.149  1.00  0.00    -0.335 C  
HETATM   23  H   UNL     1     -13.255  13.003  66.036  1.00  0.00     0.000 HD 
HETATM   24  H1  UNL     1     -11.773  12.896  62.207  1.00  0.00     0.000 HD 
HETATM   25  H2  UNL     1     -11.143  14.022  63.352  1.00  0.00     0.000 HD 
ENDBRANCH  16  17
ENDBRANCH  15  16
ENDBRANCH  14  15
ENDBRANCH  13  14
BRANCH  13  26
HETATM   26  N   UNL     1      -8.216  13.750  69.264  1.00  0.00    -0.245 N  
HETATM   27  H   UNL     1      -8.494  14.149  70.161  1.00  0.00     0.000 HD 
BRANCH  26  28
HETATM   28  S   UNL     1      -6.732  14.183  68.541  1.00  0.00    -0.112 S  
HETATM   29  O   UNL     1      -6.891  14.108  67.112  1.00  0.00    -0.165 OA 
HETATM   30  O   UNL     1      -5.736  13.371  69.210  1.00  0.00    -0.076 OA 
BRANCH  28  31
HETATM   31  C   UNL     1      -6.535  15.871  69.052  1.00  0.00    -0.137 A  
HETATM   32  C   UNL     1      -8.084  19.346  68.683  1.00  0.00    -0.402 C  
HETATM   33  C   UNL     1      -5.410  16.173  69.836  1.00  0.00    -0.144 A  
HETATM   34  C   UNL     1      -9.984  20.077  67.198  1.00  0.00    -0.580 C  
HETATM   35  C   UNL     1      -5.184  17.477  70.262  1.00  0.00    -0.234 A  
HETATM   36  C   UNL     1      -8.940  18.995  67.462  1.00  0.00    -0.322 C  
HETATM   37  C   UNL     1      -9.581  17.636  67.710  1.00  0.00    -0.267 C  
HETATM   38  H   UNL     1      -8.643  15.710  67.364  1.00  0.00     0.000 HD 
HETATM   39  N   UNL     1      -8.559  16.602  67.852  1.00  0.00    -0.193 NA 
HETATM   40  C   UNL     1      -6.079  18.481  69.910  1.00  0.00    -0.197 A  
HETATM   41  C   UNL     1      -7.458  16.871  68.681  1.00  0.00    -0.226 A  
HETATM   42  C   UNL     1      -7.204  18.193  69.116  1.00  0.00    -0.158 A  
ENDBRANCH  28  31
ENDBRANCH  26  28
ENDBRANCH  13  26
ENDBRANCH   7  13
TORSDOF 8
ENDMDL
MODEL      170
REMARK 921   NORMALIZED FREE ENERGY PREDICTED BY IDOCK:   -5.69 KCAL/MOL
REMARK 922        TOTAL FREE ENERGY PREDICTED BY IDOCK:   -9.60 KCAL/MOL
REMARK 923 INTER-LIGAND FREE ENERGY PREDICTED BY IDOCK:   -6.59 KCAL/MOL
REMARK 924 INTRA-LIGAND FREE ENERGY PREDICTED BY IDOCK:   -3.01 KCAL/MOL
REMARK 927      BINDING AFFINITY PREDICTED BY RF-SCORE:    0.00 PKD
ROOT
HETATM    1  C   UNL     1      -9.751   9.539  65.578  1.00  0.00    -0.344 C  
HETATM    2  C   UNL     1      -9.433   8.157  66.130  1.00  0.00    -0.217 C  
HETATM    3  C   UNL     1     -10.632   7.547  66.865  1.00  0.00    -0.367 C  
HETATM    4  C   UNL     1     -10.284   6.179  67.452  1.00  0.00    -0.184 C  
HETATM    5  N   UNL     1      -9.027   6.182  68.249  1.00  0.00    -0.115 N  
HETATM    6  C   UNL     1      -7.866   6.810  67.582  1.00  0.00    -0.112 C  
HETATM    7  C   UNL     1      -9.148   5.998  69.633  1.00  0.00    -0.135 C  
HETATM    8  O   UNL     1     -10.284   5.875  70.112  1.00  0.00    -0.190 OA 
HETATM    9  O   UNL     1      -7.792   4.849  66.177  1.00  0.00    -0.097 OA 
HETATM   10  C   UNL     1      -8.234   8.214  67.088  1.00  0.00    -0.120 C  
HETATM   11  C   UNL     1      -7.225   6.031  66.428  1.00  0.00    -0.076 C  
HETATM   12  O   UNL     1      -6.279   6.441  65.775  1.00  0.00    -0.035 OA 
ENDROOT
BRANCH   7  13
HETATM   13  C   UNL     1      -7.937   5.815  70.617  1.00  0.00    -0.109 C  
BRANCH  13  14
HETATM   14  C   UNL     1      -7.510   4.386  71.044  1.00  0.00    -0.051 C  
BRANCH  14  15
HETATM   15  C   UNL     1      -8.650   3.356  70.912  1.00  0.00    -0.113 C  
BRANCH  15  16
HETATM   16  C   UNL     1      -9.251   2.914  72.255  1.00  0.00    -0.100 C  
BRANCH  16  17
HETATM   17  N   UNL     1     -10.567   3.512  72.388  1.00  0.00    -0.024 NA 
HETATM   18  H2  UNL     1     -12.820   4.467  72.339  1.00  0.00     0.000 HD 
HETATM   19  H1  UNL     1     -12.345   5.894  73.338  1.00  0.00     0.000 HD 
HETATM   20  N   UNL     1     -10.065   5.423  73.702  1.00  0.00    -0.181 NA 
HETATM   21  N   UNL     1     -12.137   5.016  72.863  1.00  0.00    -0.019 NA 
HETATM   22  C   UNL     1     -10.843   4.675  73.017  1.00  0.00    -0.247 C  
HETATM   23  H   UNL     1     -11.351   3.011  71.970  1.00  0.00     0.000 HD 
HETATM   24  H1  UNL     1     -10.273   6.302  74.178  1.00  0.00     0.000 HD 
HETATM   25  H2  UNL     1      -9.102   5.097  73.785  1.00  0.00     0.000 HD 
ENDBRANCH  16  17
ENDBRANCH  15  16
ENDBRANCH  14  15
ENDBRANCH  13  14
BRANCH  13  26
HETATM   26  N   UNL     1      -8.046   6.654  71.843  1.00  0.00    -0.103 N  
HETATM   27  H   UNL     1      -8.508   6.296  72.679  1.00  0.00     0.000 HD 
BRANCH  26  28
HETATM   28  S   UNL     1      -7.384   8.227  71.822  1.00  0.00    -0.100 S  
HETATM   29  O   UNL     1      -6.146   8.183  71.088  1.00  0.00    -0.033 OA 
HETATM   30  O   UNL     1      -7.399   8.661  73.204  1.00  0.00    -0.335 OA 
BRANCH  28  31
HETATM   31  C   UNL     1      -8.603   9.145  70.918  1.00  0.00    -0.206 A  
HETATM   32  C   UNL     1     -12.371   9.737  70.660  1.00  0.00    -0.248 C  
HETATM   33  C   UNL     1      -8.146   9.937  69.853  1.00  0.00    -0.200 A  
HETATM   34  C   UNL     1     -14.239   8.562  71.875  1.00  0.00    -0.536 C  
HETATM   35  C   UNL     1      -9.046  10.674  69.091  1.00  0.00    -0.152 A  
HETATM   36  C   UNL     1     -12.769   8.501  71.472  1.00  0.00    -0.340 C  
HETATM   37  C   UNL     1     -11.850   8.417  72.684  1.00  0.00    -0.290 C  
HETATM   38  H   UNL     1      -9.860   7.554  72.708  1.00  0.00     0.000 HD 
HETATM   39  N   UNL     1     -10.461   8.250  72.267  1.00  0.00    -0.295 NA 
HETATM   40  C   UNL     1     -10.402  10.625  69.391  1.00  0.00    -0.234 A  
HETATM   41  C   UNL     1      -9.974   9.078  71.242  1.00  0.00    -0.311 A  
HETATM   42  C   UNL     1     -10.875   9.827  70.448  1.00  0.00    -0.370 A  
ENDBRANCH  28  31
ENDBRANCH  26  28
ENDBRANCH  13  26
ENDBRANCH   7  13
TORSDOF 8
ENDMDL
MODEL      171
REMARK 921   NORMALIZED FREE ENERGY PREDICTED BY IDOCK:   -5.69 KCAL/MOL
REMARK 922        TOTAL FREE ENERGY PREDICTED BY IDOCK:   -9.59 KCAL/MOL
REMARK 923 INTER-LIGAND FREE ENERGY PREDICTED BY IDOCK:   -8.39 KCAL/MOL
REMARK 924 INTRA-LIGAND FREE ENERGY PREDICTED BY IDOCK:   -1.21 KCAL/MOL
REMARK 927      BINDING AFFINITY PREDICTED BY RF-SCORE:    0.00 PKD
ROOT
HETATM    1  C   UNL     1     -10.404  18.623  66.827  1.00  0.00    -0.449 C  
HETATM    2  C   UNL     1     -10.165  17.462  67.782  1.00  0.00    -0.345 C  
HETATM    3  C   UNL     1      -8.692  17.039  67.809  1.00  0.00    -0.222 C  
HETATM    4  C   UNL     1      -8.476  15.844  68.737  1.00  0.00    -0.204 C  
HETATM    5  N   UNL     1      -9.420  14.722  68.483  1.00  0.00    -0.208 N  
HETATM    6  C   UNL     1     -10.845  15.111  68.403  1.00  0.00    -0.255 C  
HETATM    7  C   UNL     1      -8.883  13.545  67.944  1.00  0.00    -0.190 C  
HETATM    8  O   UNL     1      -7.672  13.517  67.685  1.00  0.00    -0.147 OA 
HETATM    9  O   UNL     1     -10.752  15.410  70.796  1.00  0.00    -0.306 OA 
HETATM   10  C   UNL     1     -11.027  16.251  67.395  1.00  0.00    -0.175 C  
HETATM   11  C   UNL     1     -11.533  15.496  69.717  1.00  0.00    -0.331 C  
HETATM   12  O   UNL     1     -12.696  15.860  69.793  1.00  0.00    -0.134 OA 
ENDROOT
BRANCH   7  13
HETATM   13  C   UNL     1      -9.683  12.207  67.752  1.00  0.00    -0.197 C  
BRANCH  13  14
HETATM   14  C   UNL     1     -10.816  12.139  66.694  1.00  0.00    -0.307 C  
BRANCH  14  15
HETATM   15  C   UNL     1     -10.323  11.636  65.322  1.00  0.00    -0.316 C  
BRANCH  15  16
HETATM   16  C   UNL     1      -8.924  11.004  65.354  1.00  0.00    -0.178 C  
BRANCH  16  17
HETATM   17  N   UNL     1      -9.065   9.589  65.646  1.00  0.00    -0.185 NA 
HETATM   18  H2  UNL     1      -9.247   7.269  66.405  1.00  0.00     0.000 HD 
HETATM   19  H1  UNL     1      -8.321   6.629  64.994  1.00  0.00     0.000 HD 
HETATM   20  N   UNL     1      -7.873   8.631  63.832  1.00  0.00    -0.140 NA 
HETATM   21  N   UNL     1      -8.735   7.392  65.531  1.00  0.00    -0.082 NA 
HETATM   22  C   UNL     1      -8.518   8.580  64.935  1.00  0.00    -0.147 C  
HETATM   23  H   UNL     1      -9.627   9.335  66.459  1.00  0.00     0.000 HD 
HETATM   24  H1  UNL     1      -7.459   7.869  63.295  1.00  0.00     0.000 HD 
HETATM   25  H2  UNL     1      -7.755   9.562  63.435  1.00  0.00     0.000 HD 
ENDBRANCH  16  17
ENDBRANCH  15  16
ENDBRANCH  14  15
ENDBRANCH  13  14
BRANCH  13  26
HETATM   26  N   UNL     1     -10.206  11.648  69.030  1.00  0.00    -0.398 N  
HETATM   27  H   UNL     1      -9.933  12.054  69.925  1.00  0.00     0.000 HD 
BRANCH  26  28
HETATM   28  S   UNL     1     -11.270  10.315  68.968  1.00  0.00    -0.176 S  
HETATM   29  O   UNL     1     -10.910   9.506  67.832  1.00  0.00    -0.245 OA 
HETATM   30  O   UNL     1     -12.597  10.886  69.067  1.00  0.00    -0.350 OA 
BRANCH  28  31
HETATM   31  C   UNL     1     -10.899   9.458  70.476  1.00  0.00    -0.277 A  
HETATM   32  C   UNL     1      -7.994   8.045  72.520  1.00  0.00    -0.174 C  
HETATM   33  C   UNL     1     -11.988   9.052  71.264  1.00  0.00    -0.374 A  
HETATM   34  C   UNL     1      -5.557   7.889  71.900  1.00  0.00    -0.035 C  
HETATM   35  C   UNL     1     -11.774   8.364  72.454  1.00  0.00    -0.452 A  
HETATM   36  C   UNL     1      -6.977   8.086  71.376  1.00  0.00    -0.054 C  
HETATM   37  C   UNL     1      -7.136   9.415  70.650  1.00  0.00    -0.124 C  
HETATM   38  H   UNL     1      -8.599   9.850  69.108  1.00  0.00     0.000 HD 
HETATM   39  N   UNL     1      -8.470   9.528  70.067  1.00  0.00    -0.177 NA 
HETATM   40  C   UNL     1     -10.475   8.081  72.860  1.00  0.00    -0.402 A  
HETATM   41  C   UNL     1      -9.571   9.182  70.866  1.00  0.00    -0.279 A  
HETATM   42  C   UNL     1      -9.376   8.472  72.074  1.00  0.00    -0.353 A  
ENDBRANCH  28  31
ENDBRANCH  26  28
ENDBRANCH  13  26
ENDBRANCH   7  13
TORSDOF 8
ENDMDL
MODEL      172
REMARK 921   NORMALIZED FREE ENERGY PREDICTED BY IDOCK:   -5.68 KCAL/MOL
REMARK 922        TOTAL FREE ENERGY PREDICTED BY IDOCK:   -9.58 KCAL/MOL
REMARK 923 INTER-LIGAND FREE ENERGY PREDICTED BY IDOCK:   -9.28 KCAL/MOL
REMARK 924 INTRA-LIGAND FREE ENERGY PREDICTED BY IDOCK:   -0.30 KCAL/MOL
REMARK 927      BINDING AFFINITY PREDICTED BY RF-SCORE:    0.00 PKD
ROOT
HETATM    1  C   UNL     1     -12.270  16.329  73.956  1.00  0.00    -0.582 C  
HETATM    2  C   UNL     1     -12.523  15.664  72.610  1.00  0.00    -0.526 C  
HETATM    3  C   UNL     1     -13.622  14.600  72.698  1.00  0.00    -0.571 C  
HETATM    4  C   UNL     1     -13.833  13.909  71.351  1.00  0.00    -0.131 C  
HETATM    5  N   UNL     1     -12.569  13.420  70.735  1.00  0.00    -0.323 N  
HETATM    6  C   UNL     1     -11.474  14.413  70.683  1.00  0.00    -0.115 C  
HETATM    7  C   UNL     1     -12.391  12.032  70.660  1.00  0.00    -0.304 C  
HETATM    8  O   UNL     1     -13.273  11.301  71.132  1.00  0.00    -0.226 OA 
HETATM    9  O   UNL     1     -12.727  15.494  68.927  1.00  0.00     0.263 OA 
HETATM   10  C   UNL     1     -11.239  15.014  72.074  1.00  0.00    -0.099 C  
HETATM   11  C   UNL     1     -11.619  15.552  69.669  1.00  0.00    -0.348 C  
HETATM   12  O   UNL     1     -10.805  16.452  69.537  1.00  0.00    -0.307 OA 
ENDROOT
BRANCH   7  13
HETATM   13  C   UNL     1     -11.206  11.325  69.910  1.00  0.00    -0.187 C  
BRANCH  13  14
HETATM   14  C   UNL     1     -11.431  10.768  68.480  1.00  0.00    -0.362 C  
BRANCH  14  15
HETATM   15  C   UNL     1     -10.713  11.597  67.395  1.00  0.00    -0.277 C  
BRANCH  15  16
HETATM   16  C   UNL     1     -11.416  12.919  67.052  1.00  0.00    -0.339 C  
BRANCH  16  17
HETATM   17  N   UNL     1     -12.120  12.751  65.794  1.00  0.00    -0.487 NA 
HETATM   18  H2  UNL     1     -13.387  12.216  63.769  1.00  0.00     0.000 HD 
HETATM   19  H1  UNL     1     -12.096  12.843  62.675  1.00  0.00     0.000 HD 
HETATM   20  N   UNL     1     -10.501  13.555  64.257  1.00  0.00    -0.592 NA 
HETATM   21  N   UNL     1     -12.476  12.643  63.600  1.00  0.00    -0.705 NA 
HETATM   22  C   UNL     1     -11.618  13.016  64.569  1.00  0.00    -0.360 C  
HETATM   23  H   UNL     1     -13.078  12.402  65.839  1.00  0.00     0.000 HD 
HETATM   24  H1  UNL     1     -10.121  13.755  63.332  1.00  0.00     0.000 HD 
HETATM   25  H2  UNL     1      -9.907  13.821  65.042  1.00  0.00     0.000 HD 
ENDBRANCH  16  17
ENDBRANCH  15  16
ENDBRANCH  14  15
ENDBRANCH  13  14
BRANCH  13  26
HETATM   26  N   UNL     1     -10.547  10.265  70.723  1.00  0.00    -0.334 N  
HETATM   27  H   UNL     1      -9.893  10.511  71.467  1.00  0.00     0.000 HD 
BRANCH  26  28
HETATM   28  S   UNL     1     -10.907   8.630  70.388  1.00  0.00    -0.228 S  
HETATM   29  O   UNL     1     -10.568   8.370  69.013  1.00  0.00    -0.218 OA 
HETATM   30  O   UNL     1     -12.265   8.439  70.856  1.00  0.00    -0.231 OA 
BRANCH  28  31
HETATM   31  C   UNL     1      -9.799   7.764  71.470  1.00  0.00    -0.167 A  
HETATM   32  C   UNL     1      -8.732   4.250  72.530  1.00  0.00    -0.112 C  
HETATM   33  C   UNL     1      -9.016   8.542  72.337  1.00  0.00    -0.284 A  
HETATM   34  C   UNL     1      -9.728   2.032  71.868  1.00  0.00    -0.205 C  
HETATM   35  C   UNL     1      -8.134   7.932  73.223  1.00  0.00    -0.218 A  
HETATM   36  C   UNL     1      -9.950   3.541  71.930  1.00  0.00    -0.212 C  
HETATM   37  C   UNL     1     -10.210   4.134  70.552  1.00  0.00     0.169 C  
HETATM   38  H   UNL     1     -11.314   5.957  70.145  1.00  0.00     0.000 HD 
HETATM   39  N   UNL     1     -10.526   5.556  70.654  1.00  0.00    -0.266 NA 
HETATM   40  C   UNL     1      -8.031   6.546  73.244  1.00  0.00    -0.099 A  
HETATM   41  C   UNL     1      -9.713   6.356  71.472  1.00  0.00    -0.168 A  
HETATM   42  C   UNL     1      -8.818   5.754  72.388  1.00  0.00    -0.131 A  
ENDBRANCH  28  31
ENDBRANCH  26  28
ENDBRANCH  13  26
ENDBRANCH   7  13
TORSDOF 8
ENDMDL
MODEL      173
REMARK 921   NORMALIZED FREE ENERGY PREDICTED BY IDOCK:   -5.67 KCAL/MOL
REMARK 922        TOTAL FREE ENERGY PREDICTED BY IDOCK:   -9.57 KCAL/MOL
REMARK 923 INTER-LIGAND FREE ENERGY PREDICTED BY IDOCK:   -7.75 KCAL/MOL
REMARK 924 INTRA-LIGAND FREE ENERGY PREDICTED BY IDOCK:   -1.82 KCAL/MOL
REMARK 927      BINDING AFFINITY PREDICTED BY RF-SCORE:    0.00 PKD
ROOT
HETATM    1  C   UNL     1     -11.776   7.490  72.932  1.00  0.00    -0.159 C  
HETATM    2  C   UNL     1     -10.486   7.328  72.141  1.00  0.00    -0.233 C  
HETATM    3  C   UNL     1      -9.360   8.204  72.701  1.00  0.00    -0.342 C  
HETATM    4  C   UNL     1      -8.085   8.065  71.869  1.00  0.00    -0.121 C  
HETATM    5  N   UNL     1      -8.312   8.239  70.408  1.00  0.00    -0.116 N  
HETATM    6  C   UNL     1      -9.427   7.441  69.850  1.00  0.00    -0.153 C  
HETATM    7  C   UNL     1      -7.776   9.387  69.810  1.00  0.00    -0.110 C  
HETATM    8  O   UNL     1      -7.176  10.198  70.529  1.00  0.00    -0.284 OA 
HETATM    9  O   UNL     1      -7.992   5.518  70.106  1.00  0.00    -0.087 OA 
HETATM   10  C   UNL     1     -10.705   7.680  70.661  1.00  0.00    -0.237 C  
HETATM   11  C   UNL     1      -9.199   5.932  69.716  1.00  0.00    -0.145 C  
HETATM   12  O   UNL     1     -10.041   5.154  69.296  1.00  0.00    -0.193 OA 
ENDROOT
BRANCH   7  13
HETATM   13  C   UNL     1      -7.774   9.669  68.265  1.00  0.00    -0.082 C  
BRANCH  13  14
HETATM   14  C   UNL     1      -7.556  11.118  67.753  1.00  0.00    -0.100 C  
BRANCH  14  15
HETATM   15  C   UNL     1      -8.222  12.177  68.655  1.00  0.00    -0.033 C  
BRANCH  15  16
HETATM   16  C   UNL     1      -9.623  12.602  68.190  1.00  0.00    -0.219 C  
BRANCH  16  17
HETATM   17  N   UNL     1     -10.574  12.276  69.237  1.00  0.00    -0.440 NA 
HETATM   18  H2  UNL     1     -11.967  11.775  71.186  1.00  0.00     0.000 HD 
HETATM   19  H1  UNL     1     -12.715  10.329  70.405  1.00  0.00     0.000 HD 
HETATM   20  N   UNL     1     -11.632  10.365  68.312  1.00  0.00    -0.682 NA 
HETATM   21  N   UNL     1     -12.081  11.128  70.405  1.00  0.00    -0.356 NA 
HETATM   22  C   UNL     1     -11.413  11.219  69.238  1.00  0.00    -0.301 C  
HETATM   23  H   UNL     1     -10.611  12.901  70.043  1.00  0.00     0.000 HD 
HETATM   24  H1  UNL     1     -12.266   9.565  68.312  1.00  0.00     0.000 HD 
HETATM   25  H2  UNL     1     -11.099  10.502  67.453  1.00  0.00     0.000 HD 
ENDBRANCH  16  17
ENDBRANCH  15  16
ENDBRANCH  14  15
ENDBRANCH  13  14
BRANCH  13  26
HETATM   26  N   UNL     1      -8.959   9.102  67.564  1.00  0.00    -0.122 N  
HETATM   27  H   UNL     1      -9.902   9.411  67.802  1.00  0.00     0.000 HD 
BRANCH  26  28
HETATM   28  S   UNL     1      -8.711   7.924  66.354  1.00  0.00    -0.160 S  
HETATM   29  O   UNL     1      -9.909   7.133  66.245  1.00  0.00    -0.094 OA 
HETATM   30  O   UNL     1      -7.449   7.297  66.690  1.00  0.00    -0.085 OA 
BRANCH  28  31
HETATM   31  C   UNL     1      -8.491   8.912  64.897  1.00  0.00    -0.178 A  
HETATM   32  C   UNL     1      -9.984  11.870  62.991  1.00  0.00    -0.191 C  
HETATM   33  C   UNL     1      -7.460   8.537  64.021  1.00  0.00    -0.116 A  
HETATM   34  C   UNL     1     -12.109  13.139  63.461  1.00  0.00    -0.585 C  
HETATM   35  C   UNL     1      -7.236   9.257  62.852  1.00  0.00    -0.101 A  
HETATM   36  C   UNL     1     -11.326  11.857  63.729  1.00  0.00    -0.532 C  
HETATM   37  C   UNL     1     -11.046  11.662  65.213  1.00  0.00    -0.236 C  
HETATM   38  H   UNL     1     -10.704   9.760  66.200  1.00  0.00     0.000 HD 
HETATM   39  N   UNL     1     -10.392  10.379  65.451  1.00  0.00    -0.247 NA 
HETATM   40  C   UNL     1      -8.039  10.353  62.556  1.00  0.00    -0.186 A  
HETATM   41  C   UNL     1      -9.320  10.019  64.618  1.00  0.00    -0.279 A  
HETATM   42  C   UNL     1      -9.084  10.732  63.419  1.00  0.00    -0.244 A  
ENDBRANCH  28  31
ENDBRANCH  26  28
ENDBRANCH  13  26
ENDBRANCH   7  13
TORSDOF 8
ENDMDL
MODEL      174
REMARK 921   NORMALIZED FREE ENERGY PREDICTED BY IDOCK:   -5.66 KCAL/MOL
REMARK 922        TOTAL FREE ENERGY PREDICTED BY IDOCK:   -9.56 KCAL/MOL
REMARK 923 INTER-LIGAND FREE ENERGY PREDICTED BY IDOCK:   -7.77 KCAL/MOL
REMARK 924 INTRA-LIGAND FREE ENERGY PREDICTED BY IDOCK:   -1.79 KCAL/MOL
REMARK 927      BINDING AFFINITY PREDICTED BY RF-SCORE:    0.00 PKD
ROOT
HETATM    1  C   UNL     1     -12.221  13.370  64.146  1.00  0.00    -0.457 C  
HETATM    2  C   UNL     1     -11.134  12.639  64.922  1.00  0.00    -0.331 C  
HETATM    3  C   UNL     1     -10.985  11.185  64.461  1.00  0.00    -0.255 C  
HETATM    4  C   UNL     1      -9.922  10.452  65.279  1.00  0.00    -0.309 C  
HETATM    5  N   UNL     1     -10.102  10.602  66.750  1.00  0.00    -0.216 N  
HETATM    6  C   UNL     1     -10.298  11.992  67.216  1.00  0.00    -0.212 C  
HETATM    7  C   UNL     1     -10.481   9.459  67.466  1.00  0.00    -0.280 C  
HETATM    8  O   UNL     1     -10.671   8.408  66.838  1.00  0.00    -0.279 OA 
HETATM    9  O   UNL     1      -7.951  12.325  66.767  1.00  0.00    -0.108 OA 
HETATM   10  C   UNL     1     -11.432  12.658  66.429  1.00  0.00    -0.409 C  
HETATM   11  C   UNL     1      -9.072  12.910  67.193  1.00  0.00    -0.220 C  
HETATM   12  O   UNL     1      -9.097  14.085  67.526  1.00  0.00    -0.180 OA 
ENDROOT
BRANCH   7  13
HETATM   13  C   UNL     1     -10.568   9.377  69.032  1.00  0.00    -0.213 C  
BRANCH  13  14
HETATM   14  C   UNL     1      -9.334   9.771  69.887  1.00  0.00    -0.262 C  
BRANCH  14  15
HETATM   15  C   UNL     1      -8.373   8.589  70.130  1.00  0.00    -0.123 C  
BRANCH  15  16
HETATM   16  C   UNL     1      -7.670   8.625  71.495  1.00  0.00    -0.118 C  
BRANCH  16  17
HETATM   17  N   UNL     1      -6.876   7.419  71.635  1.00  0.00    -0.054 NA 
HETATM   18  H2  UNL     1      -5.737   5.254  71.724  1.00  0.00     0.000 HD 
HETATM   19  H1  UNL     1      -5.312   5.436  73.470  1.00  0.00     0.000 HD 
HETATM   20  N   UNL     1      -6.252   7.550  73.921  1.00  0.00    -0.074 NA 
HETATM   21  N   UNL     1      -5.740   5.769  72.605  1.00  0.00    -0.030 NA 
HETATM   22  C   UNL     1      -6.310   6.978  72.779  1.00  0.00    -0.057 C  
HETATM   23  H   UNL     1      -6.733   6.855  70.797  1.00  0.00     0.000 HD 
HETATM   24  H1  UNL     1      -5.824   7.217  74.785  1.00  0.00     0.000 HD 
HETATM   25  H2  UNL     1      -6.695   8.467  73.976  1.00  0.00     0.000 HD 
ENDBRANCH  16  17
ENDBRANCH  15  16
ENDBRANCH  14  15
ENDBRANCH  13  14
BRANCH  13  26
HETATM   26  N   UNL     1     -11.076   8.067  69.524  1.00  0.00    -0.446 N  
HETATM   27  H   UNL     1     -10.899   7.211  68.998  1.00  0.00     0.000 HD 
BRANCH  26  28
HETATM   28  S   UNL     1     -11.958   8.024  70.985  1.00  0.00    -0.194 S  
HETATM   29  O   UNL     1     -13.220   7.382  70.727  1.00  0.00    -0.074 OA 
HETATM   30  O   UNL     1     -11.917   9.381  71.490  1.00  0.00    -0.331 OA 
BRANCH  28  31
HETATM   31  C   UNL     1     -10.943   6.996  72.015  1.00  0.00    -0.232 A  
HETATM   32  C   UNL     1      -8.984   3.714  72.027  1.00  0.00    -0.145 C  
HETATM   33  C   UNL     1     -10.764   7.406  73.346  1.00  0.00    -0.407 A  
HETATM   34  C   UNL     1      -8.877   1.935  70.247  1.00  0.00    -0.127 C  
HETATM   35  C   UNL     1      -9.992   6.644  74.217  1.00  0.00    -0.372 A  
HETATM   36  C   UNL     1      -9.647   3.144  70.769  1.00  0.00    -0.219 C  
HETATM   37  C   UNL     1      -9.727   4.257  69.733  1.00  0.00    -0.220 C  
HETATM   38  H   UNL     1     -11.271   5.778  69.623  1.00  0.00     0.000 HD 
HETATM   39  N   UNL     1     -10.559   5.355  70.218  1.00  0.00    -0.283 NA 
HETATM   40  C   UNL     1      -9.395   5.474  73.761  1.00  0.00    -0.137 A  
HETATM   41  C   UNL     1     -10.349   5.813  71.529  1.00  0.00    -0.220 A  
HETATM   42  C   UNL     1      -9.576   5.047  72.433  1.00  0.00    -0.178 A  
ENDBRANCH  28  31
ENDBRANCH  26  28
ENDBRANCH  13  26
ENDBRANCH   7  13
TORSDOF 8
ENDMDL
MODEL      175
REMARK 921   NORMALIZED FREE ENERGY PREDICTED BY IDOCK:   -5.65 KCAL/MOL
REMARK 922        TOTAL FREE ENERGY PREDICTED BY IDOCK:   -9.54 KCAL/MOL
REMARK 923 INTER-LIGAND FREE ENERGY PREDICTED BY IDOCK:   -8.09 KCAL/MOL
REMARK 924 INTRA-LIGAND FREE ENERGY PREDICTED BY IDOCK:   -1.45 KCAL/MOL
REMARK 927      BINDING AFFINITY PREDICTED BY RF-SCORE:    0.00 PKD
ROOT
HETATM    1  C   UNL     1      -9.519   3.847  68.753  1.00  0.00    -0.224 C  
HETATM    2  C   UNL     1      -8.772   5.153  68.521  1.00  0.00    -0.101 C  
HETATM    3  C   UNL     1      -8.215   5.731  69.827  1.00  0.00    -0.108 C  
HETATM    4  C   UNL     1      -7.507   7.064  69.584  1.00  0.00    -0.098 C  
HETATM    5  N   UNL     1      -8.323   8.031  68.798  1.00  0.00    -0.126 N  
HETATM    6  C   UNL     1      -8.914   7.484  67.557  1.00  0.00    -0.126 C  
HETATM    7  C   UNL     1      -8.790   9.168  69.471  1.00  0.00    -0.149 C  
HETATM    8  O   UNL     1      -8.526   9.287  70.675  1.00  0.00    -0.193 OA 
HETATM    9  O   UNL     1      -6.684   7.546  66.635  1.00  0.00    -0.055 OA 
HETATM   10  C   UNL     1      -9.688   6.196  67.863  1.00  0.00    -0.117 C  
HETATM   11  C   UNL     1      -7.956   7.221  66.390  1.00  0.00    -0.112 C  
HETATM   12  O   UNL     1      -8.303   6.750  65.319  1.00  0.00    -0.139 OA 
ENDROOT
BRANCH   7  13
HETATM   13  C   UNL     1      -9.528  10.370  68.781  1.00  0.00    -0.175 C  
BRANCH  13  14
HETATM   14  C   UNL     1      -8.736  11.310  67.834  1.00  0.00    -0.138 C  
BRANCH  14  15
HETATM   15  C   UNL     1      -9.340  11.380  66.417  1.00  0.00    -0.219 C  
BRANCH  15  16
HETATM   16  C   UNL     1      -9.803  12.785  66.003  1.00  0.00    -0.255 C  
BRANCH  16  17
HETATM   17  N   UNL     1      -8.972  13.761  66.685  1.00  0.00    -0.425 NA 
HETATM   18  H2  UNL     1      -7.657  15.287  68.074  1.00  0.00     0.000 HD 
HETATM   19  H1  UNL     1      -8.125  16.735  67.103  1.00  0.00     0.000 HD 
HETATM   20  N   UNL     1      -9.508  15.733  65.479  1.00  0.00    -0.340 NA 
HETATM   21  N   UNL     1      -8.154  15.735  67.304  1.00  0.00    -0.171 NA 
HETATM   22  C   UNL     1      -8.934  15.084  66.419  1.00  0.00    -0.251 C  
HETATM   23  H   UNL     1      -8.365  13.417  67.430  1.00  0.00     0.000 HD 
HETATM   24  H1  UNL     1      -9.479  16.733  65.278  1.00  0.00     0.000 HD 
HETATM   25  H2  UNL     1     -10.074  15.173  64.841  1.00  0.00     0.000 HD 
ENDBRANCH  16  17
ENDBRANCH  15  16
ENDBRANCH  14  15
ENDBRANCH  13  14
BRANCH  13  26
HETATM   26  N   UNL     1     -10.296  11.214  69.738  1.00  0.00    -0.406 N  
HETATM   27  H   UNL     1      -9.827  11.934  70.288  1.00  0.00     0.000 HD 
BRANCH  26  28
HETATM   28  S   UNL     1     -11.975  10.953  69.898  1.00  0.00    -0.375 S  
HETATM   29  O   UNL     1     -12.172   9.790  70.724  1.00  0.00    -0.286 OA 
HETATM   30  O   UNL     1     -12.492  10.983  68.545  1.00  0.00    -0.440 OA 
BRANCH  28  31
HETATM   31  C   UNL     1     -12.511  12.413  70.751  1.00  0.00    -0.267 A  
HETATM   32  C   UNL     1     -12.144  16.218  70.765  1.00  0.00     0.063 C  
HETATM   33  C   UNL     1     -13.326  12.230  71.879  1.00  0.00    -0.431 A  
HETATM   34  C   UNL     1     -10.621  17.661  69.370  1.00  0.00     0.191 C  
HETATM   35  C   UNL     1     -13.774  13.328  72.606  1.00  0.00    -0.465 A  
HETATM   36  C   UNL     1     -10.898  16.247  69.874  1.00  0.00    -0.352 C  
HETATM   37  C   UNL     1     -11.114  15.268  68.728  1.00  0.00    -0.270 C  
HETATM   38  H   UNL     1     -10.768  13.127  68.809  1.00  0.00     0.000 HD 
HETATM   39  N   UNL     1     -11.269  13.907  69.236  1.00  0.00    -0.258 NA 
HETATM   40  C   UNL     1     -13.411  14.609  72.208  1.00  0.00    -0.507 A  
HETATM   41  C   UNL     1     -12.128  13.703  70.327  1.00  0.00    -0.357 A  
HETATM   42  C   UNL     1     -12.585  14.806  71.086  1.00  0.00    -0.407 A  
ENDBRANCH  28  31
ENDBRANCH  26  28
ENDBRANCH  13  26
ENDBRANCH   7  13
TORSDOF 8
ENDMDL
MODEL      176
REMARK 921   NORMALIZED FREE ENERGY PREDICTED BY IDOCK:   -5.64 KCAL/MOL
REMARK 922        TOTAL FREE ENERGY PREDICTED BY IDOCK:   -9.53 KCAL/MOL
REMARK 923 INTER-LIGAND FREE ENERGY PREDICTED BY IDOCK:   -7.95 KCAL/MOL
REMARK 924 INTRA-LIGAND FREE ENERGY PREDICTED BY IDOCK:   -1.58 KCAL/MOL
REMARK 927      BINDING AFFINITY PREDICTED BY RF-SCORE:    0.00 PKD
ROOT
HETATM    1  C   UNL     1     -10.700  16.464  69.834  1.00  0.00    -0.300 C  
HETATM    2  C   UNL     1     -11.192  15.186  69.170  1.00  0.00    -0.288 C  
HETATM    3  C   UNL     1     -11.838  14.231  70.179  1.00  0.00    -0.379 C  
HETATM    4  C   UNL     1     -12.286  12.934  69.506  1.00  0.00    -0.119 C  
HETATM    5  N   UNL     1     -11.223  12.304  68.675  1.00  0.00    -0.239 N  
HETATM    6  C   UNL     1     -10.549  13.217  67.726  1.00  0.00    -0.234 C  
HETATM    7  C   UNL     1     -10.688  11.092  69.133  1.00  0.00    -0.221 C  
HETATM    8  O   UNL     1     -11.104  10.636  70.207  1.00  0.00    -0.292 OA 
HETATM    9  O   UNL     1     -12.581  13.141  66.427  1.00  0.00    -0.332 OA 
HETATM   10  C   UNL     1     -10.038  14.461  68.461  1.00  0.00    -0.244 C  
HETATM   11  C   UNL     1     -11.354  13.660  66.500  1.00  0.00    -0.319 C  
HETATM   12  O   UNL     1     -10.931  14.429  65.652  1.00  0.00    -0.297 OA 
ENDROOT
BRANCH   7  13
HETATM   13  C   UNL     1      -9.678  10.202  68.325  1.00  0.00    -0.141 C  
BRANCH  13  14
HETATM   14  C   UNL     1      -9.957   9.898  66.829  1.00  0.00    -0.272 C  
BRANCH  14  15
HETATM   15  C   UNL     1      -8.673   9.581  66.034  1.00  0.00    -0.166 C  
BRANCH  15  16
HETATM   16  C   UNL     1      -8.326  10.629  64.965  1.00  0.00    -0.106 C  
BRANCH  16  17
HETATM   17  N   UNL     1      -9.544  11.323  64.591  1.00  0.00    -0.260 NA 
HETATM   18  H2  UNL     1     -11.688  12.444  64.220  1.00  0.00     0.000 HD 
HETATM   19  H1  UNL     1     -11.917  11.688  62.597  1.00  0.00     0.000 HD 
HETATM   20  N   UNL     1      -9.949  10.401  62.442  1.00  0.00    -0.749 NA 
HETATM   21  N   UNL     1     -11.389  11.837  63.457  1.00  0.00    -0.424 NA 
HETATM   22  C   UNL     1     -10.244  11.127  63.453  1.00  0.00    -0.380 C  
HETATM   23  H   UNL     1      -9.903  12.020  65.244  1.00  0.00     0.000 HD 
HETATM   24  H1  UNL     1     -10.478  10.252  61.582  1.00  0.00     0.000 HD 
HETATM   25  H2  UNL     1      -9.063   9.900  62.505  1.00  0.00     0.000 HD 
ENDBRANCH  16  17
ENDBRANCH  15  16
ENDBRANCH  14  15
ENDBRANCH  13  14
BRANCH  13  26
HETATM   26  N   UNL     1      -9.352   8.919  69.007  1.00  0.00    -0.144 N  
HETATM   27  H   UNL     1     -10.000   8.132  68.972  1.00  0.00     0.000 HD 
BRANCH  26  28
HETATM   28  S   UNL     1      -7.872   8.790  69.850  1.00  0.00    -0.099 S  
HETATM   29  O   UNL     1      -7.985   9.545  71.070  1.00  0.00    -0.321 OA 
HETATM   30  O   UNL     1      -6.853   9.123  68.875  1.00  0.00    -0.055 OA 
BRANCH  28  31
HETATM   31  C   UNL     1      -7.783   7.054  70.205  1.00  0.00    -0.100 A  
HETATM   32  C   UNL     1      -9.681   4.213  71.918  1.00  0.00    -0.235 C  
HETATM   33  C   UNL     1      -6.617   6.381  69.809  1.00  0.00    -0.048 A  
HETATM   34  C   UNL     1     -11.785   4.329  73.300  1.00  0.00    -0.093 C  
HETATM   35  C   UNL     1      -6.471   5.022  70.065  1.00  0.00    -0.035 A  
HETATM   36  C   UNL     1     -10.623   5.124  72.712  1.00  0.00    -0.278 C  
HETATM   37  C   UNL     1     -11.104   6.230  71.782  1.00  0.00    -0.273 C  
HETATM   38  H   UNL     1     -10.030   8.060  71.327  1.00  0.00     0.000 HD 
HETATM   39  N   UNL     1      -9.980   7.040  71.320  1.00  0.00    -0.190 NA 
HETATM   40  C   UNL     1      -7.488   4.332  70.715  1.00  0.00    -0.051 A  
HETATM   41  C   UNL     1      -8.829   6.377  70.866  1.00  0.00    -0.136 A  
HETATM   42  C   UNL     1      -8.657   4.997  71.127  1.00  0.00    -0.131 A  
ENDBRANCH  28  31
ENDBRANCH  26  28
ENDBRANCH  13  26
ENDBRANCH   7  13
TORSDOF 8
ENDMDL
MODEL      177
REMARK 921   NORMALIZED FREE ENERGY PREDICTED BY IDOCK:   -5.63 KCAL/MOL
REMARK 922        TOTAL FREE ENERGY PREDICTED BY IDOCK:   -9.51 KCAL/MOL
REMARK 923 INTER-LIGAND FREE ENERGY PREDICTED BY IDOCK:   -8.31 KCAL/MOL
REMARK 924 INTRA-LIGAND FREE ENERGY PREDICTED BY IDOCK:   -1.20 KCAL/MOL
REMARK 927      BINDING AFFINITY PREDICTED BY RF-SCORE:    0.00 PKD
ROOT
HETATM    1  C   UNL     1     -12.449  14.555  69.925  1.00  0.00    -0.300 C  
HETATM    2  C   UNL     1     -11.388  13.524  69.566  1.00  0.00    -0.265 C  
HETATM    3  C   UNL     1     -10.143  14.177  68.954  1.00  0.00    -0.155 C  
HETATM    4  C   UNL     1      -9.106  13.126  68.557  1.00  0.00    -0.053 C  
HETATM    5  N   UNL     1      -9.672  12.020  67.736  1.00  0.00    -0.187 N  
HETATM    6  C   UNL     1     -10.902  11.406  68.279  1.00  0.00    -0.209 C  
HETATM    7  C   UNL     1      -9.270  11.951  66.395  1.00  0.00    -0.215 C  
HETATM    8  O   UNL     1      -8.499  12.822  65.967  1.00  0.00     0.443 OA 
HETATM    9  O   UNL     1      -9.488  10.380  69.944  1.00  0.00    -0.111 OA 
HETATM   10  C   UNL     1     -11.946  12.488  68.579  1.00  0.00    -0.266 C  
HETATM   11  C   UNL     1     -10.744  10.514  69.515  1.00  0.00    -0.255 C  
HETATM   12  O   UNL     1     -11.677   9.965  70.079  1.00  0.00    -0.215 OA 
ENDROOT
BRANCH   7  13
HETATM   13  C   UNL     1      -9.630  10.776  65.417  1.00  0.00    -0.223 C  
BRANCH  13  14
HETATM   14  C   UNL     1     -10.729  10.988  64.342  1.00  0.00    -0.340 C  
BRANCH  14  15
HETATM   15  C   UNL     1     -11.694  12.140  64.692  1.00  0.00    -0.400 C  
BRANCH  15  16
HETATM   16  C   UNL     1     -11.499  13.400  63.834  1.00  0.00    -0.309 C  
BRANCH  16  17
HETATM   17  N   UNL     1     -10.812  14.397  64.633  1.00  0.00    -0.565 NA 
HETATM   18  H2  UNL     1      -9.692  15.908  66.199  1.00  0.00     0.000 HD 
HETATM   19  H1  UNL     1     -10.512  17.371  65.532  1.00  0.00     0.000 HD 
HETATM   20  N   UNL     1     -11.820  16.391  63.833  1.00  0.00    -1.402 NA 
HETATM   21  N   UNL     1     -10.332  16.367  65.551  1.00  0.00    -0.544 NA 
HETATM   22  C   UNL     1     -11.050  15.726  64.608  1.00  0.00    -0.361 C  
HETATM   23  H   UNL     1     -10.086  14.066  65.269  1.00  0.00     0.000 HD 
HETATM   24  H1  UNL     1     -12.000  17.395  63.814  1.00  0.00     0.000 HD 
HETATM   25  H2  UNL     1     -12.324  15.841  63.137  1.00  0.00     0.000 HD 
ENDBRANCH  16  17
ENDBRANCH  15  16
ENDBRANCH  14  15
ENDBRANCH  13  14
BRANCH  13  26
HETATM   26  N   UNL     1      -9.907   9.493  66.119  1.00  0.00    -0.256 N  
HETATM   27  H   UNL     1     -10.826   9.309  66.522  1.00  0.00     0.000 HD 
BRANCH  26  28
HETATM   28  S   UNL     1      -8.659   8.334  66.235  1.00  0.00    -0.146 S  
HETATM   29  O   UNL     1      -7.544   8.943  66.914  1.00  0.00    -0.086 OA 
HETATM   30  O   UNL     1      -8.501   7.813  64.893  1.00  0.00    -0.112 OA 
BRANCH  28  31
HETATM   31  C   UNL     1      -9.391   7.082  67.256  1.00  0.00    -0.133 A  
HETATM   32  C   UNL     1      -9.226   3.348  68.056  1.00  0.00    -0.238 C  
HETATM   33  C   UNL     1     -10.466   7.471  68.070  1.00  0.00    -0.253 A  
HETATM   34  C   UNL     1      -7.868   1.551  66.926  1.00  0.00    -0.065 C  
HETATM   35  C   UNL     1     -11.099   6.541  68.888  1.00  0.00    -0.371 A  
HETATM   36  C   UNL     1      -8.426   2.966  66.806  1.00  0.00    -0.101 C  
HETATM   37  C   UNL     1      -7.323   3.999  66.619  1.00  0.00    -0.072 C  
HETATM   38  H   UNL     1      -7.543   5.929  65.652  1.00  0.00     0.000 HD 
HETATM   39  N   UNL     1      -7.890   5.326  66.399  1.00  0.00    -0.103 NA 
HETATM   40  C   UNL     1     -10.659   5.222  68.896  1.00  0.00    -0.128 A  
HETATM   41  C   UNL     1      -8.927   5.750  67.246  1.00  0.00    -0.112 A  
HETATM   42  C   UNL     1      -9.591   4.816  68.076  1.00  0.00    -0.199 A  
ENDBRANCH  28  31
ENDBRANCH  26  28
ENDBRANCH  13  26
ENDBRANCH   7  13
TORSDOF 8
ENDMDL
MODEL      178
REMARK 921   NORMALIZED FREE ENERGY PREDICTED BY IDOCK:   -5.63 KCAL/MOL
REMARK 922        TOTAL FREE ENERGY PREDICTED BY IDOCK:   -9.51 KCAL/MOL
REMARK 923 INTER-LIGAND FREE ENERGY PREDICTED BY IDOCK:   -7.33 KCAL/MOL
REMARK 924 INTRA-LIGAND FREE ENERGY PREDICTED BY IDOCK:   -2.18 KCAL/MOL
REMARK 927      BINDING AFFINITY PREDICTED BY RF-SCORE:    0.00 PKD
ROOT
HETATM    1  C   UNL     1      -9.411   9.788  63.311  1.00  0.00    -0.125 C  
HETATM    2  C   UNL     1     -10.084  11.095  63.701  1.00  0.00    -0.432 C  
HETATM    3  C   UNL     1      -9.063  12.211  63.948  1.00  0.00     0.664 C  
HETATM    4  C   UNL     1      -9.751  13.505  64.382  1.00  0.00     0.668 C  
HETATM    5  N   UNL     1     -10.715  13.313  65.501  1.00  0.00    -0.283 N  
HETATM    6  C   UNL     1     -11.681  12.209  65.310  1.00  0.00    -0.308 C  
HETATM    7  C   UNL     1     -10.373  13.869  66.741  1.00  0.00    -0.272 C  
HETATM    8  O   UNL     1      -9.286  14.455  66.842  1.00  0.00    -0.234 OA 
HETATM    9  O   UNL     1     -12.771  13.630  63.691  1.00  0.00    -0.692 OA 
HETATM   10  C   UNL     1     -10.941  10.913  64.963  1.00  0.00    -0.035 C  
HETATM   11  C   UNL     1     -12.796  12.434  64.283  1.00  0.00    -0.258 C  
HETATM   12  O   UNL     1     -13.644  11.599  64.008  1.00  0.00    -0.232 OA 
ENDROOT
BRANCH   7  13
HETATM   13  C   UNL     1     -11.322  13.908  67.992  1.00  0.00    -0.288 C  
BRANCH  13  14
HETATM   14  C   UNL     1     -11.800  15.277  68.544  1.00  0.00    -0.305 C  
BRANCH  14  15
HETATM   15  C   UNL     1     -10.812  15.892  69.557  1.00  0.00    -0.305 C  
BRANCH  15  16
HETATM   16  C   UNL     1      -9.942  17.017  68.976  1.00  0.00    -0.269 C  
BRANCH  16  17
HETATM   17  N   UNL     1     -10.506  17.422  67.701  1.00  0.00    -0.361 NA 
HETATM   18  H2  UNL     1     -11.673  17.937  65.613  1.00  0.00     0.000 HD 
HETATM   19  H1  UNL     1     -10.169  17.807  64.623  1.00  0.00     0.000 HD 
HETATM   20  N   UNL     1      -8.596  17.289  66.299  1.00  0.00    -0.416 NA 
HETATM   21  N   UNL     1     -10.672  17.770  65.510  1.00  0.00    -0.546 NA 
HETATM   22  C   UNL     1      -9.841  17.471  66.527  1.00  0.00    -0.310 C  
HETATM   23  H   UNL     1     -11.489  17.692  67.692  1.00  0.00     0.000 HD 
HETATM   24  H1  UNL     1      -8.093  17.326  65.412  1.00  0.00     0.000 HD 
HETATM   25  H2  UNL     1      -8.026  17.077  67.118  1.00  0.00     0.000 HD 
ENDBRANCH  16  17
ENDBRANCH  15  16
ENDBRANCH  14  15
ENDBRANCH  13  14
BRANCH  13  26
HETATM   26  N   UNL     1     -10.821  13.095  69.134  1.00  0.00    -0.428 N  
HETATM   27  H   UNL     1     -10.339  13.539  69.916  1.00  0.00     0.000 HD 
BRANCH  26  28
HETATM   28  S   UNL     1     -11.069  11.406  69.111  1.00  0.00    -0.268 S  
HETATM   29  O   UNL     1     -12.202  11.131  68.266  1.00  0.00    -0.613 OA 
HETATM   30  O   UNL     1     -11.081  11.008  70.503  1.00  0.00    -0.084 OA 
BRANCH  28  31
HETATM   31  C   UNL     1      -9.578  10.811  68.355  1.00  0.00    -0.176 A  
HETATM   32  C   UNL     1      -8.115   7.807  66.499  1.00  0.00    -0.111 C  
HETATM   33  C   UNL     1      -8.441  11.628  68.456  1.00  0.00    -0.135 A  
HETATM   34  C   UNL     1      -9.172   5.564  66.047  1.00  0.00    -0.168 C  
HETATM   35  C   UNL     1      -7.234  11.221  67.899  1.00  0.00    -0.086 A  
HETATM   36  C   UNL     1      -9.234   6.835  66.890  1.00  0.00    -0.162 C  
HETATM   37  C   UNL     1     -10.564   7.559  66.730  1.00  0.00    -0.198 C  
HETATM   38  H   UNL     1     -11.470   8.884  68.189  1.00  0.00     0.000 HD 
HETATM   39  N   UNL     1     -10.637   8.709  67.626  1.00  0.00    -0.234 NA 
HETATM   40  C   UNL     1      -7.159  10.000  67.239  1.00  0.00    -0.085 A  
HETATM   41  C   UNL     1      -9.528   9.567  67.692  1.00  0.00    -0.131 A  
HETATM   42  C   UNL     1      -8.287   9.166  67.141  1.00  0.00    -0.117 A  
ENDBRANCH  28  31
ENDBRANCH  26  28
ENDBRANCH  13  26
ENDBRANCH   7  13
TORSDOF 8
ENDMDL
MODEL      179
REMARK 921   NORMALIZED FREE ENERGY PREDICTED BY IDOCK:   -5.62 KCAL/MOL
REMARK 922        TOTAL FREE ENERGY PREDICTED BY IDOCK:   -9.50 KCAL/MOL
REMARK 923 INTER-LIGAND FREE ENERGY PREDICTED BY IDOCK:   -7.56 KCAL/MOL
REMARK 924 INTRA-LIGAND FREE ENERGY PREDICTED BY IDOCK:   -1.94 KCAL/MOL
REMARK 927      BINDING AFFINITY PREDICTED BY RF-SCORE:    0.00 PKD
ROOT
HETATM    1  C   UNL     1      -7.400   6.304  62.786  1.00  0.00    -0.060 C  
HETATM    2  C   UNL     1      -6.884   6.810  64.126  1.00  0.00    -0.050 C  
HETATM    3  C   UNL     1      -5.999   5.771  64.824  1.00  0.00    -0.025 C  
HETATM    4  C   UNL     1      -5.525   6.275  66.187  1.00  0.00    -0.013 C  
HETATM    5  N   UNL     1      -6.629   6.796  67.040  1.00  0.00    -0.043 N  
HETATM    6  C   UNL     1      -7.528   7.763  66.374  1.00  0.00    -0.084 C  
HETATM    7  C   UNL     1      -6.961   6.052  68.180  1.00  0.00    -0.076 C  
HETATM    8  O   UNL     1      -6.344   4.999  68.394  1.00  0.00    -0.033 OA 
HETATM    9  O   UNL     1      -5.717   9.349  66.540  1.00  0.00    -0.052 OA 
HETATM   10  C   UNL     1      -8.049   7.180  65.055  1.00  0.00    -0.119 C  
HETATM   11  C   UNL     1      -6.966   9.164  66.109  1.00  0.00    -0.086 C  
HETATM   12  O   UNL     1      -7.589  10.050  65.547  1.00  0.00    -0.123 OA 
ENDROOT
BRANCH   7  13
HETATM   13  C   UNL     1      -7.982   6.515  69.280  1.00  0.00    -0.111 C  
BRANCH  13  14
HETATM   14  C   UNL     1      -9.467   6.077  69.175  1.00  0.00    -0.146 C  
BRANCH  14  15
HETATM   15  C   UNL     1     -10.303   7.007  68.273  1.00  0.00    -0.223 C  
BRANCH  15  16
HETATM   16  C   UNL     1     -10.975   6.292  67.091  1.00  0.00    -0.370 C  
BRANCH  16  17
HETATM   17  N   UNL     1     -10.150   5.160  66.710  1.00  0.00    -0.206 NA 
HETATM   18  H2  UNL     1      -8.538   3.417  66.115  1.00  0.00     0.000 HD 
HETATM   19  H1  UNL     1      -9.490   2.888  64.675  1.00  0.00     0.000 HD 
HETATM   20  N   UNL     1     -11.318   4.370  64.802  1.00  0.00    -1.031 NA 
HETATM   21  N   UNL     1      -9.342   3.484  65.490  1.00  0.00    -0.156 NA 
HETATM   22  C   UNL     1     -10.346   4.371  65.632  1.00  0.00    -0.225 C  
HETATM   23  H   UNL     1      -9.354   4.942  67.309  1.00  0.00     0.000 HD 
HETATM   24  H1  UNL     1     -11.467   3.774  63.987  1.00  0.00     0.000 HD 
HETATM   25  H2  UNL     1     -12.047   5.061  64.978  1.00  0.00     0.000 HD 
ENDBRANCH  16  17
ENDBRANCH  15  16
ENDBRANCH  14  15
ENDBRANCH  13  14
BRANCH  13  26
HETATM   26  N   UNL     1      -7.947   7.982  69.532  1.00  0.00    -0.112 N  
HETATM   27  H   UNL     1      -7.773   8.637  68.770  1.00  0.00     0.000 HD 
BRANCH  26  28
HETATM   28  S   UNL     1      -8.203   8.547  71.123  1.00  0.00    -0.158 S  
HETATM   29  O   UNL     1      -7.286   9.630  71.366  1.00  0.00    -0.302 OA 
HETATM   30  O   UNL     1      -8.172   7.362  71.954  1.00  0.00    -0.104 OA 
BRANCH  28  31
HETATM   31  C   UNL     1      -9.868   9.154  71.050  1.00  0.00    -0.296 A  
HETATM   32  C   UNL     1     -12.140  11.540  69.111  1.00  0.00    -0.329 C  
HETATM   33  C   UNL     1     -10.753   8.710  72.045  1.00  0.00    -0.427 A  
HETATM   34  C   UNL     1     -11.529  13.166  67.286  1.00  0.00    -0.375 C  
HETATM   35  C   UNL     1     -12.072   9.153  72.059  1.00  0.00    -0.431 A  
HETATM   36  C   UNL     1     -11.000  12.304  68.429  1.00  0.00    -0.270 C  
HETATM   37  C   UNL     1      -9.973  11.289  67.948  1.00  0.00    -0.175 C  
HETATM   38  H   UNL     1      -8.400  10.407  69.155  1.00  0.00     0.000 HD 
HETATM   39  N   UNL     1      -9.407  10.554  69.075  1.00  0.00    -0.192 NA 
HETATM   40  C   UNL     1     -12.509  10.039  71.081  1.00  0.00    -0.480 A  
HETATM   41  C   UNL     1     -10.288  10.053  70.047  1.00  0.00    -0.272 A  
HETATM   42  C   UNL     1     -11.630  10.501  70.085  1.00  0.00    -0.408 A  
ENDBRANCH  28  31
ENDBRANCH  26  28
ENDBRANCH  13  26
ENDBRANCH   7  13
TORSDOF 8
ENDMDL
MODEL      180
REMARK 921   NORMALIZED FREE ENERGY PREDICTED BY IDOCK:   -5.61 KCAL/MOL
REMARK 922        TOTAL FREE ENERGY PREDICTED BY IDOCK:   -9.49 KCAL/MOL
REMARK 923 INTER-LIGAND FREE ENERGY PREDICTED BY IDOCK:   -8.19 KCAL/MOL
REMARK 924 INTRA-LIGAND FREE ENERGY PREDICTED BY IDOCK:   -1.30 KCAL/MOL
REMARK 927      BINDING AFFINITY PREDICTED BY RF-SCORE:    0.00 PKD
ROOT
HETATM    1  C   UNL     1      -7.413  17.812  66.545  1.00  0.00    -0.284 C  
HETATM    2  C   UNL     1      -7.922  16.794  67.555  1.00  0.00    -0.189 C  
HETATM    3  C   UNL     1      -6.787  16.228  68.415  1.00  0.00    -0.137 C  
HETATM    4  C   UNL     1      -7.307  15.174  69.393  1.00  0.00    -0.203 C  
HETATM    5  N   UNL     1      -8.148  14.131  68.744  1.00  0.00    -0.123 N  
HETATM    6  C   UNL     1      -9.221  14.651  67.868  1.00  0.00    -0.197 C  
HETATM    7  C   UNL     1      -7.619  12.836  68.675  1.00  0.00    -0.085 C  
HETATM    8  O   UNL     1      -6.481  12.641  69.126  1.00  0.00    -0.095 OA 
HETATM    9  O   UNL     1     -10.364  15.304  69.891  1.00  0.00    -0.269 OA 
HETATM   10  C   UNL     1      -8.639  15.635  66.847  1.00  0.00    -0.281 C  
HETATM   11  C   UNL     1     -10.423  15.304  68.557  1.00  0.00    -0.235 C  
HETATM   12  O   UNL     1     -11.366  15.795  67.957  1.00  0.00    -0.348 OA 
ENDROOT
BRANCH   7  13
HETATM   13  C   UNL     1      -8.410  11.575  68.174  1.00  0.00    -0.152 C  
BRANCH  13  14
HETATM   14  C   UNL     1      -9.267  11.676  66.884  1.00  0.00    -0.187 C  
BRANCH  14  15
HETATM   15  C   UNL     1     -10.705  11.153  67.080  1.00  0.00    -0.316 C  
BRANCH  15  16
HETATM   16  C   UNL     1     -11.779  12.252  67.047  1.00  0.00    -0.329 C  
BRANCH  16  17
HETATM   17  N   UNL     1     -12.293  12.350  65.693  1.00  0.00    -0.621 NA 
HETATM   18  H2  UNL     1     -13.066  12.255  63.373  1.00  0.00     0.000 HD 
HETATM   19  H1  UNL     1     -12.476  13.920  63.002  1.00  0.00     0.000 HD 
HETATM   20  N   UNL     1     -11.570  14.529  65.092  1.00  0.00    -0.359 NA 
HETATM   21  N   UNL     1     -12.612  13.131  63.634  1.00  0.00    -0.731 NA 
HETATM   22  C   UNL     1     -12.113  13.395  64.857  1.00  0.00    -0.392 C  
HETATM   23  H   UNL     1     -12.838  11.562  65.343  1.00  0.00     0.000 HD 
HETATM   24  H1  UNL     1     -11.434  15.319  64.460  1.00  0.00     0.000 HD 
HETATM   25  H2  UNL     1     -11.225  14.662  66.042  1.00  0.00     0.000 HD 
ENDBRANCH  16  17
ENDBRANCH  15  16
ENDBRANCH  14  15
ENDBRANCH  13  14
BRANCH  13  26
HETATM   26  N   UNL     1      -9.241  10.943  69.236  1.00  0.00    -0.397 N  
HETATM   27  H   UNL     1     -10.131  11.356  69.515  1.00  0.00     0.000 HD 
BRANCH  26  28
HETATM   28  S   UNL     1      -8.675   9.514  69.978  1.00  0.00    -0.234 S  
HETATM   29  O   UNL     1      -9.812   8.794  70.490  1.00  0.00    -0.172 OA 
HETATM   30  O   UNL     1      -7.620   9.945  70.872  1.00  0.00    -0.293 OA 
BRANCH  28  31
HETATM   31  C   UNL     1      -7.951   8.636  68.617  1.00  0.00    -0.115 A  
HETATM   32  C   UNL     1      -8.755   6.072  65.898  1.00  0.00    -0.157 C  
HETATM   33  C   UNL     1      -6.580   8.830  68.389  1.00  0.00    -0.060 A  
HETATM   34  C   UNL     1     -10.868   4.744  65.557  1.00  0.00    -0.086 C  
HETATM   35  C   UNL     1      -5.942   8.165  67.347  1.00  0.00    -0.050 A  
HETATM   36  C   UNL     1     -10.055   5.580  66.541  1.00  0.00    -0.241 C  
HETATM   37  C   UNL     1     -10.830   6.796  67.029  1.00  0.00    -0.383 C  
HETATM   38  H   UNL     1     -10.516   7.828  68.911  1.00  0.00     0.000 HD 
HETATM   39  N   UNL     1     -10.072   7.517  68.047  1.00  0.00    -0.175 NA 
HETATM   40  C   UNL     1      -6.670   7.307  66.531  1.00  0.00    -0.060 A  
HETATM   41  C   UNL     1      -8.712   7.770  67.804  1.00  0.00    -0.123 A  
HETATM   42  C   UNL     1      -8.042   7.094  66.757  1.00  0.00    -0.113 A  
ENDBRANCH  28  31
ENDBRANCH  26  28
ENDBRANCH  13  26
ENDBRANCH   7  13
TORSDOF 8
ENDMDL
MODEL      181
REMARK 921   NORMALIZED FREE ENERGY PREDICTED BY IDOCK:   -5.61 KCAL/MOL
REMARK 922        TOTAL FREE ENERGY PREDICTED BY IDOCK:   -9.48 KCAL/MOL
REMARK 923 INTER-LIGAND FREE ENERGY PREDICTED BY IDOCK:   -8.17 KCAL/MOL
REMARK 924 INTRA-LIGAND FREE ENERGY PREDICTED BY IDOCK:   -1.31 KCAL/MOL
REMARK 927      BINDING AFFINITY PREDICTED BY RF-SCORE:    0.00 PKD
ROOT
HETATM    1  C   UNL     1      -5.914  13.848  67.614  1.00  0.00    -0.059 C  
HETATM    2  C   UNL     1      -6.052  12.356  67.879  1.00  0.00    -0.093 C  
HETATM    3  C   UNL     1      -6.118  11.549  66.578  1.00  0.00    -0.086 C  
HETATM    4  C   UNL     1      -6.301  10.058  66.859  1.00  0.00    -0.065 C  
HETATM    5  N   UNL     1      -7.416   9.769  67.803  1.00  0.00    -0.090 N  
HETATM    6  C   UNL     1      -7.404  10.570  69.047  1.00  0.00    -0.103 C  
HETATM    7  C   UNL     1      -8.544   9.123  67.281  1.00  0.00    -0.118 C  
HETATM    8  O   UNL     1      -8.562   8.860  66.070  1.00  0.00    -0.130 OA 
HETATM    9  O   UNL     1      -5.537   9.208  69.741  1.00  0.00    -0.032 OA 
HETATM   10  C   UNL     1      -7.309  12.063  68.713  1.00  0.00    -0.098 C  
HETATM   11  C   UNL     1      -6.331  10.224  70.084  1.00  0.00    -0.117 C  
HETATM   12  O   UNL     1      -6.191  10.819  71.141  1.00  0.00    -0.344 OA 
ENDROOT
BRANCH   7  13
HETATM   13  C   UNL     1      -9.748   8.597  68.141  1.00  0.00    -0.158 C  
BRANCH  13  14
HETATM   14  C   UNL     1     -10.036   7.074  68.199  1.00  0.00    -0.193 C  
BRANCH  14  15
HETATM   15  C   UNL     1     -10.658   6.532  66.896  1.00  0.00    -0.376 C  
BRANCH  15  16
HETATM   16  C   UNL     1     -10.591   5.003  66.760  1.00  0.00    -0.157 C  
BRANCH  16  17
HETATM   17  N   UNL     1     -11.057   4.640  65.434  1.00  0.00    -0.958 NA 
HETATM   18  H2  UNL     1     -12.089   3.966  63.319  1.00  0.00     0.000 HD 
HETATM   19  H1  UNL     1     -10.637   3.033  62.792  1.00  0.00     0.000 HD 
HETATM   20  N   UNL     1      -9.206   3.393  64.630  1.00  0.00    -0.133 NA 
HETATM   21  N   UNL     1     -11.141   3.617  63.460  1.00  0.00    -0.218 NA 
HETATM   22  C   UNL     1     -10.390   3.867  64.550  1.00  0.00    -0.220 C  
HETATM   23  H   UNL     1     -11.968   4.999  65.145  1.00  0.00     0.000 HD 
HETATM   24  H1  UNL     1      -8.701   2.809  63.962  1.00  0.00     0.000 HD 
HETATM   25  H2  UNL     1      -8.693   3.631  65.478  1.00  0.00     0.000 HD 
ENDBRANCH  16  17
ENDBRANCH  15  16
ENDBRANCH  14  15
ENDBRANCH  13  14
BRANCH  13  26
HETATM   26  N   UNL     1     -11.028   9.302  67.852  1.00  0.00    -0.500 N  
HETATM   27  H   UNL     1     -11.716   8.892  67.220  1.00  0.00     0.000 HD 
BRANCH  26  28
HETATM   28  S   UNL     1     -11.321  10.809  68.598  1.00  0.00    -0.294 S  
HETATM   29  O   UNL     1     -10.389  10.960  69.685  1.00  0.00    -0.170 OA 
HETATM   30  O   UNL     1     -12.748  10.834  68.849  1.00  0.00    -0.153 OA 
BRANCH  28  31
HETATM   31  C   UNL     1     -10.946  11.959  67.300  1.00  0.00    -0.268 A  
HETATM   32  C   UNL     1     -10.287  15.664  66.634  1.00  0.00    -0.290 C  
HETATM   33  C   UNL     1     -10.899  11.451  65.992  1.00  0.00    -0.306 A  
HETATM   34  C   UNL     1     -10.458  17.609  68.228  1.00  0.00    -0.376 C  
HETATM   35  C   UNL     1     -10.623  12.296  64.922  1.00  0.00    -0.329 A  
HETATM   36  C   UNL     1     -10.847  16.155  67.973  1.00  0.00    -0.333 C  
HETATM   37  C   UNL     1     -10.335  15.229  69.067  1.00  0.00    -0.242 C  
HETATM   38  H   UNL     1     -11.204  13.320  69.623  1.00  0.00     0.000 HD 
HETATM   39  N   UNL     1     -10.812  13.866  68.855  1.00  0.00    -0.256 NA 
HETATM   40  C   UNL     1     -10.392  13.646  65.155  1.00  0.00    -0.381 A  
HETATM   41  C   UNL     1     -10.716  13.326  67.562  1.00  0.00    -0.250 A  
HETATM   42  C   UNL     1     -10.448  14.170  66.459  1.00  0.00    -0.280 A  
ENDBRANCH  28  31
ENDBRANCH  26  28
ENDBRANCH  13  26
ENDBRANCH   7  13
TORSDOF 8
ENDMDL
MODEL      182
REMARK 921   NORMALIZED FREE ENERGY PREDICTED BY IDOCK:   -5.58 KCAL/MOL
REMARK 922        TOTAL FREE ENERGY PREDICTED BY IDOCK:   -9.44 KCAL/MOL
REMARK 923 INTER-LIGAND FREE ENERGY PREDICTED BY IDOCK:   -8.03 KCAL/MOL
REMARK 924 INTRA-LIGAND FREE ENERGY PREDICTED BY IDOCK:   -1.40 KCAL/MOL
REMARK 927      BINDING AFFINITY PREDICTED BY RF-SCORE:    0.00 PKD
ROOT
HETATM    1  C   UNL     1     -12.383  15.298  64.105  1.00  0.00    -0.065 C  
HETATM    2  C   UNL     1     -11.888  13.978  64.678  1.00  0.00    -0.433 C  
HETATM    3  C   UNL     1     -12.525  13.672  66.038  1.00  0.00    -0.477 C  
HETATM    4  C   UNL     1     -11.985  12.366  66.621  1.00  0.00    -0.229 C  
HETATM    5  N   UNL     1     -10.498  12.292  66.623  1.00  0.00    -0.220 N  
HETATM    6  C   UNL     1      -9.854  12.632  65.335  1.00  0.00    -0.141 C  
HETATM    7  C   UNL     1      -9.858  12.331  67.869  1.00  0.00    -0.201 C  
HETATM    8  O   UNL     1     -10.558  12.453  68.885  1.00  0.00    -0.207 OA 
HETATM    9  O   UNL     1     -10.654  10.500  64.534  1.00  0.00    -0.246 OA 
HETATM   10  C   UNL     1     -10.360  13.989  64.833  1.00  0.00    -0.434 C  
HETATM   11  C   UNL     1      -9.983  11.606  64.205  1.00  0.00    -0.277 C  
HETATM   12  O   UNL     1      -9.522  11.767  63.086  1.00  0.00    -0.330 OA 
ENDROOT
BRANCH   7  13
HETATM   13  C   UNL     1      -8.319  12.110  68.088  1.00  0.00    -0.170 C  
BRANCH  13  14
HETATM   14  C   UNL     1      -7.312  13.159  67.547  1.00  0.00    -0.153 C  
BRANCH  14  15
HETATM   15  C   UNL     1      -7.502  14.552  68.181  1.00  0.00    -0.126 C  
BRANCH  15  16
HETATM   16  C   UNL     1      -8.269  15.544  67.292  1.00  0.00    -0.197 C  
BRANCH  16  17
HETATM   17  N   UNL     1      -7.989  16.889  67.759  1.00  0.00    -0.177 NA 
HETATM   18  H2  UNL     1      -7.740  19.128  68.716  1.00  0.00     0.000 HD 
HETATM   19  H1  UNL     1      -7.427  19.890  67.109  1.00  0.00     0.000 HD 
HETATM   20  N   UNL     1      -7.556  17.999  65.707  1.00  0.00    -0.550 NA 
HETATM   21  N   UNL     1      -7.627  19.084  67.703  1.00  0.00    -0.236 NA 
HETATM   22  C   UNL     1      -7.724  17.955  66.974  1.00  0.00    -0.211 C  
HETATM   23  H   UNL     1      -7.994  17.043  68.768  1.00  0.00     0.000 HD 
HETATM   24  H1  UNL     1      -7.355  18.805  65.114  1.00  0.00     0.000 HD 
HETATM   25  H2  UNL     1      -7.633  17.106  65.222  1.00  0.00     0.000 HD 
ENDBRANCH  16  17
ENDBRANCH  15  16
ENDBRANCH  14  15
ENDBRANCH  13  14
BRANCH  13  26
HETATM   26  N   UNL     1      -7.855  10.759  67.666  1.00  0.00    -0.108 N  
HETATM   27  H   UNL     1      -7.697  10.548  66.680  1.00  0.00     0.000 HD 
BRANCH  26  28
HETATM   28  S   UNL     1      -7.593   9.570  68.862  1.00  0.00    -0.077 S  
HETATM   29  O   UNL     1      -7.813  10.174  70.150  1.00  0.00    -0.170 OA 
HETATM   30  O   UNL     1      -6.307   8.986  68.539  1.00  0.00    -0.052 OA 
BRANCH  28  31
HETATM   31  C   UNL     1      -8.866   8.386  68.511  1.00  0.00    -0.136 A  
HETATM   32  C   UNL     1     -10.484   5.193  69.851  1.00  0.00    -0.296 C  
HETATM   33  C   UNL     1      -9.570   8.544  67.307  1.00  0.00    -0.220 A  
HETATM   34  C   UNL     1      -9.791   3.778  71.818  1.00  0.00    -0.244 C  
HETATM   35  C   UNL     1     -10.573   7.646  66.959  1.00  0.00    -0.406 A  
HETATM   36  C   UNL     1      -9.354   4.856  70.830  1.00  0.00    -0.211 C  
HETATM   37  C   UNL     1      -8.943   6.141  71.536  1.00  0.00    -0.143 C  
HETATM   38  H   UNL     1      -7.567   7.629  70.760  1.00  0.00     0.000 HD 
HETATM   39  N   UNL     1      -8.430   7.115  70.577  1.00  0.00    -0.137 NA 
HETATM   40  C   UNL     1     -10.878   6.592  67.812  1.00  0.00    -0.395 A  
HETATM   41  C   UNL     1      -9.156   7.324  69.394  1.00  0.00    -0.142 A  
HETATM   42  C   UNL     1     -10.173   6.416  69.016  1.00  0.00    -0.216 A  
ENDBRANCH  28  31
ENDBRANCH  26  28
ENDBRANCH  13  26
ENDBRANCH   7  13
TORSDOF 8
ENDMDL
MODEL      183
REMARK 921   NORMALIZED FREE ENERGY PREDICTED BY IDOCK:   -5.58 KCAL/MOL
REMARK 922        TOTAL FREE ENERGY PREDICTED BY IDOCK:   -9.43 KCAL/MOL
REMARK 923 INTER-LIGAND FREE ENERGY PREDICTED BY IDOCK:   -8.58 KCAL/MOL
REMARK 924 INTRA-LIGAND FREE ENERGY PREDICTED BY IDOCK:   -0.85 KCAL/MOL
REMARK 927      BINDING AFFINITY PREDICTED BY RF-SCORE:    0.00 PKD
ROOT
HETATM    1  C   UNL     1     -12.413  14.879  70.131  1.00  0.00    -0.353 C  
HETATM    2  C   UNL     1     -11.457  13.785  69.677  1.00  0.00    -0.300 C  
HETATM    3  C   UNL     1     -10.185  14.365  69.048  1.00  0.00    -0.185 C  
HETATM    4  C   UNL     1      -9.255  13.256  68.556  1.00  0.00    -0.073 C  
HETATM    5  N   UNL     1      -9.942  12.246  67.704  1.00  0.00    -0.195 N  
HETATM    6  C   UNL     1     -11.199  11.706  68.266  1.00  0.00    -0.260 C  
HETATM    7  C   UNL     1      -9.597  12.216  66.346  1.00  0.00    -0.234 C  
HETATM    8  O   UNL     1      -8.772  13.042  65.931  1.00  0.00     0.424 OA 
HETATM    9  O   UNL     1      -9.815  10.480  69.817  1.00  0.00    -0.160 OA 
HETATM   10  C   UNL     1     -12.136  12.853  68.663  1.00  0.00    -0.171 C  
HETATM   11  C   UNL     1     -11.071  10.739  69.447  1.00  0.00    -0.268 C  
HETATM   12  O   UNL     1     -12.026  10.239  70.022  1.00  0.00    -0.250 OA 
ENDROOT
BRANCH   7  13
HETATM   13  C   UNL     1     -10.091  11.129  65.325  1.00  0.00    -0.276 C  
BRANCH  13  14
HETATM   14  C   UNL     1     -11.338  11.417  64.447  1.00  0.00    -0.214 C  
BRANCH  14  15
HETATM   15  C   UNL     1     -12.358  12.342  65.142  1.00  0.00    -0.403 C  
BRANCH  15  16
HETATM   16  C   UNL     1     -12.409  13.763  64.561  1.00  0.00    -0.358 C  
BRANCH  16  17
HETATM   17  N   UNL     1     -11.318  14.532  65.131  1.00  0.00    -0.350 NA 
HETATM   18  H2  UNL     1      -9.563  15.733  66.343  1.00  0.00     0.000 HD 
HETATM   19  H1  UNL     1      -9.796  17.245  65.385  1.00  0.00     0.000 HD 
HETATM   20  N   UNL     1     -11.525  16.570  63.932  1.00  0.00    -1.599 NA 
HETATM   21  N   UNL     1     -10.025  16.277  65.614  1.00  0.00    -0.506 NA 
HETATM   22  C   UNL     1     -11.016  15.813  64.828  1.00  0.00    -0.393 C  
HETATM   23  H   UNL     1     -10.729  14.065  65.821  1.00  0.00     0.000 HD 
HETATM   24  H1  UNL     1     -11.297  17.537  63.703  1.00  0.00     0.000 HD 
HETATM   25  H2  UNL     1     -12.263  16.148  63.369  1.00  0.00     0.000 HD 
ENDBRANCH  16  17
ENDBRANCH  15  16
ENDBRANCH  14  15
ENDBRANCH  13  14
BRANCH  13  26
HETATM   26  N   UNL     1     -10.254   9.781  65.937  1.00  0.00    -0.228 N  
HETATM   27  H   UNL     1     -11.181   9.424  66.169  1.00  0.00     0.000 HD 
BRANCH  26  28
HETATM   28  S   UNL     1      -8.860   8.844  66.242  1.00  0.00    -0.169 S  
HETATM   29  O   UNL     1      -7.860   9.704  66.819  1.00  0.00    -0.101 OA 
HETATM   30  O   UNL     1      -8.597   8.145  65.002  1.00  0.00    -0.143 OA 
BRANCH  28  31
HETATM   31  C   UNL     1      -9.439   7.678  67.448  1.00  0.00    -0.143 A  
HETATM   32  C   UNL     1      -8.572   6.148  70.841  1.00  0.00    -0.132 C  
HETATM   33  C   UNL     1     -10.599   6.954  67.129  1.00  0.00    -0.408 A  
HETATM   34  C   UNL     1      -6.488   6.454  72.224  1.00  0.00    -0.055 C  
HETATM   35  C   UNL     1     -11.105   6.013  68.020  1.00  0.00    -0.233 A  
HETATM   36  C   UNL     1      -7.110   6.606  70.839  1.00  0.00    -0.069 C  
HETATM   37  C   UNL     1      -7.068   8.048  70.352  1.00  0.00    -0.045 C  
HETATM   38  H   UNL     1      -7.071   8.686  68.278  1.00  0.00     0.000 HD 
HETATM   39  N   UNL     1      -7.571   8.145  68.984  1.00  0.00    -0.095 NA 
HETATM   40  C   UNL     1     -10.456   5.794  69.229  1.00  0.00    -0.358 A  
HETATM   41  C   UNL     1      -8.762   7.473  68.668  1.00  0.00    -0.128 A  
HETATM   42  C   UNL     1      -9.286   6.504  69.556  1.00  0.00    -0.148 A  
ENDBRANCH  28  31
ENDBRANCH  26  28
ENDBRANCH  13  26
ENDBRANCH   7  13
TORSDOF 8
ENDMDL
MODEL      184
REMARK 921   NORMALIZED FREE ENERGY PREDICTED BY IDOCK:   -5.58 KCAL/MOL
REMARK 922        TOTAL FREE ENERGY PREDICTED BY IDOCK:   -9.43 KCAL/MOL
REMARK 923 INTER-LIGAND FREE ENERGY PREDICTED BY IDOCK:   -8.28 KCAL/MOL
REMARK 924 INTRA-LIGAND FREE ENERGY PREDICTED BY IDOCK:   -1.15 KCAL/MOL
REMARK 927      BINDING AFFINITY PREDICTED BY RF-SCORE:    0.00 PKD
ROOT
HETATM    1  C   UNL     1      -6.369   3.896  64.860  1.00  0.00    -0.027 C  
HETATM    2  C   UNL     1      -7.574   3.771  65.781  1.00  0.00    -0.081 C  
HETATM    3  C   UNL     1      -8.853   4.300  65.121  1.00  0.00    -0.134 C  
HETATM    4  C   UNL     1     -10.045   4.210  66.073  1.00  0.00    -0.140 C  
HETATM    5  N   UNL     1      -9.774   4.796  67.415  1.00  0.00    -0.166 N  
HETATM    6  C   UNL     1      -8.520   4.339  68.053  1.00  0.00    -0.094 C  
HETATM    7  C   UNL     1     -10.455   5.974  67.747  1.00  0.00    -0.239 C  
HETATM    8  O   UNL     1     -11.212   6.473  66.903  1.00  0.00    -0.387 OA 
HETATM    9  O   UNL     1      -9.641   2.235  68.428  1.00  0.00    -0.201 OA 
HETATM   10  C   UNL     1      -7.339   4.531  67.095  1.00  0.00    -0.074 C  
HETATM   11  C   UNL     1      -8.497   2.903  68.587  1.00  0.00    -0.068 C  
HETATM   12  O   UNL     1      -7.522   2.390  69.113  1.00  0.00    -0.044 OA 
ENDROOT
BRANCH   7  13
HETATM   13  C   UNL     1     -10.422   6.653  69.163  1.00  0.00    -0.219 C  
BRANCH  13  14
HETATM   14  C   UNL     1     -10.667   5.791  70.429  1.00  0.00    -0.372 C  
BRANCH  14  15
HETATM   15  C   UNL     1     -10.806   6.636  71.711  1.00  0.00    -0.265 C  
BRANCH  15  16
HETATM   16  C   UNL     1     -10.961   5.805  72.994  1.00  0.00    -0.278 C  
BRANCH  16  17
HETATM   17  N   UNL     1      -9.817   4.920  73.109  1.00  0.00    -0.148 NA 
HETATM   18  H2  UNL     1      -7.772   3.574  73.092  1.00  0.00     0.000 HD 
HETATM   19  H1  UNL     1      -8.674   2.019  73.248  1.00  0.00     0.000 HD 
HETATM   20  N   UNL     1     -10.891   2.816  73.324  1.00  0.00    -0.173 NA 
HETATM   21  N   UNL     1      -8.634   3.036  73.176  1.00  0.00    -0.079 NA 
HETATM   22  C   UNL     1      -9.869   3.574  73.205  1.00  0.00    -0.128 C  
HETATM   23  H   UNL     1      -8.892   5.352  73.117  1.00  0.00     0.000 HD 
HETATM   24  H1  UNL     1     -10.931   1.798  73.396  1.00  0.00     0.000 HD 
HETATM   25  H2  UNL     1     -11.792   3.293  73.349  1.00  0.00     0.000 HD 
ENDBRANCH  16  17
ENDBRANCH  15  16
ENDBRANCH  14  15
ENDBRANCH  13  14
BRANCH  13  26
HETATM   26  N   UNL     1     -11.283   7.865  69.252  1.00  0.00    -0.420 N  
HETATM   27  H   UNL     1     -12.268   7.785  69.507  1.00  0.00     0.000 HD 
BRANCH  26  28
HETATM   28  S   UNL     1     -10.591   9.390  68.920  1.00  0.00    -0.181 S  
HETATM   29  O   UNL     1     -10.821   9.693  67.532  1.00  0.00    -0.286 OA 
HETATM   30  O   UNL     1      -9.241   9.312  69.438  1.00  0.00    -0.149 OA 
BRANCH  28  31
HETATM   31  C   UNL     1     -11.542  10.475  69.953  1.00  0.00    -0.307 A  
HETATM   32  C   UNL     1     -12.341  14.166  70.541  1.00  0.00    -0.434 C  
HETATM   33  C   UNL     1     -12.263   9.886  71.003  1.00  0.00    -0.446 A  
HETATM   34  C   UNL     1     -11.325  16.195  69.444  1.00  0.00    -0.323 C  
HETATM   35  C   UNL     1     -13.021  10.675  71.862  1.00  0.00    -0.542 A  
HETATM   36  C   UNL     1     -11.162  14.703  69.722  1.00  0.00    -0.296 C  
HETATM   37  C   UNL     1     -11.073  13.892  68.437  1.00  0.00    -0.255 C  
HETATM   38  H   UNL     1     -10.098  11.966  68.219  1.00  0.00     0.000 HD 
HETATM   39  N   UNL     1     -10.810  12.486  68.731  1.00  0.00    -0.247 NA 
HETATM   40  C   UNL     1     -13.062  12.052  71.673  1.00  0.00    -0.422 A  
HETATM   41  C   UNL     1     -11.567  11.869  69.741  1.00  0.00    -0.286 A  
HETATM   42  C   UNL     1     -12.335  12.656  70.631  1.00  0.00    -0.375 A  
ENDBRANCH  28  31
ENDBRANCH  26  28
ENDBRANCH  13  26
ENDBRANCH   7  13
TORSDOF 8
ENDMDL
MODEL      185
REMARK 921   NORMALIZED FREE ENERGY PREDICTED BY IDOCK:   -5.54 KCAL/MOL
REMARK 922        TOTAL FREE ENERGY PREDICTED BY IDOCK:   -9.39 KCAL/MOL
REMARK 923 INTER-LIGAND FREE ENERGY PREDICTED BY IDOCK:   -7.98 KCAL/MOL
REMARK 924 INTRA-LIGAND FREE ENERGY PREDICTED BY IDOCK:   -1.41 KCAL/MOL
REMARK 927      BINDING AFFINITY PREDICTED BY RF-SCORE:    0.00 PKD
ROOT
HETATM    1  C   UNL     1      -6.520  18.529  65.945  1.00  0.00    -0.287 C  
HETATM    2  C   UNL     1      -7.445  17.923  66.992  1.00  0.00    -0.223 C  
HETATM    3  C   UNL     1      -6.688  17.004  67.957  1.00  0.00    -0.155 C  
HETATM    4  C   UNL     1      -7.636  16.368  68.974  1.00  0.00    -0.232 C  
HETATM    5  N   UNL     1      -8.830  15.734  68.351  1.00  0.00    -0.180 N  
HETATM    6  C   UNL     1      -9.551  16.584  67.377  1.00  0.00    -0.238 C  
HETATM    7  C   UNL     1      -8.913  14.337  68.405  1.00  0.00    -0.189 C  
HETATM    8  O   UNL     1      -7.983  13.714  68.936  1.00  0.00    -0.068 OA 
HETATM    9  O   UNL     1     -10.346  17.843  69.276  1.00  0.00    -0.290 OA 
HETATM   10  C   UNL     1      -8.576  17.126  66.326  1.00  0.00    -0.276 C  
HETATM   11  C   UNL     1     -10.368  17.749  67.945  1.00  0.00    -0.386 C  
HETATM   12  O   UNL     1     -10.990  18.541  67.255  1.00  0.00    -0.365 OA 
ENDROOT
BRANCH   7  13
HETATM   13  C   UNL     1     -10.160  13.499  67.947  1.00  0.00    -0.248 C  
BRANCH  13  14
HETATM   14  C   UNL     1     -11.545  13.779  68.588  1.00  0.00    -0.369 C  
BRANCH  14  15
HETATM   15  C   UNL     1     -11.438  14.397  69.997  1.00  0.00    -0.295 C  
BRANCH  15  16
HETATM   16  C   UNL     1     -12.357  13.739  71.038  1.00  0.00    -0.372 C  
BRANCH  16  17
HETATM   17  N   UNL     1     -12.701  12.409  70.572  1.00  0.00    -0.053 NA 
HETATM   18  H2  UNL     1     -13.406  10.290  69.570  1.00  0.00     0.000 HD 
HETATM   19  H1  UNL     1     -13.923   9.596  71.154  1.00  0.00     0.000 HD 
HETATM   20  N   UNL     1     -13.402  11.387  72.596  1.00  0.00    -0.180 NA 
HETATM   21  N   UNL     1     -13.535  10.346  70.580  1.00  0.00    -0.036 NA 
HETATM   22  C   UNL     1     -13.214  11.417  71.331  1.00  0.00    -0.147 C  
HETATM   23  H   UNL     1     -12.540  12.205  69.585  1.00  0.00     0.000 HD 
HETATM   24  H1  UNL     1     -13.790  10.638  73.170  1.00  0.00     0.000 HD 
HETATM   25  H2  UNL     1     -13.127  12.229  73.101  1.00  0.00     0.000 HD 
ENDBRANCH  16  17
ENDBRANCH  15  16
ENDBRANCH  14  15
ENDBRANCH  13  14
BRANCH  13  26
HETATM   26  N   UNL     1      -9.923  12.030  67.976  1.00  0.00    -0.191 N  
HETATM   27  H   UNL     1      -9.164  11.637  68.534  1.00  0.00     0.000 HD 
BRANCH  26  28
HETATM   28  S   UNL     1     -10.944  11.014  67.059  1.00  0.00    -0.238 S  
HETATM   29  O   UNL     1     -10.711  11.287  65.665  1.00  0.00    -0.261 OA 
HETATM   30  O   UNL     1     -12.263  11.193  67.629  1.00  0.00    -0.332 OA 
BRANCH  28  31
HETATM   31  C   UNL     1     -10.351   9.396  67.478  1.00  0.00    -0.255 A  
HETATM   32  C   UNL     1      -9.172   7.272  70.429  1.00  0.00    -0.158 C  
HETATM   33  C   UNL     1     -10.152   8.496  66.419  1.00  0.00    -0.271 A  
HETATM   34  C   UNL     1      -8.777   7.971  72.817  1.00  0.00    -0.262 C  
HETATM   35  C   UNL     1      -9.677   7.212  66.669  1.00  0.00    -0.233 A  
HETATM   36  C   UNL     1      -8.953   8.453  71.380  1.00  0.00    -0.237 C  
HETATM   37  C   UNL     1     -10.138   9.399  71.239  1.00  0.00    -0.238 C  
HETATM   38  H   UNL     1     -10.369  10.922  69.711  1.00  0.00     0.000 HD 
HETATM   39  N   UNL     1     -10.217   9.927  69.880  1.00  0.00    -0.243 NA 
HETATM   40  C   UNL     1      -9.401   6.825  67.975  1.00  0.00    -0.118 A  
HETATM   41  C   UNL     1     -10.078   9.026  68.811  1.00  0.00    -0.199 A  
HETATM   42  C   UNL     1      -9.586   7.721  69.044  1.00  0.00    -0.155 A  
ENDBRANCH  28  31
ENDBRANCH  26  28
ENDBRANCH  13  26
ENDBRANCH   7  13
TORSDOF 8
ENDMDL
MODEL      186
REMARK 921   NORMALIZED FREE ENERGY PREDICTED BY IDOCK:   -5.52 KCAL/MOL
REMARK 922        TOTAL FREE ENERGY PREDICTED BY IDOCK:   -9.35 KCAL/MOL
REMARK 923 INTER-LIGAND FREE ENERGY PREDICTED BY IDOCK:   -7.71 KCAL/MOL
REMARK 924 INTRA-LIGAND FREE ENERGY PREDICTED BY IDOCK:   -1.64 KCAL/MOL
REMARK 927      BINDING AFFINITY PREDICTED BY RF-SCORE:    0.00 PKD
ROOT
HETATM    1  C   UNL     1     -12.178  12.579  64.316  1.00  0.00    -0.535 C  
HETATM    2  C   UNL     1     -10.835  12.031  64.779  1.00  0.00    -0.354 C  
HETATM    3  C   UNL     1     -10.057  11.383  63.629  1.00  0.00    -0.421 C  
HETATM    4  C   UNL     1      -8.732  10.798  64.119  1.00  0.00    -0.072 C  
HETATM    5  N   UNL     1      -8.880   9.923  65.315  1.00  0.00    -0.168 N  
HETATM    6  C   UNL     1      -9.670  10.506  66.421  1.00  0.00    -0.198 C  
HETATM    7  C   UNL     1      -8.647   8.552  65.136  1.00  0.00    -0.152 C  
HETATM    8  O   UNL     1      -8.365   8.148  64.000  1.00  0.00    -0.115 OA 
HETATM    9  O   UNL     1      -7.771  11.935  66.837  1.00  0.00    -0.154 OA 
HETATM   10  C   UNL     1     -11.025  10.998  65.900  1.00  0.00    -0.115 C  
HETATM   11  C   UNL     1      -9.010  11.630  67.226  1.00  0.00    -0.169 C  
HETATM   12  O   UNL     1      -9.556  12.216  68.148  1.00  0.00    -0.198 OA 
ENDROOT
BRANCH   7  13
HETATM   13  C   UNL     1      -8.600   7.498  66.299  1.00  0.00    -0.145 C  
BRANCH  13  14
HETATM   14  C   UNL     1      -7.305   7.345  67.139  1.00  0.00    -0.097 C  
BRANCH  14  15
HETATM   15  C   UNL     1      -6.309   8.502  66.918  1.00  0.00    -0.056 C  
BRANCH  15  16
HETATM   16  C   UNL     1      -5.823   9.164  68.217  1.00  0.00    -0.038 C  
BRANCH  16  17
HETATM   17  N   UNL     1      -6.848   8.993  69.230  1.00  0.00    -0.049 NA 
HETATM   18  H2  UNL     1      -8.711   8.543  70.753  1.00  0.00     0.000 HD 
HETATM   19  H1  UNL     1      -8.817  10.263  71.292  1.00  0.00     0.000 HD 
HETATM   20  N   UNL     1      -7.076  11.218  70.022  1.00  0.00    -0.427 NA 
HETATM   21  N   UNL     1      -8.403   9.516  70.734  1.00  0.00    -0.278 NA 
HETATM   22  C   UNL     1      -7.396   9.982  69.969  1.00  0.00    -0.167 C  
HETATM   23  H   UNL     1      -7.184   8.044  69.398  1.00  0.00     0.000 HD 
HETATM   24  H1  UNL     1      -7.490  11.965  70.581  1.00  0.00     0.000 HD 
HETATM   25  H2  UNL     1      -6.299  11.497  69.424  1.00  0.00     0.000 HD 
ENDBRANCH  16  17
ENDBRANCH  15  16
ENDBRANCH  14  15
ENDBRANCH  13  14
BRANCH  13  26
HETATM   26  N   UNL     1      -9.045   6.141  65.878  1.00  0.00    -0.280 N  
HETATM   27  H   UNL     1      -8.473   5.578  65.248  1.00  0.00     0.000 HD 
BRANCH  26  28
HETATM   28  S   UNL     1     -10.531   5.543  66.470  1.00  0.00    -0.246 S  
HETATM   29  O   UNL     1     -11.011   4.546  65.549  1.00  0.00    -0.247 OA 
HETATM   30  O   UNL     1     -11.325   6.721  66.752  1.00  0.00    -0.239 OA 
BRANCH  28  31
HETATM   31  C   UNL     1     -10.056   4.788  68.004  1.00  0.00    -0.047 A  
HETATM   32  C   UNL     1     -10.197   5.281  71.791  1.00  0.00    -0.269 C  
HETATM   33  C   UNL     1      -9.308   3.603  67.927  1.00  0.00    -0.241 A  
HETATM   34  C   UNL     1     -11.022   7.274  73.094  1.00  0.00    -0.384 C  
HETATM   35  C   UNL     1      -8.890   2.962  69.088  1.00  0.00    -0.152 A  
HETATM   36  C   UNL     1     -10.553   6.770  71.732  1.00  0.00    -0.237 C  
HETATM   37  C   UNL     1     -11.617   6.958  70.659  1.00  0.00    -0.353 C  
HETATM   38  H   UNL     1     -11.248   7.159  68.530  1.00  0.00     0.000 HD 
HETATM   39  N   UNL     1     -11.103   6.568  69.349  1.00  0.00    -0.331 NA 
HETATM   40  C   UNL     1      -9.219   3.500  70.327  1.00  0.00    -0.225 A  
HETATM   41  C   UNL     1     -10.403   5.355  69.248  1.00  0.00    -0.251 A  
HETATM   42  C   UNL     1      -9.959   4.693  70.417  1.00  0.00    -0.300 A  
ENDBRANCH  28  31
ENDBRANCH  26  28
ENDBRANCH  13  26
ENDBRANCH   7  13
TORSDOF 8
ENDMDL
MODEL      187
REMARK 921   NORMALIZED FREE ENERGY PREDICTED BY IDOCK:   -5.51 KCAL/MOL
REMARK 922        TOTAL FREE ENERGY PREDICTED BY IDOCK:   -9.34 KCAL/MOL
REMARK 923 INTER-LIGAND FREE ENERGY PREDICTED BY IDOCK:   -7.12 KCAL/MOL
REMARK 924 INTRA-LIGAND FREE ENERGY PREDICTED BY IDOCK:   -2.23 KCAL/MOL
REMARK 927      BINDING AFFINITY PREDICTED BY RF-SCORE:    0.00 PKD
ROOT
HETATM    1  C   UNL     1     -12.765  13.495  65.210  1.00  0.00    -0.481 C  
HETATM    2  C   UNL     1     -11.399  12.944  65.596  1.00  0.00    -0.344 C  
HETATM    3  C   UNL     1     -10.773  12.127  64.461  1.00  0.00    -0.353 C  
HETATM    4  C   UNL     1      -9.423  11.543  64.878  1.00  0.00    -0.129 C  
HETATM    5  N   UNL     1      -9.469  10.826  66.182  1.00  0.00    -0.181 N  
HETATM    6  C   UNL     1     -10.114  11.573  67.284  1.00  0.00    -0.199 C  
HETATM    7  C   UNL     1      -9.304   9.435  66.152  1.00  0.00    -0.205 C  
HETATM    8  O   UNL     1      -9.161   8.885  65.051  1.00  0.00    -0.165 OA 
HETATM    9  O   UNL     1      -8.134  12.952  67.320  1.00  0.00    -0.176 OA 
HETATM   10  C   UNL     1     -11.501  12.063  66.850  1.00  0.00    -0.402 C  
HETATM   11  C   UNL     1      -9.333  12.753  67.871  1.00  0.00    -0.208 C  
HETATM   12  O   UNL     1      -9.756  13.470  68.764  1.00  0.00    -0.141 OA 
ENDROOT
BRANCH   7  13
HETATM   13  C   UNL     1      -9.166   8.526  67.425  1.00  0.00    -0.140 C  
BRANCH  13  14
HETATM   14  C   UNL     1     -10.391   8.327  68.357  1.00  0.00    -0.237 C  
BRANCH  14  15
HETATM   15  C   UNL     1     -11.015   6.922  68.234  1.00  0.00    -0.208 C  
BRANCH  15  16
HETATM   16  C   UNL     1     -11.373   6.278  69.582  1.00  0.00    -0.422 C  
BRANCH  16  17
HETATM   17  N   UNL     1     -11.790   7.326  70.495  1.00  0.00    -0.498 NA 
HETATM   18  H2  UNL     1     -12.258   9.227  71.964  1.00  0.00     0.000 HD 
HETATM   19  H1  UNL     1     -12.793   8.172  73.327  1.00  0.00     0.000 HD 
HETATM   20  N   UNL     1     -12.525   6.043  72.351  1.00  0.00    -0.475 NA 
HETATM   21  N   UNL     1     -12.442   8.314  72.379  1.00  0.00    -0.331 NA 
HETATM   22  C   UNL     1     -12.254   7.138  71.749  1.00  0.00    -0.344 C  
HETATM   23  H   UNL     1     -11.727   8.288  70.161  1.00  0.00     0.000 HD 
HETATM   24  H1  UNL     1     -12.876   5.901  73.299  1.00  0.00     0.000 HD 
HETATM   25  H2  UNL     1     -12.368   5.194  71.809  1.00  0.00     0.000 HD 
ENDBRANCH  16  17
ENDBRANCH  15  16
ENDBRANCH  14  15
ENDBRANCH  13  14
BRANCH  13  26
HETATM   26  N   UNL     1      -7.990   8.873  68.269  1.00  0.00    -0.104 N  
HETATM   27  H   UNL     1      -7.971   9.744  68.801  1.00  0.00     0.000 HD 
BRANCH  26  28
HETATM   28  S   UNL     1      -6.674   7.787  68.331  1.00  0.00    -0.064 S  
HETATM   29  O   UNL     1      -5.667   8.352  69.192  1.00  0.00    -0.037 OA 
HETATM   30  O   UNL     1      -6.369   7.485  66.948  1.00  0.00    -0.046 OA 
BRANCH  28  31
HETATM   31  C   UNL     1      -7.396   6.354  69.087  1.00  0.00    -0.093 A  
HETATM   32  C   UNL     1      -8.992   5.121  72.334  1.00  0.00    -0.138 C  
HETATM   33  C   UNL     1      -7.390   5.166  68.337  1.00  0.00    -0.071 A  
HETATM   34  C   UNL     1      -9.218   6.323  74.536  1.00  0.00    -0.196 C  
HETATM   35  C   UNL     1      -7.927   3.999  68.869  1.00  0.00    -0.067 A  
HETATM   36  C   UNL     1      -8.496   6.288  73.193  1.00  0.00    -0.116 C  
HETATM   37  C   UNL     1      -8.700   7.574  72.404  1.00  0.00    -0.123 C  
HETATM   38  H   UNL     1      -7.353   8.364  70.896  1.00  0.00     0.000 HD 
HETATM   39  N   UNL     1      -7.911   7.556  71.175  1.00  0.00    -0.094 NA 
HETATM   40  C   UNL     1      -8.473   4.014  70.148  1.00  0.00    -0.093 A  
HETATM   41  C   UNL     1      -7.944   6.395  70.386  1.00  0.00    -0.112 A  
HETATM   42  C   UNL     1      -8.476   5.194  70.913  1.00  0.00    -0.121 A  
ENDBRANCH  28  31
ENDBRANCH  26  28
ENDBRANCH  13  26
ENDBRANCH   7  13
TORSDOF 8
ENDMDL
MODEL      188
REMARK 921   NORMALIZED FREE ENERGY PREDICTED BY IDOCK:   -5.51 KCAL/MOL
REMARK 922        TOTAL FREE ENERGY PREDICTED BY IDOCK:   -9.33 KCAL/MOL
REMARK 923 INTER-LIGAND FREE ENERGY PREDICTED BY IDOCK:   -9.01 KCAL/MOL
REMARK 924 INTRA-LIGAND FREE ENERGY PREDICTED BY IDOCK:   -0.32 KCAL/MOL
REMARK 927      BINDING AFFINITY PREDICTED BY RF-SCORE:    0.00 PKD
ROOT
HETATM    1  C   UNL     1     -10.829   8.608  67.296  1.00  0.00    -0.077 C  
HETATM    2  C   UNL     1     -10.426   9.818  66.465  1.00  0.00    -0.212 C  
HETATM    3  C   UNL     1      -8.991  10.263  66.764  1.00  0.00    -0.147 C  
HETATM    4  C   UNL     1      -8.616  11.505  65.956  1.00  0.00    -0.046 C  
HETATM    5  N   UNL     1      -9.620  12.600  66.060  1.00  0.00    -0.226 N  
HETATM    6  C   UNL     1     -11.021  12.187  65.824  1.00  0.00    -0.297 C  
HETATM    7  C   UNL     1      -9.234  13.757  66.751  1.00  0.00    -0.244 C  
HETATM    8  O   UNL     1      -8.104  13.789  67.256  1.00  0.00    -0.175 OA 
HETATM    9  O   UNL     1     -10.428  12.008  63.492  1.00  0.00    -0.401 OA 
HETATM   10  C   UNL     1     -11.379  10.996  66.719  1.00  0.00    -0.052 C  
HETATM   11  C   UNL     1     -11.413  11.858  64.380  1.00  0.00    -0.320 C  
HETATM   12  O   UNL     1     -12.526  11.482  64.048  1.00  0.00    -0.119 OA 
ENDROOT
BRANCH   7  13
HETATM   13  C   UNL     1     -10.088  15.072  66.833  1.00  0.00    -0.249 C  
BRANCH  13  14
HETATM   14  C   UNL     1      -9.387  16.448  66.683  1.00  0.00    -0.282 C  
BRANCH  14  15
HETATM   15  C   UNL     1      -7.849  16.336  66.657  1.00  0.00    -0.310 C  
BRANCH  15  16
HETATM   16  C   UNL     1      -7.124  17.690  66.691  1.00  0.00    -0.223 C  
BRANCH  16  17
HETATM   17  N   UNL     1      -7.342  18.295  67.991  1.00  0.00    -0.233 NA 
HETATM   18  H2  UNL     1      -7.962  19.396  70.088  1.00  0.00     0.000 HD 
HETATM   19  H1  UNL     1      -6.340  20.164  70.281  1.00  0.00     0.000 HD 
HETATM   20  N   UNL     1      -5.248  19.349  68.358  1.00  0.00    -0.189 NA 
HETATM   21  N   UNL     1      -7.006  19.577  69.779  1.00  0.00    -0.205 NA 
HETATM   22  C   UNL     1      -6.460  19.072  68.656  1.00  0.00    -0.252 C  
HETATM   23  H   UNL     1      -8.240  18.118  68.443  1.00  0.00     0.000 HD 
HETATM   24  H1  UNL     1      -4.581  19.936  68.860  1.00  0.00     0.000 HD 
HETATM   25  H2  UNL     1      -4.899  18.924  67.500  1.00  0.00     0.000 HD 
ENDBRANCH  16  17
ENDBRANCH  15  16
ENDBRANCH  14  15
ENDBRANCH  13  14
BRANCH  13  26
HETATM   26  N   UNL     1     -10.967  15.126  68.034  1.00  0.00    -0.284 N  
HETATM   27  H   UNL     1     -11.896  14.705  68.018  1.00  0.00     0.000 HD 
BRANCH  26  28
HETATM   28  S   UNL     1     -10.391  15.906  69.439  1.00  0.00    -0.286 S  
HETATM   29  O   UNL     1     -10.596  17.322  69.282  1.00  0.00    -0.319 OA 
HETATM   30  O   UNL     1      -9.057  15.379  69.643  1.00  0.00    -0.263 OA 
BRANCH  28  31
HETATM   31  C   UNL     1     -11.461  15.264  70.700  1.00  0.00    -0.319 A  
HETATM   32  C   UNL     1     -13.167  12.053  71.879  1.00  0.00    -0.469 C  
HETATM   33  C   UNL     1     -11.974  16.183  71.630  1.00  0.00    -0.528 A  
HETATM   34  C   UNL     1     -13.238   9.800  70.753  1.00  0.00    -0.174 C  
HETATM   35  C   UNL     1     -12.829  15.755  72.639  1.00  0.00    -0.554 A  
HETATM   36  C   UNL     1     -12.962  11.289  70.567  1.00  0.00    -0.056 C  
HETATM   37  C   UNL     1     -11.541  11.548  70.087  1.00  0.00    -0.249 C  
HETATM   38  H   UNL     1     -10.879  13.279  68.958  1.00  0.00     0.000 HD 
HETATM   39  N   UNL     1     -11.339  12.969  69.814  1.00  0.00    -0.117 NA 
HETATM   40  C   UNL     1     -13.173  14.411  72.724  1.00  0.00    -0.611 A  
HETATM   41  C   UNL     1     -11.795  13.895  70.765  1.00  0.00    -0.180 A  
HETATM   42  C   UNL     1     -12.675  13.482  71.792  1.00  0.00    -0.340 A  
ENDBRANCH  28  31
ENDBRANCH  26  28
ENDBRANCH  13  26
ENDBRANCH   7  13
TORSDOF 8
ENDMDL
MODEL      189
REMARK 921   NORMALIZED FREE ENERGY PREDICTED BY IDOCK:   -5.50 KCAL/MOL
REMARK 922        TOTAL FREE ENERGY PREDICTED BY IDOCK:   -9.33 KCAL/MOL
REMARK 923 INTER-LIGAND FREE ENERGY PREDICTED BY IDOCK:   -8.06 KCAL/MOL
REMARK 924 INTRA-LIGAND FREE ENERGY PREDICTED BY IDOCK:   -1.27 KCAL/MOL
REMARK 927      BINDING AFFINITY PREDICTED BY RF-SCORE:    0.00 PKD
ROOT
HETATM    1  C   UNL     1     -12.553  13.368  63.720  1.00  0.00    -0.179 C  
HETATM    2  C   UNL     1     -11.380  12.848  64.540  1.00  0.00    -0.382 C  
HETATM    3  C   UNL     1     -11.063  11.384  64.216  1.00  0.00    -0.356 C  
HETATM    4  C   UNL     1      -9.914  10.863  65.079  1.00  0.00    -0.298 C  
HETATM    5  N   UNL     1     -10.098  11.132  66.532  1.00  0.00    -0.216 N  
HETATM    6  C   UNL     1     -10.454  12.528  66.868  1.00  0.00    -0.228 C  
HETATM    7  C   UNL     1     -10.332  10.027  67.361  1.00  0.00    -0.238 C  
HETATM    8  O   UNL     1     -10.402   8.906  66.839  1.00  0.00    -0.262 OA 
HETATM    9  O   UNL     1      -8.167  13.089  66.343  1.00  0.00     0.286 OA 
HETATM   10  C   UNL     1     -11.666  12.978  66.044  1.00  0.00    -0.442 C  
HETATM   11  C   UNL     1      -9.346  13.577  66.733  1.00  0.00    -0.257 C  
HETATM   12  O   UNL     1      -9.507  14.767  66.954  1.00  0.00    -0.220 OA 
ENDROOT
BRANCH   7  13
HETATM   13  C   UNL     1     -10.396  10.087  68.929  1.00  0.00    -0.202 C  
BRANCH  13  14
HETATM   14  C   UNL     1     -11.561  10.848  69.617  1.00  0.00    -0.394 C  
BRANCH  14  15
HETATM   15  C   UNL     1     -11.886  10.299  71.022  1.00  0.00    -0.472 C  
BRANCH  15  16
HETATM   16  C   UNL     1     -13.326  10.572  71.480  1.00  0.00    -0.290 C  
BRANCH  16  17
HETATM   17  N   UNL     1     -13.320  11.739  72.343  1.00  0.00    -0.507 NA 
HETATM   18  H2  UNL     1     -13.490  13.568  73.961  1.00  0.00     0.000 HD 
HETATM   19  H1  UNL     1     -13.605  14.829  72.675  1.00  0.00     0.000 HD 
HETATM   20  N   UNL     1     -13.468  13.485  70.743  1.00  0.00     0.183 NA 
HETATM   21  N   UNL     1     -13.516  13.861  72.984  1.00  0.00    -0.560 NA 
HETATM   22  C   UNL     1     -13.438  13.020  71.934  1.00  0.00    -0.408 C  
HETATM   23  H   UNL     1     -13.218  11.577  73.345  1.00  0.00     0.000 HD 
HETATM   24  H1  UNL     1     -13.557  14.453  70.434  1.00  0.00     0.000 HD 
HETATM   25  H2  UNL     1     -13.394  12.792  69.999  1.00  0.00     0.000 HD 
ENDBRANCH  16  17
ENDBRANCH  15  16
ENDBRANCH  14  15
ENDBRANCH  13  14
BRANCH  13  26
HETATM   26  N   UNL     1      -9.118  10.533  69.551  1.00  0.00    -0.394 N  
HETATM   27  H   UNL     1      -9.080  11.389  70.104  1.00  0.00     0.000 HD 
BRANCH  26  28
HETATM   28  S   UNL     1      -7.718   9.583  69.320  1.00  0.00    -0.093 S  
HETATM   29  O   UNL     1      -6.792   9.886  70.380  1.00  0.00    -0.117 OA 
HETATM   30  O   UNL     1      -7.343   9.795  67.938  1.00  0.00    -0.084 OA 
BRANCH  28  31
HETATM   31  C   UNL     1      -8.342   7.932  69.501  1.00  0.00    -0.131 A  
HETATM   32  C   UNL     1      -9.919   5.551  72.041  1.00  0.00    -0.225 C  
HETATM   33  C   UNL     1      -8.218   7.079  68.392  1.00  0.00    -0.124 A  
HETATM   34  C   UNL     1     -10.302   5.903  74.507  1.00  0.00    -0.238 C  
HETATM   35  C   UNL     1      -8.673   5.767  68.464  1.00  0.00    -0.111 A  
HETATM   36  C   UNL     1      -9.542   6.381  73.272  1.00  0.00    -0.158 C  
HETATM   37  C   UNL     1      -9.829   7.844  72.961  1.00  0.00    -0.289 C  
HETATM   38  H   UNL     1      -8.511   9.193  71.887  1.00  0.00     0.000 HD 
HETATM   39  N   UNL     1      -9.009   8.303  71.843  1.00  0.00    -0.167 NA 
HETATM   40  C   UNL     1      -9.253   5.304  69.639  1.00  0.00    -0.159 A  
HETATM   41  C   UNL     1      -8.925   7.486  70.705  1.00  0.00    -0.154 A  
HETATM   42  C   UNL     1      -9.372   6.145  70.761  1.00  0.00    -0.170 A  
ENDBRANCH  28  31
ENDBRANCH  26  28
ENDBRANCH  13  26
ENDBRANCH   7  13
TORSDOF 8
ENDMDL
MODEL      190
REMARK 921   NORMALIZED FREE ENERGY PREDICTED BY IDOCK:   -5.50 KCAL/MOL
REMARK 922        TOTAL FREE ENERGY PREDICTED BY IDOCK:   -9.32 KCAL/MOL
REMARK 923 INTER-LIGAND FREE ENERGY PREDICTED BY IDOCK:   -8.35 KCAL/MOL
REMARK 924 INTRA-LIGAND FREE ENERGY PREDICTED BY IDOCK:   -0.97 KCAL/MOL
REMARK 927      BINDING AFFINITY PREDICTED BY RF-SCORE:    0.00 PKD
ROOT
HETATM    1  C   UNL     1      -6.904   5.429  66.522  1.00  0.00    -0.063 C  
HETATM    2  C   UNL     1      -6.936   6.949  66.456  1.00  0.00    -0.066 C  
HETATM    3  C   UNL     1      -6.240   7.587  67.662  1.00  0.00    -0.048 C  
HETATM    4  C   UNL     1      -6.320   9.113  67.604  1.00  0.00    -0.059 C  
HETATM    5  N   UNL     1      -7.699   9.622  67.366  1.00  0.00    -0.095 N  
HETATM    6  C   UNL     1      -8.413   8.987  66.237  1.00  0.00    -0.125 C  
HETATM    7  C   UNL     1      -8.320  10.300  68.423  1.00  0.00    -0.119 C  
HETATM    8  O   UNL     1      -7.705  10.409  69.493  1.00  0.00    -0.140 OA 
HETATM    9  O   UNL     1      -6.949  10.243  64.787  1.00  0.00    -0.138 OA 
HETATM   10  C   UNL     1      -8.383   7.461  66.384  1.00  0.00    -0.127 C  
HETATM   11  C   UNL     1      -7.947   9.358  64.825  1.00  0.00    -0.122 C  
HETATM   12  O   UNL     1      -8.430   8.890  63.806  1.00  0.00    -0.186 OA 
ENDROOT
BRANCH   7  13
HETATM   13  C   UNL     1      -9.700  11.042  68.317  1.00  0.00    -0.177 C  
BRANCH  13  14
HETATM   14  C   UNL     1     -10.474  11.025  66.972  1.00  0.00    -0.284 C  
BRANCH  14  15
HETATM   15  C   UNL     1     -11.685  11.980  66.968  1.00  0.00    -0.341 C  
BRANCH  15  16
HETATM   16  C   UNL     1     -11.970  12.621  65.601  1.00  0.00    -0.452 C  
BRANCH  16  17
HETATM   17  N   UNL     1     -11.240  13.872  65.519  1.00  0.00    -0.303 NA 
HETATM   18  H2  UNL     1     -10.019  15.989  65.662  1.00  0.00     0.000 HD 
HETATM   19  H1  UNL     1     -10.948  16.732  64.304  1.00  0.00     0.000 HD 
HETATM   20  N   UNL     1     -12.385  14.950  63.742  1.00  0.00    -1.071 NA 
HETATM   21  N   UNL     1     -10.735  15.959  64.935  1.00  0.00    -0.584 NA 
HETATM   22  C   UNL     1     -11.522  14.895  64.684  1.00  0.00    -0.379 C  
HETATM   23  H   UNL     1     -10.444  13.989  66.147  1.00  0.00     0.000 HD 
HETATM   24  H1  UNL     1     -12.598  15.723  63.111  1.00  0.00     0.000 HD 
HETATM   25  H2  UNL     1     -12.937  14.105  63.603  1.00  0.00     0.000 HD 
ENDBRANCH  16  17
ENDBRANCH  15  16
ENDBRANCH  14  15
ENDBRANCH  13  14
BRANCH  13  26
HETATM   26  N   UNL     1      -9.650  12.447  68.808  1.00  0.00    -0.410 N  
HETATM   27  H   UNL     1     -10.297  12.769  69.528  1.00  0.00     0.000 HD 
BRANCH  26  28
HETATM   28  S   UNL     1      -8.490  13.508  68.142  1.00  0.00    -0.177 S  
HETATM   29  O   UNL     1      -8.320  13.171  66.753  1.00  0.00    -0.078 OA 
HETATM   30  O   UNL     1      -7.364  13.454  69.051  1.00  0.00    -0.076 OA 
BRANCH  28  31
HETATM   31  C   UNL     1      -9.281  15.088  68.300  1.00  0.00    -0.184 A  
HETATM   32  C   UNL     1      -8.578  18.845  68.244  1.00  0.00    -0.364 C  
HETATM   33  C   UNL     1     -10.650  15.088  68.609  1.00  0.00    -0.237 A  
HETATM   34  C   UNL     1      -6.361  20.033  68.105  1.00  0.00    -0.296 C  
HETATM   35  C   UNL     1     -11.335  16.289  68.761  1.00  0.00    -0.329 A  
HETATM   36  C   UNL     1      -7.061  18.712  68.410  1.00  0.00    -0.291 C  
HETATM   37  C   UNL     1      -6.583  17.591  67.496  1.00  0.00    -0.154 C  
HETATM   38  H   UNL     1      -6.625  15.472  67.961  1.00  0.00     0.000 HD 
HETATM   39  N   UNL     1      -7.188  16.319  67.880  1.00  0.00    -0.127 NA 
HETATM   40  C   UNL     1     -10.655  17.492  68.602  1.00  0.00    -0.288 A  
HETATM   41  C   UNL     1      -8.569  16.294  68.135  1.00  0.00    -0.183 A  
HETATM   42  C   UNL     1      -9.280  17.506  68.304  1.00  0.00    -0.277 A  
ENDBRANCH  28  31
ENDBRANCH  26  28
ENDBRANCH  13  26
ENDBRANCH   7  13
TORSDOF 8
ENDMDL
MODEL      191
REMARK 921   NORMALIZED FREE ENERGY PREDICTED BY IDOCK:   -5.50 KCAL/MOL
REMARK 922        TOTAL FREE ENERGY PREDICTED BY IDOCK:   -9.31 KCAL/MOL
REMARK 923 INTER-LIGAND FREE ENERGY PREDICTED BY IDOCK:   -8.67 KCAL/MOL
REMARK 924 INTRA-LIGAND FREE ENERGY PREDICTED BY IDOCK:   -0.65 KCAL/MOL
REMARK 927      BINDING AFFINITY PREDICTED BY RF-SCORE:    0.00 PKD
ROOT
HETATM    1  C   UNL     1      -8.580   9.880  63.067  1.00  0.00    -0.197 C  
HETATM    2  C   UNL     1      -8.709  10.520  64.442  1.00  0.00    -0.187 C  
HETATM    3  C   UNL     1      -7.621  10.031  65.404  1.00  0.00    -0.138 C  
HETATM    4  C   UNL     1      -7.791  10.647  66.792  1.00  0.00    -0.126 C  
HETATM    5  N   UNL     1      -9.173  10.516  67.331  1.00  0.00    -0.142 N  
HETATM    6  C   UNL     1     -10.247  10.936  66.403  1.00  0.00    -0.238 C  
HETATM    7  C   UNL     1      -9.354   9.660  68.425  1.00  0.00    -0.133 C  
HETATM    8  O   UNL     1      -8.370   9.044  68.858  1.00  0.00    -0.121 OA 
HETATM    9  O   UNL     1      -9.545  13.203  66.839  1.00  0.00    -0.233 OA 
HETATM   10  C   UNL     1     -10.087  10.225  65.054  1.00  0.00    -0.353 C  
HETATM   11  C   UNL     1     -10.400  12.440  66.156  1.00  0.00    -0.247 C  
HETATM   12  O   UNL     1     -11.227  12.922  65.398  1.00  0.00    -0.277 OA 
ENDROOT
BRANCH   7  13
HETATM   13  C   UNL     1     -10.696   9.509  69.226  1.00  0.00    -0.222 C  
BRANCH  13  14
HETATM   14  C   UNL     1     -11.137  10.637  70.196  1.00  0.00    -0.341 C  
BRANCH  14  15
HETATM   15  C   UNL     1     -12.203  11.569  69.585  1.00  0.00    -0.296 C  
BRANCH  15  16
HETATM   16  C   UNL     1     -12.379  12.896  70.340  1.00  0.00    -0.258 C  
BRANCH  16  17
HETATM   17  N   UNL     1     -11.850  13.966  69.515  1.00  0.00    -0.309 NA 
HETATM   18  H2  UNL     1     -10.704  15.660  68.170  1.00  0.00     0.000 HD 
HETATM   19  H1  UNL     1     -11.670  17.014  68.870  1.00  0.00     0.000 HD 
HETATM   20  N   UNL     1     -13.063  15.825  70.354  1.00  0.00    -0.743 NA 
HETATM   21  N   UNL     1     -11.425  16.027  68.792  1.00  0.00    -0.377 NA 
HETATM   22  C   UNL     1     -12.175  15.273  69.618  1.00  0.00    -0.271 C  
HETATM   23  H   UNL     1     -11.174  13.709  68.796  1.00  0.00     0.000 HD 
HETATM   24  H1  UNL     1     -13.309  16.813  70.432  1.00  0.00     0.000 HD 
HETATM   25  H2  UNL     1     -13.600  15.192  70.945  1.00  0.00     0.000 HD 
ENDBRANCH  16  17
ENDBRANCH  15  16
ENDBRANCH  14  15
ENDBRANCH  13  14
BRANCH  13  26
HETATM   26  N   UNL     1     -10.808   8.209  69.943  1.00  0.00    -0.311 N  
HETATM   27  H   UNL     1     -11.004   7.348  69.431  1.00  0.00     0.000 HD 
BRANCH  26  28
HETATM   28  S   UNL     1     -10.603   8.185  71.638  1.00  0.00    -0.248 S  
HETATM   29  O   UNL     1     -11.777   8.761  72.239  1.00  0.00    -0.363 OA 
HETATM   30  O   UNL     1      -9.300   8.774  71.868  1.00  0.00    -0.268 OA 
BRANCH  28  31
HETATM   31  C   UNL     1     -10.520   6.448  71.990  1.00  0.00    -0.208 A  
HETATM   32  C   UNL     1      -9.353   3.115  70.527  1.00  0.00    -0.227 C  
HETATM   33  C   UNL     1     -11.110   6.011  73.186  1.00  0.00    -0.236 A  
HETATM   34  C   UNL     1      -8.434   2.635  68.231  1.00  0.00    -0.097 C  
HETATM   35  C   UNL     1     -11.094   4.661  73.523  1.00  0.00    -0.412 A  
HETATM   36  C   UNL     1      -9.212   3.627  69.091  1.00  0.00    -0.226 C  
HETATM   37  C   UNL     1      -8.534   4.990  69.140  1.00  0.00    -0.085 C  
HETATM   38  H   UNL     1      -9.523   6.885  69.513  1.00  0.00     0.000 HD 
HETATM   39  N   UNL     1      -9.353   5.947  69.878  1.00  0.00    -0.148 NA 
HETATM   40  C   UNL     1     -10.489   3.747  72.668  1.00  0.00    -0.194 A  
HETATM   41  C   UNL     1      -9.900   5.540  71.105  1.00  0.00    -0.181 A  
HETATM   42  C   UNL     1      -9.905   4.171  71.461  1.00  0.00    -0.255 A  
ENDBRANCH  28  31
ENDBRANCH  26  28
ENDBRANCH  13  26
ENDBRANCH   7  13
TORSDOF 8
ENDMDL
MODEL      192
REMARK 921   NORMALIZED FREE ENERGY PREDICTED BY IDOCK:   -5.47 KCAL/MOL
REMARK 922        TOTAL FREE ENERGY PREDICTED BY IDOCK:   -9.28 KCAL/MOL
REMARK 923 INTER-LIGAND FREE ENERGY PREDICTED BY IDOCK:   -8.22 KCAL/MOL
REMARK 924 INTRA-LIGAND FREE ENERGY PREDICTED BY IDOCK:   -1.07 KCAL/MOL
REMARK 927      BINDING AFFINITY PREDICTED BY RF-SCORE:    0.00 PKD
ROOT
HETATM    1  C   UNL     1      -9.063   5.008  72.220  1.00  0.00    -0.145 C  
HETATM    2  C   UNL     1      -9.702   6.014  71.274  1.00  0.00    -0.200 C  
HETATM    3  C   UNL     1     -10.793   5.372  70.411  1.00  0.00    -0.208 C  
HETATM    4  C   UNL     1     -11.394   6.384  69.435  1.00  0.00    -0.377 C  
HETATM    5  N   UNL     1     -10.369   7.129  68.653  1.00  0.00    -0.183 N  
HETATM    6  C   UNL     1      -9.277   7.718  69.458  1.00  0.00    -0.149 C  
HETATM    7  C   UNL     1     -10.294   6.860  67.280  1.00  0.00    -0.251 C  
HETATM    8  O   UNL     1     -11.055   6.005  66.807  1.00  0.00    -0.291 OA 
HETATM    9  O   UNL     1     -10.894   9.343  70.210  1.00  0.00    -0.228 OA 
HETATM   10  C   UNL     1      -8.646   6.647  70.356  1.00  0.00    -0.143 C  
HETATM   11  C   UNL     1      -9.627   8.939  70.314  1.00  0.00    -0.186 C  
HETATM   12  O   UNL     1      -8.830   9.508  71.044  1.00  0.00    -0.246 OA 
ENDROOT
BRANCH   7  13
HETATM   13  C   UNL     1      -9.392   7.651  66.266  1.00  0.00    -0.131 C  
BRANCH  13  14
HETATM   14  C   UNL     1      -7.863   7.390  66.240  1.00  0.00    -0.106 C  
BRANCH  14  15
HETATM   15  C   UNL     1      -7.440   6.423  65.115  1.00  0.00    -0.083 C  
BRANCH  15  16
HETATM   16  C   UNL     1      -6.835   7.120  63.887  1.00  0.00    -0.048 C  
BRANCH  16  17
HETATM   17  N   UNL     1      -6.363   8.432  64.290  1.00  0.00    -0.066 NA 
HETATM   18  H2  UNL     1      -5.825  10.688  65.073  1.00  0.00     0.000 HD 
HETATM   19  H1  UNL     1      -4.940  11.112  63.557  1.00  0.00     0.000 HD 
HETATM   20  N   UNL     1      -5.168   9.099  62.352  1.00  0.00    -0.080 NA 
HETATM   21  N   UNL     1      -5.475  10.467  64.140  1.00  0.00    -0.140 NA 
HETATM   22  C   UNL     1      -5.656   9.285  63.519  1.00  0.00    -0.071 C  
HETATM   23  H   UNL     1      -6.585   8.736  65.239  1.00  0.00     0.000 HD 
HETATM   24  H1  UNL     1      -4.634   9.744  61.768  1.00  0.00     0.000 HD 
HETATM   25  H2  UNL     1      -5.336   8.178  61.948  1.00  0.00     0.000 HD 
ENDBRANCH  16  17
ENDBRANCH  15  16
ENDBRANCH  14  15
ENDBRANCH  13  14
BRANCH  13  26
HETATM   26  N   UNL     1      -9.612   9.123  66.311  1.00  0.00    -0.233 N  
HETATM   27  H   UNL     1     -10.067   9.557  67.114  1.00  0.00     0.000 HD 
BRANCH  26  28
HETATM   28  S   UNL     1      -9.088  10.072  64.991  1.00  0.00    -0.232 S  
HETATM   29  O   UNL     1      -9.135   9.256  63.806  1.00  0.00    -0.141 OA 
HETATM   30  O   UNL     1      -7.838  10.662  65.424  1.00  0.00    -0.143 OA 
BRANCH  28  31
HETATM   31  C   UNL     1     -10.326  11.340  64.916  1.00  0.00    -0.304 A  
HETATM   32  C   UNL     1     -12.229  13.848  67.084  1.00  0.00    -0.353 C  
HETATM   33  C   UNL     1     -10.941  11.558  63.672  1.00  0.00    -0.482 A  
HETATM   34  C   UNL     1     -12.190  14.117  69.589  1.00  0.00    -0.376 C  
HETATM   35  C   UNL     1     -11.930  12.527  63.540  1.00  0.00    -0.629 A  
HETATM   36  C   UNL     1     -11.866  13.191  68.419  1.00  0.00    -0.386 C  
HETATM   37  C   UNL     1     -10.389  12.823  68.378  1.00  0.00    -0.243 C  
HETATM   38  H   UNL     1      -9.555  11.028  67.489  1.00  0.00     0.000 HD 
HETATM   39  N   UNL     1     -10.128  11.854  67.317  1.00  0.00    -0.195 NA 
HETATM   40  C   UNL     1     -12.305  13.281  64.645  1.00  0.00    -0.447 A  
HETATM   41  C   UNL     1     -10.690  12.092  66.052  1.00  0.00    -0.279 A  
HETATM   42  C   UNL     1     -11.705  13.065  65.899  1.00  0.00    -0.442 A  
ENDBRANCH  28  31
ENDBRANCH  26  28
ENDBRANCH  13  26
ENDBRANCH   7  13
TORSDOF 8
ENDMDL
MODEL      193
REMARK 921   NORMALIZED FREE ENERGY PREDICTED BY IDOCK:   -5.47 KCAL/MOL
REMARK 922        TOTAL FREE ENERGY PREDICTED BY IDOCK:   -9.28 KCAL/MOL
REMARK 923 INTER-LIGAND FREE ENERGY PREDICTED BY IDOCK:   -8.30 KCAL/MOL
REMARK 924 INTRA-LIGAND FREE ENERGY PREDICTED BY IDOCK:   -0.98 KCAL/MOL
REMARK 927      BINDING AFFINITY PREDICTED BY RF-SCORE:    0.00 PKD
ROOT
HETATM    1  C   UNL     1      -5.144   3.705  67.155  1.00  0.00    -0.011 C  
HETATM    2  C   UNL     1      -6.516   4.134  66.655  1.00  0.00    -0.041 C  
HETATM    3  C   UNL     1      -6.429   5.350  65.725  1.00  0.00    -0.040 C  
HETATM    4  C   UNL     1      -7.817   5.797  65.267  1.00  0.00    -0.106 C  
HETATM    5  N   UNL     1      -8.782   5.965  66.389  1.00  0.00    -0.126 N  
HETATM    6  C   UNL     1      -8.850   4.826  67.330  1.00  0.00    -0.103 C  
HETATM    7  C   UNL     1      -9.196   7.270  66.685  1.00  0.00    -0.157 C  
HETATM    8  O   UNL     1      -8.717   8.202  66.024  1.00  0.00    -0.141 OA 
HETATM    9  O   UNL     1     -10.015   3.634  65.584  1.00  0.00    -0.105 OA 
HETATM   10  C   UNL     1      -7.446   4.470  67.831  1.00  0.00    -0.069 C  
HETATM   11  C   UNL     1      -9.534   3.551  66.826  1.00  0.00    -0.165 C  
HETATM   12  O   UNL     1      -9.638   2.530  67.488  1.00  0.00    -0.126 OA 
ENDROOT
BRANCH   7  13
HETATM   13  C   UNL     1     -10.319   7.636  67.720  1.00  0.00    -0.219 C  
BRANCH  13  14
HETATM   14  C   UNL     1     -11.281   6.528  68.225  1.00  0.00    -0.259 C  
BRANCH  14  15
HETATM   15  C   UNL     1     -11.084   6.200  69.719  1.00  0.00    -0.486 C  
BRANCH  15  16
HETATM   16  C   UNL     1     -10.429   7.331  70.526  1.00  0.00    -0.217 C  
BRANCH  16  17
HETATM   17  N   UNL     1     -11.470   8.234  70.980  1.00  0.00    -0.273 NA 
HETATM   18  H2  UNL     1     -13.020   9.942  71.799  1.00  0.00     0.000 HD 
HETATM   19  H1  UNL     1     -13.981   8.753  72.759  1.00  0.00     0.000 HD 
HETATM   20  N   UNL     1     -12.813   6.765  72.270  1.00  0.00    -0.539 NA 
HETATM   21  N   UNL     1     -13.213   8.998  72.134  1.00  0.00    -0.412 NA 
HETATM   22  C   UNL     1     -12.486   7.911  71.808  1.00  0.00    -0.323 C  
HETATM   23  H   UNL     1     -11.430   9.197  70.645  1.00  0.00     0.000 HD 
HETATM   24  H1  UNL     1     -13.581   6.520  72.896  1.00  0.00     0.000 HD 
HETATM   25  H2  UNL     1     -12.225   5.987  71.973  1.00  0.00     0.000 HD 
ENDBRANCH  16  17
ENDBRANCH  15  16
ENDBRANCH  14  15
ENDBRANCH  13  14
BRANCH  13  26
HETATM   26  N   UNL     1     -11.136   8.810  67.309  1.00  0.00    -0.285 N  
HETATM   27  H   UNL     1     -11.908   8.702  66.650  1.00  0.00     0.000 HD 
BRANCH  26  28
HETATM   28  S   UNL     1     -10.758  10.342  67.960  1.00  0.00    -0.269 S  
HETATM   29  O   UNL     1      -9.470  10.253  68.597  1.00  0.00    -0.155 OA 
HETATM   30  O   UNL     1     -11.927  10.726  68.725  1.00  0.00    -0.414 OA 
BRANCH  28  31
HETATM   31  C   UNL     1     -10.659  11.361  66.511  1.00  0.00    -0.263 A  
HETATM   32  C   UNL     1     -10.264  14.992  65.382  1.00  0.00    -0.411 C  
HETATM   33  C   UNL     1     -10.825  10.724  65.271  1.00  0.00    -0.064 A  
HETATM   34  C   UNL     1     -10.224  17.084  66.785  1.00  0.00    -0.298 C  
HETATM   35  C   UNL     1     -10.773  11.460  64.092  1.00  0.00    -0.434 A  
HETATM   36  C   UNL     1     -10.598  15.605  66.746  1.00  0.00    -0.307 C  
HETATM   37  C   UNL     1      -9.867  14.805  67.815  1.00  0.00    -0.214 C  
HETATM   38  H   UNL     1     -10.554  12.947  68.699  1.00  0.00     0.000 HD 
HETATM   39  N   UNL     1     -10.324  13.418  67.824  1.00  0.00    -0.237 NA 
HETATM   40  C   UNL     1     -10.554  12.832  64.148  1.00  0.00    -0.441 A  
HETATM   41  C   UNL     1     -10.437  12.751  66.594  1.00  0.00    -0.257 A  
HETATM   42  C   UNL     1     -10.398  13.484  65.384  1.00  0.00    -0.329 A  
ENDBRANCH  28  31
ENDBRANCH  26  28
ENDBRANCH  13  26
ENDBRANCH   7  13
TORSDOF 8
ENDMDL
MODEL      194
REMARK 921   NORMALIZED FREE ENERGY PREDICTED BY IDOCK:   -5.45 KCAL/MOL
REMARK 922        TOTAL FREE ENERGY PREDICTED BY IDOCK:   -9.26 KCAL/MOL
REMARK 923 INTER-LIGAND FREE ENERGY PREDICTED BY IDOCK:   -8.03 KCAL/MOL
REMARK 924 INTRA-LIGAND FREE ENERGY PREDICTED BY IDOCK:   -1.23 KCAL/MOL
REMARK 927      BINDING AFFINITY PREDICTED BY RF-SCORE:    0.00 PKD
ROOT
HETATM    1  C   UNL     1      -7.904  19.053  66.818  1.00  0.00    -0.263 C  
HETATM    2  C   UNL     1      -8.205  17.881  67.742  1.00  0.00    -0.233 C  
HETATM    3  C   UNL     1      -6.935  17.333  68.399  1.00  0.00    -0.202 C  
HETATM    4  C   UNL     1      -7.247  16.129  69.288  1.00  0.00    -0.225 C  
HETATM    5  N   UNL     1      -8.068  15.090  68.607  1.00  0.00    -0.144 N  
HETATM    6  C   UNL     1      -9.275  15.600  67.921  1.00  0.00    -0.190 C  
HETATM    7  C   UNL     1      -7.444  13.869  68.322  1.00  0.00    -0.118 C  
HETATM    8  O   UNL     1      -6.249  13.735  68.622  1.00  0.00    -0.079 OA 
HETATM    9  O   UNL     1     -10.225  15.904  70.119  1.00  0.00    -0.255 OA 
HETATM   10  C   UNL     1      -8.901  16.747  66.975  1.00  0.00    -0.227 C  
HETATM   11  C   UNL     1     -10.439  16.051  68.810  1.00  0.00    -0.248 C  
HETATM   12  O   UNL     1     -11.483  16.514  68.378  1.00  0.00    -0.301 OA 
ENDROOT
BRANCH   7  13
HETATM   13  C   UNL     1      -8.181  12.603  67.753  1.00  0.00    -0.171 C  
BRANCH  13  14
HETATM   14  C   UNL     1      -9.404  12.789  66.817  1.00  0.00    -0.241 C  
BRANCH  14  15
HETATM   15  C   UNL     1      -9.971  11.450  66.302  1.00  0.00    -0.259 C  
BRANCH  15  16
HETATM   16  C   UNL     1     -11.248  10.993  67.024  1.00  0.00    -0.181 C  
BRANCH  16  17
HETATM   17  N   UNL     1     -11.503  11.903  68.125  1.00  0.00    -0.295 NA 
HETATM   18  H2  UNL     1     -11.671  13.531  69.945  1.00  0.00     0.000 HD 
HETATM   19  H1  UNL     1     -12.495  12.363  71.048  1.00  0.00     0.000 HD 
HETATM   20  N   UNL     1     -12.600  10.462  69.658  1.00  0.00    -0.620 NA 
HETATM   21  N   UNL     1     -12.062  12.613  70.158  1.00  0.00    -0.334 NA 
HETATM   22  C   UNL     1     -12.076  11.573  69.302  1.00  0.00    -0.278 C  
HETATM   23  H   UNL     1     -11.225  12.877  67.999  1.00  0.00     0.000 HD 
HETATM   24  H1  UNL     1     -13.033  10.212  70.548  1.00  0.00     0.000 HD 
HETATM   25  H2  UNL     1     -12.584   9.723  68.955  1.00  0.00     0.000 HD 
ENDBRANCH  16  17
ENDBRANCH  15  16
ENDBRANCH  14  15
ENDBRANCH  13  14
BRANCH  13  26
HETATM   26  N   UNL     1      -8.546  11.615  68.806  1.00  0.00    -0.347 N  
HETATM   27  H   UNL     1      -9.367  11.762  69.394  1.00  0.00     0.000 HD 
BRANCH  26  28
HETATM   28  S   UNL     1      -7.565  10.233  69.011  1.00  0.00    -0.112 S  
HETATM   29  O   UNL     1      -7.221  10.130  70.405  1.00  0.00    -0.218 OA 
HETATM   30  O   UNL     1      -6.527  10.356  68.008  1.00  0.00    -0.059 OA 
BRANCH  28  31
HETATM   31  C   UNL     1      -8.658   8.915  68.547  1.00  0.00    -0.133 A  
HETATM   32  C   UNL     1     -11.433   6.664  69.904  1.00  0.00    -0.414 C  
HETATM   33  C   UNL     1      -8.511   8.389  67.254  1.00  0.00    -0.124 A  
HETATM   34  C   UNL     1     -12.304   6.480  72.261  1.00  0.00    -0.158 C  
HETATM   35  C   UNL     1      -9.324   7.346  66.824  1.00  0.00    -0.202 A  
HETATM   36  C   UNL     1     -11.156   6.965  71.380  1.00  0.00    -0.284 C  
HETATM   37  C   UNL     1     -10.925   8.463  71.522  1.00  0.00    -0.262 C  
HETATM   38  H   UNL     1      -9.052   9.497  71.159  1.00  0.00     0.000 HD 
HETATM   39  N   UNL     1      -9.756   8.879  70.753  1.00  0.00    -0.207 NA 
HETATM   40  C   UNL     1     -10.287   6.828  67.683  1.00  0.00    -0.255 A  
HETATM   41  C   UNL     1      -9.627   8.406  69.437  1.00  0.00    -0.170 A  
HETATM   42  C   UNL     1     -10.438   7.338  68.985  1.00  0.00    -0.219 A  
ENDBRANCH  28  31
ENDBRANCH  26  28
ENDBRANCH  13  26
ENDBRANCH   7  13
TORSDOF 8
ENDMDL
MODEL      195
REMARK 921   NORMALIZED FREE ENERGY PREDICTED BY IDOCK:   -5.45 KCAL/MOL
REMARK 922        TOTAL FREE ENERGY PREDICTED BY IDOCK:   -9.25 KCAL/MOL
REMARK 923 INTER-LIGAND FREE ENERGY PREDICTED BY IDOCK:   -8.94 KCAL/MOL
REMARK 924 INTRA-LIGAND FREE ENERGY PREDICTED BY IDOCK:   -0.31 KCAL/MOL
REMARK 927      BINDING AFFINITY PREDICTED BY RF-SCORE:    0.00 PKD
ROOT
HETATM    1  C   UNL     1      -5.784   9.591  68.749  1.00  0.00    -0.040 C  
HETATM    2  C   UNL     1      -6.962  10.549  68.631  1.00  0.00    -0.067 C  
HETATM    3  C   UNL     1      -8.234   9.967  69.256  1.00  0.00    -0.147 C  
HETATM    4  C   UNL     1      -9.418  10.920  69.090  1.00  0.00    -0.089 C  
HETATM    5  N   UNL     1      -9.599  11.397  67.691  1.00  0.00    -0.167 N  
HETATM    6  C   UNL     1      -8.374  11.918  67.046  1.00  0.00    -0.178 C  
HETATM    7  C   UNL     1     -10.731  10.943  67.003  1.00  0.00    -0.271 C  
HETATM    8  O   UNL     1     -11.493  10.155  67.581  1.00  0.00    -0.271 OA 
HETATM    9  O   UNL     1      -8.611  13.849  68.474  1.00  0.00    -0.172 OA 
HETATM   10  C   UNL     1      -7.240  10.893  67.159  1.00  0.00    -0.104 C  
HETATM   11  C   UNL     1      -7.862  13.279  67.528  1.00  0.00    -0.171 C  
HETATM   12  O   UNL     1      -6.851  13.815  67.101  1.00  0.00    -0.141 OA 
ENDROOT
BRANCH   7  13
HETATM   13  C   UNL     1     -11.177  11.452  65.586  1.00  0.00    -0.076 C  
BRANCH  13  14
HETATM   14  C   UNL     1     -10.102  11.728  64.501  1.00  0.00    -0.312 C  
BRANCH  14  15
HETATM   15  C   UNL     1      -9.862  10.517  63.576  1.00  0.00    -0.339 C  
BRANCH  15  16
HETATM   16  C   UNL     1      -8.667   9.644  63.986  1.00  0.00    -0.219 C  
BRANCH  16  17
HETATM   17  N   UNL     1      -9.147   8.590  64.861  1.00  0.00    -0.401 NA 
HETATM   18  H2  UNL     1     -10.139   7.002  66.437  1.00  0.00     0.000 HD 
HETATM   19  H1  UNL     1      -8.535   6.344  66.940  1.00  0.00     0.000 HD 
HETATM   20  N   UNL     1      -7.100   7.640  65.592  1.00  0.00    -0.060 NA 
HETATM   21  N   UNL     1      -9.121   6.973  66.389  1.00  0.00    -0.160 NA 
HETATM   22  C   UNL     1      -8.373   7.758  65.590  1.00  0.00    -0.139 C  
HETATM   23  H   UNL     1     -10.158   8.467  64.932  1.00  0.00     0.000 HD 
HETATM   24  H1  UNL     1      -6.514   7.011  66.143  1.00  0.00     0.000 HD 
HETATM   25  H2  UNL     1      -6.600   8.259  64.955  1.00  0.00     0.000 HD 
ENDBRANCH  16  17
ENDBRANCH  15  16
ENDBRANCH  14  15
ENDBRANCH  13  14
BRANCH  13  26
HETATM   26  N   UNL     1     -12.089  12.628  65.645  1.00  0.00    -0.452 N  
HETATM   27  H   UNL     1     -13.067  12.514  65.910  1.00  0.00     0.000 HD 
BRANCH  26  28
HETATM   28  S   UNL     1     -11.466  14.171  65.262  1.00  0.00    -0.345 S  
HETATM   29  O   UNL     1     -12.415  14.838  64.409  1.00  0.00    -0.599 OA 
HETATM   30  O   UNL     1     -10.114  13.928  64.802  1.00  0.00    -0.373 OA 
BRANCH  28  31
HETATM   31  C   UNL     1     -11.400  14.962  66.848  1.00  0.00    -0.337 A  
HETATM   32  C   UNL     1     -10.074  18.075  68.626  1.00  0.00    -0.401 C  
HETATM   33  C   UNL     1     -11.957  14.266  67.932  1.00  0.00    -0.364 A  
HETATM   34  C   UNL     1      -8.589  19.897  67.720  1.00  0.00    -0.370 C  
HETATM   35  C   UNL     1     -11.930  14.818  69.209  1.00  0.00    -0.329 A  
HETATM   36  C   UNL     1      -9.098  18.474  67.514  1.00  0.00    -0.289 C  
HETATM   37  C   UNL     1      -9.812  18.312  66.179  1.00  0.00    -0.260 C  
HETATM   38  H   UNL     1     -10.020  16.460  65.068  1.00  0.00     0.000 HD 
HETATM   39  N   UNL     1     -10.193  16.919  65.963  1.00  0.00    -0.407 NA 
HETATM   40  C   UNL     1     -11.350  16.066  69.405  1.00  0.00    -0.355 A  
HETATM   41  C   UNL     1     -10.805  16.229  67.022  1.00  0.00    -0.173 A  
HETATM   42  C   UNL     1     -10.778  16.769  68.329  1.00  0.00    -0.364 A  
ENDBRANCH  28  31
ENDBRANCH  26  28
ENDBRANCH  13  26
ENDBRANCH   7  13
TORSDOF 8
ENDMDL
MODEL      196
REMARK 921   NORMALIZED FREE ENERGY PREDICTED BY IDOCK:   -5.44 KCAL/MOL
REMARK 922        TOTAL FREE ENERGY PREDICTED BY IDOCK:   -9.24 KCAL/MOL
REMARK 923 INTER-LIGAND FREE ENERGY PREDICTED BY IDOCK:   -7.77 KCAL/MOL
REMARK 924 INTRA-LIGAND FREE ENERGY PREDICTED BY IDOCK:   -1.46 KCAL/MOL
REMARK 927      BINDING AFFINITY PREDICTED BY RF-SCORE:    0.00 PKD
ROOT
HETATM    1  C   UNL     1     -14.406   6.949  71.889  1.00  0.00    -0.365 C  
HETATM    2  C   UNL     1     -13.104   7.738  71.855  1.00  0.00    -0.300 C  
HETATM    3  C   UNL     1     -13.349   9.246  71.966  1.00  0.00    -0.518 C  
HETATM    4  C   UNL     1     -12.038  10.027  71.885  1.00  0.00    -0.105 C  
HETATM    5  N   UNL     1     -11.190   9.639  70.724  1.00  0.00    -0.307 N  
HETATM    6  C   UNL     1     -10.979   8.183  70.566  1.00  0.00    -0.243 C  
HETATM    7  C   UNL     1     -11.036  10.584  69.701  1.00  0.00    -0.283 C  
HETATM    8  O   UNL     1     -11.632  11.665  69.806  1.00  0.00    -0.294 OA 
HETATM    9  O   UNL     1      -9.513   8.329  72.477  1.00  0.00    -0.236 OA 
HETATM   10  C   UNL     1     -12.325   7.450  70.563  1.00  0.00     0.021 C  
HETATM   11  C   UNL     1     -10.047   7.504  71.574  1.00  0.00    -0.181 C  
HETATM   12  O   UNL     1      -9.804   6.307  71.575  1.00  0.00    -0.172 OA 
ENDROOT
BRANCH   7  13
HETATM   13  C   UNL     1     -10.064  10.422  68.479  1.00  0.00    -0.171 C  
BRANCH  13  14
HETATM   14  C   UNL     1     -10.632  10.499  67.037  1.00  0.00    -0.310 C  
BRANCH  14  15
HETATM   15  C   UNL     1      -9.538  10.375  65.956  1.00  0.00    -0.251 C  
BRANCH  15  16
HETATM   16  C   UNL     1      -9.744  11.303  64.749  1.00  0.00    -0.256 C  
BRANCH  16  17
HETATM   17  N   UNL     1     -10.982  12.036  64.940  1.00  0.00    -0.298 NA 
HETATM   18  H2  UNL     1     -13.064  13.181  65.528  1.00  0.00     0.000 HD 
HETATM   19  H1  UNL     1     -13.884  12.689  63.997  1.00  0.00     0.000 HD 
HETATM   20  N   UNL     1     -12.159  11.461  62.962  1.00  0.00    -0.873 NA 
HETATM   21  N   UNL     1     -13.081  12.705  64.626  1.00  0.00    -0.848 NA 
HETATM   22  C   UNL     1     -12.045  12.015  64.109  1.00  0.00    -0.362 C  
HETATM   23  H   UNL     1     -11.055  12.617  65.776  1.00  0.00     0.000 HD 
HETATM   24  H1  UNL     1     -12.963  11.445  62.333  1.00  0.00     0.000 HD 
HETATM   25  H2  UNL     1     -11.332  10.966  62.630  1.00  0.00     0.000 HD 
ENDBRANCH  16  17
ENDBRANCH  15  16
ENDBRANCH  14  15
ENDBRANCH  13  14
BRANCH  13  26
HETATM   26  N   UNL     1      -9.197   9.215  68.574  1.00  0.00    -0.136 N  
HETATM   27  H   UNL     1      -9.550   8.299  68.299  1.00  0.00     0.000 HD 
BRANCH  26  28
HETATM   28  S   UNL     1      -7.601   9.395  69.152  1.00  0.00    -0.077 S  
HETATM   29  O   UNL     1      -7.643  10.205  70.342  1.00  0.00    -0.249 OA 
HETATM   30  O   UNL     1      -6.829   9.823  68.003  1.00  0.00    -0.071 OA 
BRANCH  28  31
HETATM   31  C   UNL     1      -7.150   7.728  69.558  1.00  0.00    -0.063 A  
HETATM   32  C   UNL     1      -7.549   4.112  68.382  1.00  0.00    -0.066 C  
HETATM   33  C   UNL     1      -6.430   7.532  70.747  1.00  0.00    -0.039 A  
HETATM   34  C   UNL     1      -8.963   3.212  66.501  1.00  0.00    -0.163 C  
HETATM   35  C   UNL     1      -6.053   6.251  71.136  1.00  0.00    -0.032 A  
HETATM   36  C   UNL     1      -8.716   4.396  67.432  1.00  0.00    -0.110 C  
HETATM   37  C   UNL     1      -8.398   5.669  66.660  1.00  0.00    -0.112 C  
HETATM   38  H   UNL     1      -8.731   7.694  67.363  1.00  0.00     0.000 HD 
HETATM   39  N   UNL     1      -8.274   6.805  67.568  1.00  0.00    -0.121 NA 
HETATM   40  C   UNL     1      -6.392   5.164  70.340  1.00  0.00    -0.030 A  
HETATM   41  C   UNL     1      -7.507   6.640  68.733  1.00  0.00    -0.096 A  
HETATM   42  C   UNL     1      -7.124   5.344  69.151  1.00  0.00    -0.057 A  
ENDBRANCH  28  31
ENDBRANCH  26  28
ENDBRANCH  13  26
ENDBRANCH   7  13
TORSDOF 8
ENDMDL
MODEL      197
REMARK 921   NORMALIZED FREE ENERGY PREDICTED BY IDOCK:   -5.43 KCAL/MOL
REMARK 922        TOTAL FREE ENERGY PREDICTED BY IDOCK:   -9.22 KCAL/MOL
REMARK 923 INTER-LIGAND FREE ENERGY PREDICTED BY IDOCK:   -7.28 KCAL/MOL
REMARK 924 INTRA-LIGAND FREE ENERGY PREDICTED BY IDOCK:   -1.94 KCAL/MOL
REMARK 927      BINDING AFFINITY PREDICTED BY RF-SCORE:    0.00 PKD
ROOT
HETATM    1  C   UNL     1      -8.290  13.992  67.210  1.00  0.00    -0.209 C  
HETATM    2  C   UNL     1      -8.616  12.694  67.934  1.00  0.00    -0.181 C  
HETATM    3  C   UNL     1      -7.399  12.136  68.679  1.00  0.00    -0.109 C  
HETATM    4  C   UNL     1      -7.729  10.809  69.363  1.00  0.00    -0.102 C  
HETATM    5  N   UNL     1      -8.383   9.825  68.457  1.00  0.00    -0.109 N  
HETATM    6  C   UNL     1      -9.531  10.352  67.688  1.00  0.00    -0.148 C  
HETATM    7  C   UNL     1      -7.641   8.689  68.106  1.00  0.00    -0.097 C  
HETATM    8  O   UNL     1      -6.486   8.585  68.541  1.00  0.00    -0.053 OA 
HETATM    9  O   UNL     1     -10.762  10.309  69.763  1.00  0.00    -0.249 OA 
HETATM   10  C   UNL     1      -9.128  11.633  66.948  1.00  0.00    -0.188 C  
HETATM   11  C   UNL     1     -10.825  10.615  68.466  1.00  0.00    -0.233 C  
HETATM   12  O   UNL     1     -11.839  11.071  67.962  1.00  0.00    -0.593 OA 
ENDROOT
BRANCH   7  13
HETATM   13  C   UNL     1      -8.209   7.470  67.294  1.00  0.00    -0.115 C  
BRANCH  13  14
HETATM   14  C   UNL     1      -8.775   7.701  65.868  1.00  0.00    -0.176 C  
BRANCH  14  15
HETATM   15  C   UNL     1      -7.897   7.070  64.767  1.00  0.00    -0.126 C  
BRANCH  15  16
HETATM   16  C   UNL     1      -8.512   5.821  64.118  1.00  0.00     0.018 C  
BRANCH  16  17
HETATM   17  N   UNL     1      -8.661   4.800  65.138  1.00  0.00    -0.134 NA 
HETATM   18  H2  UNL     1      -8.690   2.951  66.743  1.00  0.00     0.000 HD 
HETATM   19  H1  UNL     1     -10.484   2.771  66.655  1.00  0.00     0.000 HD 
HETATM   20  N   UNL     1     -11.011   4.476  65.115  1.00  0.00    -0.842 NA 
HETATM   21  N   UNL     1      -9.608   3.218  66.385  1.00  0.00    -0.075 NA 
HETATM   22  C   UNL     1      -9.821   4.208  65.496  1.00  0.00    -0.207 C  
HETATM   23  H   UNL     1      -7.816   4.503  65.628  1.00  0.00     0.000 HD 
HETATM   24  H1  UNL     1     -11.888   4.028  65.385  1.00  0.00     0.000 HD 
HETATM   25  H2  UNL     1     -11.097   5.243  64.449  1.00  0.00     0.000 HD 
ENDBRANCH  16  17
ENDBRANCH  15  16
ENDBRANCH  14  15
ENDBRANCH  13  14
BRANCH  13  26
HETATM   26  N   UNL     1      -9.197   6.663  68.062  1.00  0.00    -0.114 N  
HETATM   27  H   UNL     1     -10.188   6.689  67.822  1.00  0.00     0.000 HD 
BRANCH  26  28
HETATM   28  S   UNL     1      -8.639   5.693  69.352  1.00  0.00    -0.106 S  
HETATM   29  O   UNL     1      -7.222   5.503  69.189  1.00  0.00    -0.065 OA 
HETATM   30  O   UNL     1      -9.532   4.553  69.380  1.00  0.00    -0.140 OA 
BRANCH  28  31
HETATM   31  C   UNL     1      -8.965   6.713  70.766  1.00  0.00    -0.151 A  
HETATM   32  C   UNL     1     -11.800   8.413  72.686  1.00  0.00    -0.360 C  
HETATM   33  C   UNL     1      -7.854   7.167  71.495  1.00  0.00    -0.093 A  
HETATM   34  C   UNL     1     -14.240   8.573  72.081  1.00  0.00    -0.516 C  
HETATM   35  C   UNL     1      -8.031   7.981  72.609  1.00  0.00    -0.181 A  
HETATM   36  C   UNL     1     -12.834   8.283  71.564  1.00  0.00    -0.312 C  
HETATM   37  C   UNL     1     -12.722   6.881  70.979  1.00  0.00    -0.210 C  
HETATM   38  H   UNL     1     -11.295   6.246  69.474  1.00  0.00     0.000 HD 
HETATM   39  N   UNL     1     -11.400   6.670  70.396  1.00  0.00    -0.338 NA 
HETATM   40  C   UNL     1      -9.315   8.342  72.998  1.00  0.00    -0.249 A  
HETATM   41  C   UNL     1     -10.278   7.066  71.141  1.00  0.00    -0.195 A  
HETATM   42  C   UNL     1     -10.437   7.904  72.270  1.00  0.00    -0.322 A  
ENDBRANCH  28  31
ENDBRANCH  26  28
ENDBRANCH  13  26
ENDBRANCH   7  13
TORSDOF 8
ENDMDL
MODEL      198
REMARK 921   NORMALIZED FREE ENERGY PREDICTED BY IDOCK:   -5.43 KCAL/MOL
REMARK 922        TOTAL FREE ENERGY PREDICTED BY IDOCK:   -9.22 KCAL/MOL
REMARK 923 INTER-LIGAND FREE ENERGY PREDICTED BY IDOCK:   -8.01 KCAL/MOL
REMARK 924 INTRA-LIGAND FREE ENERGY PREDICTED BY IDOCK:   -1.21 KCAL/MOL
REMARK 927      BINDING AFFINITY PREDICTED BY RF-SCORE:    0.00 PKD
ROOT
HETATM    1  C   UNL     1     -10.565  18.476  66.704  1.00  0.00    -0.383 C  
HETATM    2  C   UNL     1     -10.168  17.382  67.685  1.00  0.00    -0.342 C  
HETATM    3  C   UNL     1      -8.651  17.161  67.710  1.00  0.00    -0.216 C  
HETATM    4  C   UNL     1      -8.272  16.030  68.666  1.00  0.00    -0.193 C  
HETATM    5  N   UNL     1      -9.058  14.785  68.446  1.00  0.00    -0.182 N  
HETATM    6  C   UNL     1     -10.523  14.977  68.369  1.00  0.00    -0.238 C  
HETATM    7  C   UNL     1      -8.370  13.677  67.933  1.00  0.00    -0.174 C  
HETATM    8  O   UNL     1      -7.167  13.806  67.665  1.00  0.00    -0.149 OA 
HETATM    9  O   UNL     1     -10.460  15.347  70.753  1.00  0.00    -0.209 OA 
HETATM   10  C   UNL     1     -10.861  16.057  67.335  1.00  0.00    -0.277 C  
HETATM   11  C   UNL     1     -11.250  15.299  69.678  1.00  0.00    -0.278 C  
HETATM   12  O   UNL     1     -12.451  15.505  69.755  1.00  0.00    -0.303 OA 
ENDROOT
BRANCH   7  13
HETATM   13  C   UNL     1      -8.983  12.240  67.780  1.00  0.00    -0.177 C  
BRANCH  13  14
HETATM   14  C   UNL     1     -10.492  12.084  67.451  1.00  0.00    -0.239 C  
BRANCH  14  15
HETATM   15  C   UNL     1     -11.185  11.013  68.317  1.00  0.00    -0.340 C  
BRANCH  15  16
HETATM   16  C   UNL     1     -12.105  11.589  69.404  1.00  0.00    -0.279 C  
BRANCH  16  17
HETATM   17  N   UNL     1     -12.696  10.485  70.138  1.00  0.00    -0.508 NA 
HETATM   18  H2  UNL     1     -13.829   8.559  71.138  1.00  0.00     0.000 HD 
HETATM   19  H1  UNL     1     -14.211   9.448  72.662  1.00  0.00     0.000 HD 
HETATM   20  N   UNL     1     -13.244  11.545  72.189  1.00  0.00    -0.559 NA 
HETATM   21  N   UNL     1     -13.805   9.391  71.727  1.00  0.00    -0.326 NA 
HETATM   22  C   UNL     1     -13.233  10.559  71.374  1.00  0.00    -0.345 C  
HETATM   23  H   UNL     1     -12.707   9.573  69.679  1.00  0.00     0.000 HD 
HETATM   24  H1  UNL     1     -13.650  11.601  73.123  1.00  0.00     0.000 HD 
HETATM   25  H2  UNL     1     -12.784  12.392  71.858  1.00  0.00     0.000 HD 
ENDBRANCH  16  17
ENDBRANCH  15  16
ENDBRANCH  14  15
ENDBRANCH  13  14
BRANCH  13  26
HETATM   26  N   UNL     1      -8.661  11.341  68.923  1.00  0.00    -0.342 N  
HETATM   27  H   UNL     1      -9.207  11.379  69.784  1.00  0.00     0.000 HD 
BRANCH  26  28
HETATM   28  S   UNL     1      -7.362  10.245  68.765  1.00  0.00    -0.092 S  
HETATM   29  O   UNL     1      -6.149  11.007  68.615  1.00  0.00    -0.043 OA 
HETATM   30  O   UNL     1      -7.774   9.317  67.732  1.00  0.00    -0.088 OA 
BRANCH  28  31
HETATM   31  C   UNL     1      -7.373   9.408  70.329  1.00  0.00    -0.118 A  
HETATM   32  C   UNL     1      -9.551   7.203  72.566  1.00  0.00    -0.172 C  
HETATM   33  C   UNL     1      -6.254   9.588  71.157  1.00  0.00    -0.068 A  
HETATM   34  C   UNL     1     -11.952   6.510  72.243  1.00  0.00    -0.272 C  
HETATM   35  C   UNL     1      -6.199   8.973  72.403  1.00  0.00     0.028 A  
HETATM   36  C   UNL     1     -10.861   7.493  71.827  1.00  0.00    -0.261 C  
HETATM   37  C   UNL     1     -10.582   7.434  70.331  1.00  0.00    -0.228 C  
HETATM   38  H   UNL     1      -9.770   9.046  69.128  1.00  0.00     0.000 HD 
HETATM   39  N   UNL     1      -9.614   8.457  69.946  1.00  0.00    -0.170 NA 
HETATM   40  C   UNL     1      -7.258   8.177  72.824  1.00  0.00    -0.134 A  
HETATM   41  C   UNL     1      -8.461   8.606  70.733  1.00  0.00    -0.158 A  
HETATM   42  C   UNL     1      -8.390   7.998  72.009  1.00  0.00    -0.179 A  
ENDBRANCH  28  31
ENDBRANCH  26  28
ENDBRANCH  13  26
ENDBRANCH   7  13
TORSDOF 8
ENDMDL
MODEL      199
REMARK 921   NORMALIZED FREE ENERGY PREDICTED BY IDOCK:   -5.43 KCAL/MOL
REMARK 922        TOTAL FREE ENERGY PREDICTED BY IDOCK:   -9.21 KCAL/MOL
REMARK 923 INTER-LIGAND FREE ENERGY PREDICTED BY IDOCK:   -7.74 KCAL/MOL
REMARK 924 INTRA-LIGAND FREE ENERGY PREDICTED BY IDOCK:   -1.47 KCAL/MOL
REMARK 927      BINDING AFFINITY PREDICTED BY RF-SCORE:    0.00 PKD
ROOT
HETATM    1  C   UNL     1      -8.469   9.039  63.324  1.00  0.00    -0.180 C  
HETATM    2  C   UNL     1      -9.221   9.861  64.361  1.00  0.00    -0.317 C  
HETATM    3  C   UNL     1     -10.101  10.933  63.709  1.00  0.00    -0.413 C  
HETATM    4  C   UNL     1     -10.814  11.779  64.763  1.00  0.00    -0.302 C  
HETATM    5  N   UNL     1      -9.899  12.308  65.812  1.00  0.00    -0.251 N  
HETATM    6  C   UNL     1      -9.003  11.302  66.423  1.00  0.00    -0.188 C  
HETATM    7  C   UNL     1      -9.673  13.691  65.825  1.00  0.00    -0.140 C  
HETATM    8  O   UNL     1     -10.218  14.383  64.953  1.00  0.00    -0.417 OA 
HETATM    9  O   UNL     1     -10.955  10.461  67.565  1.00  0.00    -0.291 OA 
HETATM   10  C   UNL     1      -8.243  10.539  65.332  1.00  0.00    -0.152 C  
HETATM   11  C   UNL     1      -9.644  10.292  67.380  1.00  0.00    -0.158 C  
HETATM   12  O   UNL     1      -9.028   9.395  67.933  1.00  0.00    -0.124 OA 
ENDROOT
BRANCH   7  13
HETATM   13  C   UNL     1      -8.871  14.453  66.939  1.00  0.00    -0.223 C  
BRANCH  13  14
HETATM   14  C   UNL     1      -7.394  14.065  67.217  1.00  0.00    -0.022 C  
BRANCH  14  15
HETATM   15  C   UNL     1      -7.199  13.409  68.600  1.00  0.00    -0.107 C  
BRANCH  15  16
HETATM   16  C   UNL     1      -5.736  13.080  68.933  1.00  0.00    -0.074 C  
BRANCH  16  17
HETATM   17  N   UNL     1      -5.504  11.676  68.646  1.00  0.00    -0.042 NA 
HETATM   18  H2  UNL     1      -5.162   9.372  67.893  1.00  0.00     0.000 HD 
HETATM   19  H1  UNL     1      -6.114   8.678  69.260  1.00  0.00     0.000 HD 
HETATM   20  N   UNL     1      -6.723  10.647  70.403  1.00  0.00    -0.386 NA 
HETATM   21  N   UNL     1      -5.719   9.463  68.743  1.00  0.00    -0.040 NA 
HETATM   22  C   UNL     1      -6.027  10.636  69.330  1.00  0.00    -0.041 C  
HETATM   23  H   UNL     1      -4.893  11.456  67.859  1.00  0.00     0.000 HD 
HETATM   24  H1  UNL     1      -7.118   9.861  70.920  1.00  0.00     0.000 HD 
HETATM   25  H2  UNL     1      -6.908  11.569  70.796  1.00  0.00     0.000 HD 
ENDBRANCH  16  17
ENDBRANCH  15  16
ENDBRANCH  14  15
ENDBRANCH  13  14
BRANCH  13  26
HETATM   26  N   UNL     1      -9.590  14.512  68.242  1.00  0.00    -0.206 N  
HETATM   27  H   UNL     1      -9.337  13.883  69.004  1.00  0.00     0.000 HD 
BRANCH  26  28
HETATM   28  S   UNL     1     -10.844  15.654  68.437  1.00  0.00    -0.305 S  
HETATM   29  O   UNL     1     -11.024  15.886  69.846  1.00  0.00    -0.285 OA 
HETATM   30  O   UNL     1     -11.939  15.152  67.632  1.00  0.00    -0.236 OA 
BRANCH  28  31
HETATM   31  C   UNL     1     -10.172  17.098  67.656  1.00  0.00    -0.329 A  
HETATM   32  C   UNL     1      -7.169  19.462  67.734  1.00  0.00    -0.284 C  
HETATM   33  C   UNL     1     -10.960  17.718  66.673  1.00  0.00     0.199 A  
HETATM   34  C   UNL     1      -5.250  19.521  69.365  1.00  0.00    -0.203 C  
HETATM   35  C   UNL     1     -10.504  18.862  66.027  1.00  0.00    -0.507 A  
HETATM   36  C   UNL     1      -6.666  19.013  69.110  1.00  0.00    -0.337 C  
HETATM   37  C   UNL     1      -6.744  17.494  69.168  1.00  0.00    -0.243 C  
HETATM   38  H   UNL     1      -8.513  16.333  69.651  1.00  0.00     0.000 HD 
HETATM   39  N   UNL     1      -8.126  17.043  69.028  1.00  0.00    -0.191 NA 
HETATM   40  C   UNL     1      -9.261  19.388  66.358  1.00  0.00    -0.403 A  
HETATM   41  C   UNL     1      -8.907  17.613  68.010  1.00  0.00    -0.257 A  
HETATM   42  C   UNL     1      -8.466  18.783  67.349  1.00  0.00    -0.288 A  
ENDBRANCH  28  31
ENDBRANCH  26  28
ENDBRANCH  13  26
ENDBRANCH   7  13
TORSDOF 8
ENDMDL
MODEL      200
REMARK 921   NORMALIZED FREE ENERGY PREDICTED BY IDOCK:   -5.42 KCAL/MOL
REMARK 922        TOTAL FREE ENERGY PREDICTED BY IDOCK:   -9.21 KCAL/MOL
REMARK 923 INTER-LIGAND FREE ENERGY PREDICTED BY IDOCK:   -7.12 KCAL/MOL
REMARK 924 INTRA-LIGAND FREE ENERGY PREDICTED BY IDOCK:   -2.09 KCAL/MOL
REMARK 927      BINDING AFFINITY PREDICTED BY RF-SCORE:    0.00 PKD
ROOT
HETATM    1  C   UNL     1     -12.199  15.652  70.110  1.00  0.00    -0.387 C  
HETATM    2  C   UNL     1     -12.033  14.402  69.257  1.00  0.00    -0.362 C  
HETATM    3  C   UNL     1     -12.152  13.122  70.091  1.00  0.00    -0.392 C  
HETATM    4  C   UNL     1     -11.938  11.878  69.230  1.00  0.00    -0.281 C  
HETATM    5  N   UNL     1     -10.705  11.941  68.397  1.00  0.00    -0.211 N  
HETATM    6  C   UNL     1     -10.542  13.189  67.619  1.00  0.00    -0.228 C  
HETATM    7  C   UNL     1      -9.663  11.067  68.732  1.00  0.00    -0.191 C  
HETATM    8  O   UNL     1      -9.813  10.321  69.710  1.00  0.00    -0.224 OA 
HETATM    9  O   UNL     1     -12.302  12.362  66.190  1.00  0.00    -0.606 OA 
HETATM   10  C   UNL     1     -10.675  14.407  68.539  1.00  0.00    -0.258 C  
HETATM   11  C   UNL     1     -11.464  13.377  66.410  1.00  0.00    -0.329 C  
HETATM   12  O   UNL     1     -11.453  14.367  65.696  1.00  0.00    -0.326 OA 
ENDROOT
BRANCH   7  13
HETATM   13  C   UNL     1      -8.355  10.875  67.885  1.00  0.00    -0.119 C  
BRANCH  13  14
HETATM   14  C   UNL     1      -7.457  12.103  67.577  1.00  0.00    -0.148 C  
BRANCH  14  15
HETATM   15  C   UNL     1      -6.850  12.734  68.847  1.00  0.00    -0.096 C  
BRANCH  15  16
HETATM   16  C   UNL     1      -5.834  11.834  69.567  1.00  0.00    -0.083 C  
BRANCH  16  17
HETATM   17  N   UNL     1      -6.543  11.037  70.551  1.00  0.00    -0.490 NA 
HETATM   18  H2  UNL     1      -7.629   9.865  72.406  1.00  0.00     0.000 HD 
HETATM   19  H1  UNL     1      -7.234   8.235  71.739  1.00  0.00     0.000 HD 
HETATM   20  N   UNL     1      -6.091   8.843  69.769  1.00  0.00    -0.034 NA 
HETATM   21  N   UNL     1      -7.214   9.255  71.702  1.00  0.00    -0.325 NA 
HETATM   22  C   UNL     1      -6.569   9.688  70.601  1.00  0.00    -0.114 C  
HETATM   23  H   UNL     1      -7.067  11.540  71.268  1.00  0.00     0.000 HD 
HETATM   24  H1  UNL     1      -6.111   7.823  69.807  1.00  0.00     0.000 HD 
HETATM   25  H2  UNL     1      -5.626   9.243  68.955  1.00  0.00     0.000 HD 
ENDBRANCH  16  17
ENDBRANCH  15  16
ENDBRANCH  14  15
ENDBRANCH  13  14
BRANCH  13  26
HETATM   26  N   UNL     1      -8.583  10.135  66.613  1.00  0.00    -0.126 N  
HETATM   27  H   UNL     1      -9.488  10.175  66.144  1.00  0.00     0.000 HD 
BRANCH  26  28
HETATM   28  S   UNL     1      -7.302   9.220  65.954  1.00  0.00    -0.095 S  
HETATM   29  O   UNL     1      -6.198   9.265  66.877  1.00  0.00    -0.063 OA 
HETATM   30  O   UNL     1      -7.143   9.712  64.601  1.00  0.00    -0.108 OA 
BRANCH  28  31
HETATM   31  C   UNL     1      -7.989   7.586  65.894  1.00  0.00    -0.117 A  
HETATM   32  C   UNL     1      -9.500   4.854  68.099  1.00  0.00    -0.178 C  
HETATM   33  C   UNL     1      -7.983   6.937  64.649  1.00  0.00    -0.112 A  
HETATM   34  C   UNL     1      -9.696   4.782  70.610  1.00  0.00    -0.271 C  
HETATM   35  C   UNL     1      -8.495   5.649  64.528  1.00  0.00    -0.070 A  
HETATM   36  C   UNL     1      -9.001   5.442  69.422  1.00  0.00    -0.124 C  
HETATM   37  C   UNL     1      -9.238   6.946  69.390  1.00  0.00    -0.147 C  
HETATM   38  H   UNL     1      -7.934   8.415  68.468  1.00  0.00     0.000 HD 
HETATM   39  N   UNL     1      -8.476   7.565  68.309  1.00  0.00    -0.125 NA 
HETATM   40  C   UNL     1      -9.013   5.007  65.647  1.00  0.00    -0.149 A  
HETATM   41  C   UNL     1      -8.510   6.957  67.044  1.00  0.00    -0.121 A  
HETATM   42  C   UNL     1      -9.015   5.643  66.902  1.00  0.00    -0.112 A  
ENDBRANCH  28  31
ENDBRANCH  26  28
ENDBRANCH  13  26
ENDBRANCH   7  13
TORSDOF 8
ENDMDL
MODEL      201
REMARK 921   NORMALIZED FREE ENERGY PREDICTED BY IDOCK:   -5.42 KCAL/MOL
REMARK 922        TOTAL FREE ENERGY PREDICTED BY IDOCK:   -9.20 KCAL/MOL
REMARK 923 INTER-LIGAND FREE ENERGY PREDICTED BY IDOCK:   -7.41 KCAL/MOL
REMARK 924 INTRA-LIGAND FREE ENERGY PREDICTED BY IDOCK:   -1.79 KCAL/MOL
REMARK 927      BINDING AFFINITY PREDICTED BY RF-SCORE:    0.00 PKD
ROOT
HETATM    1  C   UNL     1      -8.398   2.947  62.904  1.00  0.00    -0.074 C  
HETATM    2  C   UNL     1      -8.329   3.576  64.288  1.00  0.00    -0.090 C  
HETATM    3  C   UNL     1      -9.634   3.382  65.068  1.00  0.00    -0.141 C  
HETATM    4  C   UNL     1      -9.566   4.058  66.438  1.00  0.00    -0.202 C  
HETATM    5  N   UNL     1      -9.107   5.473  66.375  1.00  0.00    -0.139 N  
HETATM    6  C   UNL     1      -7.876   5.695  65.586  1.00  0.00    -0.099 C  
HETATM    7  C   UNL     1     -10.050   6.464  66.679  1.00  0.00    -0.145 C  
HETATM    8  O   UNL     1     -11.206   6.111  66.950  1.00  0.00    -0.290 OA 
HETATM    9  O   UNL     1      -6.686   4.660  67.413  1.00  0.00    -0.049 OA 
HETATM   10  C   UNL     1      -8.023   5.078  64.191  1.00  0.00    -0.105 C  
HETATM   11  C   UNL     1      -6.560   5.213  66.205  1.00  0.00    -0.052 C  
HETATM   12  O   UNL     1      -5.475   5.310  65.654  1.00  0.00    -0.012 OA 
ENDROOT
BRANCH   7  13
HETATM   13  C   UNL     1      -9.721   7.993  66.820  1.00  0.00    -0.237 C  
BRANCH  13  14
HETATM   14  C   UNL     1     -10.653   8.900  67.667  1.00  0.00    -0.292 C  
BRANCH  14  15
HETATM   15  C   UNL     1      -9.979   9.410  68.957  1.00  0.00    -0.182 C  
BRANCH  15  16
HETATM   16  C   UNL     1     -10.925  10.178  69.893  1.00  0.00    -0.293 C  
BRANCH  16  17
HETATM   17  N   UNL     1     -10.949   9.502  71.177  1.00  0.00    -0.344 NA 
HETATM   18  H2  UNL     1     -10.709   8.343  73.320  1.00  0.00     0.000 HD 
HETATM   19  H1  UNL     1     -12.119   7.260  73.005  1.00  0.00     0.000 HD 
HETATM   20  N   UNL     1     -12.788   8.032  70.881  1.00  0.00    -0.506 NA 
HETATM   21  N   UNL     1     -11.481   8.011  72.741  1.00  0.00    -0.405 NA 
HETATM   22  C   UNL     1     -11.792   8.508  71.528  1.00  0.00    -0.299 C  
HETATM   23  H   UNL     1     -10.269   9.804  71.876  1.00  0.00     0.000 HD 
HETATM   24  H1  UNL     1     -13.425   7.281  71.146  1.00  0.00     0.000 HD 
HETATM   25  H2  UNL     1     -12.970   8.463  69.976  1.00  0.00     0.000 HD 
ENDBRANCH  16  17
ENDBRANCH  15  16
ENDBRANCH  14  15
ENDBRANCH  13  14
BRANCH  13  26
HETATM   26  N   UNL     1      -9.482   8.664  65.512  1.00  0.00    -0.443 N  
HETATM   27  H   UNL     1     -10.178   8.615  64.768  1.00  0.00     0.000 HD 
BRANCH  26  28
HETATM   28  S   UNL     1      -8.022   9.518  65.282  1.00  0.00    -0.117 S  
HETATM   29  O   UNL     1      -7.839   9.721  63.868  1.00  0.00    -0.131 OA 
HETATM   30  O   UNL     1      -7.033   8.789  66.050  1.00  0.00    -0.077 OA 
BRANCH  28  31
HETATM   31  C   UNL     1      -8.350  11.063  66.088  1.00  0.00    -0.163 A  
HETATM   32  C   UNL     1     -10.674  14.097  65.989  1.00  0.00    -0.299 C  
HETATM   33  C   UNL     1      -7.476  11.444  67.118  1.00  0.00    -0.138 A  
HETATM   34  C   UNL     1     -12.450  14.669  64.296  1.00  0.00    -0.267 C  
HETATM   35  C   UNL     1      -7.663  12.649  67.787  1.00  0.00    -0.145 A  
HETATM   36  C   UNL     1     -11.214  13.821  64.582  1.00  0.00    -0.383 C  
HETATM   37  C   UNL     1     -11.509  12.331  64.474  1.00  0.00    -0.341 C  
HETATM   38  H   UNL     1     -10.062  10.782  64.013  1.00  0.00     0.000 HD 
HETATM   39  N   UNL     1     -10.288  11.549  64.646  1.00  0.00    -0.277 NA 
HETATM   40  C   UNL     1      -8.724  13.474  67.432  1.00  0.00    -0.220 A  
HETATM   41  C   UNL     1      -9.434  11.883  65.709  1.00  0.00    -0.196 A  
HETATM   42  C   UNL     1      -9.601  13.110  66.395  1.00  0.00    -0.259 A  
ENDBRANCH  28  31
ENDBRANCH  26  28
ENDBRANCH  13  26
ENDBRANCH   7  13
TORSDOF 8
ENDMDL
MODEL      202
REMARK 921   NORMALIZED FREE ENERGY PREDICTED BY IDOCK:   -5.40 KCAL/MOL
REMARK 922        TOTAL FREE ENERGY PREDICTED BY IDOCK:   -9.17 KCAL/MOL
REMARK 923 INTER-LIGAND FREE ENERGY PREDICTED BY IDOCK:   -8.88 KCAL/MOL
REMARK 924 INTRA-LIGAND FREE ENERGY PREDICTED BY IDOCK:   -0.29 KCAL/MOL
REMARK 927      BINDING AFFINITY PREDICTED BY RF-SCORE:    0.00 PKD
ROOT
HETATM    1  C   UNL     1      -7.282   7.486  68.695  1.00  0.00    -0.086 C  
HETATM    2  C   UNL     1      -7.664   8.683  67.836  1.00  0.00    -0.102 C  
HETATM    3  C   UNL     1      -6.431   9.402  67.278  1.00  0.00    -0.070 C  
HETATM    4  C   UNL     1      -6.829  10.627  66.455  1.00  0.00    -0.124 C  
HETATM    5  N   UNL     1      -7.782  11.527  67.162  1.00  0.00    -0.152 N  
HETATM    6  C   UNL     1      -8.957  10.851  67.753  1.00  0.00    -0.139 C  
HETATM    7  C   UNL     1      -7.301  12.783  67.556  1.00  0.00    -0.153 C  
HETATM    8  O   UNL     1      -6.115  13.057  67.324  1.00  0.00    -0.303 OA 
HETATM    9  O   UNL     1      -9.777  10.607  65.497  1.00  0.00    -0.207 OA 
HETATM   10  C   UNL     1      -8.506   9.686  68.640  1.00  0.00    -0.119 C  
HETATM   11  C   UNL     1     -10.030  10.349  66.781  1.00  0.00    -0.206 C  
HETATM   12  O   UNL     1     -11.037   9.754  67.130  1.00  0.00    -0.139 OA 
ENDROOT
BRANCH   7  13
HETATM   13  C   UNL     1      -8.188  13.925  68.169  1.00  0.00    -0.158 C  
BRANCH  13  14
HETATM   14  C   UNL     1      -7.567  14.904  69.200  1.00  0.00    -0.160 C  
BRANCH  14  15
HETATM   15  C   UNL     1      -6.039  14.746  69.329  1.00  0.00    -0.106 C  
BRANCH  15  16
HETATM   16  C   UNL     1      -5.309  16.037  69.732  1.00  0.00    -0.127 C  
BRANCH  16  17
HETATM   17  N   UNL     1      -6.111  17.169  69.307  1.00  0.00    -0.203 NA 
HETATM   18  H2  UNL     1      -7.405  19.001  68.326  1.00  0.00     0.000 HD 
HETATM   19  H1  UNL     1      -6.765  20.215  69.499  1.00  0.00     0.000 HD 
HETATM   20  N   UNL     1      -5.350  18.850  70.799  1.00  0.00    -0.237 NA 
HETATM   21  N   UNL     1      -6.824  19.269  69.120  1.00  0.00    -0.326 NA 
HETATM   22  C   UNL     1      -6.034  18.421  69.807  1.00  0.00    -0.239 C  
HETATM   23  H   UNL     1      -6.792  17.005  68.565  1.00  0.00     0.000 HD 
HETATM   24  H1  UNL     1      -5.291  19.796  71.177  1.00  0.00     0.000 HD 
HETATM   25  H2  UNL     1      -4.783  18.150  71.277  1.00  0.00     0.000 HD 
ENDBRANCH  16  17
ENDBRANCH  15  16
ENDBRANCH  14  15
ENDBRANCH  13  14
BRANCH  13  26
HETATM   26  N   UNL     1      -9.482  13.431  68.717  1.00  0.00    -0.408 N  
HETATM   27  H   UNL     1      -9.504  12.656  69.380  1.00  0.00     0.000 HD 
BRANCH  26  28
HETATM   28  S   UNL     1     -10.928  14.187  68.214  1.00  0.00    -0.261 S  
HETATM   29  O   UNL     1     -11.499  13.401  67.152  1.00  0.00    -0.307 OA 
HETATM   30  O   UNL     1     -10.570  15.573  67.988  1.00  0.00    -0.257 OA 
BRANCH  28  31
HETATM   31  C   UNL     1     -11.939  14.085  69.668  1.00  0.00    -0.339 A  
HETATM   32  C   UNL     1     -13.433  11.590  72.148  1.00  0.00    -0.219 C  
HETATM   33  C   UNL     1     -12.492  15.284  70.146  1.00  0.00    -0.374 A  
HETATM   34  C   UNL     1     -13.386   9.071  72.074  1.00  0.00    -0.494 C  
HETATM   35  C   UNL     1     -13.306  15.279  71.274  1.00  0.00    -0.586 A  
HETATM   36  C   UNL     1     -13.202  10.355  71.271  1.00  0.00    -0.431 C  
HETATM   37  C   UNL     1     -11.806  10.456  70.672  1.00  0.00    -0.350 C  
HETATM   38  H   UNL     1     -11.266  11.582  68.897  1.00  0.00     0.000 HD 
HETATM   39  N   UNL     1     -11.693  11.638  69.822  1.00  0.00    -0.331 NA 
HETATM   40  C   UNL     1     -13.568  14.081  71.928  1.00  0.00    -0.520 A  
HETATM   41  C   UNL     1     -12.190  12.856  70.313  1.00  0.00    -0.289 A  
HETATM   42  C   UNL     1     -13.029  12.871  71.453  1.00  0.00    -0.362 A  
ENDBRANCH  28  31
ENDBRANCH  26  28
ENDBRANCH  13  26
ENDBRANCH   7  13
TORSDOF 8
ENDMDL
MODEL      203
REMARK 921   NORMALIZED FREE ENERGY PREDICTED BY IDOCK:   -5.39 KCAL/MOL
REMARK 922        TOTAL FREE ENERGY PREDICTED BY IDOCK:   -9.16 KCAL/MOL
REMARK 923 INTER-LIGAND FREE ENERGY PREDICTED BY IDOCK:   -8.15 KCAL/MOL
REMARK 924 INTRA-LIGAND FREE ENERGY PREDICTED BY IDOCK:   -1.00 KCAL/MOL
REMARK 927      BINDING AFFINITY PREDICTED BY RF-SCORE:    0.00 PKD
ROOT
HETATM    1  C   UNL     1     -12.328   7.336  71.635  1.00  0.00    -0.387 C  
HETATM    2  C   UNL     1     -10.851   7.387  71.272  1.00  0.00    -0.258 C  
HETATM    3  C   UNL     1     -10.205   8.709  71.699  1.00  0.00    -0.366 C  
HETATM    4  C   UNL     1      -8.733   8.764  71.288  1.00  0.00    -0.215 C  
HETATM    5  N   UNL     1      -8.507   8.418  69.857  1.00  0.00    -0.124 N  
HETATM    6  C   UNL     1      -9.163   7.170  69.406  1.00  0.00    -0.148 C  
HETATM    7  C   UNL     1      -8.088   9.451  69.008  1.00  0.00    -0.106 C  
HETATM    8  O   UNL     1      -7.960  10.587  69.485  1.00  0.00    -0.154 OA 
HETATM    9  O   UNL     1      -7.483   5.994  70.679  1.00  0.00    -0.082 OA 
HETATM   10  C   UNL     1     -10.654   7.198  69.760  1.00  0.00    -0.250 C  
HETATM   11  C   UNL     1      -8.560   5.852  69.903  1.00  0.00    -0.129 C  
HETATM   12  O   UNL     1      -9.014   4.752  69.629  1.00  0.00    -0.087 OA 
ENDROOT
BRANCH   7  13
HETATM   13  C   UNL     1      -7.650   9.253  67.513  1.00  0.00    -0.088 C  
BRANCH  13  14
HETATM   14  C   UNL     1      -6.140   9.182  67.163  1.00  0.00    -0.057 C  
BRANCH  14  15
HETATM   15  C   UNL     1      -5.506  10.574  66.966  1.00  0.00    -0.042 C  
BRANCH  15  16
HETATM   16  C   UNL     1      -6.514  11.674  66.602  1.00  0.00    -0.054 C  
BRANCH  16  17
HETATM   17  N   UNL     1      -6.543  12.646  67.679  1.00  0.00    -0.128 NA 
HETATM   18  H2  UNL     1      -6.605  14.067  69.671  1.00  0.00     0.000 HD 
HETATM   19  H1  UNL     1      -7.777  15.224  68.932  1.00  0.00     0.000 HD 
HETATM   20  N   UNL     1      -8.070  14.240  66.810  1.00  0.00    -0.350 NA 
HETATM   21  N   UNL     1      -7.196  14.386  68.903  1.00  0.00    -0.120 NA 
HETATM   22  C   UNL     1      -7.311  13.755  67.717  1.00  0.00    -0.164 C  
HETATM   23  H   UNL     1      -5.929  12.476  68.476  1.00  0.00     0.000 HD 
HETATM   24  H1  UNL     1      -8.651  15.079  66.839  1.00  0.00     0.000 HD 
HETATM   25  H2  UNL     1      -8.100  13.716  65.936  1.00  0.00     0.000 HD 
ENDBRANCH  16  17
ENDBRANCH  15  16
ENDBRANCH  14  15
ENDBRANCH  13  14
BRANCH  13  26
HETATM   26  N   UNL     1      -8.299  10.215  66.580  1.00  0.00    -0.122 N  
HETATM   27  H   UNL     1      -8.003  11.191  66.550  1.00  0.00     0.000 HD 
BRANCH  26  28
HETATM   28  S   UNL     1      -9.549   9.654  65.561  1.00  0.00    -0.278 S  
HETATM   29  O   UNL     1     -10.353   8.722  66.309  1.00  0.00    -0.231 OA 
HETATM   30  O   UNL     1      -8.884   9.234  64.345  1.00  0.00    -0.204 OA 
BRANCH  28  31
HETATM   31  C   UNL     1     -10.468  11.135  65.231  1.00  0.00    -0.263 A  
HETATM   32  C   UNL     1     -12.031  14.173  66.944  1.00  0.00    -0.479 C  
HETATM   33  C   UNL     1     -10.871  11.354  63.904  1.00  0.00    -0.463 A  
HETATM   34  C   UNL     1     -12.232  14.666  69.407  1.00  0.00    -0.270 C  
HETATM   35  C   UNL     1     -11.606  12.487  63.572  1.00  0.00    -0.584 A  
HETATM   36  C   UNL     1     -11.978  13.587  68.359  1.00  0.00    -0.378 C  
HETATM   37  C   UNL     1     -10.621  12.923  68.544  1.00  0.00    -0.253 C  
HETATM   38  H   UNL     1     -10.091  10.919  67.901  1.00  0.00     0.000 HD 
HETATM   39  N   UNL     1     -10.450  11.824  67.597  1.00  0.00    -0.194 NA 
HETATM   40  C   UNL     1     -11.939  13.404  64.563  1.00  0.00    -0.452 A  
HETATM   41  C   UNL     1     -10.794  12.050  66.254  1.00  0.00    -0.279 A  
HETATM   42  C   UNL     1     -11.551  13.191  65.898  1.00  0.00    -0.391 A  
ENDBRANCH  28  31
ENDBRANCH  26  28
ENDBRANCH  13  26
ENDBRANCH   7  13
TORSDOF 8
ENDMDL
MODEL      204
REMARK 921   NORMALIZED FREE ENERGY PREDICTED BY IDOCK:   -5.39 KCAL/MOL
REMARK 922        TOTAL FREE ENERGY PREDICTED BY IDOCK:   -9.15 KCAL/MOL
REMARK 923 INTER-LIGAND FREE ENERGY PREDICTED BY IDOCK:   -9.15 KCAL/MOL
REMARK 924 INTRA-LIGAND FREE ENERGY PREDICTED BY IDOCK:   -0.00 KCAL/MOL
REMARK 927      BINDING AFFINITY PREDICTED BY RF-SCORE:    0.00 PKD
ROOT
HETATM    1  C   UNL     1      -9.961  18.885  68.616  1.00  0.00    -0.470 C  
HETATM    2  C   UNL     1      -9.307  17.673  67.967  1.00  0.00    -0.274 C  
HETATM    3  C   UNL     1      -9.869  17.403  66.567  1.00  0.00    -0.310 C  
HETATM    4  C   UNL     1      -9.237  16.157  65.947  1.00  0.00    -0.261 C  
HETATM    5  N   UNL     1      -9.267  14.971  66.846  1.00  0.00    -0.231 N  
HETATM    6  C   UNL     1      -8.776  15.216  68.220  1.00  0.00    -0.171 C  
HETATM    7  C   UNL     1     -10.104  13.910  66.476  1.00  0.00    -0.286 C  
HETATM    8  O   UNL     1     -10.785  14.031  65.448  1.00  0.00    -0.306 OA 
HETATM    9  O   UNL     1      -6.562  15.305  67.262  1.00  0.00    -0.283 OA 
HETATM   10  C   UNL     1      -9.501  16.419  68.834  1.00  0.00    -0.254 C  
HETATM   11  C   UNL     1      -7.265  15.408  68.392  1.00  0.00    -0.114 C  
HETATM   12  O   UNL     1      -6.728  15.641  69.463  1.00  0.00    -0.164 OA 
ENDROOT
BRANCH   7  13
HETATM   13  C   UNL     1     -10.155  12.519  67.204  1.00  0.00    -0.214 C  
BRANCH  13  14
HETATM   14  C   UNL     1     -10.996  11.368  66.593  1.00  0.00    -0.341 C  
BRANCH  14  15
HETATM   15  C   UNL     1     -10.255  10.619  65.466  1.00  0.00    -0.329 C  
BRANCH  15  16
HETATM   16  C   UNL     1      -9.402   9.439  65.956  1.00  0.00    -0.220 C  
BRANCH  16  17
HETATM   17  N   UNL     1     -10.291   8.411  66.467  1.00  0.00    -0.399 NA 
HETATM   18  H2  UNL     1     -11.934   6.886  67.449  1.00  0.00     0.000 HD 
HETATM   19  H1  UNL     1     -10.674   5.702  67.968  1.00  0.00     0.000 HD 
HETATM   20  N   UNL     1      -8.727   6.778  67.186  1.00  0.00    -0.119 NA 
HETATM   21  N   UNL     1     -10.965   6.574  67.525  1.00  0.00    -0.348 NA 
HETATM   22  C   UNL     1      -9.905   7.258  67.053  1.00  0.00    -0.203 C  
HETATM   23  H   UNL     1     -11.294   8.575  66.374  1.00  0.00     0.000 HD 
HETATM   24  H1  UNL     1      -8.436   5.906  67.630  1.00  0.00     0.000 HD 
HETATM   25  H2  UNL     1      -7.975   7.345  66.796  1.00  0.00     0.000 HD 
ENDBRANCH  16  17
ENDBRANCH  15  16
ENDBRANCH  14  15
ENDBRANCH  13  14
BRANCH  13  26
HETATM   26  N   UNL     1     -10.495  12.627  68.650  1.00  0.00    -0.315 N  
HETATM   27  H   UNL     1     -10.172  13.422  69.202  1.00  0.00     0.000 HD 
BRANCH  26  28
HETATM   28  S   UNL     1     -11.436  11.396  69.366  1.00  0.00    -0.339 S  
HETATM   29  O   UNL     1     -12.341  10.886  68.369  1.00  0.00    -0.477 OA 
HETATM   30  O   UNL     1     -11.948  11.975  70.590  1.00  0.00    -0.331 OA 
BRANCH  28  31
HETATM   31  C   UNL     1     -10.218  10.172  69.775  1.00  0.00    -0.247 A  
HETATM   32  C   UNL     1      -9.787   6.787  71.496  1.00  0.00    -0.179 C  
HETATM   33  C   UNL     1      -8.885  10.463  69.443  1.00  0.00    -0.138 A  
HETATM   34  C   UNL     1     -11.483   5.448  72.792  1.00  0.00    -0.333 C  
HETATM   35  C   UNL     1      -7.874   9.556  69.744  1.00  0.00    -0.128 A  
HETATM   36  C   UNL     1     -11.133   6.821  72.226  1.00  0.00    -0.286 C  
HETATM   37  C   UNL     1     -12.188   7.318  71.247  1.00  0.00    -0.354 C  
HETATM   38  H   UNL     1     -12.606   9.395  70.780  1.00  0.00     0.000 HD 
HETATM   39  N   UNL     1     -11.883   8.676  70.805  1.00  0.00    -0.227 NA 
HETATM   40  C   UNL     1      -8.191   8.358  70.375  1.00  0.00    -0.115 A  
HETATM   41  C   UNL     1     -10.565   8.964  70.415  1.00  0.00    -0.217 A  
HETATM   42  C   UNL     1      -9.521   8.060  70.722  1.00  0.00    -0.173 A  
ENDBRANCH  28  31
ENDBRANCH  26  28
ENDBRANCH  13  26
ENDBRANCH   7  13
TORSDOF 8
ENDMDL
MODEL      205
REMARK 921   NORMALIZED FREE ENERGY PREDICTED BY IDOCK:   -5.38 KCAL/MOL
REMARK 922        TOTAL FREE ENERGY PREDICTED BY IDOCK:   -9.14 KCAL/MOL
REMARK 923 INTER-LIGAND FREE ENERGY PREDICTED BY IDOCK:   -7.72 KCAL/MOL
REMARK 924 INTRA-LIGAND FREE ENERGY PREDICTED BY IDOCK:   -1.42 KCAL/MOL
REMARK 927      BINDING AFFINITY PREDICTED BY RF-SCORE:    0.00 PKD
ROOT
HETATM    1  C   UNL     1      -7.042   8.220  74.560  1.00  0.00    -0.220 C  
HETATM    2  C   UNL     1      -7.673   7.357  73.477  1.00  0.00    -0.124 C  
HETATM    3  C   UNL     1      -6.729   7.156  72.286  1.00  0.00    -0.056 C  
HETATM    4  C   UNL     1      -7.393   6.325  71.188  1.00  0.00    -0.080 C  
HETATM    5  N   UNL     1      -8.744   6.822  70.807  1.00  0.00    -0.145 N  
HETATM    6  C   UNL     1      -9.659   7.072  71.942  1.00  0.00    -0.150 C  
HETATM    7  C   UNL     1      -8.881   7.387  69.532  1.00  0.00    -0.137 C  
HETATM    8  O   UNL     1      -7.874   7.467  68.814  1.00  0.00    -0.116 OA 
HETATM    9  O   UNL     1      -9.835   4.674  72.147  1.00  0.00    -0.161 OA 
HETATM   10  C   UNL     1      -8.984   7.981  72.976  1.00  0.00    -0.313 C  
HETATM   11  C   UNL     1     -10.226   5.843  72.659  1.00  0.00    -0.183 C  
HETATM   12  O   UNL     1     -10.972   5.903  73.624  1.00  0.00    -0.225 OA 
ENDROOT
BRANCH   7  13
HETATM   13  C   UNL     1     -10.248   7.822  68.893  1.00  0.00    -0.211 C  
BRANCH  13  14
HETATM   14  C   UNL     1     -11.248   6.736  68.416  1.00  0.00    -0.146 C  
BRANCH  14  15
HETATM   15  C   UNL     1     -11.131   6.437  66.907  1.00  0.00    -0.346 C  
BRANCH  15  16
HETATM   16  C   UNL     1     -10.494   5.076  66.588  1.00  0.00    -0.250 C  
BRANCH  16  17
HETATM   17  N   UNL     1      -9.081   5.281  66.327  1.00  0.00    -0.135 NA 
HETATM   18  H2  UNL     1      -6.708   5.828  66.082  1.00  0.00     0.000 HD 
HETATM   19  H1  UNL     1      -6.774   5.755  64.279  1.00  0.00     0.000 HD 
HETATM   20  N   UNL     1      -9.042   5.203  63.956  1.00  0.00    -0.351 NA 
HETATM   21  N   UNL     1      -7.204   5.684  65.202  1.00  0.00    -0.068 NA 
HETATM   22  C   UNL     1      -8.512   5.375  65.106  1.00  0.00    -0.150 C  
HETATM   23  H   UNL     1      -8.464   5.360  67.136  1.00  0.00     0.000 HD 
HETATM   24  H1  UNL     1      -8.612   5.274  63.033  1.00  0.00     0.000 HD 
HETATM   25  H2  UNL     1     -10.033   4.961  63.960  1.00  0.00     0.000 HD 
ENDBRANCH  16  17
ENDBRANCH  15  16
ENDBRANCH  14  15
ENDBRANCH  13  14
BRANCH  13  26
HETATM   26  N   UNL     1     -10.092   8.822  67.801  1.00  0.00    -0.195 N  
HETATM   27  H   UNL     1     -10.033   8.524  66.827  1.00  0.00     0.000 HD 
BRANCH  26  28
HETATM   28  S   UNL     1     -10.015  10.478  68.209  1.00  0.00    -0.165 S  
HETATM   29  O   UNL     1      -8.731  10.732  68.809  1.00  0.00    -0.150 OA 
HETATM   30  O   UNL     1     -11.232  10.742  68.948  1.00  0.00    -0.229 OA 
BRANCH  28  31
HETATM   31  C   UNL     1     -10.122  11.269  66.624  1.00  0.00    -0.214 A  
HETATM   32  C   UNL     1     -10.310  14.706  64.962  1.00  0.00    -0.432 C  
HETATM   33  C   UNL     1     -10.236  10.435  65.501  1.00  0.00    -0.316 A  
HETATM   34  C   UNL     1     -10.529  16.971  66.043  1.00  0.00    -0.280 C  
HETATM   35  C   UNL     1     -10.337  10.984  64.227  1.00  0.00    -0.430 A  
HETATM   36  C   UNL     1     -10.681  15.466  66.239  1.00  0.00    -0.312 C  
HETATM   37  C   UNL     1      -9.801  14.948  67.369  1.00  0.00    -0.221 C  
HETATM   38  H   UNL     1     -10.172  13.167  68.551  1.00  0.00     0.000 HD 
HETATM   39  N   UNL     1     -10.046  13.528  67.605  1.00  0.00    -0.226 NA 
HETATM   40  C   UNL     1     -10.322  12.365  64.072  1.00  0.00    -0.435 A  
HETATM   41  C   UNL     1     -10.105  12.673  66.493  1.00  0.00    -0.248 A  
HETATM   42  C   UNL     1     -10.219  13.213  65.190  1.00  0.00    -0.299 A  
ENDBRANCH  28  31
ENDBRANCH  26  28
ENDBRANCH  13  26
ENDBRANCH   7  13
TORSDOF 8
ENDMDL
MODEL      206
REMARK 921   NORMALIZED FREE ENERGY PREDICTED BY IDOCK:   -5.37 KCAL/MOL
REMARK 922        TOTAL FREE ENERGY PREDICTED BY IDOCK:   -9.14 KCAL/MOL
REMARK 923 INTER-LIGAND FREE ENERGY PREDICTED BY IDOCK:   -6.33 KCAL/MOL
REMARK 924 INTRA-LIGAND FREE ENERGY PREDICTED BY IDOCK:   -2.80 KCAL/MOL
REMARK 927      BINDING AFFINITY PREDICTED BY RF-SCORE:    0.00 PKD
ROOT
HETATM    1  C   UNL     1     -12.980  10.806  71.781  1.00  0.00    -0.568 C  
HETATM    2  C   UNL     1     -12.501   9.482  71.203  1.00  0.00    -0.399 C  
HETATM    3  C   UNL     1     -13.277   8.294  71.781  1.00  0.00    -0.368 C  
HETATM    4  C   UNL     1     -12.754   6.969  71.226  1.00  0.00    -0.351 C  
HETATM    5  N   UNL     1     -11.275   6.829  71.329  1.00  0.00    -0.264 N  
HETATM    6  C   UNL     1     -10.502   7.985  70.824  1.00  0.00    -0.206 C  
HETATM    7  C   UNL     1     -10.785   5.874  72.230  1.00  0.00    -0.234 C  
HETATM    8  O   UNL     1     -11.602   5.229  72.903  1.00  0.00    -0.310 OA 
HETATM    9  O   UNL     1     -11.116   7.248  68.609  1.00  0.00    -0.048 OA 
HETATM   10  C   UNL     1     -11.002   9.280  71.474  1.00  0.00    -0.446 C  
HETATM   11  C   UNL     1     -10.457   8.178  69.305  1.00  0.00    -0.214 C  
HETATM   12  O   UNL     1      -9.878   9.101  68.754  1.00  0.00    -0.159 OA 
ENDROOT
BRANCH   7  13
HETATM   13  C   UNL     1      -9.274   5.471  72.367  1.00  0.00    -0.144 C  
BRANCH  13  14
HETATM   14  C   UNL     1      -8.385   6.188  73.417  1.00  0.00    -0.116 C  
BRANCH  14  15
HETATM   15  C   UNL     1      -7.202   6.947  72.781  1.00  0.00    -0.074 C  
BRANCH  15  16
HETATM   16  C   UNL     1      -7.412   8.466  72.688  1.00  0.00    -0.074 C  
BRANCH  16  17
HETATM   17  N   UNL     1      -6.373   9.022  71.841  1.00  0.00    -0.193 NA 
HETATM   18  H2  UNL     1      -4.482  10.018  70.649  1.00  0.00     0.000 HD 
HETATM   19  H1  UNL     1      -5.548  10.923  69.507  1.00  0.00     0.000 HD 
HETATM   20  N   UNL     1      -7.671  10.249  70.278  1.00  0.00    -0.430 NA 
HETATM   21  N   UNL     1      -5.399  10.290  70.294  1.00  0.00    -0.044 NA 
HETATM   22  C   UNL     1      -6.571   9.860  70.800  1.00  0.00    -0.066 C  
HETATM   23  H   UNL     1      -5.410   8.757  72.050  1.00  0.00     0.000 HD 
HETATM   24  H1  UNL     1      -7.820  10.882  69.492  1.00  0.00     0.000 HD 
HETATM   25  H2  UNL     1      -8.517   9.874  70.707  1.00  0.00     0.000 HD 
ENDBRANCH  16  17
ENDBRANCH  15  16
ENDBRANCH  14  15
ENDBRANCH  13  14
BRANCH  13  26
HETATM   26  N   UNL     1      -8.547   5.469  71.066  1.00  0.00    -0.124 N  
HETATM   27  H   UNL     1      -8.065   6.306  70.739  1.00  0.00     0.000 HD 
BRANCH  26  28
HETATM   28  S   UNL     1      -8.538   4.039  70.134  1.00  0.00    -0.067 S  
HETATM   29  O   UNL     1      -9.685   3.253  70.507  1.00  0.00    -0.170 OA 
HETATM   30  O   UNL     1      -7.202   3.500  70.284  1.00  0.00    -0.040 OA 
BRANCH  28  31
HETATM   31  C   UNL     1      -8.726   4.657  68.482  1.00  0.00    -0.098 A  
HETATM   32  C   UNL     1      -7.525   7.419  66.128  1.00  0.00    -0.083 C  
HETATM   33  C   UNL     1      -9.667   4.014  67.663  1.00  0.00    -0.164 A  
HETATM   34  C   UNL     1      -6.051   9.397  66.639  1.00  0.00    -0.064 C  
HETATM   35  C   UNL     1      -9.878   4.451  66.360  1.00  0.00    -0.245 A  
HETATM   36  C   UNL     1      -6.938   8.306  67.230  1.00  0.00    -0.075 C  
HETATM   37  C   UNL     1      -6.172   7.413  68.197  1.00  0.00    -0.043 C  
HETATM   38  H   UNL     1      -7.037   6.281  69.834  1.00  0.00     0.000 HD 
HETATM   39  N   UNL     1      -7.068   6.447  68.828  1.00  0.00    -0.080 NA 
HETATM   40  C   UNL     1      -9.149   5.530  65.871  1.00  0.00    -0.163 A  
HETATM   41  C   UNL     1      -7.974   5.754  68.010  1.00  0.00    -0.101 A  
HETATM   42  C   UNL     1      -8.211   6.191  66.685  1.00  0.00    -0.110 A  
ENDBRANCH  28  31
ENDBRANCH  26  28
ENDBRANCH  13  26
ENDBRANCH   7  13
TORSDOF 8
ENDMDL
MODEL      207
REMARK 921   NORMALIZED FREE ENERGY PREDICTED BY IDOCK:   -5.37 KCAL/MOL
REMARK 922        TOTAL FREE ENERGY PREDICTED BY IDOCK:   -9.13 KCAL/MOL
REMARK 923 INTER-LIGAND FREE ENERGY PREDICTED BY IDOCK:   -7.88 KCAL/MOL
REMARK 924 INTRA-LIGAND FREE ENERGY PREDICTED BY IDOCK:   -1.24 KCAL/MOL
REMARK 927      BINDING AFFINITY PREDICTED BY RF-SCORE:    0.00 PKD
ROOT
HETATM    1  C   UNL     1     -12.398  13.055  63.328  1.00  0.00    -0.392 C  
HETATM    2  C   UNL     1     -11.345  12.665  64.356  1.00  0.00    -0.393 C  
HETATM    3  C   UNL     1     -10.757  11.279  64.071  1.00  0.00    -0.444 C  
HETATM    4  C   UNL     1      -9.735  10.881  65.135  1.00  0.00    -0.262 C  
HETATM    5  N   UNL     1     -10.238  11.047  66.527  1.00  0.00    -0.226 N  
HETATM    6  C   UNL     1     -10.856  12.360  66.815  1.00  0.00    -0.248 C  
HETATM    7  C   UNL     1     -10.463   9.879  67.268  1.00  0.00    -0.258 C  
HETATM    8  O   UNL     1     -10.262   8.787  66.718  1.00  0.00    -0.266 OA 
HETATM    9  O   UNL     1      -8.620  13.265  66.774  1.00  0.00    -0.149 OA 
HETATM   10  C   UNL     1     -11.936  12.675  65.774  1.00  0.00    -0.503 C  
HETATM   11  C   UNL     1      -9.912  13.561  66.929  1.00  0.00    -0.256 C  
HETATM   12  O   UNL     1     -10.288  14.703  67.139  1.00  0.00    -0.261 OA 
ENDROOT
BRANCH   7  13
HETATM   13  C   UNL     1     -10.841   9.850  68.792  1.00  0.00    -0.208 C  
BRANCH  13  14
HETATM   14  C   UNL     1     -12.071  10.655  69.289  1.00  0.00    -0.206 C  
BRANCH  14  15
HETATM   15  C   UNL     1     -11.792  11.427  70.595  1.00  0.00    -0.327 C  
BRANCH  15  16
HETATM   16  C   UNL     1     -12.975  12.278  71.082  1.00  0.00    -0.138 C  
BRANCH  16  17
HETATM   17  N   UNL     1     -12.600  13.677  70.994  1.00  0.00    -0.361 NA 
HETATM   18  H2  UNL     1     -11.712  15.947  70.776  1.00  0.00     0.000 HD 
HETATM   19  H1  UNL     1     -12.535  16.522  72.277  1.00  0.00     0.000 HD 
HETATM   20  N   UNL     1     -13.641  14.549  72.940  1.00  0.00    -0.590 NA 
HETATM   21  N   UNL     1     -12.308  15.801  71.591  1.00  0.00    -0.424 NA 
HETATM   22  C   UNL     1     -12.900  14.631  71.901  1.00  0.00    -0.328 C  
HETATM   23  H   UNL     1     -12.064  13.965  70.175  1.00  0.00     0.000 HD 
HETATM   24  H1  UNL     1     -13.867  15.269  73.626  1.00  0.00     0.000 HD 
HETATM   25  H2  UNL     1     -14.064  13.636  73.107  1.00  0.00     0.000 HD 
ENDBRANCH  16  17
ENDBRANCH  15  16
ENDBRANCH  14  15
ENDBRANCH  13  14
BRANCH  13  26
HETATM   26  N   UNL     1      -9.691  10.157  69.687  1.00  0.00    -0.290 N  
HETATM   27  H   UNL     1      -9.609  11.071  70.133  1.00  0.00     0.000 HD 
BRANCH  26  28
HETATM   28  S   UNL     1      -8.514   8.950  69.954  1.00  0.00    -0.145 S  
HETATM   29  O   UNL     1      -9.115   7.670  69.686  1.00  0.00    -0.147 OA 
HETATM   30  O   UNL     1      -7.966   9.241  71.263  1.00  0.00    -0.322 OA 
BRANCH  28  31
HETATM   31  C   UNL     1      -7.293   9.327  68.723  1.00  0.00    -0.075 A  
HETATM   32  C   UNL     1      -5.247  12.211  67.271  1.00  0.00    -0.106 C  
HETATM   33  C   UNL     1      -6.892   8.278  67.880  1.00  0.00    -0.066 A  
HETATM   34  C   UNL     1      -5.398  14.671  67.791  1.00  0.00    -0.017 C  
HETATM   35  C   UNL     1      -5.948   8.502  66.883  1.00  0.00    -0.053 A  
HETATM   36  C   UNL     1      -6.104  13.322  67.885  1.00  0.00    -0.143 C  
HETATM   37  C   UNL     1      -6.411  12.939  69.327  1.00  0.00    -0.108 C  
HETATM   38  H   UNL     1      -8.003  11.616  69.976  1.00  0.00     0.000 HD 
HETATM   39  N   UNL     1      -7.180  11.699  69.379  1.00  0.00    -0.026 NA 
HETATM   40  C   UNL     1      -5.402   9.771  66.727  1.00  0.00    -0.045 A  
HETATM   41  C   UNL     1      -6.754  10.623  68.584  1.00  0.00    -0.057 A  
HETATM   42  C   UNL     1      -5.803  10.833  67.558  1.00  0.00    -0.044 A  
ENDBRANCH  28  31
ENDBRANCH  26  28
ENDBRANCH  13  26
ENDBRANCH   7  13
TORSDOF 8
ENDMDL
MODEL      208
REMARK 921   NORMALIZED FREE ENERGY PREDICTED BY IDOCK:   -5.36 KCAL/MOL
REMARK 922        TOTAL FREE ENERGY PREDICTED BY IDOCK:   -9.12 KCAL/MOL
REMARK 923 INTER-LIGAND FREE ENERGY PREDICTED BY IDOCK:   -6.82 KCAL/MOL
REMARK 924 INTRA-LIGAND FREE ENERGY PREDICTED BY IDOCK:   -2.30 KCAL/MOL
REMARK 927      BINDING AFFINITY PREDICTED BY RF-SCORE:    0.00 PKD
ROOT
HETATM    1  C   UNL     1      -9.710  16.461  65.475  1.00  0.00    -0.025 C  
HETATM    2  C   UNL     1      -9.953  15.353  66.490  1.00  0.00    -0.282 C  
HETATM    3  C   UNL     1      -8.953  15.413  67.649  1.00  0.00    -0.185 C  
HETATM    4  C   UNL     1      -9.180  14.268  68.637  1.00  0.00    -0.167 C  
HETATM    5  N   UNL     1      -9.265  12.933  67.983  1.00  0.00    -0.206 N  
HETATM    6  C   UNL     1     -10.188  12.861  66.829  1.00  0.00    -0.241 C  
HETATM    7  C   UNL     1      -8.215  12.037  68.222  1.00  0.00    -0.161 C  
HETATM    8  O   UNL     1      -7.272  12.414  68.931  1.00  0.00    -0.107 OA 
HETATM    9  O   UNL     1     -11.984  12.961  68.437  1.00  0.00    -0.326 OA 
HETATM   10  C   UNL     1      -9.865  13.972  65.823  1.00  0.00    -0.280 C  
HETATM   11  C   UNL     1     -11.688  12.893  67.138  1.00  0.00    -0.377 C  
HETATM   12  O   UNL     1     -12.559  12.865  66.282  1.00  0.00    -0.380 OA 
ENDROOT
BRANCH   7  13
HETATM   13  C   UNL     1      -8.198  10.538  67.753  1.00  0.00    -0.107 C  
BRANCH  13  14
HETATM   14  C   UNL     1      -8.113  10.214  66.238  1.00  0.00    -0.124 C  
BRANCH  14  15
HETATM   15  C   UNL     1      -7.200   9.008  65.935  1.00  0.00    -0.093 C  
BRANCH  15  16
HETATM   16  C   UNL     1      -7.952   7.766  65.432  1.00  0.00    -0.125 C  
BRANCH  16  17
HETATM   17  N   UNL     1      -9.213   7.674  66.143  1.00  0.00    -0.313 NA 
HETATM   18  H2  UNL     1     -11.214   7.651  67.553  1.00  0.00     0.000 HD 
HETATM   19  H1  UNL     1     -11.609   5.939  67.139  1.00  0.00     0.000 HD 
HETATM   20  N   UNL     1      -9.841   5.436  65.664  1.00  0.00    -0.367 NA 
HETATM   21  N   UNL     1     -11.028   6.774  67.065  1.00  0.00    -0.401 NA 
HETATM   22  C   UNL     1      -9.983   6.569  66.240  1.00  0.00     0.070 C  
HETATM   23  H   UNL     1      -9.548   8.517  66.610  1.00  0.00     0.000 HD 
HETATM   24  H1  UNL     1     -10.422   4.601  65.737  1.00  0.00     0.000 HD 
HETATM   25  H2  UNL     1      -9.034   5.356  65.045  1.00  0.00     0.000 HD 
ENDBRANCH  16  17
ENDBRANCH  15  16
ENDBRANCH  14  15
ENDBRANCH  13  14
BRANCH  13  26
HETATM   26  N   UNL     1      -9.300   9.728  68.341  1.00  0.00    -0.133 N  
HETATM   27  H   UNL     1      -9.942   9.209  67.741  1.00  0.00     0.000 HD 
BRANCH  26  28
HETATM   28  S   UNL     1      -9.469   9.681  70.039  1.00  0.00    -0.241 S  
HETATM   29  O   UNL     1     -10.578  10.523  70.403  1.00  0.00    -0.161 OA 
HETATM   30  O   UNL     1      -8.144   9.954  70.557  1.00  0.00    -0.230 OA 
BRANCH  28  31
HETATM   31  C   UNL     1      -9.864   7.978  70.339  1.00  0.00    -0.183 A  
HETATM   32  C   UNL     1      -8.644   4.421  69.655  1.00  0.00    -0.101 C  
HETATM   33  C   UNL     1     -11.063   7.711  71.019  1.00  0.00    -0.273 A  
HETATM   34  C   UNL     1      -6.730   3.661  68.202  1.00  0.00    -0.046 C  
HETATM   35  C   UNL     1     -11.444   6.399  71.279  1.00  0.00    -0.371 A  
HETATM   36  C   UNL     1      -7.677   4.811  68.532  1.00  0.00    -0.077 C  
HETATM   37  C   UNL     1      -6.924   6.060  68.971  1.00  0.00    -0.068 C  
HETATM   38  H   UNL     1      -7.643   8.100  68.799  1.00  0.00     0.000 HD 
HETATM   39  N   UNL     1      -7.846   7.173  69.176  1.00  0.00    -0.115 NA 
HETATM   40  C   UNL     1     -10.631   5.352  70.862  1.00  0.00    -0.283 A  
HETATM   41  C   UNL     1      -9.021   6.933  69.905  1.00  0.00    -0.142 A  
HETATM   42  C   UNL     1      -9.433   5.605  70.169  1.00  0.00    -0.200 A  
ENDBRANCH  28  31
ENDBRANCH  26  28
ENDBRANCH  13  26
ENDBRANCH   7  13
TORSDOF 8
ENDMDL
MODEL      209
REMARK 921   NORMALIZED FREE ENERGY PREDICTED BY IDOCK:   -5.36 KCAL/MOL
REMARK 922        TOTAL FREE ENERGY PREDICTED BY IDOCK:   -9.12 KCAL/MOL
REMARK 923 INTER-LIGAND FREE ENERGY PREDICTED BY IDOCK:   -8.76 KCAL/MOL
REMARK 924 INTRA-LIGAND FREE ENERGY PREDICTED BY IDOCK:   -0.36 KCAL/MOL
REMARK 927      BINDING AFFINITY PREDICTED BY RF-SCORE:    0.00 PKD
ROOT
HETATM    1  C   UNL     1     -10.182  18.710  65.802  1.00  0.00    -0.135 C  
HETATM    2  C   UNL     1     -10.768  17.400  66.309  1.00  0.00    -0.082 C  
HETATM    3  C   UNL     1     -10.900  17.388  67.836  1.00  0.00    -0.270 C  
HETATM    4  C   UNL     1     -11.448  16.050  68.334  1.00  0.00    -0.331 C  
HETATM    5  N   UNL     1     -10.719  14.874  67.783  1.00  0.00    -0.266 N  
HETATM    6  C   UNL     1     -10.534  14.885  66.316  1.00  0.00    -0.302 C  
HETATM    7  C   UNL     1      -9.944  14.126  68.680  1.00  0.00    -0.222 C  
HETATM    8  O   UNL     1      -9.886  14.500  69.859  1.00  0.00     0.259 OA 
HETATM    9  O   UNL     1     -12.888  14.380  66.156  1.00  0.00    -0.251 OA 
HETATM   10  C   UNL     1      -9.901  16.209  65.873  1.00  0.00    -0.384 C  
HETATM   11  C   UNL     1     -11.775  14.617  65.459  1.00  0.00    -0.316 C  
HETATM   12  O   UNL     1     -11.771  14.621  64.238  1.00  0.00    -0.358 OA 
ENDROOT
BRANCH   7  13
HETATM   13  C   UNL     1      -9.233  12.771  68.327  1.00  0.00    -0.186 C  
BRANCH  13  14
HETATM   14  C   UNL     1      -9.199  12.288  66.853  1.00  0.00    -0.209 C  
BRANCH  14  15
HETATM   15  C   UNL     1      -8.316  11.039  66.653  1.00  0.00    -0.155 C  
BRANCH  15  16
HETATM   16  C   UNL     1      -6.810  11.313  66.781  1.00  0.00    -0.140 C  
BRANCH  16  17
HETATM   17  N   UNL     1      -6.212  11.221  65.462  1.00  0.00    -0.391 NA 
HETATM   18  H2  UNL     1      -5.417  11.226  63.147  1.00  0.00     0.000 HD 
HETATM   19  H1  UNL     1      -5.040   9.461  63.166  1.00  0.00     0.000 HD 
HETATM   20  N   UNL     1      -5.668   8.913  65.371  1.00  0.00    -0.046 NA 
HETATM   21  N   UNL     1      -5.378  10.317  63.607  1.00  0.00    -0.122 NA 
HETATM   22  C   UNL     1      -5.765  10.088  64.877  1.00  0.00    -0.098 C  
HETATM   23  H   UNL     1      -6.123  12.087  64.929  1.00  0.00     0.000 HD 
HETATM   24  H1  UNL     1      -5.330   8.057  64.929  1.00  0.00     0.000 HD 
HETATM   25  H2  UNL     1      -5.969   8.817  66.340  1.00  0.00     0.000 HD 
ENDBRANCH  16  17
ENDBRANCH  15  16
ENDBRANCH  14  15
ENDBRANCH  13  14
BRANCH  13  26
HETATM   26  N   UNL     1      -9.680  11.635  69.179  1.00  0.00    -0.408 N  
HETATM   27  H   UNL     1      -8.999  11.033  69.642  1.00  0.00     0.000 HD 
BRANCH  26  28
HETATM   28  S   UNL     1     -11.355  11.359  69.366  1.00  0.00    -0.312 S  
HETATM   29  O   UNL     1     -11.949  11.304  68.056  1.00  0.00    -0.621 OA 
HETATM   30  O   UNL     1     -11.794  12.349  70.328  1.00  0.00    -0.322 OA 
BRANCH  28  31
HETATM   31  C   UNL     1     -11.396   9.758  70.129  1.00  0.00    -0.251 A  
HETATM   32  C   UNL     1     -10.766   6.054  69.430  1.00  0.00    -0.403 C  
HETATM   33  C   UNL     1     -11.863   9.693  71.452  1.00  0.00    -0.484 A  
HETATM   34  C   UNL     1     -10.211   4.933  67.243  1.00  0.00    -0.190 C  
HETATM   35  C   UNL     1     -11.936   8.471  72.111  1.00  0.00    -0.451 A  
HETATM   36  C   UNL     1     -10.767   6.191  67.904  1.00  0.00    -0.374 C  
HETATM   37  C   UNL     1      -9.958   7.429  67.541  1.00  0.00    -0.173 C  
HETATM   38  H   UNL     1     -10.698   9.469  67.532  1.00  0.00     0.000 HD 
HETATM   39  N   UNL     1     -10.574   8.629  68.099  1.00  0.00    -0.177 NA 
HETATM   40  C   UNL     1     -11.542   7.311  71.452  1.00  0.00    -0.305 A  
HETATM   41  C   UNL     1     -10.991   8.596  69.440  1.00  0.00    -0.019 A  
HETATM   42  C   UNL     1     -11.083   7.361  70.123  1.00  0.00    -0.265 A  
ENDBRANCH  28  31
ENDBRANCH  26  28
ENDBRANCH  13  26
ENDBRANCH   7  13
TORSDOF 8
ENDMDL
MODEL      210
REMARK 921   NORMALIZED FREE ENERGY PREDICTED BY IDOCK:   -5.36 KCAL/MOL
REMARK 922        TOTAL FREE ENERGY PREDICTED BY IDOCK:   -9.12 KCAL/MOL
REMARK 923 INTER-LIGAND FREE ENERGY PREDICTED BY IDOCK:   -7.29 KCAL/MOL
REMARK 924 INTRA-LIGAND FREE ENERGY PREDICTED BY IDOCK:   -1.83 KCAL/MOL
REMARK 927      BINDING AFFINITY PREDICTED BY RF-SCORE:    0.00 PKD
ROOT
HETATM    1  C   UNL     1     -10.233  15.591  69.313  1.00  0.00    -0.252 C  
HETATM    2  C   UNL     1     -10.807  14.224  68.967  1.00  0.00    -0.274 C  
HETATM    3  C   UNL     1     -11.935  13.821  69.923  1.00  0.00    -0.412 C  
HETATM    4  C   UNL     1     -12.471  12.428  69.591  1.00  0.00     0.188 C  
HETATM    5  N   UNL     1     -11.400  11.402  69.457  1.00  0.00    -0.276 N  
HETATM    6  C   UNL     1     -10.274  11.786  68.578  1.00  0.00    -0.210 C  
HETATM    7  C   UNL     1     -11.340  10.409  70.444  1.00  0.00    -0.337 C  
HETATM    8  O   UNL     1     -12.153  10.460  71.378  1.00  0.00    -0.363 OA 
HETATM    9  O   UNL     1     -11.787  11.456  66.728  1.00  0.00    -0.443 OA 
HETATM   10  C   UNL     1      -9.712  13.147  69.004  1.00  0.00     0.310 C  
HETATM   11  C   UNL     1     -10.547  11.812  67.071  1.00  0.00    -0.232 C  
HETATM   12  O   UNL     1      -9.717  12.134  66.236  1.00  0.00    -0.228 OA 
ENDROOT
BRANCH   7  13
HETATM   13  C   UNL     1     -10.390   9.160  70.395  1.00  0.00    -0.223 C  
BRANCH  13  14
HETATM   14  C   UNL     1     -10.902   7.835  69.770  1.00  0.00    -0.211 C  
BRANCH  14  15
HETATM   15  C   UNL     1     -10.414   7.628  68.322  1.00  0.00    -0.219 C  
BRANCH  15  16
HETATM   16  C   UNL     1     -11.154   6.514  67.566  1.00  0.00    -0.308 C  
BRANCH  16  17
HETATM   17  N   UNL     1     -10.215   5.441  67.295  1.00  0.00    -0.199 NA 
HETATM   18  H2  UNL     1      -8.429   3.813  66.908  1.00  0.00     0.000 HD 
HETATM   19  H1  UNL     1      -9.171   3.213  65.376  1.00  0.00     0.000 HD 
HETATM   20  N   UNL     1     -11.100   4.564  65.277  1.00  0.00    -0.949 NA 
HETATM   21  N   UNL     1      -9.158   3.821  66.195  1.00  0.00    -0.142 NA 
HETATM   22  C   UNL     1     -10.231   4.636  66.212  1.00  0.00    -0.275 C  
HETATM   23  H   UNL     1      -9.478   5.282  67.984  1.00  0.00     0.000 HD 
HETATM   24  H1  UNL     1     -11.113   3.955  64.457  1.00  0.00     0.000 HD 
HETATM   25  H2  UNL     1     -11.890   5.203  65.360  1.00  0.00     0.000 HD 
ENDBRANCH  16  17
ENDBRANCH  15  16
ENDBRANCH  14  15
ENDBRANCH  13  14
BRANCH  13  26
HETATM   26  N   UNL     1      -9.767   8.844  71.710  1.00  0.00    -0.304 N  
HETATM   27  H   UNL     1     -10.339   8.776  72.552  1.00  0.00     0.000 HD 
BRANCH  26  28
HETATM   28  S   UNL     1      -8.080   8.597  71.782  1.00  0.00    -0.073 S  
HETATM   29  O   UNL     1      -7.696   8.527  73.167  1.00  0.00    -0.330 OA 
HETATM   30  O   UNL     1      -7.513   9.612  70.917  1.00  0.00    -0.302 OA 
BRANCH  28  31
HETATM   31  C   UNL     1      -7.891   7.012  71.008  1.00  0.00    -0.096 A  
HETATM   32  C   UNL     1      -8.813   3.323  71.400  1.00  0.00    -0.136 C  
HETATM   33  C   UNL     1      -7.091   6.955  69.856  1.00  0.00    -0.071 A  
HETATM   34  C   UNL     1      -9.970   2.182  73.325  1.00  0.00    -0.165 C  
HETATM   35  C   UNL     1      -6.887   5.744  69.203  1.00  0.00    -0.062 A  
HETATM   36  C   UNL     1      -9.214   3.429  72.875  1.00  0.00    -0.122 C  
HETATM   37  C   UNL     1     -10.047   4.691  73.047  1.00  0.00    -0.162 C  
HETATM   38  H   UNL     1      -9.267   6.698  73.316  1.00  0.00     0.000 HD 
HETATM   39  N   UNL     1      -9.264   5.877  72.711  1.00  0.00    -0.142 NA 
HETATM   40  C   UNL     1      -7.482   4.589  69.697  1.00  0.00    -0.051 A  
HETATM   41  C   UNL     1      -8.505   5.854  71.529  1.00  0.00    -0.128 A  
HETATM   42  C   UNL     1      -8.277   4.630  70.857  1.00  0.00    -0.089 A  
ENDBRANCH  28  31
ENDBRANCH  26  28
ENDBRANCH  13  26
ENDBRANCH   7  13
TORSDOF 8
ENDMDL
MODEL      211
REMARK 921   NORMALIZED FREE ENERGY PREDICTED BY IDOCK:   -5.35 KCAL/MOL
REMARK 922        TOTAL FREE ENERGY PREDICTED BY IDOCK:   -9.10 KCAL/MOL
REMARK 923 INTER-LIGAND FREE ENERGY PREDICTED BY IDOCK:   -7.14 KCAL/MOL
REMARK 924 INTRA-LIGAND FREE ENERGY PREDICTED BY IDOCK:   -1.95 KCAL/MOL
REMARK 927      BINDING AFFINITY PREDICTED BY RF-SCORE:    0.00 PKD
ROOT
HETATM    1  C   UNL     1     -10.630  11.414  64.123  1.00  0.00    -0.430 C  
HETATM    2  C   UNL     1      -9.303  11.006  64.747  1.00  0.00    -0.239 C  
HETATM    3  C   UNL     1      -8.773   9.696  64.156  1.00  0.00    -0.238 C  
HETATM    4  C   UNL     1      -7.464   9.276  64.824  1.00  0.00    -0.104 C  
HETATM    5  N   UNL     1      -7.533   9.281  66.311  1.00  0.00    -0.095 N  
HETATM    6  C   UNL     1      -8.087  10.517  66.906  1.00  0.00    -0.120 C  
HETATM    7  C   UNL     1      -7.479   8.039  66.957  1.00  0.00    -0.092 C  
HETATM    8  O   UNL     1      -7.409   7.017  66.260  1.00  0.00    -0.073 OA 
HETATM    9  O   UNL     1      -6.003  11.574  66.305  1.00  0.00    -0.113 OA 
HETATM   10  C   UNL     1      -9.441  10.849  66.269  1.00  0.00    -0.222 C  
HETATM   11  C   UNL     1      -7.199  11.765  66.864  1.00  0.00    -0.103 C  
HETATM   12  O   UNL     1      -7.540  12.855  67.295  1.00  0.00    -0.153 OA 
ENDROOT
BRANCH   7  13
HETATM   13  C   UNL     1      -7.381   7.847  68.513  1.00  0.00    -0.097 C  
BRANCH  13  14
HETATM   14  C   UNL     1      -6.754   6.548  69.084  1.00  0.00    -0.049 C  
BRANCH  14  15
HETATM   15  C   UNL     1      -5.949   6.790  70.377  1.00  0.00    -0.024 C  
BRANCH  15  16
HETATM   16  C   UNL     1      -6.585   6.178  71.633  1.00  0.00    -0.055 C  
BRANCH  16  17
HETATM   17  N   UNL     1      -7.750   6.967  71.989  1.00  0.00    -0.093 NA 
HETATM   18  H2  UNL     1      -9.788   8.282  72.318  1.00  0.00     0.000 HD 
HETATM   19  H1  UNL     1      -8.960   9.485  73.379  1.00  0.00     0.000 HD 
HETATM   20  N   UNL     1      -6.775   8.603  73.404  1.00  0.00    -0.292 NA 
HETATM   21  N   UNL     1      -8.966   8.645  72.800  1.00  0.00    -0.365 NA 
HETATM   22  C   UNL     1      -7.744   8.078  72.755  1.00  0.00    -0.128 C  
HETATM   23  H   UNL     1      -8.653   6.654  71.629  1.00  0.00     0.000 HD 
HETATM   24  H1  UNL     1      -6.770   9.443  73.983  1.00  0.00     0.000 HD 
HETATM   25  H2  UNL     1      -5.883   8.114  73.332  1.00  0.00     0.000 HD 
ENDBRANCH  16  17
ENDBRANCH  15  16
ENDBRANCH  14  15
ENDBRANCH  13  14
BRANCH  13  26
HETATM   26  N   UNL     1      -8.672   8.089  69.216  1.00  0.00    -0.137 N  
HETATM   27  H   UNL     1      -8.744   8.805  69.939  1.00  0.00     0.000 HD 
BRANCH  26  28
HETATM   28  S   UNL     1     -10.028   7.144  68.789  1.00  0.00    -0.168 S  
HETATM   29  O   UNL     1      -9.677   5.757  68.947  1.00  0.00    -0.125 OA 
HETATM   30  O   UNL     1     -10.448   7.650  67.498  1.00  0.00    -0.233 OA 
BRANCH  28  31
HETATM   31  C   UNL     1     -11.225   7.620  70.009  1.00  0.00    -0.134 A  
HETATM   32  C   UNL     1     -13.007  10.666  71.477  1.00  0.00    -0.566 C  
HETATM   33  C   UNL     1     -11.738   6.603  70.830  1.00  0.00    -0.445 A  
HETATM   34  C   UNL     1     -12.612  13.108  70.997  1.00  0.00    -0.397 C  
HETATM   35  C   UNL     1     -12.671   6.902  71.817  1.00  0.00    -0.369 A  
HETATM   36  C   UNL     1     -12.037  11.698  70.892  1.00  0.00    -0.312 C  
HETATM   37  C   UNL     1     -11.747  11.309  69.449  1.00  0.00    -0.339 C  
HETATM   38  H   UNL     1     -10.280   9.848  68.801  1.00  0.00     0.000 HD 
HETATM   39  N   UNL     1     -11.100  10.001  69.388  1.00  0.00    -0.235 NA 
HETATM   40  C   UNL     1     -13.095   8.215  71.986  1.00  0.00    -0.317 A  
HETATM   41  C   UNL     1     -11.640   8.960  70.160  1.00  0.00     0.042 A  
HETATM   42  C   UNL     1     -12.581   9.245  71.177  1.00  0.00    -0.324 A  
ENDBRANCH  28  31
ENDBRANCH  26  28
ENDBRANCH  13  26
ENDBRANCH   7  13
TORSDOF 8
ENDMDL
MODEL      212
REMARK 921   NORMALIZED FREE ENERGY PREDICTED BY IDOCK:   -5.35 KCAL/MOL
REMARK 922        TOTAL FREE ENERGY PREDICTED BY IDOCK:   -9.09 KCAL/MOL
REMARK 923 INTER-LIGAND FREE ENERGY PREDICTED BY IDOCK:   -8.32 KCAL/MOL
REMARK 924 INTRA-LIGAND FREE ENERGY PREDICTED BY IDOCK:   -0.77 KCAL/MOL
REMARK 927      BINDING AFFINITY PREDICTED BY RF-SCORE:    0.00 PKD
ROOT
HETATM    1  C   UNL     1      -9.784  18.382  66.659  1.00  0.00    -0.342 C  
HETATM    2  C   UNL     1      -9.674  17.261  67.684  1.00  0.00    -0.272 C  
HETATM    3  C   UNL     1      -8.224  17.030  68.122  1.00  0.00    -0.217 C  
HETATM    4  C   UNL     1      -8.124  15.873  69.116  1.00  0.00    -0.239 C  
HETATM    5  N   UNL     1      -8.817  14.639  68.656  1.00  0.00    -0.181 N  
HETATM    6  C   UNL     1     -10.203  14.842  68.180  1.00  0.00    -0.228 C  
HETATM    7  C   UNL     1      -8.013  13.540  68.324  1.00  0.00    -0.147 C  
HETATM    8  O   UNL     1      -6.783  13.668  68.404  1.00  0.00    -0.082 OA 
HETATM    9  O   UNL     1     -10.804  15.152  70.496  1.00  0.00    -0.263 OA 
HETATM   10  C   UNL     1     -10.242  15.949  67.121  1.00  0.00    -0.278 C  
HETATM   11  C   UNL     1     -11.265  15.136  69.244  1.00  0.00    -0.278 C  
HETATM   12  O   UNL     1     -12.441  15.348  68.990  1.00  0.00    -0.080 OA 
ENDROOT
BRANCH   7  13
HETATM   13  C   UNL     1      -8.559  12.111  67.971  1.00  0.00    -0.175 C  
BRANCH  13  14
HETATM   14  C   UNL     1      -9.484  11.930  66.738  1.00  0.00    -0.207 C  
BRANCH  14  15
HETATM   15  C   UNL     1     -10.332  10.644  66.811  1.00  0.00    -0.299 C  
BRANCH  15  16
HETATM   16  C   UNL     1     -10.275   9.785  65.538  1.00  0.00    -0.044 C  
BRANCH  16  17
HETATM   17  N   UNL     1      -8.906   9.767  65.058  1.00  0.00    -0.176 NA 
HETATM   18  H2  UNL     1      -6.548   9.949  64.426  1.00  0.00     0.000 HD 
HETATM   19  H1  UNL     1      -6.904   9.783  62.664  1.00  0.00     0.000 HD 
HETATM   20  N   UNL     1      -9.249   9.548  62.720  1.00  0.00    -0.509 NA 
HETATM   21  N   UNL     1      -7.190   9.828  63.642  1.00  0.00    -0.115 NA 
HETATM   22  C   UNL     1      -8.527   9.707  63.764  1.00  0.00    -0.188 C  
HETATM   23  H   UNL     1      -8.165   9.803  65.759  1.00  0.00     0.000 HD 
HETATM   24  H1  UNL     1      -8.962   9.503  61.742  1.00  0.00     0.000 HD 
HETATM   25  H2  UNL     1     -10.250   9.453  62.889  1.00  0.00     0.000 HD 
ENDBRANCH  16  17
ENDBRANCH  15  16
ENDBRANCH  14  15
ENDBRANCH  13  14
BRANCH  13  26
HETATM   26  N   UNL     1      -9.188  11.420  69.130  1.00  0.00    -0.404 N  
HETATM   27  H   UNL     1     -10.005  11.820  69.592  1.00  0.00     0.000 HD 
BRANCH  26  28
HETATM   28  S   UNL     1      -8.517   9.946  69.671  1.00  0.00    -0.189 S  
HETATM   29  O   UNL     1      -7.394  10.250  70.518  1.00  0.00    -0.281 OA 
HETATM   30  O   UNL     1      -8.336   9.152  68.473  1.00  0.00    -0.120 OA 
BRANCH  28  31
HETATM   31  C   UNL     1      -9.840   9.251  70.627  1.00  0.00    -0.270 A  
HETATM   32  C   UNL     1     -10.995   6.009  72.290  1.00  0.00    -0.310 C  
HETATM   33  C   UNL     1     -10.942  10.080  70.888  1.00  0.00    -0.337 A  
HETATM   34  C   UNL     1      -9.951   3.719  72.177  1.00  0.00    -0.239 C  
HETATM   35  C   UNL     1     -12.023   9.600  71.621  1.00  0.00    -0.470 A  
HETATM   36  C   UNL     1     -10.018   5.102  71.536  1.00  0.00    -0.248 C  
HETATM   37  C   UNL     1      -8.658   5.786  71.517  1.00  0.00    -0.132 C  
HETATM   38  H   UNL     1      -8.026   7.312  70.109  1.00  0.00     0.000 HD 
HETATM   39  N   UNL     1      -8.730   7.058  70.803  1.00  0.00    -0.147 NA 
HETATM   40  C   UNL     1     -12.004   8.293  72.096  1.00  0.00    -0.429 A  
HETATM   41  C   UNL     1      -9.797   7.922  71.098  1.00  0.00    -0.165 A  
HETATM   42  C   UNL     1     -10.910   7.449  71.832  1.00  0.00    -0.262 A  
ENDBRANCH  28  31
ENDBRANCH  26  28
ENDBRANCH  13  26
ENDBRANCH   7  13
TORSDOF 8
ENDMDL
MODEL      213
REMARK 921   NORMALIZED FREE ENERGY PREDICTED BY IDOCK:   -5.31 KCAL/MOL
REMARK 922        TOTAL FREE ENERGY PREDICTED BY IDOCK:   -9.05 KCAL/MOL
REMARK 923 INTER-LIGAND FREE ENERGY PREDICTED BY IDOCK:   -7.60 KCAL/MOL
REMARK 924 INTRA-LIGAND FREE ENERGY PREDICTED BY IDOCK:   -1.45 KCAL/MOL
REMARK 927      BINDING AFFINITY PREDICTED BY RF-SCORE:    0.00 PKD
ROOT
HETATM    1  C   UNL     1     -12.114  15.221  70.552  1.00  0.00    -0.395 C  
HETATM    2  C   UNL     1     -11.986  14.013  69.634  1.00  0.00    -0.393 C  
HETATM    3  C   UNL     1     -12.176  12.697  70.394  1.00  0.00    -0.368 C  
HETATM    4  C   UNL     1     -12.000  11.493  69.469  1.00  0.00    -0.335 C  
HETATM    5  N   UNL     1     -10.749  11.547  68.662  1.00  0.00    -0.199 N  
HETATM    6  C   UNL     1     -10.516  12.826  67.957  1.00  0.00    -0.226 C  
HETATM    7  C   UNL     1      -9.752  10.610  68.966  1.00  0.00    -0.202 C  
HETATM    8  O   UNL     1      -9.954   9.819  69.898  1.00  0.00    -0.217 OA 
HETATM    9  O   UNL     1     -12.282  12.158  66.454  1.00  0.00    -0.592 OA 
HETATM   10  C   UNL     1     -10.615  13.998  68.941  1.00  0.00    -0.241 C  
HETATM   11  C   UNL     1     -11.405  13.121  66.744  1.00  0.00    -0.316 C  
HETATM   12  O   UNL     1     -11.337  14.147  66.087  1.00  0.00    -0.323 OA 
ENDROOT
BRANCH   7  13
HETATM   13  C   UNL     1      -8.437  10.407  68.132  1.00  0.00    -0.121 C  
BRANCH  13  14
HETATM   14  C   UNL     1      -7.265  11.410  68.298  1.00  0.00    -0.082 C  
BRANCH  14  15
HETATM   15  C   UNL     1      -6.367  11.086  69.509  1.00  0.00    -0.095 C  
BRANCH  15  16
HETATM   16  C   UNL     1      -6.388   9.607  69.924  1.00  0.00    -0.054 C  
BRANCH  16  17
HETATM   17  N   UNL     1      -6.959   9.512  71.255  1.00  0.00    -0.324 NA 
HETATM   18  H2  UNL     1      -7.661   9.399  73.597  1.00  0.00     0.000 HD 
HETATM   19  H1  UNL     1      -8.703   7.950  73.320  1.00  0.00     0.000 HD 
HETATM   20  N   UNL     1      -8.366   7.617  71.011  1.00  0.00    -0.110 NA 
HETATM   21  N   UNL     1      -8.060   8.675  72.998  1.00  0.00    -0.409 NA 
HETATM   22  C   UNL     1      -7.809   8.553  71.680  1.00  0.00    -0.124 C  
HETATM   23  H   UNL     1      -6.694  10.232  71.928  1.00  0.00     0.000 HD 
HETATM   24  H1  UNL     1      -9.009   6.892  71.332  1.00  0.00     0.000 HD 
HETATM   25  H2  UNL     1      -8.138   7.592  70.017  1.00  0.00     0.000 HD 
ENDBRANCH  16  17
ENDBRANCH  15  16
ENDBRANCH  14  15
ENDBRANCH  13  14
BRANCH  13  26
HETATM   26  N   UNL     1      -8.688  10.222  66.676  1.00  0.00    -0.126 N  
HETATM   27  H   UNL     1      -9.345  10.826  66.181  1.00  0.00     0.000 HD 
BRANCH  26  28
HETATM   28  S   UNL     1      -7.858   8.980  65.850  1.00  0.00    -0.103 S  
HETATM   29  O   UNL     1      -6.564   8.823  66.463  1.00  0.00    -0.062 OA 
HETATM   30  O   UNL     1      -7.966   9.322  64.447  1.00  0.00    -0.120 OA 
BRANCH  28  31
HETATM   31  C   UNL     1      -8.870   7.560  66.176  1.00  0.00    -0.159 A  
HETATM   32  C   UNL     1      -9.178   3.825  65.426  1.00  0.00    -0.152 C  
HETATM   33  C   UNL     1     -10.038   7.767  66.927  1.00  0.00    -0.356 A  
HETATM   34  C   UNL     1      -7.798   2.410  63.862  1.00  0.00    -0.072 C  
HETATM   35  C   UNL     1     -10.887   6.703  67.212  1.00  0.00    -0.456 A  
HETATM   36  C   UNL     1      -8.200   3.831  64.247  1.00  0.00    -0.090 C  
HETATM   37  C   UNL     1      -6.996   4.677  64.637  1.00  0.00    -0.050 C  
HETATM   38  H   UNL     1      -6.868   6.839  64.506  1.00  0.00     0.000 HD 
HETATM   39  N   UNL     1      -7.396   6.057  64.895  1.00  0.00    -0.070 NA 
HETATM   40  C   UNL     1     -10.572   5.431  66.748  1.00  0.00    -0.339 A  
HETATM   41  C   UNL     1      -8.529   6.279  65.695  1.00  0.00    -0.148 A  
HETATM   42  C   UNL     1      -9.411   5.211  65.985  1.00  0.00    -0.170 A  
ENDBRANCH  28  31
ENDBRANCH  26  28
ENDBRANCH  13  26
ENDBRANCH   7  13
TORSDOF 8
ENDMDL
MODEL      214
REMARK 921   NORMALIZED FREE ENERGY PREDICTED BY IDOCK:   -5.30 KCAL/MOL
REMARK 922        TOTAL FREE ENERGY PREDICTED BY IDOCK:   -9.02 KCAL/MOL
REMARK 923 INTER-LIGAND FREE ENERGY PREDICTED BY IDOCK:   -8.51 KCAL/MOL
REMARK 924 INTRA-LIGAND FREE ENERGY PREDICTED BY IDOCK:   -0.52 KCAL/MOL
REMARK 927      BINDING AFFINITY PREDICTED BY RF-SCORE:    0.00 PKD
ROOT
HETATM    1  C   UNL     1      -9.975  18.622  65.726  1.00  0.00     0.059 C  
HETATM    2  C   UNL     1     -10.629  17.365  66.281  1.00  0.00    -0.194 C  
HETATM    3  C   UNL     1     -10.821  17.445  67.800  1.00  0.00    -0.257 C  
HETATM    4  C   UNL     1     -11.437  16.158  68.348  1.00  0.00    -0.298 C  
HETATM    5  N   UNL     1     -10.733  14.927  67.894  1.00  0.00    -0.260 N  
HETATM    6  C   UNL     1     -10.492  14.848  66.437  1.00  0.00    -0.299 C  
HETATM    7  C   UNL     1     -10.022  14.204  68.862  1.00  0.00    -0.127 C  
HETATM    8  O   UNL     1      -9.996  14.643  70.020  1.00  0.00     0.192 OA 
HETATM    9  O   UNL     1     -12.856  14.419  66.210  1.00  0.00    -0.181 OA 
HETATM   10  C   UNL     1      -9.792  16.121  65.947  1.00  0.00    -0.384 C  
HETATM   11  C   UNL     1     -11.708  14.576  65.546  1.00  0.00    -0.343 C  
HETATM   12  O   UNL     1     -11.657  14.510  64.328  1.00  0.00    -0.331 OA 
ENDROOT
BRANCH   7  13
HETATM   13  C   UNL     1      -9.350  12.806  68.614  1.00  0.00     0.023 C  
BRANCH  13  14
HETATM   14  C   UNL     1      -9.077  12.338  67.160  1.00  0.00    -0.193 C  
BRANCH  14  15
HETATM   15  C   UNL     1      -7.747  11.568  67.020  1.00  0.00    -0.158 C  
BRANCH  15  16
HETATM   16  C   UNL     1      -6.553  12.255  67.700  1.00  0.00    -0.122 C  
BRANCH  16  17
HETATM   17  N   UNL     1      -6.358  13.554  67.081  1.00  0.00    -0.423 NA 
HETATM   18  H2  UNL     1      -5.835  15.619  65.876  1.00  0.00     0.000 HD 
HETATM   19  H1  UNL     1      -5.822  16.613  67.383  1.00  0.00     0.000 HD 
HETATM   20  N   UNL     1      -6.324  14.964  68.989  1.00  0.00    -0.096 NA 
HETATM   21  N   UNL     1      -5.930  15.728  66.886  1.00  0.00    -0.182 NA 
HETATM   22  C   UNL     1      -6.215  14.724  67.738  1.00  0.00    -0.139 C  
HETATM   23  H   UNL     1      -6.326  13.584  66.062  1.00  0.00     0.000 HD 
HETATM   24  H1  UNL     1      -6.216  15.849  69.486  1.00  0.00     0.000 HD 
HETATM   25  H2  UNL     1      -6.551  14.158  69.572  1.00  0.00     0.000 HD 
ENDBRANCH  16  17
ENDBRANCH  15  16
ENDBRANCH  14  15
ENDBRANCH  13  14
BRANCH  13  26
HETATM   26  N   UNL     1     -10.023  11.695  69.342  1.00  0.00    -0.332 N  
HETATM   27  H   UNL     1      -9.494  11.092  69.972  1.00  0.00     0.000 HD 
BRANCH  26  28
HETATM   28  S   UNL     1     -11.695  11.450  69.102  1.00  0.00    -0.368 S  
HETATM   29  O   UNL     1     -11.895  11.019  67.743  1.00  0.00    -0.605 OA 
HETATM   30  O   UNL     1     -12.327  12.661  69.585  1.00  0.00    -0.143 OA 
BRANCH  28  31
HETATM   31  C   UNL     1     -12.054  10.126  70.227  1.00  0.00    -0.204 A  
HETATM   32  C   UNL     1     -11.253   6.457  70.940  1.00  0.00    -0.384 C  
HETATM   33  C   UNL     1     -13.000  10.382  71.233  1.00  0.00    -0.517 A  
HETATM   34  C   UNL     1      -9.905   4.839  69.557  1.00  0.00    -0.292 C  
HETATM   35  C   UNL     1     -13.341   9.388  72.143  1.00  0.00    -0.545 A  
HETATM   36  C   UNL     1     -10.657   6.167  69.559  1.00  0.00    -0.350 C  
HETATM   37  C   UNL     1      -9.753   7.333  69.181  1.00  0.00    -0.160 C  
HETATM   38  H   UNL     1     -10.402   9.204  68.294  1.00  0.00     0.000 HD 
HETATM   39  N   UNL     1     -10.521   8.571  69.086  1.00  0.00    -0.217 NA 
HETATM   40  C   UNL     1     -12.738   8.138  72.054  1.00  0.00    -0.355 A  
HETATM   41  C   UNL     1     -11.428   8.867  70.116  1.00  0.00    -0.036 A  
HETATM   42  C   UNL     1     -11.797   7.865  71.045  1.00  0.00    -0.285 A  
ENDBRANCH  28  31
ENDBRANCH  26  28
ENDBRANCH  13  26
ENDBRANCH   7  13
TORSDOF 8
ENDMDL
MODEL      215
REMARK 921   NORMALIZED FREE ENERGY PREDICTED BY IDOCK:   -5.28 KCAL/MOL
REMARK 922        TOTAL FREE ENERGY PREDICTED BY IDOCK:   -8.99 KCAL/MOL
REMARK 923 INTER-LIGAND FREE ENERGY PREDICTED BY IDOCK:   -8.22 KCAL/MOL
REMARK 924 INTRA-LIGAND FREE ENERGY PREDICTED BY IDOCK:   -0.77 KCAL/MOL
REMARK 927      BINDING AFFINITY PREDICTED BY RF-SCORE:    0.00 PKD
ROOT
HETATM    1  C   UNL     1     -10.115   5.428  73.663  1.00  0.00    -0.213 C  
HETATM    2  C   UNL     1     -10.920   6.100  72.560  1.00  0.00    -0.296 C  
HETATM    3  C   UNL     1     -10.609   5.504  71.183  1.00  0.00    -0.303 C  
HETATM    4  C   UNL     1     -11.391   6.219  70.081  1.00  0.00    -0.406 C  
HETATM    5  N   UNL     1     -11.266   7.702  70.137  1.00  0.00    -0.226 N  
HETATM    6  C   UNL     1     -11.513   8.299  71.467  1.00  0.00    -0.275 C  
HETATM    7  C   UNL     1     -10.551   8.322  69.104  1.00  0.00    -0.165 C  
HETATM    8  O   UNL     1     -10.042   7.606  68.230  1.00  0.00    -0.174 OA 
HETATM    9  O   UNL     1     -13.848   7.812  71.098  1.00  0.00    -0.238 OA 
HETATM   10  C   UNL     1     -10.643   7.611  72.525  1.00  0.00    -0.336 C  
HETATM   11  C   UNL     1     -12.964   8.323  71.958  1.00  0.00    -0.330 C  
HETATM   12  O   UNL     1     -13.307   8.763  73.044  1.00  0.00    -0.284 OA 
ENDROOT
BRANCH   7  13
HETATM   13  C   UNL     1     -10.443   9.876  68.903  1.00  0.00    -0.211 C  
BRANCH  13  14
HETATM   14  C   UNL     1     -10.644  10.478  67.487  1.00  0.00    -0.306 C  
BRANCH  14  15
HETATM   15  C   UNL     1     -11.456  11.789  67.505  1.00  0.00    -0.373 C  
BRANCH  15  16
HETATM   16  C   UNL     1     -10.784  12.951  66.758  1.00  0.00    -0.261 C  
BRANCH  16  17
HETATM   17  N   UNL     1     -11.663  13.376  65.685  1.00  0.00    -0.332 NA 
HETATM   18  H2  UNL     1     -13.345  13.939  63.998  1.00  0.00     0.000 HD 
HETATM   19  H1  UNL     1     -12.189  13.725  62.628  1.00  0.00     0.000 HD 
HETATM   20  N   UNL     1     -10.234  13.136  63.806  1.00  0.00    -0.706 NA 
HETATM   21  N   UNL     1     -12.423  13.719  63.621  1.00  0.00    -0.781 NA 
HETATM   22  C   UNL     1     -11.354  13.384  64.370  1.00  0.00    -0.391 C  
HETATM   23  H   UNL     1     -12.596  13.698  65.946  1.00  0.00     0.000 HD 
HETATM   24  H1  UNL     1     -10.000  13.141  62.813  1.00  0.00     0.000 HD 
HETATM   25  H2  UNL     1      -9.468  12.900  64.436  1.00  0.00     0.000 HD 
ENDBRANCH  16  17
ENDBRANCH  15  16
ENDBRANCH  14  15
ENDBRANCH  13  14
BRANCH  13  26
HETATM   26  N   UNL     1      -9.201  10.457  69.484  1.00  0.00    -0.373 N  
HETATM   27  H   UNL     1      -9.220  10.920  70.393  1.00  0.00     0.000 HD 
BRANCH  26  28
HETATM   28  S   UNL     1      -7.745  10.334  68.601  1.00  0.00    -0.100 S  
HETATM   29  O   UNL     1      -6.817  11.298  69.131  1.00  0.00    -0.089 OA 
HETATM   30  O   UNL     1      -8.143  10.390  67.209  1.00  0.00    -0.113 OA 
BRANCH  28  31
HETATM   31  C   UNL     1      -7.206   8.687  68.979  1.00  0.00    -0.072 A  
HETATM   32  C   UNL     1      -6.594   6.295  71.897  1.00  0.00    -0.062 C  
HETATM   33  C   UNL     1      -6.773   7.895  67.904  1.00  0.00    -0.068 A  
HETATM   34  C   UNL     1      -6.711   6.762  74.370  1.00  0.00    -0.083 C  
HETATM   35  C   UNL     1      -6.324   6.597  68.125  1.00  0.00    -0.034 A  
HETATM   36  C   UNL     1      -6.604   7.380  72.979  1.00  0.00    -0.064 C  
HETATM   37  C   UNL     1      -7.761   8.326  72.688  1.00  0.00    -0.117 C  
HETATM   38  H   UNL     1      -7.718   9.989  71.294  1.00  0.00     0.000 HD 
HETATM   39  N   UNL     1      -7.577   8.983  71.397  1.00  0.00    -0.293 NA 
HETATM   40  C   UNL     1      -6.309   6.087  69.418  1.00  0.00    -0.041 A  
HETATM   41  C   UNL     1      -7.200   8.192  70.300  1.00  0.00    -0.052 A  
HETATM   42  C   UNL     1      -6.730   6.873  70.505  1.00  0.00    -0.053 A  
ENDBRANCH  28  31
ENDBRANCH  26  28
ENDBRANCH  13  26
ENDBRANCH   7  13
TORSDOF 8
ENDMDL
MODEL      216
REMARK 921   NORMALIZED FREE ENERGY PREDICTED BY IDOCK:   -5.27 KCAL/MOL
REMARK 922        TOTAL FREE ENERGY PREDICTED BY IDOCK:   -8.98 KCAL/MOL
REMARK 923 INTER-LIGAND FREE ENERGY PREDICTED BY IDOCK:   -6.91 KCAL/MOL
REMARK 924 INTRA-LIGAND FREE ENERGY PREDICTED BY IDOCK:   -2.07 KCAL/MOL
REMARK 927      BINDING AFFINITY PREDICTED BY RF-SCORE:    0.00 PKD
ROOT
HETATM    1  C   UNL     1      -8.272   5.947  63.152  1.00  0.00    -0.064 C  
HETATM    2  C   UNL     1      -7.661   6.547  64.411  1.00  0.00    -0.109 C  
HETATM    3  C   UNL     1      -6.591   5.633  65.017  1.00  0.00    -0.043 C  
HETATM    4  C   UNL     1      -6.019   6.227  66.304  1.00  0.00    -0.028 C  
HETATM    5  N   UNL     1      -7.067   6.652  67.273  1.00  0.00    -0.078 N  
HETATM    6  C   UNL     1      -8.139   7.496  66.703  1.00  0.00    -0.123 C  
HETATM    7  C   UNL     1      -7.178   5.913  68.458  1.00  0.00    -0.083 C  
HETATM    8  O   UNL     1      -6.427   4.940  68.616  1.00  0.00    -0.035 OA 
HETATM    9  O   UNL     1      -6.507   9.271  66.621  1.00  0.00    -0.065 OA 
HETATM   10  C   UNL     1      -8.743   6.819  65.467  1.00  0.00    -0.046 C  
HETATM   11  C   UNL     1      -7.770   8.939  66.347  1.00  0.00    -0.095 C  
HETATM   12  O   UNL     1      -8.549   9.736  65.847  1.00  0.00    -0.131 OA 
ENDROOT
BRANCH   7  13
HETATM   13  C   UNL     1      -8.108   6.297  69.664  1.00  0.00    -0.120 C  
BRANCH  13  14
HETATM   14  C   UNL     1      -9.630   6.009  69.575  1.00  0.00    -0.171 C  
BRANCH  14  15
HETATM   15  C   UNL     1      -9.952   4.502  69.523  1.00  0.00    -0.235 C  
BRANCH  15  16
HETATM   16  C   UNL     1      -9.648   3.752  70.829  1.00  0.00    -0.179 C  
BRANCH  16  17
HETATM   17  N   UNL     1     -10.240   4.490  71.930  1.00  0.00    -0.192 NA 
HETATM   18  H2  UNL     1     -11.038   5.926  73.744  1.00  0.00     0.000 HD 
HETATM   19  H1  UNL     1     -11.292   4.536  74.868  1.00  0.00     0.000 HD 
HETATM   20  N   UNL     1     -10.624   2.744  73.490  1.00  0.00    -0.146 NA 
HETATM   21  N   UNL     1     -11.013   4.931  73.969  1.00  0.00    -0.300 NA 
HETATM   22  C   UNL     1     -10.609   3.967  73.119  1.00  0.00    -0.183 C  
HETATM   23  H   UNL     1     -10.390   5.490  71.794  1.00  0.00     0.000 HD 
HETATM   24  H1  UNL     1     -10.903   2.349  74.389  1.00  0.00     0.000 HD 
HETATM   25  H2  UNL     1     -10.314   2.069  72.791  1.00  0.00     0.000 HD 
ENDBRANCH  16  17
ENDBRANCH  15  16
ENDBRANCH  14  15
ENDBRANCH  13  14
BRANCH  13  26
HETATM   26  N   UNL     1      -7.926   7.702  70.120  1.00  0.00    -0.108 N  
HETATM   27  H   UNL     1      -7.571   8.414  69.482  1.00  0.00     0.000 HD 
BRANCH  26  28
HETATM   28  S   UNL     1      -8.323   8.100  71.732  1.00  0.00    -0.156 S  
HETATM   29  O   UNL     1      -7.470   9.182  72.150  1.00  0.00    -0.330 OA 
HETATM   30  O   UNL     1      -8.310   6.840  72.446  1.00  0.00    -0.109 OA 
BRANCH  28  31
HETATM   31  C   UNL     1     -10.001   8.660  71.586  1.00  0.00    -0.282 A  
HETATM   32  C   UNL     1     -12.226  11.081  69.637  1.00  0.00    -0.370 C  
HETATM   33  C   UNL     1     -10.930   8.134  72.498  1.00  0.00    -0.439 A  
HETATM   34  C   UNL     1     -11.558  12.824  67.945  1.00  0.00    -0.400 C  
HETATM   35  C   UNL     1     -12.261   8.537  72.452  1.00  0.00    -0.432 A  
HETATM   36  C   UNL     1     -11.073  11.916  69.072  1.00  0.00    -0.300 C  
HETATM   37  C   UNL     1      -9.984  10.960  68.603  1.00  0.00    -0.189 C  
HETATM   38  H   UNL     1      -8.461  10.060  69.859  1.00  0.00     0.000 HD 
HETATM   39  N   UNL     1      -9.465  10.180  69.723  1.00  0.00    -0.204 NA 
HETATM   40  C   UNL     1     -12.667   9.461  71.497  1.00  0.00    -0.444 A  
HETATM   41  C   UNL     1     -10.387   9.600  70.608  1.00  0.00    -0.297 A  
HETATM   42  C   UNL     1     -11.743  10.004  70.585  1.00  0.00    -0.421 A  
ENDBRANCH  28  31
ENDBRANCH  26  28
ENDBRANCH  13  26
ENDBRANCH   7  13
TORSDOF 8
ENDMDL
MODEL      217
REMARK 921   NORMALIZED FREE ENERGY PREDICTED BY IDOCK:   -5.26 KCAL/MOL
REMARK 922        TOTAL FREE ENERGY PREDICTED BY IDOCK:   -8.97 KCAL/MOL
REMARK 923 INTER-LIGAND FREE ENERGY PREDICTED BY IDOCK:   -6.95 KCAL/MOL
REMARK 924 INTRA-LIGAND FREE ENERGY PREDICTED BY IDOCK:   -2.02 KCAL/MOL
REMARK 927      BINDING AFFINITY PREDICTED BY RF-SCORE:    0.00 PKD
ROOT
HETATM    1  C   UNL     1     -11.336   2.838  73.464  1.00  0.00    -0.272 C  
HETATM    2  C   UNL     1     -10.579   4.133  73.206  1.00  0.00    -0.267 C  
HETATM    3  C   UNL     1     -11.529   5.308  72.953  1.00  0.00    -0.339 C  
HETATM    4  C   UNL     1     -10.755   6.592  72.652  1.00  0.00    -0.231 C  
HETATM    5  N   UNL     1      -9.717   6.420  71.598  1.00  0.00    -0.161 N  
HETATM    6  C   UNL     1      -8.816   5.262  71.792  1.00  0.00    -0.135 C  
HETATM    7  C   UNL     1      -9.938   7.062  70.372  1.00  0.00    -0.179 C  
HETATM    8  O   UNL     1     -10.988   7.704  70.227  1.00  0.00    -0.251 OA 
HETATM    9  O   UNL     1      -7.795   6.532  73.571  1.00  0.00    -0.092 OA 
HETATM   10  C   UNL     1      -9.636   3.984  72.002  1.00  0.00    -0.206 C  
HETATM   11  C   UNL     1      -7.776   5.373  72.910  1.00  0.00    -0.098 C  
HETATM   12  O   UNL     1      -6.988   4.485  73.195  1.00  0.00    -0.063 OA 
ENDROOT
BRANCH   7  13
HETATM   13  C   UNL     1      -8.895   7.129  69.200  1.00  0.00    -0.135 C  
BRANCH  13  14
HETATM   14  C   UNL     1      -7.379   7.041  69.522  1.00  0.00    -0.094 C  
BRANCH  14  15
HETATM   15  C   UNL     1      -6.875   8.234  70.360  1.00  0.00    -0.036 C  
BRANCH  15  16
HETATM   16  C   UNL     1      -5.880   9.141  69.620  1.00  0.00    -0.033 C  
BRANCH  16  17
HETATM   17  N   UNL     1      -6.499  10.439  69.426  1.00  0.00    -0.051 NA 
HETATM   18  H2  UNL     1      -7.703  12.568  69.322  1.00  0.00     0.000 HD 
HETATM   19  H1  UNL     1      -7.891  12.489  67.528  1.00  0.00     0.000 HD 
HETATM   20  N   UNL     1      -6.798  10.451  67.072  1.00  0.00    -0.082 NA 
HETATM   21  N   UNL     1      -7.565  12.113  68.419  1.00  0.00    -0.123 NA 
HETATM   22  C   UNL     1      -6.931  10.937  68.247  1.00  0.00    -0.069 C  
HETATM   23  H   UNL     1      -6.619  11.026  70.252  1.00  0.00     0.000 HD 
HETATM   24  H1  UNL     1      -7.124  10.827  66.181  1.00  0.00     0.000 HD 
HETATM   25  H2  UNL     1      -6.298   9.564  67.017  1.00  0.00     0.000 HD 
ENDBRANCH  16  17
ENDBRANCH  15  16
ENDBRANCH  14  15
ENDBRANCH  13  14
BRANCH  13  26
HETATM   26  N   UNL     1      -9.111   8.287  68.289  1.00  0.00    -0.136 N  
HETATM   27  H   UNL     1      -8.822   9.226  68.564  1.00  0.00     0.000 HD 
BRANCH  26  28
HETATM   28  S   UNL     1      -9.851   8.014  66.775  1.00  0.00    -0.266 S  
HETATM   29  O   UNL     1     -11.145   7.428  67.009  1.00  0.00    -0.268 OA 
HETATM   30  O   UNL     1      -8.858   7.307  65.992  1.00  0.00    -0.156 OA 
BRANCH  28  31
HETATM   31  C   UNL     1     -10.026   9.658  66.132  1.00  0.00    -0.276 A  
HETATM   32  C   UNL     1     -11.156  13.181  67.092  1.00  0.00    -0.305 C  
HETATM   33  C   UNL     1      -9.718   9.848  64.775  1.00  0.00    -0.305 A  
HETATM   34  C   UNL     1     -12.250  13.961  69.223  1.00  0.00    -0.319 C  
HETATM   35  C   UNL     1      -9.844  11.107  64.198  1.00  0.00    -0.340 A  
HETATM   36  C   UNL     1     -11.911  12.753  68.355  1.00  0.00    -0.353 C  
HETATM   37  C   UNL     1     -11.050  11.741  69.099  1.00  0.00    -0.238 C  
HETATM   38  H   UNL     1     -10.941   9.616  68.677  1.00  0.00     0.000 HD 
HETATM   39  N   UNL     1     -10.831  10.550  68.283  1.00  0.00    -0.228 NA 
HETATM   40  C   UNL     1     -10.275  12.178  64.973  1.00  0.00    -0.312 A  
HETATM   41  C   UNL     1     -10.465  10.728  66.939  1.00  0.00    -0.252 A  
HETATM   42  C   UNL     1     -10.597  11.999  66.330  1.00  0.00    -0.278 A  
ENDBRANCH  28  31
ENDBRANCH  26  28
ENDBRANCH  13  26
ENDBRANCH   7  13
TORSDOF 8
ENDMDL
MODEL      218
REMARK 921   NORMALIZED FREE ENERGY PREDICTED BY IDOCK:   -5.26 KCAL/MOL
REMARK 922        TOTAL FREE ENERGY PREDICTED BY IDOCK:   -8.96 KCAL/MOL
REMARK 923 INTER-LIGAND FREE ENERGY PREDICTED BY IDOCK:   -7.03 KCAL/MOL
REMARK 924 INTRA-LIGAND FREE ENERGY PREDICTED BY IDOCK:   -1.94 KCAL/MOL
REMARK 927      BINDING AFFINITY PREDICTED BY RF-SCORE:    0.00 PKD
ROOT
HETATM    1  C   UNL     1     -11.116   2.167  73.618  1.00  0.00    -0.297 C  
HETATM    2  C   UNL     1     -10.272   3.403  73.342  1.00  0.00    -0.217 C  
HETATM    3  C   UNL     1     -11.121   4.678  73.303  1.00  0.00    -0.403 C  
HETATM    4  C   UNL     1     -10.267   5.903  72.980  1.00  0.00    -0.192 C  
HETATM    5  N   UNL     1      -9.403   5.720  71.781  1.00  0.00    -0.148 N  
HETATM    6  C   UNL     1      -8.608   4.472  71.770  1.00  0.00    -0.116 C  
HETATM    7  C   UNL     1      -9.720   6.475  70.644  1.00  0.00    -0.179 C  
HETATM    8  O   UNL     1     -10.708   7.220  70.691  1.00  0.00    -0.227 OA 
HETATM    9  O   UNL     1      -7.233   5.498  73.466  1.00  0.00    -0.084 OA 
HETATM   10  C   UNL     1      -9.519   3.263  72.009  1.00  0.00    -0.202 C  
HETATM   11  C   UNL     1      -7.421   4.397  72.735  1.00  0.00    -0.080 C  
HETATM   12  O   UNL     1      -6.697   3.420  72.847  1.00  0.00    -0.031 OA 
ENDROOT
BRANCH   7  13
HETATM   13  C   UNL     1      -8.841   6.538  69.343  1.00  0.00    -0.133 C  
BRANCH  13  14
HETATM   14  C   UNL     1      -7.314   6.285  69.441  1.00  0.00    -0.091 C  
BRANCH  14  15
HETATM   15  C   UNL     1      -6.798   5.314  68.359  1.00  0.00    -0.056 C  
BRANCH  15  16
HETATM   16  C   UNL     1      -7.683   4.074  68.159  1.00  0.00    -0.066 C  
BRANCH  16  17
HETATM   17  N   UNL     1      -8.039   3.986  66.755  1.00  0.00    -0.097 NA 
HETATM   18  H2  UNL     1      -8.440   4.028  64.341  1.00  0.00     0.000 HD 
HETATM   19  H1  UNL     1     -10.234   4.035  64.537  1.00  0.00     0.000 HD 
HETATM   20  N   UNL     1     -10.408   3.986  66.887  1.00  0.00    -0.080 NA 
HETATM   21  N   UNL     1      -9.285   4.023  64.912  1.00  0.00    -0.142 NA 
HETATM   22  C   UNL     1      -9.295   4.001  66.259  1.00  0.00    -0.174 C  
HETATM   23  H   UNL     1      -7.274   3.905  66.085  1.00  0.00     0.000 HD 
HETATM   24  H1  UNL     1     -11.357   3.997  66.512  1.00  0.00     0.000 HD 
HETATM   25  H2  UNL     1     -10.338   3.958  67.904  1.00  0.00     0.000 HD 
ENDBRANCH  16  17
ENDBRANCH  15  16
ENDBRANCH  14  15
ENDBRANCH  13  14
BRANCH  13  26
HETATM   26  N   UNL     1      -9.058   7.779  68.550  1.00  0.00    -0.133 N  
HETATM   27  H   UNL     1      -8.767   8.686  68.914  1.00  0.00     0.000 HD 
BRANCH  26  28
HETATM   28  S   UNL     1      -9.801   7.654  67.018  1.00  0.00    -0.238 S  
HETATM   29  O   UNL     1     -11.042   6.943  67.178  1.00  0.00    -0.370 OA 
HETATM   30  O   UNL     1      -8.771   7.139  66.139  1.00  0.00    -0.143 OA 
BRANCH  28  31
HETATM   31  C   UNL     1     -10.113   9.351  66.604  1.00  0.00    -0.262 A  
HETATM   32  C   UNL     1     -11.415  12.634  68.066  1.00  0.00    -0.366 C  
HETATM   33  C   UNL     1      -9.887   9.735  65.273  1.00  0.00    -0.335 A  
HETATM   34  C   UNL     1     -12.448  13.055  70.325  1.00  0.00    -0.217 C  
HETATM   35  C   UNL     1     -10.122  11.046  64.872  1.00  0.00    -0.359 A  
HETATM   36  C   UNL     1     -12.077  11.996  69.292  1.00  0.00    -0.249 C  
HETATM   37  C   UNL     1     -11.117  10.959  69.860  1.00  0.00    -0.241 C  
HETATM   38  H   UNL     1     -10.894   8.918  69.157  1.00  0.00     0.000 HD 
HETATM   39  N   UNL     1     -10.864   9.902  68.885  1.00  0.00    -0.221 NA 
HETATM   40  C   UNL     1     -10.580  11.976  65.798  1.00  0.00    -0.301 A  
HETATM   41  C   UNL     1     -10.578  10.276  67.562  1.00  0.00    -0.268 A  
HETATM   42  C   UNL     1     -10.822  11.601  67.133  1.00  0.00    -0.306 A  
ENDBRANCH  28  31
ENDBRANCH  26  28
ENDBRANCH  13  26
ENDBRANCH   7  13
TORSDOF 8
ENDMDL
MODEL      219
REMARK 921   NORMALIZED FREE ENERGY PREDICTED BY IDOCK:   -5.23 KCAL/MOL
REMARK 922        TOTAL FREE ENERGY PREDICTED BY IDOCK:   -8.92 KCAL/MOL
REMARK 923 INTER-LIGAND FREE ENERGY PREDICTED BY IDOCK:   -8.66 KCAL/MOL
REMARK 924 INTRA-LIGAND FREE ENERGY PREDICTED BY IDOCK:   -0.26 KCAL/MOL
REMARK 927      BINDING AFFINITY PREDICTED BY RF-SCORE:    0.00 PKD
ROOT
HETATM    1  C   UNL     1      -8.806   8.195  73.129  1.00  0.00    -0.325 C  
HETATM    2  C   UNL     1      -8.585   8.448  71.645  1.00  0.00    -0.223 C  
HETATM    3  C   UNL     1      -7.228   9.107  71.375  1.00  0.00    -0.019 C  
HETATM    4  C   UNL     1      -7.040   9.397  69.886  1.00  0.00    -0.075 C  
HETATM    5  N   UNL     1      -8.192  10.118  69.275  1.00  0.00    -0.143 N  
HETATM    6  C   UNL     1      -9.519   9.530  69.562  1.00  0.00    -0.185 C  
HETATM    7  C   UNL     1      -7.975  11.443  68.874  1.00  0.00    -0.085 C  
HETATM    8  O   UNL     1      -6.860  11.942  69.076  1.00  0.00    -0.094 OA 
HETATM    9  O   UNL     1      -8.914   7.767  68.030  1.00  0.00    -0.127 OA 
HETATM   10  C   UNL     1      -9.698   9.340  71.073  1.00  0.00    -0.341 C  
HETATM   11  C   UNL     1      -9.863   8.217  68.853  1.00  0.00    -0.176 C  
HETATM   12  O   UNL     1     -10.911   7.612  69.016  1.00  0.00    -0.161 OA 
ENDROOT
BRANCH   7  13
HETATM   13  C   UNL     1      -9.011  12.312  68.074  1.00  0.00    -0.190 C  
BRANCH  13  14
HETATM   14  C   UNL     1      -8.513  13.536  67.261  1.00  0.00    -0.200 C  
BRANCH  14  15
HETATM   15  C   UNL     1      -8.969  14.880  67.864  1.00  0.00    -0.177 C  
BRANCH  15  16
HETATM   16  C   UNL     1      -7.943  15.518  68.813  1.00  0.00    -0.163 C  
BRANCH  16  17
HETATM   17  N   UNL     1      -8.209  16.943  68.885  1.00  0.00    -0.246 NA 
HETATM   18  H2  UNL     1      -8.919  19.277  69.080  1.00  0.00     0.000 HD 
HETATM   19  H1  UNL     1      -8.075  19.766  67.561  1.00  0.00     0.000 HD 
HETATM   20  N   UNL     1      -7.131  17.705  66.914  1.00  0.00    -0.173 NA 
HETATM   21  N   UNL     1      -8.346  19.074  68.260  1.00  0.00    -0.321 NA 
HETATM   22  C   UNL     1      -7.850  17.858  67.960  1.00  0.00    -0.251 C  
HETATM   23  H   UNL     1      -8.711  17.283  69.706  1.00  0.00     0.000 HD 
HETATM   24  H1  UNL     1      -6.859  18.397  66.214  1.00  0.00     0.000 HD 
HETATM   25  H2  UNL     1      -6.781  16.761  66.756  1.00  0.00     0.000 HD 
ENDBRANCH  16  17
ENDBRANCH  15  16
ENDBRANCH  14  15
ENDBRANCH  13  14
BRANCH  13  26
HETATM   26  N   UNL     1     -10.174  12.743  68.898  1.00  0.00    -0.429 N  
HETATM   27  H   UNL     1     -10.033  13.236  69.780  1.00  0.00     0.000 HD 
BRANCH  26  28
HETATM   28  S   UNL     1     -11.749  12.396  68.338  1.00  0.00    -0.323 S  
HETATM   29  O   UNL     1     -12.653  13.351  68.925  1.00  0.00     0.100 OA 
HETATM   30  O   UNL     1     -11.929  10.978  68.571  1.00  0.00    -0.535 OA 
BRANCH  28  31
HETATM   31  C   UNL     1     -11.606  12.678  66.592  1.00  0.00    -0.381 A  
HETATM   32  C   UNL     1     -10.097  11.208  63.402  1.00  0.00    -0.439 C  
HETATM   33  C   UNL     1     -12.163  13.864  66.089  1.00  0.00    -0.498 A  
HETATM   34  C   UNL     1      -8.557   9.229  63.152  1.00  0.00    -0.209 C  
HETATM   35  C   UNL     1     -12.078  14.158  64.732  1.00  0.00    -0.454 A  
HETATM   36  C   UNL     1      -9.134  10.257  64.121  1.00  0.00    -0.284 C  
HETATM   37  C   UNL     1      -9.891   9.597  65.266  1.00  0.00    -0.199 C  
HETATM   38  H   UNL     1     -10.209  10.452  67.234  1.00  0.00     0.000 HD 
HETATM   39  N   UNL     1     -10.338  10.596  66.232  1.00  0.00    -0.245 NA 
HETATM   40  C   UNL     1     -11.439  13.269  63.876  1.00  0.00    -0.409 A  
HETATM   41  C   UNL     1     -10.951  11.760  65.744  1.00  0.00    -0.301 A  
HETATM   42  C   UNL     1     -10.866  12.083  64.369  1.00  0.00    -0.378 A  
ENDBRANCH  28  31
ENDBRANCH  26  28
ENDBRANCH  13  26
ENDBRANCH   7  13
TORSDOF 8
ENDMDL
MODEL      220
REMARK 921   NORMALIZED FREE ENERGY PREDICTED BY IDOCK:   -5.21 KCAL/MOL
REMARK 922        TOTAL FREE ENERGY PREDICTED BY IDOCK:   -8.89 KCAL/MOL
REMARK 923 INTER-LIGAND FREE ENERGY PREDICTED BY IDOCK:   -6.89 KCAL/MOL
REMARK 924 INTRA-LIGAND FREE ENERGY PREDICTED BY IDOCK:   -2.00 KCAL/MOL
REMARK 927      BINDING AFFINITY PREDICTED BY RF-SCORE:    0.00 PKD
ROOT
HETATM    1  C   UNL     1      -9.989   9.226  65.637  1.00  0.00    -0.130 C  
HETATM    2  C   UNL     1     -10.276  10.612  65.079  1.00  0.00    -0.380 C  
HETATM    3  C   UNL     1      -8.987  11.392  64.800  1.00  0.00     0.125 C  
HETATM    4  C   UNL     1      -9.291  12.798  64.283  1.00  0.00     0.847 C  
HETATM    5  N   UNL     1     -10.270  13.537  65.126  1.00  0.00    -0.330 N  
HETATM    6  C   UNL     1     -11.503  12.788  65.453  1.00  0.00    -0.327 C  
HETATM    7  C   UNL     1      -9.788  14.635  65.851  1.00  0.00    -0.330 C  
HETATM    8  O   UNL     1      -8.582  14.906  65.773  1.00  0.00     0.528 OA 
HETATM    9  O   UNL     1     -12.159  13.142  63.158  1.00  0.00    -0.541 OA 
HETATM   10  C   UNL     1     -11.149  11.421  66.050  1.00  0.00    -0.235 C  
HETATM   11  C   UNL     1     -12.513  12.587  64.318  1.00  0.00    -0.432 C  
HETATM   12  O   UNL     1     -13.558  11.968  64.441  1.00  0.00    -0.465 OA 
ENDROOT
BRANCH   7  13
HETATM   13  C   UNL     1     -10.689  15.628  66.669  1.00  0.00    -0.296 C  
BRANCH  13  14
HETATM   14  C   UNL     1     -10.702  17.134  66.293  1.00  0.00    -0.079 C  
BRANCH  14  15
HETATM   15  C   UNL     1     -10.451  18.055  67.504  1.00  0.00    -0.408 C  
BRANCH  15  16
HETATM   16  C   UNL     1      -9.511  19.233  67.208  1.00  0.00    -0.314 C  
BRANCH  16  17
HETATM   17  N   UNL     1      -8.539  18.808  66.219  1.00  0.00    -0.422 NA 
HETATM   18  H2  UNL     1      -6.869  17.856  64.703  1.00  0.00     0.000 HD 
HETATM   19  H1  UNL     1      -5.982  19.419  64.536  1.00  0.00     0.000 HD 
HETATM   20  N   UNL     1      -7.298  20.807  65.914  1.00  0.00    -0.496 NA 
HETATM   21  N   UNL     1      -6.738  18.845  64.912  1.00  0.00    -0.451 NA 
HETATM   22  C   UNL     1      -7.539  19.566  65.721  1.00  0.00    -0.229 C  
HETATM   23  H   UNL     1      -8.617  17.852  65.869  1.00  0.00     0.000 HD 
HETATM   24  H1  UNL     1      -6.542  21.380  65.538  1.00  0.00     0.000 HD 
HETATM   25  H2  UNL     1      -7.951  21.291  66.529  1.00  0.00     0.000 HD 
ENDBRANCH  16  17
ENDBRANCH  15  16
ENDBRANCH  14  15
ENDBRANCH  13  14
BRANCH  13  26
HETATM   26  N   UNL     1     -10.496  15.518  68.141  1.00  0.00    -0.254 N  
HETATM   27  H   UNL     1      -9.777  16.066  68.614  1.00  0.00     0.000 HD 
BRANCH  26  28
HETATM   28  S   UNL     1     -11.502  14.458  69.024  1.00  0.00    -0.302 S  
HETATM   29  O   UNL     1     -12.718  14.268  68.277  1.00  0.00     0.304 OA 
HETATM   30  O   UNL     1     -11.544  15.006  70.364  1.00  0.00    -0.255 OA 
BRANCH  28  31
HETATM   31  C   UNL     1     -10.552  12.959  69.046  1.00  0.00    -0.043 A  
HETATM   32  C   UNL     1     -10.698   9.298  70.134  1.00  0.00    -0.269 C  
HETATM   33  C   UNL     1      -9.236  13.031  68.564  1.00  0.00    -0.062 A  
HETATM   34  C   UNL     1     -12.490   8.113  71.450  1.00  0.00    -0.313 C  
HETATM   35  C   UNL     1      -8.427  11.899  68.562  1.00  0.00    -0.113 A  
HETATM   36  C   UNL     1     -11.908   9.468  71.058  1.00  0.00    -0.408 C  
HETATM   37  C   UNL     1     -12.930  10.340  70.341  1.00  0.00    -0.094 C  
HETATM   38  H   UNL     1     -12.920  12.509  70.273  1.00  0.00     0.000 HD 
HETATM   39  N   UNL     1     -12.380  11.666  70.074  1.00  0.00    -0.226 NA 
HETATM   40  C   UNL     1      -8.930  10.695  69.040  1.00  0.00    -0.165 A  
HETATM   41  C   UNL     1     -11.086  11.749  69.536  1.00  0.00    -0.133 A  
HETATM   42  C   UNL     1     -10.244  10.612  69.536  1.00  0.00    -0.190 A  
ENDBRANCH  28  31
ENDBRANCH  26  28
ENDBRANCH  13  26
ENDBRANCH   7  13
TORSDOF 8
ENDMDL
MODEL      221
REMARK 921   NORMALIZED FREE ENERGY PREDICTED BY IDOCK:   -5.20 KCAL/MOL
REMARK 922        TOTAL FREE ENERGY PREDICTED BY IDOCK:   -8.88 KCAL/MOL
REMARK 923 INTER-LIGAND FREE ENERGY PREDICTED BY IDOCK:   -7.46 KCAL/MOL
REMARK 924 INTRA-LIGAND FREE ENERGY PREDICTED BY IDOCK:   -1.42 KCAL/MOL
REMARK 927      BINDING AFFINITY PREDICTED BY RF-SCORE:    0.00 PKD
ROOT
HETATM    1  C   UNL     1     -14.353   8.623  71.844  1.00  0.00    -0.492 C  
HETATM    2  C   UNL     1     -12.915   8.191  72.095  1.00  0.00    -0.287 C  
HETATM    3  C   UNL     1     -11.924   9.333  71.846  1.00  0.00    -0.433 C  
HETATM    4  C   UNL     1     -10.483   8.872  72.059  1.00  0.00    -0.313 C  
HETATM    5  N   UNL     1     -10.151   7.617  71.328  1.00  0.00    -0.187 N  
HETATM    6  C   UNL     1     -11.119   6.514  71.512  1.00  0.00    -0.265 C  
HETATM    7  C   UNL     1      -9.252   7.720  70.259  1.00  0.00    -0.156 C  
HETATM    8  O   UNL     1      -8.812   8.841  69.967  1.00  0.00    -0.134 OA 
HETATM    9  O   UNL     1     -10.216   6.280  73.737  1.00  0.00    -0.221 OA 
HETATM   10  C   UNL     1     -12.540   6.999  71.202  1.00  0.00    -0.387 C  
HETATM   11  C   UNL     1     -11.121   5.813  72.875  1.00  0.00    -0.281 C  
HETATM   12  O   UNL     1     -11.881   4.905  73.170  1.00  0.00    -0.279 OA 
ENDROOT
BRANCH   7  13
HETATM   13  C   UNL     1      -8.661   6.496  69.471  1.00  0.00    -0.134 C  
BRANCH  13  14
HETATM   14  C   UNL     1      -7.454   5.719  70.060  1.00  0.00    -0.075 C  
BRANCH  14  15
HETATM   15  C   UNL     1      -7.493   5.633  71.599  1.00  0.00    -0.093 C  
BRANCH  15  16
HETATM   16  C   UNL     1      -7.159   4.240  72.155  1.00  0.00    -0.059 C  
BRANCH  16  17
HETATM   17  N   UNL     1      -8.142   3.297  71.653  1.00  0.00    -0.057 NA 
HETATM   18  H2  UNL     1      -9.815   1.871  70.577  1.00  0.00     0.000 HD 
HETATM   19  H1  UNL     1     -10.766   1.668  72.098  1.00  0.00     0.000 HD 
HETATM   20  N   UNL     1      -9.466   2.949  73.590  1.00  0.00    -0.090 NA 
HETATM   21  N   UNL     1      -9.979   2.044  71.569  1.00  0.00    -0.137 NA 
HETATM   22  C   UNL     1      -9.184   2.799  72.352  1.00  0.00    -0.090 C  
HETATM   23  H   UNL     1      -8.036   2.984  70.687  1.00  0.00     0.000 HD 
HETATM   24  H1  UNL     1     -10.254   2.573  74.119  1.00  0.00     0.000 HD 
HETATM   25  H2  UNL     1      -8.815   3.525  74.123  1.00  0.00     0.000 HD 
ENDBRANCH  16  17
ENDBRANCH  15  16
ENDBRANCH  14  15
ENDBRANCH  13  14
BRANCH  13  26
HETATM   26  N   UNL     1      -8.364   6.806  68.045  1.00  0.00    -0.120 N  
HETATM   27  H   UNL     1      -7.416   7.039  67.750  1.00  0.00     0.000 HD 
BRANCH  26  28
HETATM   28  S   UNL     1      -9.641   6.762  66.912  1.00  0.00    -0.166 S  
HETATM   29  O   UNL     1     -10.884   6.840  67.634  1.00  0.00    -0.255 OA 
HETATM   30  O   UNL     1      -9.357   5.620  66.067  1.00  0.00    -0.160 OA 
BRANCH  28  31
HETATM   31  C   UNL     1      -9.376   8.247  65.979  1.00  0.00    -0.149 A  
HETATM   32  C   UNL     1     -10.411  11.921  65.777  1.00  0.00    -0.285 C  
HETATM   33  C   UNL     1      -8.546   8.153  64.851  1.00  0.00    -0.039 A  
HETATM   34  C   UNL     1     -12.160  13.144  67.117  1.00  0.00    -0.343 C  
HETATM   35  C   UNL     1      -8.302   9.273  64.063  1.00  0.00    -0.179 A  
HETATM   36  C   UNL     1     -11.638  11.777  66.682  1.00  0.00    -0.273 C  
HETATM   37  C   UNL     1     -11.248  10.912  67.872  1.00  0.00    -0.321 C  
HETATM   38  H   UNL     1     -11.209   8.743  67.905  1.00  0.00     0.000 HD 
HETATM   39  N   UNL     1     -10.856   9.576  67.433  1.00  0.00    -0.225 NA 
HETATM   40  C   UNL     1      -8.885  10.489  64.401  1.00  0.00    -0.210 A  
HETATM   41  C   UNL     1      -9.979   9.470  66.342  1.00  0.00    -0.269 A  
HETATM   42  C   UNL     1      -9.728  10.595  65.522  1.00  0.00    -0.291 A  
ENDBRANCH  28  31
ENDBRANCH  26  28
ENDBRANCH  13  26
ENDBRANCH   7  13
TORSDOF 8
ENDMDL
MODEL      222
REMARK 921   NORMALIZED FREE ENERGY PREDICTED BY IDOCK:   -5.13 KCAL/MOL
REMARK 922        TOTAL FREE ENERGY PREDICTED BY IDOCK:   -8.77 KCAL/MOL
REMARK 923 INTER-LIGAND FREE ENERGY PREDICTED BY IDOCK:   -6.92 KCAL/MOL
REMARK 924 INTRA-LIGAND FREE ENERGY PREDICTED BY IDOCK:   -1.86 KCAL/MOL
REMARK 927      BINDING AFFINITY PREDICTED BY RF-SCORE:    0.00 PKD
ROOT
HETATM    1  C   UNL     1      -8.357   3.647  62.846  1.00  0.00    -0.081 C  
HETATM    2  C   UNL     1      -8.440   3.973  64.330  1.00  0.00    -0.105 C  
HETATM    3  C   UNL     1      -9.884   3.932  64.843  1.00  0.00    -0.197 C  
HETATM    4  C   UNL     1      -9.956   4.306  66.324  1.00  0.00    -0.211 C  
HETATM    5  N   UNL     1      -9.238   5.569  66.649  1.00  0.00    -0.131 N  
HETATM    6  C   UNL     1      -7.858   5.655  66.122  1.00  0.00    -0.100 C  
HETATM    7  C   UNL     1     -10.019   6.670  67.023  1.00  0.00    -0.169 C  
HETATM    8  O   UNL     1     -11.251   6.539  67.033  1.00  0.00    -0.397 OA 
HETATM    9  O   UNL     1      -7.257   4.056  67.827  1.00  0.00    -0.062 OA 
HETATM   10  C   UNL     1      -7.846   5.360  64.618  1.00  0.00    -0.105 C  
HETATM   11  C   UNL     1      -6.799   4.784  66.806  1.00  0.00    -0.055 C  
HETATM   12  O   UNL     1      -5.630   4.738  66.459  1.00  0.00    -0.016 OA 
ENDROOT
BRANCH   7  13
HETATM   13  C   UNL     1      -9.444   8.033  67.550  1.00  0.00    -0.146 C  
BRANCH  13  14
HETATM   14  C   UNL     1      -9.384   8.296  69.078  1.00  0.00    -0.147 C  
BRANCH  14  15
HETATM   15  C   UNL     1      -7.999   8.790  69.546  1.00  0.00    -0.096 C  
BRANCH  15  16
HETATM   16  C   UNL     1      -6.881   7.747  69.396  1.00  0.00    -0.044 C  
BRANCH  16  17
HETATM   17  N   UNL     1      -7.332   6.502  69.991  1.00  0.00    -0.087 NA 
HETATM   18  H2  UNL     1      -8.352   4.482  70.924  1.00  0.00     0.000 HD 
HETATM   19  H1  UNL     1      -7.326   4.529  72.408  1.00  0.00     0.000 HD 
HETATM   20  N   UNL     1      -6.034   6.452  71.976  1.00  0.00    -0.037 NA 
HETATM   21  N   UNL     1      -7.625   4.899  71.506  1.00  0.00    -0.082 NA 
HETATM   22  C   UNL     1      -6.936   6.011  71.184  1.00  0.00    -0.068 C  
HETATM   23  H   UNL     1      -8.006   5.950  69.460  1.00  0.00     0.000 HD 
HETATM   24  H1  UNL     1      -5.734   6.081  72.879  1.00  0.00     0.000 HD 
HETATM   25  H2  UNL     1      -5.546   7.291  71.663  1.00  0.00     0.000 HD 
ENDBRANCH  16  17
ENDBRANCH  15  16
ENDBRANCH  14  15
ENDBRANCH  13  14
BRANCH  13  26
HETATM   26  N   UNL     1     -10.059   9.221  66.897  1.00  0.00    -0.235 N  
HETATM   27  H   UNL     1     -10.946   9.598  67.234  1.00  0.00     0.000 HD 
BRANCH  26  28
HETATM   28  S   UNL     1      -9.254   9.941  65.575  1.00  0.00    -0.223 S  
HETATM   29  O   UNL     1      -9.267   9.007  64.480  1.00  0.00    -0.044 OA 
HETATM   30  O   UNL     1      -7.997  10.418  66.114  1.00  0.00    -0.126 OA 
BRANCH  28  31
HETATM   31  C   UNL     1     -10.288  11.335  65.209  1.00  0.00    -0.280 A  
HETATM   32  C   UNL     1     -11.930  14.391  66.813  1.00  0.00    -0.423 C  
HETATM   33  C   UNL     1     -10.790  11.430  63.902  1.00  0.00    -0.463 A  
HETATM   34  C   UNL     1     -12.001  15.051  69.244  1.00  0.00    -0.322 C  
HETATM   35  C   UNL     1     -11.618  12.490  63.545  1.00  0.00    -0.584 A  
HETATM   36  C   UNL     1     -11.746  13.914  68.257  1.00  0.00    -0.396 C  
HETATM   37  C   UNL     1     -10.339  13.349  68.392  1.00  0.00    -0.251 C  
HETATM   38  H   UNL     1      -9.723  11.340  67.854  1.00  0.00     0.000 HD 
HETATM   39  N   UNL     1     -10.160  12.197  67.514  1.00  0.00    -0.195 NA 
HETATM   40  C   UNL     1     -11.945  13.455  64.490  1.00  0.00    -0.452 A  
HETATM   41  C   UNL     1     -10.605  12.301  66.186  1.00  0.00    -0.249 A  
HETATM   42  C   UNL     1     -11.457  13.365  65.806  1.00  0.00    -0.341 A  
ENDBRANCH  28  31
ENDBRANCH  26  28
ENDBRANCH  13  26
ENDBRANCH   7  13
TORSDOF 8
ENDMDL
MODEL      223
REMARK 921   NORMALIZED FREE ENERGY PREDICTED BY IDOCK:   -5.12 KCAL/MOL
REMARK 922        TOTAL FREE ENERGY PREDICTED BY IDOCK:   -8.77 KCAL/MOL
REMARK 923 INTER-LIGAND FREE ENERGY PREDICTED BY IDOCK:   -7.90 KCAL/MOL
REMARK 924 INTRA-LIGAND FREE ENERGY PREDICTED BY IDOCK:   -0.87 KCAL/MOL
REMARK 927      BINDING AFFINITY PREDICTED BY RF-SCORE:    0.00 PKD
ROOT
HETATM    1  C   UNL     1     -10.308  19.688  67.942  1.00  0.00    -0.583 C  
HETATM    2  C   UNL     1      -9.943  18.294  68.432  1.00  0.00    -0.401 C  
HETATM    3  C   UNL     1      -8.428  18.063  68.418  1.00  0.00    -0.306 C  
HETATM    4  C   UNL     1      -8.081  16.644  68.869  1.00  0.00    -0.235 C  
HETATM    5  N   UNL     1      -8.856  15.592  68.156  1.00  0.00    -0.172 N  
HETATM    6  C   UNL     1     -10.317  15.816  68.111  1.00  0.00    -0.242 C  
HETATM    7  C   UNL     1      -8.148  14.765  67.274  1.00  0.00    -0.207 C  
HETATM    8  O   UNL     1      -6.937  14.974  67.117  1.00  0.00    -0.234 OA 
HETATM    9  O   UNL     1     -10.339  15.227  70.451  1.00  0.00    -0.228 OA 
HETATM   10  C   UNL     1     -10.621  17.218  67.569  1.00  0.00    -0.329 C  
HETATM   11  C   UNL     1     -11.091  15.612  69.417  1.00  0.00    -0.303 C  
HETATM   12  O   UNL     1     -12.294  15.786  69.529  1.00  0.00    -0.281 OA 
ENDROOT
BRANCH   7  13
HETATM   13  C   UNL     1      -8.753  13.508  66.552  1.00  0.00     0.110 C  
BRANCH  13  14
HETATM   14  C   UNL     1     -10.249  13.509  66.142  1.00  0.00    -0.303 C  
BRANCH  14  15
HETATM   15  C   UNL     1     -10.929  12.141  66.356  1.00  0.00    -0.327 C  
BRANCH  15  16
HETATM   16  C   UNL     1     -12.087  12.170  67.365  1.00  0.00     0.106 C  
BRANCH  16  17
HETATM   17  N   UNL     1     -11.963  11.019  68.240  1.00  0.00    -0.757 NA 
HETATM   18  H2  UNL     1     -11.990   8.982  69.597  1.00  0.00     0.000 HD 
HETATM   19  H1  UNL     1     -11.555   9.864  71.111  1.00  0.00     0.000 HD 
HETATM   20  N   UNL     1     -11.383  12.067  70.288  1.00  0.00    -0.428 NA 
HETATM   21  N   UNL     1     -11.761   9.833  70.112  1.00  0.00    -0.182 NA 
HETATM   22  C   UNL     1     -11.690  11.061  69.562  1.00  0.00    -0.329 C  
HETATM   23  H   UNL     1     -12.094  10.098  67.820  1.00  0.00     0.000 HD 
HETATM   24  H1  UNL     1     -11.177  12.099  71.287  1.00  0.00     0.000 HD 
HETATM   25  H2  UNL     1     -11.339  12.962  69.803  1.00  0.00     0.000 HD 
ENDBRANCH  16  17
ENDBRANCH  15  16
ENDBRANCH  14  15
ENDBRANCH  13  14
BRANCH  13  26
HETATM   26  N   UNL     1      -8.466  12.230  67.262  1.00  0.00    -0.174 N  
HETATM   27  H   UNL     1      -8.606  12.152  68.269  1.00  0.00     0.000 HD 
BRANCH  26  28
HETATM   28  S   UNL     1      -7.898  10.898  66.357  1.00  0.00    -0.149 S  
HETATM   29  O   UNL     1      -6.471  10.814  66.530  1.00  0.00    -0.098 OA 
HETATM   30  O   UNL     1      -8.465  11.071  65.035  1.00  0.00    -0.076 OA 
BRANCH  28  31
HETATM   31  C   UNL     1      -8.697   9.528  67.150  1.00  0.00    -0.132 A  
HETATM   32  C   UNL     1      -8.780   7.550  70.420  1.00  0.00    -0.144 C  
HETATM   33  C   UNL     1      -9.614   8.792  66.383  1.00  0.00    -0.316 A  
HETATM   34  C   UNL     1      -7.280   7.766  72.433  1.00  0.00    -0.090 C  
HETATM   35  C   UNL     1     -10.270   7.696  66.934  1.00  0.00    -0.365 A  
HETATM   36  C   UNL     1      -7.449   8.091  70.951  1.00  0.00    -0.069 C  
HETATM   37  C   UNL     1      -7.411   9.590  70.691  1.00  0.00    -0.118 C  
HETATM   38  H   UNL     1      -6.831  10.539  68.827  1.00  0.00     0.000 HD 
HETATM   39  N   UNL     1      -7.467   9.866  69.258  1.00  0.00    -0.087 NA 
HETATM   40  C   UNL     1     -10.014   7.334  68.251  1.00  0.00    -0.177 A  
HETATM   41  C   UNL     1      -8.420   9.180  68.489  1.00  0.00    -0.128 A  
HETATM   42  C   UNL     1      -9.089   8.055  69.028  1.00  0.00    -0.144 A  
ENDBRANCH  28  31
ENDBRANCH  26  28
ENDBRANCH  13  26
ENDBRANCH   7  13
TORSDOF 8
ENDMDL
MODEL      224
REMARK 921   NORMALIZED FREE ENERGY PREDICTED BY IDOCK:   -5.12 KCAL/MOL
REMARK 922        TOTAL FREE ENERGY PREDICTED BY IDOCK:   -8.77 KCAL/MOL
REMARK 923 INTER-LIGAND FREE ENERGY PREDICTED BY IDOCK:   -6.99 KCAL/MOL
REMARK 924 INTRA-LIGAND FREE ENERGY PREDICTED BY IDOCK:   -1.78 KCAL/MOL
REMARK 927      BINDING AFFINITY PREDICTED BY RF-SCORE:    0.00 PKD
ROOT
HETATM    1  C   UNL     1     -10.617  15.910  70.099  1.00  0.00    -0.302 C  
HETATM    2  C   UNL     1     -11.185  14.639  69.484  1.00  0.00    -0.300 C  
HETATM    3  C   UNL     1     -12.177  13.945  70.424  1.00  0.00    -0.438 C  
HETATM    4  C   UNL     1     -12.704  12.647  69.812  1.00  0.00     0.516 C  
HETATM    5  N   UNL     1     -11.626  11.753  69.307  1.00  0.00    -0.289 N  
HETATM    6  C   UNL     1     -10.627  12.410  68.436  1.00  0.00    -0.236 C  
HETATM    7  C   UNL     1     -11.415  10.553  69.999  1.00  0.00    -0.316 C  
HETATM    8  O   UNL     1     -12.110  10.322  70.998  1.00  0.00    -0.323 OA 
HETATM    9  O   UNL     1     -12.342  12.456  66.739  1.00  0.00    -0.457 OA 
HETATM   10  C   UNL     1     -10.061  13.655  69.128  1.00  0.00     0.153 C  
HETATM   11  C   UNL     1     -11.081  12.790  67.024  1.00  0.00    -0.278 C  
HETATM   12  O   UNL     1     -10.369  13.358  66.211  1.00  0.00    -0.280 OA 
ENDROOT
BRANCH   7  13
HETATM   13  C   UNL     1     -10.439   9.414  69.532  1.00  0.00    -0.218 C  
BRANCH  13  14
HETATM   14  C   UNL     1      -8.909   9.670  69.540  1.00  0.00    -0.197 C  
BRANCH  14  15
HETATM   15  C   UNL     1      -8.204   9.048  70.762  1.00  0.00    -0.213 C  
BRANCH  15  16
HETATM   16  C   UNL     1      -9.165   8.590  71.870  1.00  0.00    -0.255 C  
BRANCH  16  17
HETATM   17  N   UNL     1      -8.967   7.169  72.091  1.00  0.00    -0.129 NA 
HETATM   18  H2  UNL     1      -8.459   4.780  72.243  1.00  0.00     0.000 HD 
HETATM   19  H1  UNL     1     -10.183   4.329  72.534  1.00  0.00     0.000 HD 
HETATM   20  N   UNL     1     -11.195   6.457  72.490  1.00  0.00    -0.264 NA 
HETATM   21  N   UNL     1      -9.445   5.013  72.363  1.00  0.00    -0.139 NA 
HETATM   22  C   UNL     1      -9.943   6.264  72.317  1.00  0.00    -0.165 C  
HETATM   23  H   UNL     1      -8.007   6.825  72.075  1.00  0.00     0.000 HD 
HETATM   24  H1  UNL     1     -11.933   5.774  72.661  1.00  0.00     0.000 HD 
HETATM   25  H2  UNL     1     -11.499   7.430  72.453  1.00  0.00     0.000 HD 
ENDBRANCH  16  17
ENDBRANCH  15  16
ENDBRANCH  14  15
ENDBRANCH  13  14
BRANCH  13  26
HETATM   26  N   UNL     1     -10.807   8.832  68.212  1.00  0.00    -0.457 N  
HETATM   27  H   UNL     1     -11.413   9.342  67.569  1.00  0.00     0.000 HD 
BRANCH  26  28
HETATM   28  S   UNL     1     -10.194   7.294  67.794  1.00  0.00    -0.212 S  
HETATM   29  O   UNL     1     -11.124   6.673  66.887  1.00  0.00    -0.400 OA 
HETATM   30  O   UNL     1      -9.871   6.661  69.056  1.00  0.00    -0.142 OA 
BRANCH  28  31
HETATM   31  C   UNL     1      -8.687   7.698  66.951  1.00  0.00    -0.129 A  
HETATM   32  C   UNL     1      -7.295   9.797  64.075  1.00  0.00    -0.128 C  
HETATM   33  C   UNL     1      -7.524   7.029  67.366  1.00  0.00    -0.097 A  
HETATM   34  C   UNL     1      -8.548  11.166  62.371  1.00  0.00    -0.307 C  
HETATM   35  C   UNL     1      -6.308   7.285  66.742  1.00  0.00    -0.047 A  
HETATM   36  C   UNL     1      -8.652  10.057  63.414  1.00  0.00    -0.204 C  
HETATM   37  C   UNL     1      -9.652  10.401  64.510  1.00  0.00    -0.309 C  
HETATM   38  H   UNL     1     -10.737   8.971  65.729  1.00  0.00     0.000 HD 
HETATM   39  N   UNL     1      -9.811   9.280  65.433  1.00  0.00    -0.133 NA 
HETATM   40  C   UNL     1      -6.248   8.210  65.706  1.00  0.00    -0.045 A  
HETATM   41  C   UNL     1      -8.653   8.640  65.901  1.00  0.00    -0.157 A  
HETATM   42  C   UNL     1      -7.408   8.879  65.273  1.00  0.00    -0.088 A  
ENDBRANCH  28  31
ENDBRANCH  26  28
ENDBRANCH  13  26
ENDBRANCH   7  13
TORSDOF 8
ENDMDL
MODEL      225
REMARK 921   NORMALIZED FREE ENERGY PREDICTED BY IDOCK:   -5.11 KCAL/MOL
REMARK 922        TOTAL FREE ENERGY PREDICTED BY IDOCK:   -8.74 KCAL/MOL
REMARK 923 INTER-LIGAND FREE ENERGY PREDICTED BY IDOCK:   -8.15 KCAL/MOL
REMARK 924 INTRA-LIGAND FREE ENERGY PREDICTED BY IDOCK:   -0.59 KCAL/MOL
REMARK 927      BINDING AFFINITY PREDICTED BY RF-SCORE:    0.00 PKD
ROOT
HETATM    1  C   UNL     1      -5.327   7.305  67.928  1.00  0.00    -0.024 C  
HETATM    2  C   UNL     1      -6.113   8.396  67.214  1.00  0.00    -0.055 C  
HETATM    3  C   UNL     1      -5.195   9.493  66.664  1.00  0.00    -0.044 C  
HETATM    4  C   UNL     1      -6.001  10.603  65.989  1.00  0.00    -0.128 C  
HETATM    5  N   UNL     1      -7.115  11.118  66.832  1.00  0.00    -0.123 N  
HETATM    6  C   UNL     1      -7.988  10.076  67.416  1.00  0.00    -0.106 C  
HETATM    7  C   UNL     1      -6.994  12.424  67.323  1.00  0.00    -0.129 C  
HETATM    8  O   UNL     1      -5.964  13.059  67.055  1.00  0.00    -0.267 OA 
HETATM    9  O   UNL     1      -8.880   9.775  65.195  1.00  0.00    -0.156 OA 
HETATM   10  C   UNL     1      -7.144   9.033  68.158  1.00  0.00    -0.078 C  
HETATM   11  C   UNL     1      -8.941   9.352  66.459  1.00  0.00    -0.148 C  
HETATM   12  O   UNL     1      -9.697   8.457  66.801  1.00  0.00    -0.198 OA 
ENDROOT
BRANCH   7  13
HETATM   13  C   UNL     1      -8.125  13.195  68.093  1.00  0.00    -0.155 C  
BRANCH  13  14
HETATM   14  C   UNL     1      -7.738  14.245  69.168  1.00  0.00    -0.011 C  
BRANCH  14  15
HETATM   15  C   UNL     1      -6.775  15.323  68.631  1.00  0.00    -0.101 C  
BRANCH  15  16
HETATM   16  C   UNL     1      -7.326  16.755  68.725  1.00  0.00    -0.227 C  
BRANCH  16  17
HETATM   17  N   UNL     1      -8.767  16.703  68.565  1.00  0.00    -0.232 NA 
HETATM   18  H2  UNL     1     -11.152  16.435  68.085  1.00  0.00     0.000 HD 
HETATM   19  H1  UNL     1     -11.483  18.204  68.229  1.00  0.00     0.000 HD 
HETATM   20  N   UNL     1      -9.325  19.003  68.740  1.00  0.00    -0.364 NA 
HETATM   21  N   UNL     1     -10.858  17.397  68.253  1.00  0.00    -0.322 NA 
HETATM   22  C   UNL     1      -9.594  17.770  68.534  1.00  0.00    -0.322 C  
HETATM   23  H   UNL     1      -9.192  15.781  68.468  1.00  0.00     0.000 HD 
HETATM   24  H1  UNL     1      -9.949  19.809  68.716  1.00  0.00     0.000 HD 
HETATM   25  H2  UNL     1      -8.350  19.209  68.957  1.00  0.00     0.000 HD 
ENDBRANCH  16  17
ENDBRANCH  15  16
ENDBRANCH  14  15
ENDBRANCH  13  14
BRANCH  13  26
HETATM   26  N   UNL     1      -9.158  12.294  68.674  1.00  0.00    -0.383 N  
HETATM   27  H   UNL     1      -8.893  11.542  69.311  1.00  0.00     0.000 HD 
BRANCH  26  28
HETATM   28  S   UNL     1     -10.794  12.542  68.255  1.00  0.00    -0.246 S  
HETATM   29  O   UNL     1     -11.125  11.637  67.185  1.00  0.00    -0.265 OA 
HETATM   30  O   UNL     1     -10.923  13.973  68.068  1.00  0.00    -0.242 OA 
BRANCH  28  31
HETATM   31  C   UNL     1     -11.645  12.077  69.740  1.00  0.00    -0.276 A  
HETATM   32  C   UNL     1     -12.394   9.078  71.988  1.00  0.00    -0.455 C  
HETATM   33  C   UNL     1     -12.394  13.074  70.385  1.00  0.00    -0.351 A  
HETATM   34  C   UNL     1     -11.837   6.649  71.616  1.00  0.00    -0.383 C  
HETATM   35  C   UNL     1     -13.098  12.780  71.548  1.00  0.00    -0.380 A  
HETATM   36  C   UNL     1     -11.985   8.019  70.960  1.00  0.00    -0.260 C  
HETATM   37  C   UNL     1     -10.690   8.476  70.302  1.00  0.00    -0.230 C  
HETATM   38  H   UNL     1     -10.534   9.868  68.644  1.00  0.00     0.000 HD 
HETATM   39  N   UNL     1     -10.890   9.736  69.591  1.00  0.00    -0.240 NA 
HETATM   40  C   UNL     1     -13.055  11.492  72.070  1.00  0.00    -0.430 A  
HETATM   41  C   UNL     1     -11.587  10.763  70.249  1.00  0.00    -0.338 A  
HETATM   42  C   UNL     1     -12.319  10.481  71.427  1.00  0.00    -0.477 A  
ENDBRANCH  28  31
ENDBRANCH  26  28
ENDBRANCH  13  26
ENDBRANCH   7  13
TORSDOF 8
ENDMDL
MODEL      226
REMARK 921   NORMALIZED FREE ENERGY PREDICTED BY IDOCK:   -5.10 KCAL/MOL
REMARK 922        TOTAL FREE ENERGY PREDICTED BY IDOCK:   -8.74 KCAL/MOL
REMARK 923 INTER-LIGAND FREE ENERGY PREDICTED BY IDOCK:   -6.69 KCAL/MOL
REMARK 924 INTRA-LIGAND FREE ENERGY PREDICTED BY IDOCK:   -2.05 KCAL/MOL
REMARK 927      BINDING AFFINITY PREDICTED BY RF-SCORE:    0.00 PKD
ROOT
HETATM    1  C   UNL     1     -10.564  18.572  67.852  1.00  0.00    -0.385 C  
HETATM    2  C   UNL     1      -9.694  17.396  67.432  1.00  0.00    -0.269 C  
HETATM    3  C   UNL     1     -10.201  16.745  66.140  1.00  0.00    -0.363 C  
HETATM    4  C   UNL     1      -9.344  15.538  65.755  1.00  0.00    -0.257 C  
HETATM    5  N   UNL     1      -9.143  14.577  66.875  1.00  0.00    -0.244 N  
HETATM    6  C   UNL     1      -8.701  15.187  68.148  1.00  0.00    -0.167 C  
HETATM    7  C   UNL     1      -9.763  13.326  66.762  1.00  0.00    -0.258 C  
HETATM    8  O   UNL     1     -10.460  13.105  65.762  1.00  0.00    -0.273 OA 
HETATM    9  O   UNL     1      -6.550  15.487  67.097  1.00  0.00    -0.283 OA 
HETATM   10  C   UNL     1      -9.640  16.333  68.540  1.00  0.00    -0.222 C  
HETATM   11  C   UNL     1      -7.255  15.687  68.213  1.00  0.00    -0.116 C  
HETATM   12  O   UNL     1      -6.767  16.231  69.191  1.00  0.00    -0.169 OA 
ENDROOT
BRANCH   7  13
HETATM   13  C   UNL     1      -9.544  12.130  67.756  1.00  0.00    -0.195 C  
BRANCH  13  14
HETATM   14  C   UNL     1      -8.240  11.294  67.669  1.00  0.00    -0.120 C  
BRANCH  14  15
HETATM   15  C   UNL     1      -7.655  10.952  69.054  1.00  0.00    -0.135 C  
BRANCH  15  16
HETATM   16  C   UNL     1      -7.042   9.546  69.144  1.00  0.00    -0.062 C  
BRANCH  16  17
HETATM   17  N   UNL     1      -7.219   8.886  67.863  1.00  0.00    -0.083 NA 
HETATM   18  H2  UNL     1      -7.781   7.720  65.786  1.00  0.00     0.000 HD 
HETATM   19  H1  UNL     1      -6.221   6.811  65.756  1.00  0.00     0.000 HD 
HETATM   20  N   UNL     1      -5.202   7.645  67.710  1.00  0.00    -0.029 NA 
HETATM   21  N   UNL     1      -6.869   7.479  66.175  1.00  0.00    -0.059 NA 
HETATM   22  C   UNL     1      -6.362   8.002  67.309  1.00  0.00    -0.056 C  
HETATM   23  H   UNL     1      -8.064   9.109  67.337  1.00  0.00     0.000 HD 
HETATM   24  H1  UNL     1      -4.554   6.977  67.291  1.00  0.00     0.000 HD 
HETATM   25  H2  UNL     1      -4.879   8.090  68.569  1.00  0.00     0.000 HD 
ENDBRANCH  16  17
ENDBRANCH  15  16
ENDBRANCH  14  15
ENDBRANCH  13  14
BRANCH  13  26
HETATM   26  N   UNL     1     -10.697  11.189  67.804  1.00  0.00    -0.207 N  
HETATM   27  H   UNL     1     -10.997  10.690  66.966  1.00  0.00     0.000 HD 
BRANCH  26  28
HETATM   28  S   UNL     1     -11.509  10.961  69.289  1.00  0.00    -0.329 S  
HETATM   29  O   UNL     1     -12.908  10.770  69.010  1.00  0.00    -0.044 OA 
HETATM   30  O   UNL     1     -11.073  12.057  70.129  1.00  0.00     0.138 OA 
BRANCH  28  31
HETATM   31  C   UNL     1     -10.790   9.455  69.891  1.00  0.00    -0.236 A  
HETATM   32  C   UNL     1      -9.638   5.988  68.766  1.00  0.00    -0.148 C  
HETATM   33  C   UNL     1     -10.563   9.364  71.273  1.00  0.00    -0.400 A  
HETATM   34  C   UNL     1      -9.887   4.899  66.507  1.00  0.00    -0.225 C  
HETATM   35  C   UNL     1     -10.014   8.208  71.819  1.00  0.00    -0.264 A  
HETATM   36  C   UNL     1     -10.374   6.018  67.422  1.00  0.00    -0.268 C  
HETATM   37  C   UNL     1     -10.164   7.392  66.801  1.00  0.00    -0.242 C  
HETATM   38  H   UNL     1     -11.314   9.176  67.252  1.00  0.00     0.000 HD 
HETATM   39  N   UNL     1     -10.736   8.435  67.648  1.00  0.00    -0.181 NA 
HETATM   40  C   UNL     1      -9.688   7.143  70.987  1.00  0.00    -0.165 A  
HETATM   41  C   UNL     1     -10.468   8.388  69.026  1.00  0.00    -0.201 A  
HETATM   42  C   UNL     1      -9.920   7.217  69.602  1.00  0.00    -0.176 A  
ENDBRANCH  28  31
ENDBRANCH  26  28
ENDBRANCH  13  26
ENDBRANCH   7  13
TORSDOF 8
ENDMDL
MODEL      227
REMARK 921   NORMALIZED FREE ENERGY PREDICTED BY IDOCK:   -5.10 KCAL/MOL
REMARK 922        TOTAL FREE ENERGY PREDICTED BY IDOCK:   -8.73 KCAL/MOL
REMARK 923 INTER-LIGAND FREE ENERGY PREDICTED BY IDOCK:   -7.97 KCAL/MOL
REMARK 924 INTRA-LIGAND FREE ENERGY PREDICTED BY IDOCK:   -0.76 KCAL/MOL
REMARK 927      BINDING AFFINITY PREDICTED BY RF-SCORE:    0.00 PKD
ROOT
HETATM    1  C   UNL     1     -10.730  17.263  68.031  1.00  0.00    -0.367 C  
HETATM    2  C   UNL     1     -10.229  15.908  67.551  1.00  0.00    -0.269 C  
HETATM    3  C   UNL     1     -10.949  15.453  66.277  1.00  0.00    -0.278 C  
HETATM    4  C   UNL     1     -10.468  14.072  65.832  1.00  0.00    -0.309 C  
HETATM    5  N   UNL     1     -10.484  13.062  66.926  1.00  0.00    -0.253 N  
HETATM    6  C   UNL     1      -9.838  13.495  68.185  1.00  0.00    -0.237 C  
HETATM    7  C   UNL     1     -11.423  12.027  66.826  1.00  0.00    -0.345 C  
HETATM    8  O   UNL     1     -12.198  12.029  65.859  1.00  0.00    -0.531 OA 
HETATM    9  O   UNL     1      -7.735  13.235  67.032  1.00  0.00    -0.059 OA 
HETATM   10  C   UNL     1     -10.415  14.841  68.639  1.00  0.00    -0.250 C  
HETATM   11  C   UNL     1      -8.309  13.586  68.184  1.00  0.00    -0.167 C  
HETATM   12  O   UNL     1      -7.650  13.952  69.144  1.00  0.00    -0.062 OA 
ENDROOT
BRANCH   7  13
HETATM   13  C   UNL     1     -11.491  10.789  67.791  1.00  0.00    -0.202 C  
BRANCH  13  14
HETATM   14  C   UNL     1     -11.026  10.942  69.263  1.00  0.00    -0.295 C  
BRANCH  14  15
HETATM   15  C   UNL     1     -11.138   9.630  70.065  1.00  0.00    -0.293 C  
BRANCH  15  16
HETATM   16  C   UNL     1     -11.623   9.821  71.510  1.00  0.00    -0.353 C  
BRANCH  16  17
HETATM   17  N   UNL     1     -11.497   8.555  72.208  1.00  0.00    -0.374 NA 
HETATM   18  H2  UNL     1     -11.529   6.481  73.508  1.00  0.00     0.000 HD 
HETATM   19  H1  UNL     1      -9.783   6.611  73.947  1.00  0.00     0.000 HD 
HETATM   20  N   UNL     1      -9.211   8.612  72.841  1.00  0.00    -0.278 NA 
HETATM   21  N   UNL     1     -10.624   6.951  73.481  1.00  0.00    -0.337 NA 
HETATM   22  C   UNL     1     -10.384   8.104  72.825  1.00  0.00    -0.313 C  
HETATM   23  H   UNL     1     -12.321   7.953  72.235  1.00  0.00     0.000 HD 
HETATM   24  H1  UNL     1      -8.370   8.272  73.308  1.00  0.00     0.000 HD 
HETATM   25  H2  UNL     1      -9.101   9.479  72.315  1.00  0.00     0.000 HD 
ENDBRANCH  16  17
ENDBRANCH  15  16
ENDBRANCH  14  15
ENDBRANCH  13  14
BRANCH  13  26
HETATM   26  N   UNL     1     -10.852   9.569  67.225  1.00  0.00    -0.323 N  
HETATM   27  H   UNL     1     -11.363   8.688  67.180  1.00  0.00     0.000 HD 
BRANCH  26  28
HETATM   28  S   UNL     1      -9.246   9.674  66.654  1.00  0.00    -0.157 S  
HETATM   29  O   UNL     1      -8.407  10.086  67.749  1.00  0.00    -0.114 OA 
HETATM   30  O   UNL     1      -9.326  10.477  65.451  1.00  0.00    -0.184 OA 
BRANCH  28  31
HETATM   31  C   UNL     1      -8.890   7.995  66.202  1.00  0.00    -0.166 A  
HETATM   32  C   UNL     1      -9.096   4.404  67.493  1.00  0.00    -0.146 C  
HETATM   33  C   UNL     1      -8.254   7.788  64.968  1.00  0.00    -0.123 A  
HETATM   34  C   UNL     1      -9.769   3.585  69.779  1.00  0.00    -0.114 C  
HETATM   35  C   UNL     1      -7.932   6.500  64.553  1.00  0.00    -0.110 A  
HETATM   36  C   UNL     1      -9.309   4.788  68.961  1.00  0.00    -0.193 C  
HETATM   37  C   UNL     1     -10.318   5.927  69.009  1.00  0.00    -0.233 C  
HETATM   38  H   UNL     1      -9.869   8.031  68.723  1.00  0.00     0.000 HD 
HETATM   39  N   UNL     1      -9.804   7.101  68.308  1.00  0.00    -0.148 NA 
HETATM   40  C   UNL     1      -8.246   5.418  65.367  1.00  0.00    -0.130 A  
HETATM   41  C   UNL     1      -9.218   6.914  67.046  1.00  0.00    -0.142 A  
HETATM   42  C   UNL     1      -8.873   5.613  66.611  1.00  0.00    -0.119 A  
ENDBRANCH  28  31
ENDBRANCH  26  28
ENDBRANCH  13  26
ENDBRANCH   7  13
TORSDOF 8
ENDMDL
MODEL      228
REMARK 921   NORMALIZED FREE ENERGY PREDICTED BY IDOCK:   -5.09 KCAL/MOL
REMARK 922        TOTAL FREE ENERGY PREDICTED BY IDOCK:   -8.72 KCAL/MOL
REMARK 923 INTER-LIGAND FREE ENERGY PREDICTED BY IDOCK:   -6.61 KCAL/MOL
REMARK 924 INTRA-LIGAND FREE ENERGY PREDICTED BY IDOCK:   -2.11 KCAL/MOL
REMARK 927      BINDING AFFINITY PREDICTED BY RF-SCORE:    0.00 PKD
ROOT
HETATM    1  C   UNL     1      -9.666   3.615  63.897  1.00  0.00    -0.161 C  
HETATM    2  C   UNL     1      -8.908   3.871  65.191  1.00  0.00    -0.126 C  
HETATM    3  C   UNL     1      -9.813   3.731  66.420  1.00  0.00    -0.072 C  
HETATM    4  C   UNL     1      -9.049   4.035  67.708  1.00  0.00    -0.145 C  
HETATM    5  N   UNL     1      -8.296   5.318  67.659  1.00  0.00    -0.106 N  
HETATM    6  C   UNL     1      -7.451   5.500  66.458  1.00  0.00    -0.087 C  
HETATM    7  C   UNL     1      -8.753   6.359  68.478  1.00  0.00    -0.121 C  
HETATM    8  O   UNL     1      -9.764   6.164  69.166  1.00  0.00    -0.136 OA 
HETATM    9  O   UNL     1      -5.967   3.861  67.426  1.00  0.00    -0.023 OA 
HETATM   10  C   UNL     1      -8.281   5.273  65.189  1.00  0.00    -0.135 C  
HETATM   11  C   UNL     1      -6.175   4.656  66.374  1.00  0.00    -0.032 C  
HETATM   12  O   UNL     1      -5.401   4.688  65.430  1.00  0.00    -0.012 OA 
ENDROOT
BRANCH   7  13
HETATM   13  C   UNL     1      -8.006   7.726  68.681  1.00  0.00    -0.122 C  
BRANCH  13  14
HETATM   14  C   UNL     1      -7.998   8.390  70.084  1.00  0.00    -0.102 C  
BRANCH  14  15
HETATM   15  C   UNL     1      -8.664   9.781  70.091  1.00  0.00    -0.215 C  
BRANCH  15  16
HETATM   16  C   UNL     1     -10.131   9.768  70.547  1.00  0.00    -0.224 C  
BRANCH  16  17
HETATM   17  N   UNL     1     -10.853  10.780  69.798  1.00  0.00    -0.374 NA 
HETATM   18  H2  UNL     1     -12.214  12.536  68.771  1.00  0.00     0.000 HD 
HETATM   19  H1  UNL     1     -12.478  11.586  67.259  1.00  0.00     0.000 HD 
HETATM   20  N   UNL     1     -11.259   9.632  67.762  1.00  0.00    -0.471 NA 
HETATM   21  N   UNL     1     -12.085  11.705  68.193  1.00  0.00    -0.558 NA 
HETATM   22  C   UNL     1     -11.373  10.623  68.562  1.00  0.00    -0.284 C  
HETATM   23  H   UNL     1     -10.978  11.690  70.244  1.00  0.00     0.000 HD 
HETATM   24  H1  UNL     1     -11.653   9.513  66.828  1.00  0.00     0.000 HD 
HETATM   25  H2  UNL     1     -10.698   8.853  68.104  1.00  0.00     0.000 HD 
ENDBRANCH  16  17
ENDBRANCH  15  16
ENDBRANCH  14  15
ENDBRANCH  13  14
BRANCH  13  26
HETATM   26  N   UNL     1      -8.391   8.759  67.680  1.00  0.00    -0.114 N  
HETATM   27  H   UNL     1      -9.372   8.924  67.454  1.00  0.00     0.000 HD 
BRANCH  26  28
HETATM   28  S   UNL     1      -7.160   9.663  66.919  1.00  0.00    -0.086 S  
HETATM   29  O   UNL     1      -7.001   9.164  65.578  1.00  0.00    -0.079 OA 
HETATM   30  O   UNL     1      -6.046   9.638  67.845  1.00  0.00    -0.051 OA 
BRANCH  28  31
HETATM   31  C   UNL     1      -7.847  11.299  66.890  1.00  0.00    -0.156 A  
HETATM   32  C   UNL     1     -10.568  13.411  65.234  1.00  0.00    -0.333 C  
HETATM   33  C   UNL     1      -7.214  12.270  67.682  1.00  0.00    -0.128 A  
HETATM   34  C   UNL     1     -12.123  12.787  63.352  1.00  0.00    -0.619 C  
HETATM   35  C   UNL     1      -7.689  13.577  67.700  1.00  0.00    -0.180 A  
HETATM   36  C   UNL     1     -10.831  12.434  64.083  1.00  0.00    -0.414 C  
HETATM   37  C   UNL     1     -10.871  11.026  64.660  1.00  0.00    -0.178 C  
HETATM   38  H   UNL     1      -9.146   9.775  65.071  1.00  0.00     0.000 HD 
HETATM   39  N   UNL     1      -9.585  10.677  65.259  1.00  0.00    -0.221 NA 
HETATM   40  C   UNL     1      -8.796  13.917  66.930  1.00  0.00    -0.210 A  
HETATM   41  C   UNL     1      -8.971  11.618  66.100  1.00  0.00    -0.178 A  
HETATM   42  C   UNL     1      -9.432  12.955  66.124  1.00  0.00    -0.161 A  
ENDBRANCH  28  31
ENDBRANCH  26  28
ENDBRANCH  13  26
ENDBRANCH   7  13
TORSDOF 8
ENDMDL
MODEL      229
REMARK 921   NORMALIZED FREE ENERGY PREDICTED BY IDOCK:   -5.09 KCAL/MOL
REMARK 922        TOTAL FREE ENERGY PREDICTED BY IDOCK:   -8.72 KCAL/MOL
REMARK 923 INTER-LIGAND FREE ENERGY PREDICTED BY IDOCK:   -8.01 KCAL/MOL
REMARK 924 INTRA-LIGAND FREE ENERGY PREDICTED BY IDOCK:   -0.70 KCAL/MOL
REMARK 927      BINDING AFFINITY PREDICTED BY RF-SCORE:    0.00 PKD
ROOT
HETATM    1  C   UNL     1     -11.478  15.826  69.545  1.00  0.00    -0.356 C  
HETATM    2  C   UNL     1     -11.564  14.434  68.937  1.00  0.00    -0.340 C  
HETATM    3  C   UNL     1     -12.112  13.409  69.935  1.00  0.00    -0.389 C  
HETATM    4  C   UNL     1     -12.150  12.008  69.324  1.00  0.00    -0.190 C  
HETATM    5  N   UNL     1     -10.863  11.604  68.693  1.00  0.00    -0.202 N  
HETATM    6  C   UNL     1     -10.287  12.599  67.761  1.00  0.00    -0.220 C  
HETATM    7  C   UNL     1     -10.137  10.582  69.318  1.00  0.00    -0.224 C  
HETATM    8  O   UNL     1     -10.588  10.099  70.366  1.00  0.00    -0.290 OA 
HETATM    9  O   UNL     1     -12.040  11.971  66.227  1.00  0.00    -0.596 OA 
HETATM   10  C   UNL     1     -10.185  13.967  68.445  1.00  0.00    -0.239 C  
HETATM   11  C   UNL     1     -10.988  12.771  66.410  1.00  0.00    -0.276 C  
HETATM   12  O   UNL     1     -10.634  13.571  65.559  1.00  0.00    -0.281 OA 
ENDROOT
BRANCH   7  13
HETATM   13  C   UNL     1      -8.846   9.915  68.724  1.00  0.00    -0.136 C  
BRANCH  13  14
HETATM   14  C   UNL     1      -8.935   9.139  67.384  1.00  0.00    -0.128 C  
BRANCH  14  15
HETATM   15  C   UNL     1      -8.117   9.799  66.255  1.00  0.00    -0.113 C  
BRANCH  15  16
HETATM   16  C   UNL     1      -8.081   8.986  64.952  1.00  0.00    -0.137 C  
BRANCH  16  17
HETATM   17  N   UNL     1      -8.198   9.904  63.834  1.00  0.00    -0.145 NA 
HETATM   18  H2  UNL     1      -8.155  11.567  62.039  1.00  0.00     0.000 HD 
HETATM   19  H1  UNL     1      -9.913  11.941  62.206  1.00  0.00     0.000 HD 
HETATM   20  N   UNL     1     -10.499  10.471  63.953  1.00  0.00    -0.405 NA 
HETATM   21  N   UNL     1      -9.068  11.435  62.474  1.00  0.00    -0.293 NA 
HETATM   22  C   UNL     1      -9.316  10.573  63.479  1.00  0.00    -0.293 C  
HETATM   23  H   UNL     1      -7.363  10.058  63.268  1.00  0.00     0.000 HD 
HETATM   24  H1  UNL     1     -11.344  10.977  63.685  1.00  0.00     0.000 HD 
HETATM   25  H2  UNL     1     -10.615   9.791  64.704  1.00  0.00     0.000 HD 
ENDBRANCH  16  17
ENDBRANCH  15  16
ENDBRANCH  14  15
ENDBRANCH  13  14
BRANCH  13  26
HETATM   26  N   UNL     1      -8.120   9.064  69.708  1.00  0.00    -0.102 N  
HETATM   27  H   UNL     1      -7.404   9.464  70.313  1.00  0.00     0.000 HD 
BRANCH  26  28
HETATM   28  S   UNL     1      -8.512   7.405  69.803  1.00  0.00    -0.136 S  
HETATM   29  O   UNL     1      -7.376   6.649  69.340  1.00  0.00    -0.087 OA 
HETATM   30  O   UNL     1      -9.793   7.280  69.138  1.00  0.00    -0.162 OA 
BRANCH  28  31
HETATM   31  C   UNL     1      -8.742   7.164  71.545  1.00  0.00    -0.119 A  
HETATM   32  C   UNL     1      -9.929   4.598  74.117  1.00  0.00    -0.209 C  
HETATM   33  C   UNL     1      -8.476   8.260  72.381  1.00  0.00    -0.252 A  
HETATM   34  C   UNL     1     -10.983   2.343  73.725  1.00  0.00    -0.290 C  
HETATM   35  C   UNL     1      -8.647   8.150  73.757  1.00  0.00    -0.307 A  
HETATM   36  C   UNL     1     -10.639   3.694  73.104  1.00  0.00    -0.269 C  
HETATM   37  C   UNL     1      -9.735   3.546  71.888  1.00  0.00    -0.164 C  
HETATM   38  H   UNL     1      -9.588   4.951  70.240  1.00  0.00     0.000 HD 
HETATM   39  N   UNL     1      -9.510   4.842  71.252  1.00  0.00    -0.148 NA 
HETATM   40  C   UNL     1      -9.081   6.947  74.301  1.00  0.00    -0.238 A  
HETATM   41  C   UNL     1      -9.185   5.933  72.073  1.00  0.00    -0.147 A  
HETATM   42  C   UNL     1      -9.363   5.845  73.474  1.00  0.00    -0.134 A  
ENDBRANCH  28  31
ENDBRANCH  26  28
ENDBRANCH  13  26
ENDBRANCH   7  13
TORSDOF 8
ENDMDL
MODEL      230
REMARK 921   NORMALIZED FREE ENERGY PREDICTED BY IDOCK:   -5.08 KCAL/MOL
REMARK 922        TOTAL FREE ENERGY PREDICTED BY IDOCK:   -8.71 KCAL/MOL
REMARK 923 INTER-LIGAND FREE ENERGY PREDICTED BY IDOCK:   -8.85 KCAL/MOL
REMARK 924 INTRA-LIGAND FREE ENERGY PREDICTED BY IDOCK:    0.14 KCAL/MOL
REMARK 927      BINDING AFFINITY PREDICTED BY RF-SCORE:    0.00 PKD
ROOT
HETATM    1  C   UNL     1     -10.388  18.591  66.434  1.00  0.00    -0.456 C  
HETATM    2  C   UNL     1     -10.073  17.454  67.396  1.00  0.00    -0.321 C  
HETATM    3  C   UNL     1      -8.564  17.225  67.531  1.00  0.00    -0.213 C  
HETATM    4  C   UNL     1      -8.263  16.052  68.464  1.00  0.00    -0.181 C  
HETATM    5  N   UNL     1      -9.032  14.821  68.130  1.00  0.00    -0.173 N  
HETATM    6  C   UNL     1     -10.486  15.024  67.945  1.00  0.00    -0.247 C  
HETATM    7  C   UNL     1      -8.307  13.733  67.625  1.00  0.00    -0.182 C  
HETATM    8  O   UNL     1      -7.087  13.867  67.459  1.00  0.00    -0.175 OA 
HETATM    9  O   UNL     1     -10.611  15.291  70.340  1.00  0.00    -0.276 OA 
HETATM   10  C   UNL     1     -10.738  16.149  66.935  1.00  0.00    -0.247 C  
HETATM   11  C   UNL     1     -11.313  15.294  69.206  1.00  0.00    -0.298 C  
HETATM   12  O   UNL     1     -12.516  15.503  69.196  1.00  0.00    -0.127 OA 
ENDROOT
BRANCH   7  13
HETATM   13  C   UNL     1      -8.909  12.306  67.363  1.00  0.00    -0.185 C  
BRANCH  13  14
HETATM   14  C   UNL     1      -9.625  12.015  66.017  1.00  0.00    -0.247 C  
BRANCH  14  15
HETATM   15  C   UNL     1      -8.943  10.894  65.207  1.00  0.00    -0.202 C  
BRANCH  15  16
HETATM   16  C   UNL     1      -7.525  10.551  65.687  1.00  0.00    -0.129 C  
BRANCH  16  17
HETATM   17  N   UNL     1      -7.625   9.567  66.749  1.00  0.00    -0.097 NA 
HETATM   18  H2  UNL     1      -8.058   7.997  68.576  1.00  0.00     0.000 HD 
HETATM   19  H1  UNL     1      -6.461   8.309  69.357  1.00  0.00     0.000 HD 
HETATM   20  N   UNL     1      -5.553   9.886  67.859  1.00  0.00    -0.039 NA 
HETATM   21  N   UNL     1      -7.152   8.463  68.622  1.00  0.00    -0.070 NA 
HETATM   22  C   UNL     1      -6.711   9.363  67.721  1.00  0.00    -0.067 C  
HETATM   23  H   UNL     1      -8.459   8.979  66.762  1.00  0.00     0.000 HD 
HETATM   24  H1  UNL     1      -4.861   9.731  68.594  1.00  0.00     0.000 HD 
HETATM   25  H2  UNL     1      -5.281  10.550  67.135  1.00  0.00     0.000 HD 
ENDBRANCH  16  17
ENDBRANCH  15  16
ENDBRANCH  14  15
ENDBRANCH  13  14
BRANCH  13  26
HETATM   26  N   UNL     1      -9.784  11.827  68.469  1.00  0.00    -0.262 N  
HETATM   27  H   UNL     1      -9.644  12.158  69.423  1.00  0.00     0.000 HD 
BRANCH  26  28
HETATM   28  S   UNL     1     -11.026  10.712  68.108  1.00  0.00    -0.289 S  
HETATM   29  O   UNL     1     -10.430   9.569  67.468  1.00  0.00    -0.241 OA 
HETATM   30  O   UNL     1     -12.041  11.487  67.424  1.00  0.00    -0.593 OA 
BRANCH  28  31
HETATM   31  C   UNL     1     -11.626  10.273  69.719  1.00  0.00    -0.227 A  
HETATM   32  C   UNL     1     -11.541   7.476  72.323  1.00  0.00    -0.354 C  
HETATM   33  C   UNL     1     -12.500  11.177  70.343  1.00  0.00    -0.382 A  
HETATM   34  C   UNL     1     -10.537   5.173  72.132  1.00  0.00    -0.273 C  
HETATM   35  C   UNL     1     -13.021  10.895  71.601  1.00  0.00    -0.569 A  
HETATM   36  C   UNL     1     -11.020   6.401  71.365  1.00  0.00    -0.316 C  
HETATM   37  C   UNL     1      -9.911   7.016  70.522  1.00  0.00    -0.179 C  
HETATM   38  H   UNL     1     -10.193   8.204  68.728  1.00  0.00     0.000 HD 
HETATM   39  N   UNL     1     -10.427   8.121  69.718  1.00  0.00    -0.224 NA 
HETATM   40  C   UNL     1     -12.670   9.711  72.239  1.00  0.00    -0.362 A  
HETATM   41  C   UNL     1     -11.255   9.065  70.345  1.00  0.00    -0.241 A  
HETATM   42  C   UNL     1     -11.804   8.790  71.620  1.00  0.00    -0.399 A  
ENDBRANCH  28  31
ENDBRANCH  26  28
ENDBRANCH  13  26
ENDBRANCH   7  13
TORSDOF 8
ENDMDL
MODEL      231
REMARK 921   NORMALIZED FREE ENERGY PREDICTED BY IDOCK:   -5.08 KCAL/MOL
REMARK 922        TOTAL FREE ENERGY PREDICTED BY IDOCK:   -8.70 KCAL/MOL
REMARK 923 INTER-LIGAND FREE ENERGY PREDICTED BY IDOCK:   -7.75 KCAL/MOL
REMARK 924 INTRA-LIGAND FREE ENERGY PREDICTED BY IDOCK:   -0.96 KCAL/MOL
REMARK 927      BINDING AFFINITY PREDICTED BY RF-SCORE:    0.00 PKD
ROOT
HETATM    1  C   UNL     1      -9.450   3.783  64.326  1.00  0.00    -0.158 C  
HETATM    2  C   UNL     1      -9.341   4.409  65.709  1.00  0.00    -0.162 C  
HETATM    3  C   UNL     1     -10.656   5.064  66.144  1.00  0.00    -0.321 C  
HETATM    4  C   UNL     1     -10.518   5.727  67.514  1.00  0.00    -0.245 C  
HETATM    5  N   UNL     1      -9.335   6.626  67.618  1.00  0.00    -0.119 N  
HETATM    6  C   UNL     1      -8.060   6.033  67.158  1.00  0.00    -0.106 C  
HETATM    7  C   UNL     1      -9.584   8.000  67.724  1.00  0.00    -0.151 C  
HETATM    8  O   UNL     1     -10.761   8.387  67.695  1.00  0.00    -0.218 OA 
HETATM    9  O   UNL     1      -8.107   4.712  69.177  1.00  0.00    -0.073 OA 
HETATM   10  C   UNL     1      -8.222   5.461  65.746  1.00  0.00    -0.121 C  
HETATM   11  C   UNL     1      -7.427   4.966  68.057  1.00  0.00    -0.075 C  
HETATM   12  O   UNL     1      -6.391   4.379  67.788  1.00  0.00    -0.035 OA 
ENDROOT
BRANCH   7  13
HETATM   13  C   UNL     1      -8.484   9.087  67.998  1.00  0.00    -0.125 C  
BRANCH  13  14
HETATM   14  C   UNL     1      -8.164   9.497  69.460  1.00  0.00    -0.134 C  
BRANCH  14  15
HETATM   15  C   UNL     1      -8.537   8.405  70.483  1.00  0.00    -0.137 C  
BRANCH  15  16
HETATM   16  C   UNL     1      -9.316   8.928  71.699  1.00  0.00    -0.258 C  
BRANCH  16  17
HETATM   17  N   UNL     1     -10.584   8.225  71.770  1.00  0.00    -0.240 NA 
HETATM   18  H2  UNL     1     -12.573   6.802  71.862  1.00  0.00     0.000 HD 
HETATM   19  H1  UNL     1     -13.516   7.876  70.759  1.00  0.00     0.000 HD 
HETATM   20  N   UNL     1     -11.924   9.562  70.339  1.00  0.00    -0.457 NA 
HETATM   21  N   UNL     1     -12.671   7.632  71.276  1.00  0.00    -0.305 NA 
HETATM   22  C   UNL     1     -11.702   8.548  71.085  1.00  0.00    -0.281 C  
HETATM   23  H   UNL     1     -10.635   7.417  72.390  1.00  0.00     0.000 HD 
HETATM   24  H1  UNL     1     -12.769   9.807  69.821  1.00  0.00     0.000 HD 
HETATM   25  H2  UNL     1     -11.149  10.219  70.249  1.00  0.00     0.000 HD 
ENDBRANCH  16  17
ENDBRANCH  15  16
ENDBRANCH  14  15
ENDBRANCH  13  14
BRANCH  13  26
HETATM   26  N   UNL     1      -8.673  10.328  67.197  1.00  0.00    -0.129 N  
HETATM   27  H   UNL     1      -8.552  10.317  66.185  1.00  0.00     0.000 HD 
BRANCH  26  28
HETATM   28  S   UNL     1      -9.097  11.770  68.007  1.00  0.00    -0.185 S  
HETATM   29  O   UNL     1      -7.893  12.360  68.531  1.00  0.00    -0.137 OA 
HETATM   30  O   UNL     1     -10.178  11.400  68.897  1.00  0.00    -0.207 OA 
BRANCH  28  31
HETATM   31  C   UNL     1      -9.750  12.768  66.694  1.00  0.00    -0.252 A  
HETATM   32  C   UNL     1     -10.460  16.393  65.712  1.00  0.00    -0.369 C  
HETATM   33  C   UNL     1     -10.275  12.094  65.580  1.00  0.00    -0.294 A  
HETATM   34  C   UNL     1     -10.236  18.479  67.107  1.00  0.00    -0.408 C  
HETATM   35  C   UNL     1     -10.816  12.810  64.517  1.00  0.00    -0.373 A  
HETATM   36  C   UNL     1     -10.334  16.956  67.131  1.00  0.00    -0.304 C  
HETATM   37  C   UNL     1      -9.117  16.318  67.786  1.00  0.00    -0.195 C  
HETATM   38  H   UNL     1      -9.072  14.379  68.758  1.00  0.00     0.000 HD 
HETATM   39  N   UNL     1      -9.288  14.871  67.891  1.00  0.00    -0.189 NA 
HETATM   40  C   UNL     1     -10.833  14.199  64.563  1.00  0.00    -0.336 A  
HETATM   41  C   UNL     1      -9.756  14.177  66.764  1.00  0.00    -0.277 A  
HETATM   42  C   UNL     1     -10.321  14.887  65.678  1.00  0.00    -0.370 A  
ENDBRANCH  28  31
ENDBRANCH  26  28
ENDBRANCH  13  26
ENDBRANCH   7  13
TORSDOF 8
ENDMDL
MODEL      232
REMARK 921   NORMALIZED FREE ENERGY PREDICTED BY IDOCK:   -5.08 KCAL/MOL
REMARK 922        TOTAL FREE ENERGY PREDICTED BY IDOCK:   -8.70 KCAL/MOL
REMARK 923 INTER-LIGAND FREE ENERGY PREDICTED BY IDOCK:   -7.70 KCAL/MOL
REMARK 924 INTRA-LIGAND FREE ENERGY PREDICTED BY IDOCK:   -1.00 KCAL/MOL
REMARK 927      BINDING AFFINITY PREDICTED BY RF-SCORE:    0.00 PKD
ROOT
HETATM    1  C   UNL     1      -9.621   7.815  69.847  1.00  0.00    -0.164 C  
HETATM    2  C   UNL     1      -9.929   9.044  69.003  1.00  0.00    -0.191 C  
HETATM    3  C   UNL     1      -8.884   9.255  67.901  1.00  0.00    -0.124 C  
HETATM    4  C   UNL     1      -9.181  10.517  67.092  1.00  0.00    -0.143 C  
HETATM    5  N   UNL     1      -9.413  11.720  67.939  1.00  0.00    -0.184 N  
HETATM    6  C   UNL     1     -10.381  11.529  69.042  1.00  0.00    -0.118 C  
HETATM    7  C   UNL     1      -8.442  12.729  67.895  1.00  0.00    -0.173 C  
HETATM    8  O   UNL     1      -7.443  12.552  67.185  1.00  0.00    -0.143 OA 
HETATM    9  O   UNL     1     -12.099  11.531  67.347  1.00  0.00    -0.593 OA 
HETATM   10  C   UNL     1      -9.993  10.305  69.879  1.00  0.00    -0.183 C  
HETATM   11  C   UNL     1     -11.859  11.418  68.655  1.00  0.00    -0.310 C  
HETATM   12  O   UNL     1     -12.759  11.235  69.460  1.00  0.00    -0.143 OA 
ENDROOT
BRANCH   7  13
HETATM   13  C   UNL     1      -8.582  14.131  68.590  1.00  0.00    -0.126 C  
BRANCH  13  14
HETATM   14  C   UNL     1      -9.929  14.895  68.502  1.00  0.00    -0.223 C  
BRANCH  14  15
HETATM   15  C   UNL     1     -10.633  15.026  69.868  1.00  0.00    -0.207 C  
BRANCH  15  16
HETATM   16  C   UNL     1     -12.148  14.776  69.818  1.00  0.00    -0.319 C  
BRANCH  16  17
HETATM   17  N   UNL     1     -12.696  15.006  71.141  1.00  0.00    -0.332 NA 
HETATM   18  H2  UNL     1     -13.399  15.561  73.419  1.00  0.00     0.000 HD 
HETATM   19  H1  UNL     1     -13.846  13.855  73.804  1.00  0.00     0.000 HD 
HETATM   20  N   UNL     1     -13.329  12.804  71.759  1.00  0.00    -0.406 NA 
HETATM   21  N   UNL     1     -13.492  14.575  73.174  1.00  0.00    -0.581 NA 
HETATM   22  C   UNL     1     -13.164  14.054  71.976  1.00  0.00    -0.412 C  
HETATM   23  H   UNL     1     -12.730  15.972  71.470  1.00  0.00     0.000 HD 
HETATM   24  H1  UNL     1     -13.683  12.084  72.390  1.00  0.00     0.000 HD 
HETATM   25  H2  UNL     1     -13.069  12.482  70.827  1.00  0.00     0.000 HD 
ENDBRANCH  16  17
ENDBRANCH  15  16
ENDBRANCH  14  15
ENDBRANCH  13  14
BRANCH  13  26
HETATM   26  N   UNL     1      -7.487  15.075  68.231  1.00  0.00    -0.102 N  
HETATM   27  H   UNL     1      -6.633  15.116  68.788  1.00  0.00     0.000 HD 
BRANCH  26  28
HETATM   28  S   UNL     1      -7.688  16.086  66.871  1.00  0.00    -0.235 S  
HETATM   29  O   UNL     1      -8.724  15.524  66.043  1.00  0.00    -0.258 OA 
HETATM   30  O   UNL     1      -6.353  16.278  66.342  1.00  0.00    -0.107 OA 
BRANCH  28  31
HETATM   31  C   UNL     1      -8.241  17.606  67.601  1.00  0.00    -0.224 A  
HETATM   32  C   UNL     1      -7.276  20.247  70.190  1.00  0.00     0.453 C  
HETATM   33  C   UNL     1      -9.499  18.085  67.203  1.00  0.00    -0.264 A  
HETATM   34  C   UNL     1      -5.342  20.241  71.805  1.00  0.00    -0.404 C  
HETATM   35  C   UNL     1     -10.003  19.263  67.743  1.00  0.00    -0.460 A  
HETATM   36  C   UNL     1      -6.210  19.391  70.882  1.00  0.00     0.100 C  
HETATM   37  C   UNL     1      -5.387  18.700  69.804  1.00  0.00    -0.205 C  
HETATM   38  H   UNL     1      -5.923  16.863  68.782  1.00  0.00     0.000 HD 
HETATM   39  N   UNL     1      -6.226  17.812  69.004  1.00  0.00    -0.208 NA 
HETATM   40  C   UNL     1      -9.253  19.966  68.679  1.00  0.00    -0.215 A  
HETATM   41  C   UNL     1      -7.461  18.300  68.550  1.00  0.00    -0.288 A  
HETATM   42  C   UNL     1      -7.996  19.491  69.095  1.00  0.00    -0.208 A  
ENDBRANCH  28  31
ENDBRANCH  26  28
ENDBRANCH  13  26
ENDBRANCH   7  13
TORSDOF 8
ENDMDL
MODEL      233
REMARK 921   NORMALIZED FREE ENERGY PREDICTED BY IDOCK:   -5.06 KCAL/MOL
REMARK 922        TOTAL FREE ENERGY PREDICTED BY IDOCK:   -8.68 KCAL/MOL
REMARK 923 INTER-LIGAND FREE ENERGY PREDICTED BY IDOCK:   -7.89 KCAL/MOL
REMARK 924 INTRA-LIGAND FREE ENERGY PREDICTED BY IDOCK:   -0.79 KCAL/MOL
REMARK 927      BINDING AFFINITY PREDICTED BY RF-SCORE:    0.00 PKD
ROOT
HETATM    1  C   UNL     1      -5.199  13.432  67.421  1.00  0.00     0.194 C  
HETATM    2  C   UNL     1      -5.612  12.012  67.781  1.00  0.00    -0.070 C  
HETATM    3  C   UNL     1      -5.737  11.123  66.539  1.00  0.00    -0.132 C  
HETATM    4  C   UNL     1      -6.196   9.714  66.911  1.00  0.00    -0.065 C  
HETATM    5  N   UNL     1      -7.401   9.698  67.787  1.00  0.00    -0.086 N  
HETATM    6  C   UNL     1      -7.326  10.586  68.967  1.00  0.00    -0.103 C  
HETATM    7  C   UNL     1      -8.590   9.212  67.227  1.00  0.00    -0.118 C  
HETATM    8  O   UNL     1      -8.578   8.857  66.041  1.00  0.00    -0.130 OA 
HETATM    9  O   UNL     1      -5.773   8.989  69.895  1.00  0.00    -0.028 OA 
HETATM   10  C   UNL     1      -6.950  12.008  68.536  1.00  0.00    -0.090 C  
HETATM   11  C   UNL     1      -6.396  10.150  70.105  1.00  0.00    -0.107 C  
HETATM   12  O   UNL     1      -6.221  10.799  71.124  1.00  0.00    -0.344 OA 
ENDROOT
BRANCH   7  13
HETATM   13  C   UNL     1      -9.919   8.972  68.029  1.00  0.00    -0.176 C  
BRANCH  13  14
HETATM   14  C   UNL     1     -10.349   7.522  68.377  1.00  0.00    -0.226 C  
BRANCH  14  15
HETATM   15  C   UNL     1      -9.904   7.088  69.789  1.00  0.00    -0.171 C  
BRANCH  15  16
HETATM   16  C   UNL     1     -11.050   6.579  70.676  1.00  0.00    -0.309 C  
BRANCH  16  17
HETATM   17  N   UNL     1     -10.481   6.042  71.898  1.00  0.00    -0.212 NA 
HETATM   18  H2  UNL     1      -9.649   4.896  73.895  1.00  0.00     0.000 HD 
HETATM   19  H1  UNL     1      -9.991   6.306  74.969  1.00  0.00     0.000 HD 
HETATM   20  N   UNL     1     -10.874   7.832  73.405  1.00  0.00    -0.308 NA 
HETATM   21  N   UNL     1      -9.987   5.845  74.059  1.00  0.00    -0.203 NA 
HETATM   22  C   UNL     1     -10.486   6.652  73.102  1.00  0.00    -0.253 C  
HETATM   23  H   UNL     1     -10.038   5.124  71.842  1.00  0.00     0.000 HD 
HETATM   24  H1  UNL     1     -10.878   8.293  74.315  1.00  0.00     0.000 HD 
HETATM   25  H2  UNL     1     -11.230   8.390  72.629  1.00  0.00     0.000 HD 
ENDBRANCH  16  17
ENDBRANCH  15  16
ENDBRANCH  14  15
ENDBRANCH  13  14
BRANCH  13  26
HETATM   26  N   UNL     1     -11.092   9.678  67.445  1.00  0.00    -0.364 N  
HETATM   27  H   UNL     1     -11.778   9.171  66.885  1.00  0.00     0.000 HD 
BRANCH  26  28
HETATM   28  S   UNL     1     -11.270  11.351  67.731  1.00  0.00    -0.294 S  
HETATM   29  O   UNL     1     -12.231  11.867  66.792  1.00  0.00    -0.489 OA 
HETATM   30  O   UNL     1      -9.919  11.875  67.757  1.00  0.00    -0.179 OA 
BRANCH  28  31
HETATM   31  C   UNL     1     -11.933  11.390  69.376  1.00  0.00    -0.339 A  
HETATM   32  C   UNL     1     -12.897  13.784  72.196  1.00  0.00    -0.367 C  
HETATM   33  C   UNL     1     -12.188  10.154  69.991  1.00  0.00    -0.120 A  
HETATM   34  C   UNL     1     -12.544  16.274  72.342  1.00  0.00    -0.319 C  
HETATM   35  C   UNL     1     -12.697  10.106  71.285  1.00  0.00    -0.509 A  
HETATM   36  C   UNL     1     -12.131  14.986  71.636  1.00  0.00    -0.410 C  
HETATM   37  C   UNL     1     -12.388  15.052  70.136  1.00  0.00    -0.333 C  
HETATM   38  H   UNL     1     -11.333  13.916  68.618  1.00  0.00     0.000 HD 
HETATM   39  N   UNL     1     -11.886  13.852  69.473  1.00  0.00    -0.309 NA 
HETATM   40  C   UNL     1     -12.953  11.290  71.966  1.00  0.00    -0.379 A  
HETATM   41  C   UNL     1     -12.184  12.606  70.047  1.00  0.00    -0.197 A  
HETATM   42  C   UNL     1     -12.691  12.536  71.366  1.00  0.00    -0.345 A  
ENDBRANCH  28  31
ENDBRANCH  26  28
ENDBRANCH  13  26
ENDBRANCH   7  13
TORSDOF 8
ENDMDL
MODEL      234
REMARK 921   NORMALIZED FREE ENERGY PREDICTED BY IDOCK:   -5.03 KCAL/MOL
REMARK 922        TOTAL FREE ENERGY PREDICTED BY IDOCK:   -8.63 KCAL/MOL
REMARK 923 INTER-LIGAND FREE ENERGY PREDICTED BY IDOCK:   -7.95 KCAL/MOL
REMARK 924 INTRA-LIGAND FREE ENERGY PREDICTED BY IDOCK:   -0.68 KCAL/MOL
REMARK 927      BINDING AFFINITY PREDICTED BY RF-SCORE:    0.00 PKD
ROOT
HETATM    1  C   UNL     1     -10.341   5.367  73.495  1.00  0.00    -0.253 C  
HETATM    2  C   UNL     1     -11.132   6.121  72.436  1.00  0.00    -0.316 C  
HETATM    3  C   UNL     1     -10.870   5.572  71.029  1.00  0.00    -0.243 C  
HETATM    4  C   UNL     1     -11.636   6.368  69.972  1.00  0.00    -0.377 C  
HETATM    5  N   UNL     1     -11.444   7.840  70.089  1.00  0.00    -0.121 N  
HETATM    6  C   UNL     1     -11.643   8.389  71.448  1.00  0.00    -0.284 C  
HETATM    7  C   UNL     1     -10.718   8.472  69.071  1.00  0.00    -0.092 C  
HETATM    8  O   UNL     1     -10.256   7.773  68.159  1.00  0.00    -0.190 OA 
HETATM    9  O   UNL     1     -14.002   8.022  71.099  1.00  0.00    -0.211 OA 
HETATM   10  C   UNL     1     -10.788   7.618  72.460  1.00  0.00    -0.367 C  
HETATM   11  C   UNL     1     -13.084   8.456  71.965  1.00  0.00    -0.352 C  
HETATM   12  O   UNL     1     -13.389   8.863  73.074  1.00  0.00    -0.308 OA 
ENDROOT
BRANCH   7  13
HETATM   13  C   UNL     1     -10.543  10.027  68.935  1.00  0.00    -0.218 C  
BRANCH  13  14
HETATM   14  C   UNL     1     -10.476  10.667  67.523  1.00  0.00    -0.272 C  
BRANCH  14  15
HETATM   15  C   UNL     1     -11.447  11.854  67.357  1.00  0.00    -0.393 C  
BRANCH  15  16
HETATM   16  C   UNL     1     -11.783  12.186  65.895  1.00  0.00    -0.328 C  
BRANCH  16  17
HETATM   17  N   UNL     1     -11.472  13.584  65.660  1.00  0.00    -0.310 NA 
HETATM   18  H2  UNL     1     -11.039  15.989  65.524  1.00  0.00     0.000 HD 
HETATM   19  H1  UNL     1     -11.728  16.121  63.860  1.00  0.00     0.000 HD 
HETATM   20  N   UNL     1     -12.342  13.879  63.472  1.00  0.00    -1.087 NA 
HETATM   21  N   UNL     1     -11.478  15.589  64.694  1.00  0.00    -0.382 NA 
HETATM   22  C   UNL     1     -11.803  14.289  64.557  1.00  0.00    -0.442 C  
HETATM   23  H   UNL     1     -10.959  14.077  66.391  1.00  0.00     0.000 HD 
HETATM   24  H1  UNL     1     -12.592  14.411  62.638  1.00  0.00     0.000 HD 
HETATM   25  H2  UNL     1     -12.551  12.882  63.435  1.00  0.00     0.000 HD 
ENDBRANCH  16  17
ENDBRANCH  15  16
ENDBRANCH  14  15
ENDBRANCH  13  14
BRANCH  13  26
HETATM   26  N   UNL     1      -9.413  10.563  69.742  1.00  0.00    -0.416 N  
HETATM   27  H   UNL     1      -9.588  11.174  70.541  1.00  0.00     0.000 HD 
BRANCH  26  28
HETATM   28  S   UNL     1      -7.818  10.137  69.307  1.00  0.00    -0.148 S  
HETATM   29  O   UNL     1      -6.960  11.257  69.596  1.00  0.00    -0.122 OA 
HETATM   30  O   UNL     1      -7.920   9.623  67.957  1.00  0.00    -0.097 OA 
BRANCH  28  31
HETATM   31  C   UNL     1      -7.467   8.792  70.409  1.00  0.00    -0.072 A  
HETATM   32  C   UNL     1      -6.711   5.045  70.469  1.00  0.00    -0.040 C  
HETATM   33  C   UNL     1      -7.503   9.068  71.785  1.00  0.00     0.064 A  
HETATM   34  C   UNL     1      -6.734   3.400  68.560  1.00  0.00    -0.045 C  
HETATM   35  C   UNL     1      -7.251   8.059  72.709  1.00  0.00    -0.116 A  
HETATM   36  C   UNL     1      -7.187   4.777  69.037  1.00  0.00    -0.053 C  
HETATM   37  C   UNL     1      -6.654   5.891  68.147  1.00  0.00    -0.055 C  
HETATM   38  H   UNL     1      -7.561   7.844  67.877  1.00  0.00     0.000 HD 
HETATM   39  N   UNL     1      -7.189   7.185  68.562  1.00  0.00    -0.091 NA 
HETATM   40  C   UNL     1      -6.961   6.775  72.263  1.00  0.00    -0.067 A  
HETATM   41  C   UNL     1      -7.176   7.497  69.931  1.00  0.00    -0.080 A  
HETATM   42  C   UNL     1      -6.933   6.483  70.887  1.00  0.00    -0.068 A  
ENDBRANCH  28  31
ENDBRANCH  26  28
ENDBRANCH  13  26
ENDBRANCH   7  13
TORSDOF 8
ENDMDL
MODEL      235
REMARK 921   NORMALIZED FREE ENERGY PREDICTED BY IDOCK:   -5.03 KCAL/MOL
REMARK 922        TOTAL FREE ENERGY PREDICTED BY IDOCK:   -8.63 KCAL/MOL
REMARK 923 INTER-LIGAND FREE ENERGY PREDICTED BY IDOCK:   -7.00 KCAL/MOL
REMARK 924 INTRA-LIGAND FREE ENERGY PREDICTED BY IDOCK:   -1.63 KCAL/MOL
REMARK 927      BINDING AFFINITY PREDICTED BY RF-SCORE:    0.00 PKD
ROOT
HETATM    1  C   UNL     1      -8.979   3.528  62.551  1.00  0.00    -0.089 C  
HETATM    2  C   UNL     1      -8.822   3.965  64.000  1.00  0.00    -0.111 C  
HETATM    3  C   UNL     1     -10.140   3.856  64.775  1.00  0.00    -0.203 C  
HETATM    4  C   UNL     1      -9.977   4.341  66.215  1.00  0.00    -0.211 C  
HETATM    5  N   UNL     1      -9.328   5.677  66.318  1.00  0.00    -0.156 N  
HETATM    6  C   UNL     1      -8.079   5.825  65.539  1.00  0.00    -0.128 C  
HETATM    7  C   UNL     1     -10.124   6.742  66.759  1.00  0.00    -0.183 C  
HETATM    8  O   UNL     1     -11.317   6.519  67.006  1.00  0.00    -0.342 OA 
HETATM    9  O   UNL     1      -7.039   4.420  67.202  1.00  0.00    -0.065 OA 
HETATM   10  C   UNL     1      -8.312   5.412  64.081  1.00  0.00    -0.118 C  
HETATM   11  C   UNL     1      -6.840   5.095  66.069  1.00  0.00    -0.061 C  
HETATM   12  O   UNL     1      -5.753   5.111  65.513  1.00  0.00    -0.013 OA 
ENDROOT
BRANCH   7  13
HETATM   13  C   UNL     1      -9.587   8.183  67.079  1.00  0.00    -0.196 C  
BRANCH  13  14
HETATM   14  C   UNL     1      -9.372   8.606  68.557  1.00  0.00    -0.138 C  
BRANCH  14  15
HETATM   15  C   UNL     1     -10.619   9.267  69.178  1.00  0.00    -0.228 C  
BRANCH  15  16
HETATM   16  C   UNL     1     -10.810   8.961  70.671  1.00  0.00    -0.239 C  
BRANCH  16  17
HETATM   17  N   UNL     1     -12.202   8.615  70.894  1.00  0.00    -0.471 NA 
HETATM   18  H2  UNL     1     -14.594   8.306  71.312  1.00  0.00     0.000 HD 
HETATM   19  H1  UNL     1     -14.327   6.854  72.351  1.00  0.00     0.000 HD 
HETATM   20  N   UNL     1     -11.977   6.692  72.265  1.00  0.00    -0.465 NA 
HETATM   21  N   UNL     1     -13.991   7.619  71.765  1.00  0.00    -0.379 NA 
HETATM   22  C   UNL     1     -12.647   7.603  71.669  1.00  0.00    -0.339 C  
HETATM   23  H   UNL     1     -12.905   9.187  70.425  1.00  0.00     0.000 HD 
HETATM   24  H1  UNL     1     -12.313   5.927  72.851  1.00  0.00     0.000 HD 
HETATM   25  H2  UNL     1     -10.966   6.736  72.139  1.00  0.00     0.000 HD 
ENDBRANCH  16  17
ENDBRANCH  15  16
ENDBRANCH  14  15
ENDBRANCH  13  14
BRANCH  13  26
HETATM   26  N   UNL     1     -10.354   9.260  66.395  1.00  0.00    -0.219 N  
HETATM   27  H   UNL     1     -11.319   9.460  66.659  1.00  0.00     0.000 HD 
BRANCH  26  28
HETATM   28  S   UNL     1      -9.588  10.154  65.158  1.00  0.00    -0.312 S  
HETATM   29  O   UNL     1     -10.572  11.011  64.549  1.00  0.00    -0.343 OA 
HETATM   30  O   UNL     1      -8.884   9.170  64.362  1.00  0.00    -0.191 OA 
BRANCH  28  31
HETATM   31  C   UNL     1      -8.404  11.119  66.060  1.00  0.00    -0.115 A  
HETATM   32  C   UNL     1      -8.115  14.007  68.547  1.00  0.00    -0.139 C  
HETATM   33  C   UNL     1      -7.047  10.853  65.817  1.00  0.00     0.014 A  
HETATM   34  C   UNL     1      -9.931  15.510  69.437  1.00  0.00    -0.277 C  
HETATM   35  C   UNL     1      -6.061  11.579  66.478  1.00  0.00    -0.086 A  
HETATM   36  C   UNL     1      -9.545  14.518  68.343  1.00  0.00    -0.213 C  
HETATM   37  C   UNL     1     -10.477  13.314  68.313  1.00  0.00    -0.250 C  
HETATM   38  H   UNL     1     -10.882  12.069  66.583  1.00  0.00     0.000 HD 
HETATM   39  N   UNL     1     -10.151  12.438  67.191  1.00  0.00    -0.212 NA 
HETATM   40  C   UNL     1      -6.428  12.568  67.383  1.00  0.00    -0.153 A  
HETATM   41  C   UNL     1      -8.801  12.118  66.973  1.00  0.00    -0.203 A  
HETATM   42  C   UNL     1      -7.784  12.852  67.627  1.00  0.00    -0.162 A  
ENDBRANCH  28  31
ENDBRANCH  26  28
ENDBRANCH  13  26
ENDBRANCH   7  13
TORSDOF 8
ENDMDL
MODEL      236
REMARK 921   NORMALIZED FREE ENERGY PREDICTED BY IDOCK:   -5.03 KCAL/MOL
REMARK 922        TOTAL FREE ENERGY PREDICTED BY IDOCK:   -8.62 KCAL/MOL
REMARK 923 INTER-LIGAND FREE ENERGY PREDICTED BY IDOCK:   -7.10 KCAL/MOL
REMARK 924 INTRA-LIGAND FREE ENERGY PREDICTED BY IDOCK:   -1.52 KCAL/MOL
REMARK 927      BINDING AFFINITY PREDICTED BY RF-SCORE:    0.00 PKD
ROOT
HETATM    1  C   UNL     1     -11.516   7.274  73.099  1.00  0.00    -0.062 C  
HETATM    2  C   UNL     1     -10.309   7.213  72.174  1.00  0.00    -0.218 C  
HETATM    3  C   UNL     1      -9.193   8.159  72.629  1.00  0.00    -0.332 C  
HETATM    4  C   UNL     1      -8.007   8.120  71.666  1.00  0.00    -0.121 C  
HETATM    5  N   UNL     1      -8.399   8.295  70.240  1.00  0.00    -0.120 N  
HETATM    6  C   UNL     1      -9.509   7.429  69.788  1.00  0.00    -0.159 C  
HETATM    7  C   UNL     1      -8.009   9.486  69.612  1.00  0.00    -0.120 C  
HETATM    8  O   UNL     1      -7.392  10.327  70.281  1.00  0.00    -0.198 OA 
HETATM    9  O   UNL     1      -7.928   5.607  69.853  1.00  0.00    -0.091 OA 
HETATM   10  C   UNL     1     -10.708   7.567  70.733  1.00  0.00    -0.238 C  
HETATM   11  C   UNL     1      -9.195   5.941  69.600  1.00  0.00    -0.136 C  
HETATM   12  O   UNL     1     -10.021   5.111  69.255  1.00  0.00    -0.175 OA 
ENDROOT
BRANCH   7  13
HETATM   13  C   UNL     1      -8.190   9.786  68.081  1.00  0.00    -0.109 C  
BRANCH  13  14
HETATM   14  C   UNL     1      -6.965   9.689  67.134  1.00  0.00    -0.085 C  
BRANCH  14  15
HETATM   15  C   UNL     1      -7.024  10.705  65.975  1.00  0.00    -0.128 C  
BRANCH  15  16
HETATM   16  C   UNL     1      -7.326  10.075  64.607  1.00  0.00    -0.143 C  
BRANCH  16  17
HETATM   17  N   UNL     1      -6.848   8.704  64.617  1.00  0.00    -0.072 NA 
HETATM   18  H2  UNL     1      -5.783   6.501  64.639  1.00  0.00     0.000 HD 
HETATM   19  H1  UNL     1      -6.896   5.839  63.382  1.00  0.00     0.000 HD 
HETATM   20  N   UNL     1      -8.257   7.721  62.981  1.00  0.00    -0.343 NA 
HETATM   21  N   UNL     1      -6.563   6.589  63.988  1.00  0.00    -0.036 NA 
HETATM   22  C   UNL     1      -7.289   7.711  63.815  1.00  0.00    -0.093 C  
HETATM   23  H   UNL     1      -6.116   8.471  65.289  1.00  0.00     0.000 HD 
HETATM   24  H1  UNL     1      -8.590   6.970  62.375  1.00  0.00     0.000 HD 
HETATM   25  H2  UNL     1      -8.768   8.601  62.911  1.00  0.00     0.000 HD 
ENDBRANCH  16  17
ENDBRANCH  15  16
ENDBRANCH  14  15
ENDBRANCH  13  14
BRANCH  13  26
HETATM   26  N   UNL     1      -8.883  11.077  67.816  1.00  0.00    -0.132 N  
HETATM   27  H   UNL     1      -8.352  11.907  67.552  1.00  0.00     0.000 HD 
BRANCH  26  28
HETATM   28  S   UNL     1     -10.583  11.142  67.960  1.00  0.00    -0.213 S  
HETATM   29  O   UNL     1     -10.906  11.391  69.340  1.00  0.00    -0.226 OA 
HETATM   30  O   UNL     1     -11.063   9.944  67.301  1.00  0.00    -0.208 OA 
BRANCH  28  31
HETATM   31  C   UNL     1     -10.999  12.551  66.966  1.00  0.00    -0.267 A  
HETATM   32  C   UNL     1     -10.541  16.339  66.740  1.00  0.00    -0.257 C  
HETATM   33  C   UNL     1     -11.839  12.328  65.863  1.00  0.00    -0.420 A  
HETATM   34  C   UNL     1      -9.472  17.901  68.404  1.00  0.00    -0.304 C  
HETATM   35  C   UNL     1     -12.218  13.388  65.046  1.00  0.00    -0.463 A  
HETATM   36  C   UNL     1     -10.077  16.516  68.190  1.00  0.00    -0.255 C  
HETATM   37  C   UNL     1      -9.085  15.406  68.507  1.00  0.00    -0.197 C  
HETATM   38  H   UNL     1      -9.594  13.388  69.120  1.00  0.00     0.000 HD 
HETATM   39  N   UNL     1      -9.723  14.097  68.398  1.00  0.00    -0.223 NA 
HETATM   40  C   UNL     1     -11.758  14.670  65.325  1.00  0.00    -0.346 A  
HETATM   41  C   UNL     1     -10.519  13.842  67.270  1.00  0.00    -0.271 A  
HETATM   42  C   UNL     1     -10.924  14.908  66.433  1.00  0.00    -0.336 A  
ENDBRANCH  28  31
ENDBRANCH  26  28
ENDBRANCH  13  26
ENDBRANCH   7  13
TORSDOF 8
ENDMDL
MODEL      237
REMARK 921   NORMALIZED FREE ENERGY PREDICTED BY IDOCK:   -5.00 KCAL/MOL
REMARK 922        TOTAL FREE ENERGY PREDICTED BY IDOCK:   -8.58 KCAL/MOL
REMARK 923 INTER-LIGAND FREE ENERGY PREDICTED BY IDOCK:   -7.02 KCAL/MOL
REMARK 924 INTRA-LIGAND FREE ENERGY PREDICTED BY IDOCK:   -1.56 KCAL/MOL
REMARK 927      BINDING AFFINITY PREDICTED BY RF-SCORE:    0.00 PKD
ROOT
HETATM    1  C   UNL     1     -10.891  16.347  70.416  1.00  0.00    -0.149 C  
HETATM    2  C   UNL     1     -10.786  15.267  69.348  1.00  0.00    -0.266 C  
HETATM    3  C   UNL     1     -12.105  14.507  69.173  1.00  0.00    -0.299 C  
HETATM    4  C   UNL     1     -11.971  13.398  68.130  1.00  0.00    -0.321 C  
HETATM    5  N   UNL     1     -10.793  12.515  68.357  1.00  0.00    -0.233 N  
HETATM    6  C   UNL     1      -9.514  13.225  68.578  1.00  0.00    -0.113 C  
HETATM    7  C   UNL     1     -11.051  11.194  68.748  1.00  0.00    -0.236 C  
HETATM    8  O   UNL     1     -12.230  10.850  68.911  1.00  0.00    -0.494 OA 
HETATM    9  O   UNL     1      -9.553  13.738  66.220  1.00  0.00    -0.281 OA 
HETATM   10  C   UNL     1      -9.673  14.265  69.692  1.00  0.00     0.530 C  
HETATM   11  C   UNL     1      -8.875  13.897  67.359  1.00  0.00    -0.207 C  
HETATM   12  O   UNL     1      -7.836  14.536  67.403  1.00  0.00    -0.180 OA 
ENDROOT
BRANCH   7  13
HETATM   13  C   UNL     1      -9.958  10.075  68.883  1.00  0.00    -0.192 C  
BRANCH  13  14
HETATM   14  C   UNL     1      -9.156   9.946  70.206  1.00  0.00    -0.108 C  
BRANCH  14  15
HETATM   15  C   UNL     1      -9.795   8.952  71.197  1.00  0.00    -0.345 C  
BRANCH  15  16
HETATM   16  C   UNL     1     -10.683   7.890  70.532  1.00  0.00    -0.233 C  
BRANCH  16  17
HETATM   17  N   UNL     1     -12.068   8.311  70.650  1.00  0.00    -0.491 NA 
HETATM   18  H2  UNL     1     -14.333   9.237  70.685  1.00  0.00     0.000 HD 
HETATM   19  H1  UNL     1     -14.532   8.947  72.456  1.00  0.00     0.000 HD 
HETATM   20  N   UNL     1     -12.449   7.969  72.966  1.00  0.00    -0.514 NA 
HETATM   21  N   UNL     1     -13.994   8.907  71.589  1.00  0.00    -0.390 NA 
HETATM   22  C   UNL     1     -12.779   8.363  71.796  1.00  0.00    -0.342 C  
HETATM   23  H   UNL     1     -12.544   8.590  69.792  1.00  0.00     0.000 HD 
HETATM   24  H1  UNL     1     -12.987   8.009  73.833  1.00  0.00     0.000 HD 
HETATM   25  H2  UNL     1     -11.519   7.558  73.046  1.00  0.00     0.000 HD 
ENDBRANCH  16  17
ENDBRANCH  15  16
ENDBRANCH  14  15
ENDBRANCH  13  14
BRANCH  13  26
HETATM   26  N   UNL     1      -8.991  10.061  67.751  1.00  0.00    -0.131 N  
HETATM   27  H   UNL     1      -8.383  10.861  67.576  1.00  0.00     0.000 HD 
BRANCH  26  28
HETATM   28  S   UNL     1      -8.919   8.679  66.750  1.00  0.00    -0.148 S  
HETATM   29  O   UNL     1     -10.161   7.963  66.886  1.00  0.00    -0.239 OA 
HETATM   30  O   UNL     1      -7.664   8.037  67.083  1.00  0.00    -0.098 OA 
BRANCH  28  31
HETATM   31  C   UNL     1      -8.791   9.387  65.128  1.00  0.00    -0.195 A  
HETATM   32  C   UNL     1     -10.533  11.801  62.731  1.00  0.00     0.258 C  
HETATM   33  C   UNL     1      -7.738   8.935  64.317  1.00  0.00    -0.122 A  
HETATM   34  C   UNL     1     -12.751  12.965  63.000  1.00  0.00     0.309 C  
HETATM   35  C   UNL     1      -7.582   9.435  63.029  1.00  0.00    -0.107 A  
HETATM   36  C   UNL     1     -11.864  11.823  63.489  1.00  0.00    -0.481 C  
HETATM   37  C   UNL     1     -11.559  11.937  64.976  1.00  0.00    -0.214 C  
HETATM   38  H   UNL     1     -11.057  10.290  66.297  1.00  0.00     0.000 HD 
HETATM   39  N   UNL     1     -10.801  10.777  65.437  1.00  0.00    -0.072 NA 
HETATM   40  C   UNL     1      -8.473  10.387  62.549  1.00  0.00    -0.214 A  
HETATM   41  C   UNL     1      -9.709  10.352  64.664  1.00  0.00    -0.329 A  
HETATM   42  C   UNL     1      -9.539  10.840  63.347  1.00  0.00    -0.375 A  
ENDBRANCH  28  31
ENDBRANCH  26  28
ENDBRANCH  13  26
ENDBRANCH   7  13
TORSDOF 8
ENDMDL
MODEL      238
REMARK 921   NORMALIZED FREE ENERGY PREDICTED BY IDOCK:   -4.99 KCAL/MOL
REMARK 922        TOTAL FREE ENERGY PREDICTED BY IDOCK:   -8.57 KCAL/MOL
REMARK 923 INTER-LIGAND FREE ENERGY PREDICTED BY IDOCK:   -5.51 KCAL/MOL
REMARK 924 INTRA-LIGAND FREE ENERGY PREDICTED BY IDOCK:   -3.06 KCAL/MOL
REMARK 927      BINDING AFFINITY PREDICTED BY RF-SCORE:    0.00 PKD
ROOT
HETATM    1  C   UNL     1      -8.511   9.121  64.972  1.00  0.00    -0.187 C  
HETATM    2  C   UNL     1      -8.557   7.812  65.747  1.00  0.00    -0.162 C  
HETATM    3  C   UNL     1      -9.971   7.495  66.246  1.00  0.00    -0.000 C  
HETATM    4  C   UNL     1      -9.993   6.202  67.061  1.00  0.00    -0.162 C  
HETATM    5  N   UNL     1      -8.955   6.158  68.127  1.00  0.00    -0.115 N  
HETATM    6  C   UNL     1      -7.588   6.509  67.682  1.00  0.00    -0.105 C  
HETATM    7  C   UNL     1      -9.400   6.212  69.455  1.00  0.00    -0.139 C  
HETATM    8  O   UNL     1     -10.616   6.322  69.662  1.00  0.00    -0.211 OA 
HETATM    9  O   UNL     1      -7.546   4.360  66.584  1.00  0.00    -0.087 OA 
HETATM   10  C   UNL     1      -7.600   7.855  66.948  1.00  0.00    -0.099 C  
HETATM   11  C   UNL     1      -6.856   5.479  66.816  1.00  0.00    -0.063 C  
HETATM   12  O   UNL     1      -5.736   5.648  66.361  1.00  0.00    -0.016 OA 
ENDROOT
BRANCH   7  13
HETATM   13  C   UNL     1      -8.477   6.023  70.712  1.00  0.00    -0.130 C  
BRANCH  13  14
HETATM   14  C   UNL     1      -8.335   4.615  71.349  1.00  0.00    -0.108 C  
BRANCH  14  15
HETATM   15  C   UNL     1      -9.550   3.707  71.071  1.00  0.00    -0.246 C  
BRANCH  15  16
HETATM   16  C   UNL     1     -10.363   3.351  72.325  1.00  0.00    -0.046 C  
BRANCH  16  17
HETATM   17  N   UNL     1     -10.169   4.397  73.312  1.00  0.00    -0.153 NA 
HETATM   18  H2  UNL     1      -9.839   5.959  75.168  1.00  0.00     0.000 HD 
HETATM   19  H1  UNL     1     -11.051   7.133  74.527  1.00  0.00     0.000 HD 
HETATM   20  N   UNL     1     -11.729   6.020  72.563  1.00  0.00    -0.459 NA 
HETATM   21  N   UNL     1     -10.526   6.259  74.477  1.00  0.00    -0.193 NA 
HETATM   22  C   UNL     1     -10.862   5.554  73.379  1.00  0.00    -0.288 C  
HETATM   23  H   UNL     1      -9.445   4.246  74.015  1.00  0.00     0.000 HD 
HETATM   24  H1  UNL     1     -12.254   6.894  72.614  1.00  0.00     0.000 HD 
HETATM   25  H2  UNL     1     -11.925   5.438  71.750  1.00  0.00     0.000 HD 
ENDBRANCH  16  17
ENDBRANCH  15  16
ENDBRANCH  14  15
ENDBRANCH  13  14
BRANCH  13  26
HETATM   26  N   UNL     1      -8.761   7.000  71.800  1.00  0.00    -0.122 N  
HETATM   27  H   UNL     1      -9.688   7.052  72.222  1.00  0.00     0.000 HD 
BRANCH  26  28
HETATM   28  S   UNL     1      -7.505   8.030  72.326  1.00  0.00    -0.104 S  
HETATM   29  O   UNL     1      -6.325   7.230  72.528  1.00  0.00    -0.051 OA 
HETATM   30  O   UNL     1      -8.073   8.786  73.423  1.00  0.00    -0.402 OA 
BRANCH  28  31
HETATM   31  C   UNL     1      -7.287   9.109  70.935  1.00  0.00    -0.116 A  
HETATM   32  C   UNL     1      -9.230  11.155  68.356  1.00  0.00    -0.175 C  
HETATM   33  C   UNL     1      -5.972   9.326  70.496  1.00  0.00    -0.047 A  
HETATM   34  C   UNL     1     -11.717  11.243  67.961  1.00  0.00    -0.305 C  
HETATM   35  C   UNL     1      -5.724  10.151  69.403  1.00  0.00    -0.037 A  
HETATM   36  C   UNL     1     -10.573  10.461  68.601  1.00  0.00    -0.234 C  
HETATM   37  C   UNL     1     -10.759  10.312  70.105  1.00  0.00    -0.278 C  
HETATM   38  H   UNL     1      -9.935   8.725  71.334  1.00  0.00     0.000 HD 
HETATM   39  N   UNL     1      -9.710   9.471  70.674  1.00  0.00    -0.267 NA 
HETATM   40  C   UNL     1      -6.788  10.761  68.749  1.00  0.00    -0.067 A  
HETATM   41  C   UNL     1      -8.383   9.717  70.287  1.00  0.00    -0.186 A  
HETATM   42  C   UNL     1      -8.112  10.543  69.171  1.00  0.00    -0.152 A  
ENDBRANCH  28  31
ENDBRANCH  26  28
ENDBRANCH  13  26
ENDBRANCH   7  13
TORSDOF 8
ENDMDL
MODEL      239
REMARK 921   NORMALIZED FREE ENERGY PREDICTED BY IDOCK:   -4.98 KCAL/MOL
REMARK 922        TOTAL FREE ENERGY PREDICTED BY IDOCK:   -8.56 KCAL/MOL
REMARK 923 INTER-LIGAND FREE ENERGY PREDICTED BY IDOCK:   -8.17 KCAL/MOL
REMARK 924 INTRA-LIGAND FREE ENERGY PREDICTED BY IDOCK:   -0.39 KCAL/MOL
REMARK 927      BINDING AFFINITY PREDICTED BY RF-SCORE:    0.00 PKD
ROOT
HETATM    1  C   UNL     1     -12.408  12.556  63.550  1.00  0.00    -0.623 C  
HETATM    2  C   UNL     1     -11.340  12.251  64.591  1.00  0.00    -0.375 C  
HETATM    3  C   UNL     1     -10.568  10.970  64.256  1.00  0.00    -0.402 C  
HETATM    4  C   UNL     1      -9.530  10.652  65.333  1.00  0.00    -0.215 C  
HETATM    5  N   UNL     1     -10.087  10.675  66.713  1.00  0.00    -0.216 N  
HETATM    6  C   UNL     1     -10.880  11.879  67.047  1.00  0.00    -0.259 C  
HETATM    7  C   UNL     1     -10.176   9.449  67.387  1.00  0.00    -0.239 C  
HETATM    8  O   UNL     1      -9.819   8.424  66.790  1.00  0.00    -0.211 OA 
HETATM    9  O   UNL     1      -8.781  13.067  67.125  1.00  0.00    -0.196 OA 
HETATM   10  C   UNL     1     -11.964  12.108  65.988  1.00  0.00    -0.236 C  
HETATM   11  C   UNL     1     -10.104  13.184  67.252  1.00  0.00    -0.233 C  
HETATM   12  O   UNL     1     -10.633  14.255  67.507  1.00  0.00    -0.258 OA 
ENDROOT
BRANCH   7  13
HETATM   13  C   UNL     1     -10.587   9.289  68.894  1.00  0.00    -0.199 C  
BRANCH  13  14
HETATM   14  C   UNL     1     -10.599  10.534  69.819  1.00  0.00    -0.274 C  
BRANCH  14  15
HETATM   15  C   UNL     1     -11.447  10.327  71.090  1.00  0.00    -0.319 C  
BRANCH  15  16
HETATM   16  C   UNL     1     -12.936  10.657  70.908  1.00  0.00    -0.340 C  
BRANCH  16  17
HETATM   17  N   UNL     1     -13.309  11.656  71.893  1.00  0.00    -0.402 NA 
HETATM   18  H2  UNL     1     -14.177  13.197  73.585  1.00  0.00     0.000 HD 
HETATM   19  H1  UNL     1     -13.645  14.659  72.670  1.00  0.00     0.000 HD 
HETATM   20  N   UNL     1     -12.648  13.649  70.789  1.00  0.00    -0.340 NA 
HETATM   21  N   UNL     1     -13.734  13.649  72.785  1.00  0.00    -0.695 NA 
HETATM   22  C   UNL     1     -13.191  12.992  71.742  1.00  0.00    -0.392 C  
HETATM   23  H   UNL     1     -13.694  11.318  72.776  1.00  0.00     0.000 HD 
HETATM   24  H1  UNL     1     -12.558  14.659  70.675  1.00  0.00     0.000 HD 
HETATM   25  H2  UNL     1     -12.248  13.086  70.039  1.00  0.00     0.000 HD 
ENDBRANCH  16  17
ENDBRANCH  15  16
ENDBRANCH  14  15
ENDBRANCH  13  14
BRANCH  13  26
HETATM   26  N   UNL     1      -9.847   8.199  69.590  1.00  0.00    -0.181 N  
HETATM   27  H   UNL     1      -8.942   8.380  70.023  1.00  0.00     0.000 HD 
BRANCH  26  28
HETATM   28  S   UNL     1     -10.544   6.642  69.650  1.00  0.00    -0.256 S  
HETATM   29  O   UNL     1     -11.737   6.654  68.844  1.00  0.00    -0.021 OA 
HETATM   30  O   UNL     1     -10.616   6.314  71.059  1.00  0.00    -0.220 OA 
BRANCH  28  31
HETATM   31  C   UNL     1      -9.297   5.635  68.888  1.00  0.00    -0.120 A  
HETATM   32  C   UNL     1      -8.552   3.605  65.737  1.00  0.00    -0.114 C  
HETATM   33  C   UNL     1      -8.141   5.375  69.640  1.00  0.00    -0.099 A  
HETATM   34  C   UNL     1     -10.082   3.067  63.808  1.00  0.00    -0.173 C  
HETATM   35  C   UNL     1      -7.126   4.583  69.114  1.00  0.00    -0.052 A  
HETATM   36  C   UNL     1     -10.005   3.543  65.256  1.00  0.00     0.004 C  
HETATM   37  C   UNL     1     -10.621   4.924  65.434  1.00  0.00     0.033 C  
HETATM   38  H   UNL     1     -11.465   5.710  67.272  1.00  0.00     0.000 HD 
HETATM   39  N   UNL     1     -10.631   5.307  66.843  1.00  0.00    -0.254 NA 
HETATM   40  C   UNL     1      -7.262   4.051  67.837  1.00  0.00    -0.060 A  
HETATM   41  C   UNL     1      -9.460   5.107  67.591  1.00  0.00    -0.127 A  
HETATM   42  C   UNL     1      -8.421   4.295  67.077  1.00  0.00    -0.104 A  
ENDBRANCH  28  31
ENDBRANCH  26  28
ENDBRANCH  13  26
ENDBRANCH   7  13
TORSDOF 8
ENDMDL
MODEL      240
REMARK 921   NORMALIZED FREE ENERGY PREDICTED BY IDOCK:   -4.97 KCAL/MOL
REMARK 922        TOTAL FREE ENERGY PREDICTED BY IDOCK:   -8.55 KCAL/MOL
REMARK 923 INTER-LIGAND FREE ENERGY PREDICTED BY IDOCK:   -6.48 KCAL/MOL
REMARK 924 INTRA-LIGAND FREE ENERGY PREDICTED BY IDOCK:   -2.07 KCAL/MOL
REMARK 927      BINDING AFFINITY PREDICTED BY RF-SCORE:    0.00 PKD
ROOT
HETATM    1  C   UNL     1     -10.506  16.018  69.589  1.00  0.00    -0.300 C  
HETATM    2  C   UNL     1     -10.981  14.680  69.040  1.00  0.00    -0.269 C  
HETATM    3  C   UNL     1     -11.768  13.883  70.085  1.00  0.00    -0.314 C  
HETATM    4  C   UNL     1     -12.199  12.523  69.534  1.00  0.00    -0.080 C  
HETATM    5  N   UNL     1     -11.084  11.760  68.910  1.00  0.00    -0.228 N  
HETATM    6  C   UNL     1     -10.276  12.522  67.933  1.00  0.00    -0.219 C  
HETATM    7  C   UNL     1     -10.652  10.603  69.572  1.00  0.00    -0.230 C  
HETATM    8  O   UNL     1     -11.197  10.302  70.643  1.00  0.00    -0.315 OA 
HETATM    9  O   UNL     1     -12.164  12.339  66.440  1.00  0.00    -0.613 OA 
HETATM   10  C   UNL     1      -9.792  13.836  68.557  1.00  0.00    -0.204 C  
HETATM   11  C   UNL     1     -10.930  12.828  66.581  1.00  0.00    -0.270 C  
HETATM   12  O   UNL     1     -10.388  13.468  65.694  1.00  0.00    -0.284 OA 
ENDROOT
BRANCH   7  13
HETATM   13  C   UNL     1      -9.603   9.586  68.996  1.00  0.00    -0.166 C  
BRANCH  13  14
HETATM   14  C   UNL     1     -10.034   8.122  68.715  1.00  0.00    -0.198 C  
BRANCH  14  15
HETATM   15  C   UNL     1     -10.367   7.871  67.230  1.00  0.00    -0.377 C  
BRANCH  15  16
HETATM   16  C   UNL     1     -11.133   6.564  66.974  1.00  0.00    -0.339 C  
BRANCH  16  17
HETATM   17  N   UNL     1     -10.464   5.492  67.687  1.00  0.00    -0.208 NA 
HETATM   18  H2  UNL     1      -9.178   3.883  69.010  1.00  0.00     0.000 HD 
HETATM   19  H1  UNL     1      -8.993   2.740  67.625  1.00  0.00     0.000 HD 
HETATM   20  N   UNL     1     -10.165   3.908  65.946  1.00  0.00    -0.430 NA 
HETATM   21  N   UNL     1      -9.333   3.608  68.040  1.00  0.00    -0.178 NA 
HETATM   22  C   UNL     1     -10.014   4.343  67.138  1.00  0.00    -0.137 C  
HETATM   23  H   UNL     1     -10.321   5.617  68.690  1.00  0.00     0.000 HD 
HETATM   24  H1  UNL     1      -9.824   3.040  65.531  1.00  0.00     0.000 HD 
HETATM   25  H2  UNL     1     -10.699   4.512  65.322  1.00  0.00     0.000 HD 
ENDBRANCH  16  17
ENDBRANCH  15  16
ENDBRANCH  14  15
ENDBRANCH  13  14
BRANCH  13  26
HETATM   26  N   UNL     1      -8.330   9.556  69.768  1.00  0.00    -0.146 N  
HETATM   27  H   UNL     1      -8.293   9.127  70.693  1.00  0.00     0.000 HD 
BRANCH  26  28
HETATM   28  S   UNL     1      -6.934  10.253  69.076  1.00  0.00    -0.071 S  
HETATM   29  O   UNL     1      -5.780   9.651  69.692  1.00  0.00    -0.033 OA 
HETATM   30  O   UNL     1      -7.145  11.683  69.160  1.00  0.00    -0.113 OA 
BRANCH  28  31
HETATM   31  C   UNL     1      -7.057   9.752  67.378  1.00  0.00    -0.085 A  
HETATM   32  C   UNL     1      -6.828   6.692  65.100  1.00  0.00    -0.050 C  
HETATM   33  C   UNL     1      -7.258  10.765  66.428  1.00  0.00    -0.138 A  
HETATM   34  C   UNL     1      -6.155   4.335  65.685  1.00  0.00    -0.027 C  
HETATM   35  C   UNL     1      -7.352  10.449  65.076  1.00  0.00    -0.070 A  
HETATM   36  C   UNL     1      -6.131   5.796  66.128  1.00  0.00    -0.029 C  
HETATM   37  C   UNL     1      -6.822   5.993  67.471  1.00  0.00    -0.063 C  
HETATM   38  H   UNL     1      -6.420   7.594  68.880  1.00  0.00     0.000 HD 
HETATM   39  N   UNL     1      -6.691   7.376  67.920  1.00  0.00    -0.060 NA 
HETATM   40  C   UNL     1      -7.247   9.124  64.672  1.00  0.00    -0.098 A  
HETATM   41  C   UNL     1      -6.947   8.399  66.993  1.00  0.00    -0.074 A  
HETATM   42  C   UNL     1      -7.034   8.100  65.613  1.00  0.00    -0.066 A  
ENDBRANCH  28  31
ENDBRANCH  26  28
ENDBRANCH  13  26
ENDBRANCH   7  13
TORSDOF 8
ENDMDL
MODEL      241
REMARK 921   NORMALIZED FREE ENERGY PREDICTED BY IDOCK:   -4.96 KCAL/MOL
REMARK 922        TOTAL FREE ENERGY PREDICTED BY IDOCK:   -8.52 KCAL/MOL
REMARK 923 INTER-LIGAND FREE ENERGY PREDICTED BY IDOCK:   -8.47 KCAL/MOL
REMARK 924 INTRA-LIGAND FREE ENERGY PREDICTED BY IDOCK:   -0.05 KCAL/MOL
REMARK 927      BINDING AFFINITY PREDICTED BY RF-SCORE:    0.00 PKD
ROOT
HETATM    1  C   UNL     1      -9.687   7.571  70.046  1.00  0.00    -0.172 C  
HETATM    2  C   UNL     1      -9.901   8.803  69.178  1.00  0.00    -0.181 C  
HETATM    3  C   UNL     1      -8.735   9.027  68.209  1.00  0.00    -0.130 C  
HETATM    4  C   UNL     1      -8.942  10.292  67.377  1.00  0.00    -0.135 C  
HETATM    5  N   UNL     1      -9.282  11.488  68.196  1.00  0.00    -0.175 N  
HETATM    6  C   UNL     1     -10.372  11.285  69.175  1.00  0.00    -0.129 C  
HETATM    7  C   UNL     1      -8.321  12.505  68.272  1.00  0.00    -0.167 C  
HETATM    8  O   UNL     1      -7.243  12.338  67.685  1.00  0.00    -0.105 OA 
HETATM    9  O   UNL     1     -11.878  11.285  67.289  1.00  0.00    -0.562 OA 
HETATM   10  C   UNL     1     -10.078  10.058  70.046  1.00  0.00    -0.289 C  
HETATM   11  C   UNL     1     -11.794  11.166  68.615  1.00  0.00    -0.287 C  
HETATM   12  O   UNL     1     -12.781  10.972  69.306  1.00  0.00    -0.280 OA 
ENDROOT
BRANCH   7  13
HETATM   13  C   UNL     1      -8.552  13.901  68.953  1.00  0.00     0.098 C  
BRANCH  13  14
HETATM   14  C   UNL     1      -9.622  14.864  68.374  1.00  0.00    -0.209 C  
BRANCH  14  15
HETATM   15  C   UNL     1     -10.574  15.419  69.454  1.00  0.00    -0.251 C  
BRANCH  15  16
HETATM   16  C   UNL     1     -12.056  15.096  69.206  1.00  0.00    -0.244 C  
BRANCH  16  17
HETATM   17  N   UNL     1     -12.802  15.411  70.410  1.00  0.00    -0.631 NA 
HETATM   18  H2  UNL     1     -13.880  16.153  72.478  1.00  0.00     0.000 HD 
HETATM   19  H1  UNL     1     -14.061  14.470  73.106  1.00  0.00     0.000 HD 
HETATM   20  N   UNL     1     -13.105  13.246  71.333  1.00  0.00    -0.315 NA 
HETATM   21  N   UNL     1     -13.763  15.142  72.398  1.00  0.00    -0.452 NA 
HETATM   22  C   UNL     1     -13.196  14.521  71.346  1.00  0.00    -0.355 C  
HETATM   23  H   UNL     1     -13.050  16.389  70.562  1.00  0.00     0.000 HD 
HETATM   24  H1  UNL     1     -13.403  12.574  72.040  1.00  0.00     0.000 HD 
HETATM   25  H2  UNL     1     -12.674  12.845  70.500  1.00  0.00     0.000 HD 
ENDBRANCH  16  17
ENDBRANCH  15  16
ENDBRANCH  14  15
ENDBRANCH  13  14
BRANCH  13  26
HETATM   26  N   UNL     1      -7.293  14.671  69.154  1.00  0.00    -0.138 N  
HETATM   27  H   UNL     1      -6.856  14.721  70.074  1.00  0.00     0.000 HD 
BRANCH  26  28
HETATM   28  S   UNL     1      -6.596  15.468  67.815  1.00  0.00    -0.171 S  
HETATM   29  O   UNL     1      -7.339  15.101  66.638  1.00  0.00     0.055 OA 
HETATM   30  O   UNL     1      -5.179  15.183  67.903  1.00  0.00    -0.121 OA 
BRANCH  28  31
HETATM   31  C   UNL     1      -6.864  17.178  68.204  1.00  0.00    -0.176 A  
HETATM   32  C   UNL     1      -9.109  20.158  67.371  1.00  0.00    -0.475 C  
HETATM   33  C   UNL     1      -5.955  17.781  69.088  1.00  0.00    -0.217 A  
HETATM   34  C   UNL     1     -10.910  20.334  65.618  1.00  0.00    -0.024 C  
HETATM   35  C   UNL     1      -6.094  19.122  69.429  1.00  0.00    -0.291 A  
HETATM   36  C   UNL     1      -9.690  19.549  66.091  1.00  0.00    -0.461 C  
HETATM   37  C   UNL     1     -10.027  18.091  66.373  1.00  0.00    -0.362 C  
HETATM   38  H   UNL     1      -8.632  16.430  66.299  1.00  0.00     0.000 HD 
HETATM   39  N   UNL     1      -8.823  17.341  66.719  1.00  0.00    -0.237 NA 
HETATM   40  C   UNL     1      -7.141  19.863  68.893  1.00  0.00    -0.325 A  
HETATM   41  C   UNL     1      -7.934  17.908  67.646  1.00  0.00    -0.219 A  
HETATM   42  C   UNL     1      -8.053  19.273  67.998  1.00  0.00    -0.341 A  
ENDBRANCH  28  31
ENDBRANCH  26  28
ENDBRANCH  13  26
ENDBRANCH   7  13
TORSDOF 8
ENDMDL
MODEL      242
REMARK 921   NORMALIZED FREE ENERGY PREDICTED BY IDOCK:   -4.96 KCAL/MOL
REMARK 922        TOTAL FREE ENERGY PREDICTED BY IDOCK:   -8.52 KCAL/MOL
REMARK 923 INTER-LIGAND FREE ENERGY PREDICTED BY IDOCK:   -7.57 KCAL/MOL
REMARK 924 INTRA-LIGAND FREE ENERGY PREDICTED BY IDOCK:   -0.96 KCAL/MOL
REMARK 927      BINDING AFFINITY PREDICTED BY RF-SCORE:    0.00 PKD
ROOT
HETATM    1  C   UNL     1      -8.121   4.519  71.702  1.00  0.00    -0.101 C  
HETATM    2  C   UNL     1      -9.045   5.647  71.265  1.00  0.00    -0.156 C  
HETATM    3  C   UNL     1     -10.138   5.151  70.312  1.00  0.00    -0.338 C  
HETATM    4  C   UNL     1     -11.031   6.301  69.847  1.00  0.00    -0.370 C  
HETATM    5  N   UNL     1     -10.265   7.469  69.329  1.00  0.00    -0.196 N  
HETATM    6  C   UNL     1      -9.171   7.937  70.208  1.00  0.00    -0.152 C  
HETATM    7  C   UNL     1     -10.354   7.733  67.956  1.00  0.00    -0.209 C  
HETATM    8  O   UNL     1     -11.033   6.971  67.254  1.00  0.00    -0.325 OA 
HETATM    9  O   UNL     1     -10.895   8.820  71.649  1.00  0.00    -0.276 OA 
HETATM   10  C   UNL     1      -8.252   6.767  70.577  1.00  0.00    -0.117 C  
HETATM   11  C   UNL     1      -9.578   8.671  71.490  1.00  0.00    -0.257 C  
HETATM   12  O   UNL     1      -8.781   9.088  72.316  1.00  0.00    -0.367 OA 
ENDROOT
BRANCH   7  13
HETATM   13  C   UNL     1      -9.751   9.001  67.252  1.00  0.00    -0.179 C  
BRANCH  13  14
HETATM   14  C   UNL     1      -9.735   9.078  65.702  1.00  0.00    -0.178 C  
BRANCH  14  15
HETATM   15  C   UNL     1      -8.338   8.812  65.105  1.00  0.00    -0.176 C  
BRANCH  15  16
HETATM   16  C   UNL     1      -8.247   7.516  64.285  1.00  0.00     0.005 C  
BRANCH  16  17
HETATM   17  N   UNL     1      -8.580   6.400  65.151  1.00  0.00    -0.327 NA 
HETATM   18  H2  UNL     1      -8.914   4.586  66.759  1.00  0.00     0.000 HD 
HETATM   19  H1  UNL     1      -9.328   3.387  65.474  1.00  0.00     0.000 HD 
HETATM   20  N   UNL     1      -9.150   4.741  63.553  1.00  0.00    -0.308 NA 
HETATM   21  N   UNL     1      -9.062   4.322  65.785  1.00  0.00    -0.128 NA 
HETATM   22  C   UNL     1      -8.932   5.163  64.740  1.00  0.00    -0.056 C  
HETATM   23  H   UNL     1      -8.546   6.565  66.157  1.00  0.00     0.000 HD 
HETATM   24  H1  UNL     1      -9.415   3.806  63.242  1.00  0.00     0.000 HD 
HETATM   25  H2  UNL     1      -9.043   5.435  62.814  1.00  0.00     0.000 HD 
ENDBRANCH  16  17
ENDBRANCH  15  16
ENDBRANCH  14  15
ENDBRANCH  13  14
BRANCH  13  26
HETATM   26  N   UNL     1      -8.394   9.358  67.750  1.00  0.00    -0.115 N  
HETATM   27  H   UNL     1      -7.668   8.647  67.837  1.00  0.00     0.000 HD 
BRANCH  26  28
HETATM   28  S   UNL     1      -8.075  10.982  68.172  1.00  0.00    -0.128 S  
HETATM   29  O   UNL     1      -7.363  11.596  67.082  1.00  0.00    -0.127 OA 
HETATM   30  O   UNL     1      -7.481  10.919  69.491  1.00  0.00    -0.137 OA 
BRANCH  28  31
HETATM   31  C   UNL     1      -9.705  11.669  68.308  1.00  0.00    -0.197 A  
HETATM   32  C   UNL     1     -12.202  13.922  66.491  1.00  0.00    -0.482 C  
HETATM   33  C   UNL     1     -10.414  11.402  69.490  1.00  0.00     0.046 A  
HETATM   34  C   UNL     1     -11.870  15.272  64.390  1.00  0.00    -0.288 C  
HETATM   35  C   UNL     1     -11.692  11.919  69.672  1.00  0.00    -0.413 A  
HETATM   36  C   UNL     1     -11.177  14.530  65.528  1.00  0.00    -0.335 C  
HETATM   37  C   UNL     1     -10.287  13.406  65.015  1.00  0.00    -0.347 C  
HETATM   38  H   UNL     1      -8.556  12.592  66.040  1.00  0.00     0.000 HD 
HETATM   39  N   UNL     1      -9.555  12.784  66.116  1.00  0.00    -0.242 NA 
HETATM   40  C   UNL     1     -12.266  12.700  68.676  1.00  0.00     0.031 A  
HETATM   41  C   UNL     1     -10.266  12.459  67.282  1.00  0.00    -0.215 A  
HETATM   42  C   UNL     1     -11.563  12.984  67.491  1.00  0.00    -0.405 A  
ENDBRANCH  28  31
ENDBRANCH  26  28
ENDBRANCH  13  26
ENDBRANCH   7  13
TORSDOF 8
ENDMDL
MODEL      243
REMARK 921   NORMALIZED FREE ENERGY PREDICTED BY IDOCK:   -4.93 KCAL/MOL
REMARK 922        TOTAL FREE ENERGY PREDICTED BY IDOCK:   -8.49 KCAL/MOL
REMARK 923 INTER-LIGAND FREE ENERGY PREDICTED BY IDOCK:   -6.36 KCAL/MOL
REMARK 924 INTRA-LIGAND FREE ENERGY PREDICTED BY IDOCK:   -2.14 KCAL/MOL
REMARK 927      BINDING AFFINITY PREDICTED BY RF-SCORE:    0.00 PKD
ROOT
HETATM    1  C   UNL     1     -14.043   8.748  72.061  1.00  0.00    -0.508 C  
HETATM    2  C   UNL     1     -12.525   8.634  72.066  1.00  0.00    -0.433 C  
HETATM    3  C   UNL     1     -11.879   9.572  71.040  1.00  0.00    -0.408 C  
HETATM    4  C   UNL     1     -10.359   9.413  71.025  1.00  0.00    -0.312 C  
HETATM    5  N   UNL     1      -9.916   7.997  70.907  1.00  0.00    -0.186 N  
HETATM    6  C   UNL     1     -10.561   7.060  71.853  1.00  0.00    -0.214 C  
HETATM    7  C   UNL     1      -9.295   7.619  69.709  1.00  0.00    -0.150 C  
HETATM    8  O   UNL     1      -9.180   8.469  68.814  1.00  0.00    -0.143 OA 
HETATM    9  O   UNL     1      -9.198   8.074  73.567  1.00  0.00    -0.272 OA 
HETATM   10  C   UNL     1     -12.086   7.191  71.770  1.00  0.00    -0.363 C  
HETATM   11  C   UNL     1     -10.134   7.155  73.321  1.00  0.00    -0.276 C  
HETATM   12  O   UNL     1     -10.602   6.461  74.210  1.00  0.00    -0.257 OA 
ENDROOT
BRANCH   7  13
HETATM   13  C   UNL     1      -8.623   6.223  69.455  1.00  0.00    -0.125 C  
BRANCH  13  14
HETATM   14  C   UNL     1      -7.258   5.900  70.119  1.00  0.00    -0.072 C  
BRANCH  14  15
HETATM   15  C   UNL     1      -6.068   6.556  69.390  1.00  0.00    -0.022 C  
BRANCH  15  16
HETATM   16  C   UNL     1      -5.141   7.366  70.309  1.00  0.00    -0.023 C  
BRANCH  16  17
HETATM   17  N   UNL     1      -5.538   8.761  70.248  1.00  0.00    -0.027 NA 
HETATM   18  H2  UNL     1      -5.940  11.170  70.083  1.00  0.00     0.000 HD 
HETATM   19  H1  UNL     1      -6.975  11.200  71.562  1.00  0.00     0.000 HD 
HETATM   20  N   UNL     1      -6.922   8.922  72.168  1.00  0.00    -0.305 NA 
HETATM   21  N   UNL     1      -6.394  10.716  70.876  1.00  0.00    -0.350 NA 
HETATM   22  C   UNL     1      -6.306   9.401  71.155  1.00  0.00    -0.074 C  
HETATM   23  H   UNL     1      -5.208   9.305  69.450  1.00  0.00     0.000 HD 
HETATM   24  H1  UNL     1      -7.503   9.406  72.854  1.00  0.00     0.000 HD 
HETATM   25  H2  UNL     1      -6.819   7.918  72.311  1.00  0.00     0.000 HD 
ENDBRANCH  16  17
ENDBRANCH  15  16
ENDBRANCH  14  15
ENDBRANCH  13  14
BRANCH  13  26
HETATM   26  N   UNL     1      -8.532   5.869  68.011  1.00  0.00    -0.111 N  
HETATM   27  H   UNL     1      -7.728   6.159  67.455  1.00  0.00     0.000 HD 
BRANCH  26  28
HETATM   28  S   UNL     1      -9.800   4.970  67.305  1.00  0.00    -0.187 S  
HETATM   29  O   UNL     1     -10.989   5.782  67.322  1.00  0.00    -0.255 OA 
HETATM   30  O   UNL     1      -9.778   3.691  67.983  1.00  0.00    -0.152 OA 
BRANCH  28  31
HETATM   31  C   UNL     1      -9.230   4.747  65.640  1.00  0.00    -0.152 A  
HETATM   32  C   UNL     1      -7.770   6.644  62.659  1.00  0.00    -0.100 C  
HETATM   33  C   UNL     1      -9.360   3.463  65.087  1.00  0.00    -0.155 A  
HETATM   34  C   UNL     1      -7.420   9.124  62.386  1.00  0.00    -0.100 C  
HETATM   35  C   UNL     1      -8.947   3.216  63.783  1.00  0.00    -0.092 A  
HETATM   36  C   UNL     1      -8.143   8.037  63.176  1.00  0.00    -0.114 C  
HETATM   37  C   UNL     1      -7.807   8.095  64.660  1.00  0.00    -0.136 C  
HETATM   38  H   UNL     1      -9.064   7.372  66.274  1.00  0.00     0.000 HD 
HETATM   39  N   UNL     1      -8.593   7.116  65.406  1.00  0.00    -0.086 NA 
HETATM   40  C   UNL     1      -8.402   4.248  63.028  1.00  0.00    -0.093 A  
HETATM   41  C   UNL     1      -8.681   5.811  64.894  1.00  0.00     0.005 A  
HETATM   42  C   UNL     1      -8.277   5.543  63.565  1.00  0.00    -0.106 A  
ENDBRANCH  28  31
ENDBRANCH  26  28
ENDBRANCH  13  26
ENDBRANCH   7  13
TORSDOF 8
ENDMDL
MODEL      244
REMARK 921   NORMALIZED FREE ENERGY PREDICTED BY IDOCK:   -4.93 KCAL/MOL
REMARK 922        TOTAL FREE ENERGY PREDICTED BY IDOCK:   -8.49 KCAL/MOL
REMARK 923 INTER-LIGAND FREE ENERGY PREDICTED BY IDOCK:   -6.62 KCAL/MOL
REMARK 924 INTRA-LIGAND FREE ENERGY PREDICTED BY IDOCK:   -1.86 KCAL/MOL
REMARK 927      BINDING AFFINITY PREDICTED BY RF-SCORE:    0.00 PKD
ROOT
HETATM    1  C   UNL     1     -13.033  14.177  65.246  1.00  0.00    -0.268 C  
HETATM    2  C   UNL     1     -11.663  13.556  65.477  1.00  0.00    -0.361 C  
HETATM    3  C   UNL     1     -11.049  13.031  64.175  1.00  0.00    -0.437 C  
HETATM    4  C   UNL     1      -9.694  12.370  64.429  1.00  0.00     0.031 C  
HETATM    5  N   UNL     1      -9.724  11.366  65.529  1.00  0.00    -0.223 N  
HETATM    6  C   UNL     1     -10.357  11.832  66.782  1.00  0.00    -0.219 C  
HETATM    7  C   UNL     1      -9.558  10.022  65.171  1.00  0.00    -0.291 C  
HETATM    8  O   UNL     1      -9.427   9.746  63.970  1.00  0.00    -0.242 OA 
HETATM    9  O   UNL     1      -8.377  13.171  67.119  1.00  0.00    -0.181 OA 
HETATM   10  C   UNL     1     -11.749  12.405  66.490  1.00  0.00    -0.443 C  
HETATM   11  C   UNL     1      -9.570  12.845  67.621  1.00  0.00    -0.196 C  
HETATM   12  O   UNL     1      -9.983  13.330  68.662  1.00  0.00    -0.210 OA 
ENDROOT
BRANCH   7  13
HETATM   13  C   UNL     1      -9.405   8.840  66.194  1.00  0.00    -0.234 C  
BRANCH  13  14
HETATM   14  C   UNL     1     -10.543   8.558  67.210  1.00  0.00    -0.315 C  
BRANCH  14  15
HETATM   15  C   UNL     1     -10.972   7.077  67.232  1.00  0.00    -0.372 C  
BRANCH  15  16
HETATM   16  C   UNL     1     -11.353   6.558  68.627  1.00  0.00    -0.109 C  
BRANCH  16  17
HETATM   17  N   UNL     1     -11.529   7.697  69.509  1.00  0.00    -0.383 NA 
HETATM   18  H2  UNL     1     -11.656   9.759  70.821  1.00  0.00     0.000 HD 
HETATM   19  H1  UNL     1     -11.466   8.890  72.392  1.00  0.00     0.000 HD 
HETATM   20  N   UNL     1     -11.298   6.665  71.633  1.00  0.00    -0.262 NA 
HETATM   21  N   UNL     1     -11.534   8.911  71.374  1.00  0.00    -0.286 NA 
HETATM   22  C   UNL     1     -11.439   7.670  70.856  1.00  0.00    -0.282 C  
HETATM   23  H   UNL     1     -11.737   8.596  69.073  1.00  0.00     0.000 HD 
HETATM   24  H1  UNL     1     -11.230   6.645  72.651  1.00  0.00     0.000 HD 
HETATM   25  H2  UNL     1     -11.244   5.757  71.172  1.00  0.00     0.000 HD 
ENDBRANCH  16  17
ENDBRANCH  15  16
ENDBRANCH  14  15
ENDBRANCH  13  14
BRANCH  13  26
HETATM   26  N   UNL     1      -8.115   8.871  66.936  1.00  0.00    -0.108 N  
HETATM   27  H   UNL     1      -8.008   9.449  67.770  1.00  0.00     0.000 HD 
BRANCH  26  28
HETATM   28  S   UNL     1      -6.817   7.919  66.367  1.00  0.00    -0.063 S  
HETATM   29  O   UNL     1      -5.744   8.007  67.322  1.00  0.00    -0.036 OA 
HETATM   30  O   UNL     1      -6.613   8.341  64.996  1.00  0.00    -0.058 OA 
BRANCH  28  31
HETATM   31  C   UNL     1      -7.510   6.286  66.368  1.00  0.00    -0.086 A  
HETATM   32  C   UNL     1      -8.698   3.503  68.704  1.00  0.00    -0.139 C  
HETATM   33  C   UNL     1      -7.683   5.665  65.121  1.00  0.00    -0.090 A  
HETATM   34  C   UNL     1      -8.534   3.373  71.214  1.00  0.00    -0.095 C  
HETATM   35  C   UNL     1      -8.209   4.380  65.045  1.00  0.00    -0.104 A  
HETATM   36  C   UNL     1      -8.014   4.061  69.955  1.00  0.00    -0.052 C  
HETATM   37  C   UNL     1      -8.249   5.565  69.991  1.00  0.00    -0.104 C  
HETATM   38  H   UNL     1      -7.087   7.055  68.926  1.00  0.00     0.000 HD 
HETATM   39  N   UNL     1      -7.647   6.209  68.827  1.00  0.00    -0.090 NA 
HETATM   40  C   UNL     1      -8.565   3.713  66.211  1.00  0.00    -0.115 A  
HETATM   41  C   UNL     1      -7.863   5.630  67.566  1.00  0.00    -0.101 A  
HETATM   42  C   UNL     1      -8.386   4.319  67.468  1.00  0.00    -0.099 A  
ENDBRANCH  28  31
ENDBRANCH  26  28
ENDBRANCH  13  26
ENDBRANCH   7  13
TORSDOF 8
ENDMDL
MODEL      245
REMARK 921   NORMALIZED FREE ENERGY PREDICTED BY IDOCK:   -4.92 KCAL/MOL
REMARK 922        TOTAL FREE ENERGY PREDICTED BY IDOCK:   -8.48 KCAL/MOL
REMARK 923 INTER-LIGAND FREE ENERGY PREDICTED BY IDOCK:   -6.52 KCAL/MOL
REMARK 924 INTRA-LIGAND FREE ENERGY PREDICTED BY IDOCK:   -1.96 KCAL/MOL
REMARK 927      BINDING AFFINITY PREDICTED BY RF-SCORE:    0.00 PKD
ROOT
HETATM    1  C   UNL     1      -6.374  10.091  64.538  1.00  0.00    -0.130 C  
HETATM    2  C   UNL     1      -6.299  10.256  66.049  1.00  0.00    -0.102 C  
HETATM    3  C   UNL     1      -5.419   9.183  66.698  1.00  0.00    -0.039 C  
HETATM    4  C   UNL     1      -5.391   9.335  68.219  1.00  0.00    -0.037 C  
HETATM    5  N   UNL     1      -6.746   9.450  68.825  1.00  0.00    -0.052 N  
HETATM    6  C   UNL     1      -7.633  10.445  68.185  1.00  0.00    -0.091 C  
HETATM    7  C   UNL     1      -7.186   8.378  69.613  1.00  0.00    -0.057 C  
HETATM    8  O   UNL     1      -6.443   7.394  69.733  1.00  0.00    -0.034 OA 
HETATM    9  O   UNL     1      -6.260  12.133  69.229  1.00  0.00    -0.080 OA 
HETATM   10  C   UNL     1      -7.701  10.199  66.674  1.00  0.00    -0.106 C  
HETATM   11  C   UNL     1      -7.310  11.922  68.433  1.00  0.00    -0.095 C  
HETATM   12  O   UNL     1      -7.944  12.846  67.948  1.00  0.00    -0.129 OA 
ENDROOT
BRANCH   7  13
HETATM   13  C   UNL     1      -8.509   8.378  70.458  1.00  0.00    -0.132 C  
BRANCH  13  14
HETATM   14  C   UNL     1      -8.448   8.711  71.973  1.00  0.00    -0.191 C  
BRANCH  14  15
HETATM   15  C   UNL     1      -8.180   7.469  72.848  1.00  0.00    -0.149 C  
BRANCH  15  16
HETATM   16  C   UNL     1      -9.315   7.142  73.831  1.00  0.00    -0.243 C  
BRANCH  16  17
HETATM   17  N   UNL     1      -9.321   5.710  74.064  1.00  0.00    -0.133 NA 
HETATM   18  H2  UNL     1      -9.052   3.314  74.489  1.00  0.00     0.000 HD 
HETATM   19  H1  UNL     1     -10.186   2.850  73.163  1.00  0.00     0.000 HD 
HETATM   20  N   UNL     1     -10.799   4.979  72.358  1.00  0.00    -0.198 NA 
HETATM   21  N   UNL     1      -9.688   3.542  73.724  1.00  0.00    -0.102 NA 
HETATM   22  C   UNL     1      -9.980   4.794  73.322  1.00  0.00    -0.155 C  
HETATM   23  H   UNL     1      -8.780   5.365  74.858  1.00  0.00     0.000 HD 
HETATM   24  H1  UNL     1     -11.297   4.287  71.797  1.00  0.00     0.000 HD 
HETATM   25  H2  UNL     1     -10.980   5.952  72.116  1.00  0.00     0.000 HD 
ENDBRANCH  16  17
ENDBRANCH  15  16
ENDBRANCH  14  15
ENDBRANCH  13  14
BRANCH  13  26
HETATM   26  N   UNL     1      -9.315   7.137  70.287  1.00  0.00    -0.156 N  
HETATM   27  H   UNL     1      -8.975   6.244  70.644  1.00  0.00     0.000 HD 
BRANCH  26  28
HETATM   28  S   UNL     1     -10.817   7.237  69.483  1.00  0.00    -0.169 S  
HETATM   29  O   UNL     1     -11.517   5.996  69.685  1.00  0.00    -0.394 OA 
HETATM   30  O   UNL     1     -10.499   7.688  68.144  1.00  0.00    -0.203 OA 
BRANCH  28  31
HETATM   31  C   UNL     1     -11.630   8.552  70.354  1.00  0.00    -0.069 A  
HETATM   32  C   UNL     1     -12.375  12.297  70.174  1.00  0.00    -0.212 C  
HETATM   33  C   UNL     1     -12.200   8.237  71.598  1.00  0.00    -0.350 A  
HETATM   34  C   UNL     1     -11.533  13.995  68.514  1.00  0.00    -0.336 C  
HETATM   35  C   UNL     1     -12.843   9.219  72.343  1.00  0.00    -0.418 A  
HETATM   36  C   UNL     1     -11.321  12.604  69.105  1.00  0.00    -0.339 C  
HETATM   37  C   UNL     1     -11.398  11.517  68.041  1.00  0.00    -0.298 C  
HETATM   38  H   UNL     1     -10.444   9.571  68.147  1.00  0.00     0.000 HD 
HETATM   39  N   UNL     1     -11.086  10.211  68.615  1.00  0.00    -0.227 NA 
HETATM   40  C   UNL     1     -12.921  10.516  71.849  1.00  0.00    -0.553 A  
HETATM   41  C   UNL     1     -11.695   9.860  69.830  1.00  0.00    -0.071 A  
HETATM   42  C   UNL     1     -12.344  10.848  70.609  1.00  0.00    -0.470 A  
ENDBRANCH  28  31
ENDBRANCH  26  28
ENDBRANCH  13  26
ENDBRANCH   7  13
TORSDOF 8
ENDMDL
MODEL      246
REMARK 921   NORMALIZED FREE ENERGY PREDICTED BY IDOCK:   -4.89 KCAL/MOL
REMARK 922        TOTAL FREE ENERGY PREDICTED BY IDOCK:   -8.43 KCAL/MOL
REMARK 923 INTER-LIGAND FREE ENERGY PREDICTED BY IDOCK:   -8.71 KCAL/MOL
REMARK 924 INTRA-LIGAND FREE ENERGY PREDICTED BY IDOCK:    0.27 KCAL/MOL
REMARK 927      BINDING AFFINITY PREDICTED BY RF-SCORE:    0.00 PKD
ROOT
HETATM    1  C   UNL     1      -9.876   5.980  74.412  1.00  0.00    -0.270 C  
HETATM    2  C   UNL     1     -10.228   6.409  72.994  1.00  0.00    -0.216 C  
HETATM    3  C   UNL     1      -8.989   6.467  72.093  1.00  0.00    -0.136 C  
HETATM    4  C   UNL     1      -9.350   6.942  70.686  1.00  0.00    -0.162 C  
HETATM    5  N   UNL     1     -10.162   8.191  70.675  1.00  0.00    -0.195 N  
HETATM    6  C   UNL     1     -11.336   8.179  71.574  1.00  0.00    -0.263 C  
HETATM    7  C   UNL     1      -9.546   9.348  70.181  1.00  0.00    -0.238 C  
HETATM    8  O   UNL     1      -8.365   9.274  69.814  1.00  0.00    -0.116 OA 
HETATM    9  O   UNL     1     -12.359   6.674  69.990  1.00  0.00    -0.081 OA 
HETATM   10  C   UNL     1     -10.912   7.784  72.993  1.00  0.00    -0.442 C  
HETATM   11  C   UNL     1     -12.525   7.310  71.152  1.00  0.00    -0.336 C  
HETATM   12  O   UNL     1     -13.545   7.189  71.810  1.00  0.00    -0.354 OA 
ENDROOT
BRANCH   7  13
HETATM   13  C   UNL     1     -10.280  10.716  69.944  1.00  0.00     0.039 C  
BRANCH  13  14
HETATM   14  C   UNL     1     -11.828  10.745  69.843  1.00  0.00    -0.413 C  
BRANCH  14  15
HETATM   15  C   UNL     1     -12.496  11.374  71.083  1.00  0.00    -0.465 C  
BRANCH  15  16
HETATM   16  C   UNL     1     -12.782  12.877  70.943  1.00  0.00    -0.207 C  
BRANCH  16  17
HETATM   17  N   UNL     1     -11.737  13.469  70.129  1.00  0.00    -0.492 NA 
HETATM   18  H2  UNL     1      -9.801  14.277  68.868  1.00  0.00     0.000 HD 
HETATM   19  H1  UNL     1     -10.205  16.012  69.165  1.00  0.00     0.000 HD 
HETATM   20  N   UNL     1     -12.173  15.780  70.442  1.00  0.00    -0.387 NA 
HETATM   21  N   UNL     1     -10.386  15.012  69.266  1.00  0.00    -0.242 NA 
HETATM   22  C   UNL     1     -11.498  14.791  69.994  1.00  0.00    -0.277 C  
HETATM   23  H   UNL     1     -11.130  12.830  69.613  1.00  0.00     0.000 HD 
HETATM   24  H1  UNL     1     -11.993  16.779  70.340  1.00  0.00     0.000 HD 
HETATM   25  H2  UNL     1     -13.008  15.537  70.975  1.00  0.00     0.000 HD 
ENDBRANCH  16  17
ENDBRANCH  15  16
ENDBRANCH  14  15
ENDBRANCH  13  14
BRANCH  13  26
HETATM   26  N   UNL     1      -9.724  11.489  68.799  1.00  0.00    -0.353 N  
HETATM   27  H   UNL     1      -8.892  12.067  68.916  1.00  0.00     0.000 HD 
BRANCH  26  28
HETATM   28  S   UNL     1     -10.508  11.389  67.285  1.00  0.00    -0.216 S  
HETATM   29  O   UNL     1     -10.494  12.699  66.686  1.00  0.00    -0.242 OA 
HETATM   30  O   UNL     1     -11.765  10.722  67.554  1.00  0.00    -0.510 OA 
BRANCH  28  31
HETATM   31  C   UNL     1      -9.453  10.287  66.380  1.00  0.00    -0.174 A  
HETATM   32  C   UNL     1      -8.763   6.577  65.768  1.00  0.00    -0.129 C  
HETATM   33  C   UNL     1      -8.429  10.868  65.615  1.00  0.00    -0.139 A  
HETATM   34  C   UNL     1      -9.787   4.574  66.902  1.00  0.00    -0.238 C  
HETATM   35  C   UNL     1      -7.555  10.065  64.889  1.00  0.00    -0.139 A  
HETATM   36  C   UNL     1      -9.553   6.080  66.983  1.00  0.00    -0.148 C  
HETATM   37  C   UNL     1     -10.861   6.856  67.046  1.00  0.00    -0.366 C  
HETATM   38  H   UNL     1     -11.126   8.824  67.922  1.00  0.00     0.000 HD 
HETATM   39  N   UNL     1     -10.606   8.282  67.231  1.00  0.00    -0.301 NA 
HETATM   40  C   UNL     1      -7.703   8.683  64.923  1.00  0.00    -0.106 A  
HETATM   41  C   UNL     1      -9.624   8.887  66.430  1.00  0.00    -0.238 A  
HETATM   42  C   UNL     1      -8.718   8.088  65.694  1.00  0.00    -0.156 A  
ENDBRANCH  28  31
ENDBRANCH  26  28
ENDBRANCH  13  26
ENDBRANCH   7  13
TORSDOF 8
ENDMDL
MODEL      247
REMARK 921   NORMALIZED FREE ENERGY PREDICTED BY IDOCK:   -4.89 KCAL/MOL
REMARK 922        TOTAL FREE ENERGY PREDICTED BY IDOCK:   -8.43 KCAL/MOL
REMARK 923 INTER-LIGAND FREE ENERGY PREDICTED BY IDOCK:   -6.14 KCAL/MOL
REMARK 924 INTRA-LIGAND FREE ENERGY PREDICTED BY IDOCK:   -2.29 KCAL/MOL
REMARK 927      BINDING AFFINITY PREDICTED BY RF-SCORE:    0.00 PKD
ROOT
HETATM    1  C   UNL     1      -6.257  10.788  68.946  1.00  0.00    -0.041 C  
HETATM    2  C   UNL     1      -6.526   9.510  69.728  1.00  0.00    -0.046 C  
HETATM    3  C   UNL     1      -5.538   8.397  69.359  1.00  0.00    -0.031 C  
HETATM    4  C   UNL     1      -5.849   7.108  70.119  1.00  0.00    -0.024 C  
HETATM    5  N   UNL     1      -7.278   6.699  70.027  1.00  0.00    -0.077 N  
HETATM    6  C   UNL     1      -8.253   7.769  70.331  1.00  0.00    -0.121 C  
HETATM    7  C   UNL     1      -7.565   5.542  69.291  1.00  0.00    -0.086 C  
HETATM    8  O   UNL     1      -6.628   4.949  68.740  1.00  0.00    -0.045 OA 
HETATM    9  O   UNL     1      -7.605   7.513  72.641  1.00  0.00    -0.077 OA 
HETATM   10  C   UNL     1      -7.957   9.010  69.482  1.00  0.00    -0.099 C  
HETATM   11  C   UNL     1      -8.386   8.191  71.797  1.00  0.00    -0.142 C  
HETATM   12  O   UNL     1      -9.133   9.076  72.184  1.00  0.00    -0.372 OA 
ENDROOT
BRANCH   7  13
HETATM   13  C   UNL     1      -8.981   4.867  69.209  1.00  0.00    -0.094 C  
BRANCH  13  14
HETATM   14  C   UNL     1      -9.317   3.681  70.152  1.00  0.00    -0.243 C  
BRANCH  14  15
HETATM   15  C   UNL     1      -8.727   3.856  71.567  1.00  0.00    -0.131 C  
BRANCH  15  16
HETATM   16  C   UNL     1      -9.673   4.555  72.555  1.00  0.00    -0.151 C  
BRANCH  16  17
HETATM   17  N   UNL     1     -10.740   5.186  71.801  1.00  0.00    -0.178 NA 
HETATM   18  H2  UNL     1     -12.382   6.208  70.301  1.00  0.00     0.000 HD 
HETATM   19  H1  UNL     1     -12.706   7.581  71.427  1.00  0.00     0.000 HD 
HETATM   20  N   UNL     1     -11.256   7.030  73.202  1.00  0.00    -0.530 NA 
HETATM   21  N   UNL     1     -12.229   6.716  71.172  1.00  0.00    -0.349 NA 
HETATM   22  C   UNL     1     -11.371   6.331  72.137  1.00  0.00    -0.297 C  
HETATM   23  H   UNL     1     -11.040   4.724  70.942  1.00  0.00     0.000 HD 
HETATM   24  H1  UNL     1     -11.733   7.896  73.456  1.00  0.00     0.000 HD 
HETATM   25  H2  UNL     1     -10.597   6.673  73.893  1.00  0.00     0.000 HD 
ENDBRANCH  16  17
ENDBRANCH  15  16
ENDBRANCH  14  15
ENDBRANCH  13  14
BRANCH  13  26
HETATM   26  N   UNL     1      -9.368   4.484  67.824  1.00  0.00    -0.138 N  
HETATM   27  H   UNL     1      -9.052   3.602  67.420  1.00  0.00     0.000 HD 
BRANCH  26  28
HETATM   28  S   UNL     1     -10.353   5.548  66.923  1.00  0.00    -0.286 S  
HETATM   29  O   UNL     1     -11.274   6.182  67.830  1.00  0.00    -0.294 OA 
HETATM   30  O   UNL     1     -10.846   4.758  65.813  1.00  0.00    -0.295 OA 
BRANCH  28  31
HETATM   31  C   UNL     1      -9.180   6.730  66.311  1.00  0.00    -0.127 A  
HETATM   32  C   UNL     1      -8.661  10.477  65.765  1.00  0.00    -0.180 C  
HETATM   33  C   UNL     1      -7.997   6.223  65.751  1.00  0.00    -0.116 A  
HETATM   34  C   UNL     1     -10.302  12.362  66.091  1.00  0.00    -0.271 C  
HETATM   35  C   UNL     1      -7.036   7.089  65.240  1.00  0.00    -0.068 A  
HETATM   36  C   UNL     1     -10.137  10.854  65.922  1.00  0.00    -0.307 C  
HETATM   37  C   UNL     1     -10.697  10.085  67.111  1.00  0.00    -0.212 C  
HETATM   38  H   UNL     1     -11.422   8.040  67.071  1.00  0.00     0.000 HD 
HETATM   39  N   UNL     1     -10.624   8.645  66.875  1.00  0.00    -0.260 NA 
HETATM   40  C   UNL     1      -7.254   8.462  65.287  1.00  0.00    -0.082 A  
HETATM   41  C   UNL     1      -9.424   8.118  66.370  1.00  0.00    -0.218 A  
HETATM   42  C   UNL     1      -8.440   8.982  65.835  1.00  0.00    -0.150 A  
ENDBRANCH  28  31
ENDBRANCH  26  28
ENDBRANCH  13  26
ENDBRANCH   7  13
TORSDOF 8
ENDMDL
MODEL      248
REMARK 921   NORMALIZED FREE ENERGY PREDICTED BY IDOCK:   -4.89 KCAL/MOL
REMARK 922        TOTAL FREE ENERGY PREDICTED BY IDOCK:   -8.43 KCAL/MOL
REMARK 923 INTER-LIGAND FREE ENERGY PREDICTED BY IDOCK:   -7.18 KCAL/MOL
REMARK 924 INTRA-LIGAND FREE ENERGY PREDICTED BY IDOCK:   -1.25 KCAL/MOL
REMARK 927      BINDING AFFINITY PREDICTED BY RF-SCORE:    0.00 PKD
ROOT
HETATM    1  C   UNL     1     -11.355  16.019  69.956  1.00  0.00    -0.353 C  
HETATM    2  C   UNL     1     -11.535  14.656  69.304  1.00  0.00    -0.322 C  
HETATM    3  C   UNL     1     -12.343  13.701  70.190  1.00  0.00    -0.372 C  
HETATM    4  C   UNL     1     -12.477  12.323  69.542  1.00  0.00     0.229 C  
HETATM    5  N   UNL     1     -11.178  11.761  69.080  1.00  0.00    -0.246 N  
HETATM    6  C   UNL     1     -10.355  12.680  68.262  1.00  0.00    -0.241 C  
HETATM    7  C   UNL     1     -10.682  10.647  69.770  1.00  0.00    -0.230 C  
HETATM    8  O   UNL     1     -11.331  10.217  70.734  1.00  0.00    -0.318 OA 
HETATM    9  O   UNL     1     -11.947  12.302  66.488  1.00  0.00    -0.596 OA 
HETATM   10  C   UNL     1     -10.174  14.016  68.991  1.00  0.00    -0.100 C  
HETATM   11  C   UNL     1     -10.836  12.955  66.834  1.00  0.00    -0.257 C  
HETATM   12  O   UNL     1     -10.268  13.710  66.060  1.00  0.00    -0.292 OA 
ENDROOT
BRANCH   7  13
HETATM   13  C   UNL     1      -9.418   9.821  69.338  1.00  0.00    -0.201 C  
BRANCH  13  14
HETATM   14  C   UNL     1      -9.277   8.345  69.795  1.00  0.00    -0.157 C  
BRANCH  14  15
HETATM   15  C   UNL     1     -10.097   7.369  68.926  1.00  0.00    -0.188 C  
BRANCH  15  16
HETATM   16  C   UNL     1     -11.046   6.465  69.727  1.00  0.00    -0.396 C  
BRANCH  16  17
HETATM   17  N   UNL     1     -12.273   7.198  69.981  1.00  0.00    -0.433 NA 
HETATM   18  H2  UNL     1     -14.218   8.652  70.285  1.00  0.00     0.000 HD 
HETATM   19  H1  UNL     1     -14.490   8.102  71.983  1.00  0.00     0.000 HD 
HETATM   20  N   UNL     1     -12.736   6.545  72.215  1.00  0.00    -0.553 NA 
HETATM   21  N   UNL     1     -13.979   8.086  71.099  1.00  0.00    -0.152 NA 
HETATM   22  C   UNL     1     -12.949   7.219  71.150  1.00  0.00    -0.259 C  
HETATM   23  H   UNL     1     -12.657   7.744  69.210  1.00  0.00     0.000 HD 
HETATM   24  H1  UNL     1     -13.247   6.561  73.098  1.00  0.00     0.000 HD 
HETATM   25  H2  UNL     1     -11.946   5.901  72.177  1.00  0.00     0.000 HD 
ENDBRANCH  16  17
ENDBRANCH  15  16
ENDBRANCH  14  15
ENDBRANCH  13  14
BRANCH  13  26
HETATM   26  N   UNL     1      -8.135  10.521  69.625  1.00  0.00    -0.352 N  
HETATM   27  H   UNL     1      -8.055  11.155  70.420  1.00  0.00     0.000 HD 
BRANCH  26  28
HETATM   28  S   UNL     1      -6.800  10.242  68.598  1.00  0.00    -0.059 S  
HETATM   29  O   UNL     1      -6.041   9.145  69.138  1.00  0.00    -0.041 OA 
HETATM   30  O   UNL     1      -6.184  11.540  68.419  1.00  0.00    -0.049 OA 
BRANCH  28  31
HETATM   31  C   UNL     1      -7.580   9.761  67.078  1.00  0.00    -0.092 A  
HETATM   32  C   UNL     1      -8.136   6.761  64.777  1.00  0.00    -0.098 C  
HETATM   33  C   UNL     1      -8.208  10.774  66.336  1.00  0.00    -0.155 A  
HETATM   34  C   UNL     1      -7.155   4.446  64.938  1.00  0.00    -0.062 C  
HETATM   35  C   UNL     1      -8.829  10.475  65.128  1.00  0.00    -0.206 A  
HETATM   36  C   UNL     1      -7.032   5.897  65.394  1.00  0.00    -0.063 C  
HETATM   37  C   UNL     1      -7.122   6.026  66.908  1.00  0.00    -0.070 C  
HETATM   38  H   UNL     1      -6.267   7.627  68.097  1.00  0.00     0.000 HD 
HETATM   39  N   UNL     1      -6.894   7.407  67.323  1.00  0.00    -0.075 NA 
HETATM   40  C   UNL     1      -8.826   9.166  64.660  1.00  0.00    -0.183 A  
HETATM   41  C   UNL     1      -7.563   8.426  66.625  1.00  0.00    -0.089 A  
HETATM   42  C   UNL     1      -8.191   8.144  65.389  1.00  0.00    -0.147 A  
ENDBRANCH  28  31
ENDBRANCH  26  28
ENDBRANCH  13  26
ENDBRANCH   7  13
TORSDOF 8
ENDMDL
MODEL      249
REMARK 921   NORMALIZED FREE ENERGY PREDICTED BY IDOCK:   -4.85 KCAL/MOL
REMARK 922        TOTAL FREE ENERGY PREDICTED BY IDOCK:   -8.37 KCAL/MOL
REMARK 923 INTER-LIGAND FREE ENERGY PREDICTED BY IDOCK:   -6.71 KCAL/MOL
REMARK 924 INTRA-LIGAND FREE ENERGY PREDICTED BY IDOCK:   -1.66 KCAL/MOL
REMARK 927      BINDING AFFINITY PREDICTED BY RF-SCORE:    0.00 PKD
ROOT
HETATM    1  C   UNL     1      -5.842  13.180  70.194  1.00  0.00    -0.147 C  
HETATM    2  C   UNL     1      -6.166  11.899  69.437  1.00  0.00    -0.108 C  
HETATM    3  C   UNL     1      -5.134  11.609  68.341  1.00  0.00    -0.039 C  
HETATM    4  C   UNL     1      -5.497  10.345  67.560  1.00  0.00    -0.040 C  
HETATM    5  N   UNL     1      -6.906  10.334  67.079  1.00  0.00    -0.082 N  
HETATM    6  C   UNL     1      -7.920  10.661  68.106  1.00  0.00    -0.113 C  
HETATM    7  C   UNL     1      -7.109  10.438  65.696  1.00  0.00    -0.142 C  
HETATM    8  O   UNL     1      -6.117  10.562  64.965  1.00  0.00    -0.127 OA 
HETATM    9  O   UNL     1      -7.485   8.474  69.029  1.00  0.00    -0.085 OA 
HETATM   10  C   UNL     1      -7.562  11.980  68.801  1.00  0.00    -0.070 C  
HETATM   11  C   UNL     1      -8.193   9.596  69.173  1.00  0.00    -0.120 C  
HETATM   12  O   UNL     1      -8.984   9.743  70.091  1.00  0.00    -0.226 OA 
ENDROOT
BRANCH   7  13
HETATM   13  C   UNL     1      -8.502  10.289  64.987  1.00  0.00    -0.172 C  
BRANCH  13  14
HETATM   14  C   UNL     1      -8.721   9.139  63.968  1.00  0.00    -0.165 C  
BRANCH  14  15
HETATM   15  C   UNL     1      -7.654   8.030  64.079  1.00  0.00    -0.124 C  
BRANCH  15  16
HETATM   16  C   UNL     1      -8.126   6.784  64.843  1.00  0.00    -0.112 C  
BRANCH  16  17
HETATM   17  N   UNL     1      -9.381   7.097  65.502  1.00  0.00    -0.262 NA 
HETATM   18  H2  UNL     1     -11.486   7.872  66.481  1.00  0.00     0.000 HD 
HETATM   19  H1  UNL     1     -11.061   7.265  68.127  1.00  0.00     0.000 HD 
HETATM   20  N   UNL     1      -8.938   6.332  67.704  1.00  0.00    -0.117 NA 
HETATM   21  N   UNL     1     -10.857   7.409  67.138  1.00  0.00    -0.323 NA 
HETATM   22  C   UNL     1      -9.650   6.907  66.812  1.00  0.00    -0.168 C  
HETATM   23  H   UNL     1     -10.123   7.496  64.927  1.00  0.00     0.000 HD 
HETATM   24  H1  UNL     1      -9.141   6.188  68.694  1.00  0.00     0.000 HD 
HETATM   25  H2  UNL     1      -8.041   5.967  67.383  1.00  0.00     0.000 HD 
ENDBRANCH  16  17
ENDBRANCH  15  16
ENDBRANCH  14  15
ENDBRANCH  13  14
BRANCH  13  26
HETATM   26  N   UNL     1      -8.984  11.555  64.369  1.00  0.00    -0.376 N  
HETATM   27  H   UNL     1      -8.362  12.123  63.794  1.00  0.00     0.000 HD 
BRANCH  26  28
HETATM   28  S   UNL     1     -10.599  12.039  64.641  1.00  0.00    -0.326 S  
HETATM   29  O   UNL     1     -11.395  10.855  64.835  1.00  0.00     0.127 OA 
HETATM   30  O   UNL     1     -10.905  12.957  63.563  1.00  0.00    -0.340 OA 
BRANCH  28  31
HETATM   31  C   UNL     1     -10.475  12.952  66.157  1.00  0.00    -0.269 A  
HETATM   32  C   UNL     1     -11.350  12.785  69.874  1.00  0.00    -0.032 C  
HETATM   33  C   UNL     1      -9.919  14.240  66.082  1.00  0.00    -0.330 A  
HETATM   34  C   UNL     1     -12.700  11.046  71.100  1.00  0.00    -0.521 C  
HETATM   35  C   UNL     1      -9.802  15.020  67.227  1.00  0.00    -0.228 A  
HETATM   36  C   UNL     1     -12.354  11.636  69.736  1.00  0.00    -0.197 C  
HETATM   37  C   UNL     1     -11.753  10.594  68.802  1.00  0.00    -0.188 C  
HETATM   38  H   UNL     1     -11.813  10.650  66.634  1.00  0.00     0.000 HD 
HETATM   39  N   UNL     1     -11.533  11.158  67.473  1.00  0.00    -0.510 NA 
HETATM   40  C   UNL     1     -10.236  14.517  68.448  1.00  0.00    -0.239 A  
HETATM   41  C   UNL     1     -10.924  12.420  67.384  1.00  0.00    -0.254 A  
HETATM   42  C   UNL     1     -10.805  13.234  68.535  1.00  0.00    -0.286 A  
ENDBRANCH  28  31
ENDBRANCH  26  28
ENDBRANCH  13  26
ENDBRANCH   7  13
TORSDOF 8
ENDMDL
MODEL      250
REMARK 921   NORMALIZED FREE ENERGY PREDICTED BY IDOCK:   -4.84 KCAL/MOL
REMARK 922        TOTAL FREE ENERGY PREDICTED BY IDOCK:   -8.36 KCAL/MOL
REMARK 923 INTER-LIGAND FREE ENERGY PREDICTED BY IDOCK:   -6.64 KCAL/MOL
REMARK 924 INTRA-LIGAND FREE ENERGY PREDICTED BY IDOCK:   -1.72 KCAL/MOL
REMARK 927      BINDING AFFINITY PREDICTED BY RF-SCORE:    0.00 PKD
ROOT
HETATM    1  C   UNL     1      -6.180  18.229  67.480  1.00  0.00    -0.185 C  
HETATM    2  C   UNL     1      -7.393  17.319  67.615  1.00  0.00    -0.179 C  
HETATM    3  C   UNL     1      -7.157  16.205  68.640  1.00  0.00    -0.147 C  
HETATM    4  C   UNL     1      -8.365  15.273  68.732  1.00  0.00    -0.179 C  
HETATM    5  N   UNL     1      -8.834  14.783  67.407  1.00  0.00    -0.182 N  
HETATM    6  C   UNL     1      -9.023  15.834  66.384  1.00  0.00    -0.331 C  
HETATM    7  C   UNL     1      -8.652  13.422  67.128  1.00  0.00    -0.195 C  
HETATM    8  O   UNL     1      -8.090  12.718  67.979  1.00  0.00    -0.140 OA 
HETATM    9  O   UNL     1     -10.990  16.487  67.618  1.00  0.00    -0.301 OA 
HETATM   10  C   UNL     1      -7.755  16.687  66.263  1.00  0.00    -0.273 C  
HETATM   11  C   UNL     1     -10.230  16.762  66.557  1.00  0.00    -0.316 C  
HETATM   12  O   UNL     1     -10.490  17.685  65.802  1.00  0.00    -0.550 OA 
ENDROOT
BRANCH   7  13
HETATM   13  C   UNL     1      -9.217  12.689  65.859  1.00  0.00     0.086 C  
BRANCH  13  14
HETATM   14  C   UNL     1     -10.712  12.860  65.480  1.00  0.00    -0.301 C  
BRANCH  14  15
HETATM   15  C   UNL     1     -11.613  13.120  66.705  1.00  0.00    -0.403 C  
BRANCH  15  16
HETATM   16  C   UNL     1     -12.141  11.842  67.374  1.00  0.00     0.270 C  
BRANCH  16  17
HETATM   17  N   UNL     1     -11.043  11.205  68.077  1.00  0.00    -0.252 NA 
HETATM   18  H2  UNL     1      -9.121  10.015  69.017  1.00  0.00     0.000 HD 
HETATM   19  H1  UNL     1     -10.033   9.497  70.487  1.00  0.00     0.000 HD 
HETATM   20  N   UNL     1     -12.134  10.476  70.054  1.00  0.00    -0.407 NA 
HETATM   21  N   UNL     1      -9.965   9.980  69.590  1.00  0.00    -0.225 NA 
HETATM   22  C   UNL     1     -11.133  10.566  69.263  1.00  0.00    -0.246 C  
HETATM   23  H   UNL     1     -10.123  11.243  67.637  1.00  0.00     0.000 HD 
HETATM   24  H1  UNL     1     -12.202   9.993  70.951  1.00  0.00     0.000 HD 
HETATM   25  H2  UNL     1     -12.981  10.952  69.747  1.00  0.00     0.000 HD 
ENDBRANCH  16  17
ENDBRANCH  15  16
ENDBRANCH  14  15
ENDBRANCH  13  14
BRANCH  13  26
HETATM   26  N   UNL     1      -8.893  11.235  65.829  1.00  0.00    -0.295 N  
HETATM   27  H   UNL     1      -8.730  10.721  66.695  1.00  0.00     0.000 HD 
BRANCH  26  28
HETATM   28  S   UNL     1      -8.802  10.446  64.318  1.00  0.00    -0.218 S  
HETATM   29  O   UNL     1      -7.812  11.120  63.520  1.00  0.00     0.367 OA 
HETATM   30  O   UNL     1     -10.172  10.352  63.858  1.00  0.00    -0.243 OA 
BRANCH  28  31
HETATM   31  C   UNL     1      -8.233   8.826  64.766  1.00  0.00    -0.162 A  
HETATM   32  C   UNL     1      -8.941   5.919  67.145  1.00  0.00    -0.113 C  
HETATM   33  C   UNL     1      -7.082   8.352  64.117  1.00  0.00    -0.083 A  
HETATM   34  C   UNL     1     -10.599   5.797  69.038  1.00  0.00    -0.351 C  
HETATM   35  C   UNL     1      -6.571   7.096  64.426  1.00  0.00    -0.040 A  
HETATM   36  C   UNL     1      -9.835   6.722  68.095  1.00  0.00    -0.144 C  
HETATM   37  C   UNL     1     -10.773   7.575  67.252  1.00  0.00    -0.295 C  
HETATM   38  H   UNL     1     -10.294   9.505  66.382  1.00  0.00     0.000 HD 
HETATM   39  N   UNL     1     -10.017   8.524  66.439  1.00  0.00    -0.270 NA 
HETATM   40  C   UNL     1      -7.207   6.311  65.380  1.00  0.00    -0.070 A  
HETATM   41  C   UNL     1      -8.897   8.049  65.738  1.00  0.00    -0.132 A  
HETATM   42  C   UNL     1      -8.355   6.779  66.046  1.00  0.00    -0.134 A  
ENDBRANCH  28  31
ENDBRANCH  26  28
ENDBRANCH  13  26
ENDBRANCH   7  13
TORSDOF 8
ENDMDL
MODEL      251
REMARK 921   NORMALIZED FREE ENERGY PREDICTED BY IDOCK:   -4.83 KCAL/MOL
REMARK 922        TOTAL FREE ENERGY PREDICTED BY IDOCK:   -8.33 KCAL/MOL
REMARK 923 INTER-LIGAND FREE ENERGY PREDICTED BY IDOCK:   -8.22 KCAL/MOL
REMARK 924 INTRA-LIGAND FREE ENERGY PREDICTED BY IDOCK:   -0.11 KCAL/MOL
REMARK 927      BINDING AFFINITY PREDICTED BY RF-SCORE:    0.00 PKD
ROOT
HETATM    1  C   UNL     1     -10.868   5.376  73.510  1.00  0.00    -0.342 C  
HETATM    2  C   UNL     1     -11.560   6.300  72.517  1.00  0.00    -0.273 C  
HETATM    3  C   UNL     1     -11.186   5.963  71.070  1.00  0.00    -0.280 C  
HETATM    4  C   UNL     1     -11.852   6.926  70.087  1.00  0.00    -0.212 C  
HETATM    5  N   UNL     1     -11.656   8.359  70.441  1.00  0.00    -0.141 N  
HETATM    6  C   UNL     1     -11.962   8.701  71.848  1.00  0.00    -0.356 C  
HETATM    7  C   UNL     1     -10.840   9.120  69.594  1.00  0.00    -0.197 C  
HETATM    8  O   UNL     1     -10.310   8.556  68.626  1.00  0.00    -0.202 OA 
HETATM    9  O   UNL     1     -14.288   8.445  71.256  1.00  0.00    -0.358 OA 
HETATM   10  C   UNL     1     -11.203   7.767  72.797  1.00  0.00    -0.456 C  
HETATM   11  C   UNL     1     -13.440   8.723  72.249  1.00  0.00    -0.420 C  
HETATM   12  O   UNL     1     -13.833   8.965  73.380  1.00  0.00    -0.102 OA 
ENDROOT
BRANCH   7  13
HETATM   13  C   UNL     1     -10.639  10.673  69.710  1.00  0.00    -0.184 C  
BRANCH  13  14
HETATM   14  C   UNL     1     -11.728  11.628  69.153  1.00  0.00    -0.390 C  
BRANCH  14  15
HETATM   15  C   UNL     1     -11.806  12.961  69.924  1.00  0.00    -0.373 C  
BRANCH  15  16
HETATM   16  C   UNL     1     -11.812  14.205  69.022  1.00  0.00    -0.348 C  
BRANCH  16  17
HETATM   17  N   UNL     1     -12.416  13.847  67.752  1.00  0.00    -0.377 NA 
HETATM   18  H2  UNL     1     -13.402  12.976  65.687  1.00  0.00     0.000 HD 
HETATM   19  H1  UNL     1     -12.509  14.151  64.647  1.00  0.00     0.000 HD 
HETATM   20  N   UNL     1     -11.307  15.347  66.285  1.00  0.00    -0.164 NA 
HETATM   21  N   UNL     1     -12.750  13.750  65.554  1.00  0.00    -0.601 NA 
HETATM   22  C   UNL     1     -12.097  14.377  66.552  1.00  0.00    -0.372 C  
HETATM   23  H   UNL     1     -13.146  13.134  67.767  1.00  0.00     0.000 HD 
HETATM   24  H1  UNL     1     -11.066  15.747  65.378  1.00  0.00     0.000 HD 
HETATM   25  H2  UNL     1     -10.856  15.780  67.090  1.00  0.00     0.000 HD 
ENDBRANCH  16  17
ENDBRANCH  15  16
ENDBRANCH  14  15
ENDBRANCH  13  14
BRANCH  13  26
HETATM   26  N   UNL     1      -9.315  11.132  69.205  1.00  0.00    -0.404 N  
HETATM   27  H   UNL     1      -8.475  11.023  69.774  1.00  0.00     0.000 HD 
BRANCH  26  28
HETATM   28  S   UNL     1      -9.230  11.845  67.656  1.00  0.00    -0.190 S  
HETATM   29  O   UNL     1      -9.096  13.269  67.825  1.00  0.00    -0.183 OA 
HETATM   30  O   UNL     1     -10.355  11.298  66.927  1.00  0.00    -0.217 OA 
BRANCH  28  31
HETATM   31  C   UNL     1      -7.731  11.159  67.001  1.00  0.00    -0.139 A  
HETATM   32  C   UNL     1      -6.298   8.006  65.382  1.00  0.00    -0.048 C  
HETATM   33  C   UNL     1      -6.571  11.943  67.105  1.00  0.00    -0.148 A  
HETATM   34  C   UNL     1      -7.413   5.777  65.012  1.00  0.00    -0.079 C  
HETATM   35  C   UNL     1      -5.356  11.466  66.624  1.00  0.00    -0.132 A  
HETATM   36  C   UNL     1      -7.465   7.096  65.778  1.00  0.00    -0.081 C  
HETATM   37  C   UNL     1      -8.762   7.852  65.520  1.00  0.00    -0.081 C  
HETATM   38  H   UNL     1      -9.680   9.289  66.862  1.00  0.00     0.000 HD 
HETATM   39  N   UNL     1      -8.831   9.054  66.346  1.00  0.00    -0.139 NA 
HETATM   40  C   UNL     1      -5.297  10.207  66.038  1.00  0.00    -0.050 A  
HETATM   41  C   UNL     1      -7.696   9.878  66.411  1.00  0.00    -0.104 A  
HETATM   42  C   UNL     1      -6.449   9.406  65.938  1.00  0.00    -0.075 A  
ENDBRANCH  28  31
ENDBRANCH  26  28
ENDBRANCH  13  26
ENDBRANCH   7  13
TORSDOF 8
ENDMDL
MODEL      252
REMARK 921   NORMALIZED FREE ENERGY PREDICTED BY IDOCK:   -4.82 KCAL/MOL
REMARK 922        TOTAL FREE ENERGY PREDICTED BY IDOCK:   -8.32 KCAL/MOL
REMARK 923 INTER-LIGAND FREE ENERGY PREDICTED BY IDOCK:   -7.63 KCAL/MOL
REMARK 924 INTRA-LIGAND FREE ENERGY PREDICTED BY IDOCK:   -0.69 KCAL/MOL
REMARK 927      BINDING AFFINITY PREDICTED BY RF-SCORE:    0.00 PKD
ROOT
HETATM    1  C   UNL     1      -5.178  14.104  67.975  1.00  0.00    -0.100 C  
HETATM    2  C   UNL     1      -5.615  12.647  67.920  1.00  0.00    -0.104 C  
HETATM    3  C   UNL     1      -5.419  12.045  66.525  1.00  0.00     0.260 C  
HETATM    4  C   UNL     1      -5.905  10.596  66.474  1.00  0.00    -0.081 C  
HETATM    5  N   UNL     1      -7.278  10.415  67.021  1.00  0.00    -0.090 N  
HETATM    6  C   UNL     1      -7.509  11.031  68.346  1.00  0.00    -0.100 C  
HETATM    7  C   UNL     1      -8.289  10.080  66.110  1.00  0.00    -0.120 C  
HETATM    8  O   UNL     1      -7.990   9.984  64.911  1.00  0.00    -0.130 OA 
HETATM    9  O   UNL     1      -6.161   9.247  69.253  1.00  0.00    -0.040 OA 
HETATM   10  C   UNL     1      -7.091  12.505  68.324  1.00  0.00    -0.104 C  
HETATM   11  C   UNL     1      -6.854  10.348  69.551  1.00  0.00    -0.093 C  
HETATM   12  O   UNL     1      -6.941  10.762  70.696  1.00  0.00    -0.177 OA 
ENDROOT
BRANCH   7  13
HETATM   13  C   UNL     1      -9.758   9.697  66.510  1.00  0.00    -0.212 C  
BRANCH  13  14
HETATM   14  C   UNL     1     -10.119   8.208  66.758  1.00  0.00    -0.365 C  
BRANCH  14  15
HETATM   15  C   UNL     1     -10.233   7.862  68.257  1.00  0.00    -0.240 C  
BRANCH  15  16
HETATM   16  C   UNL     1     -10.896   6.505  68.535  1.00  0.00    -0.288 C  
BRANCH  16  17
HETATM   17  N   UNL     1     -11.794   6.656  69.665  1.00  0.00    -0.646 NA 
HETATM   18  H2  UNL     1     -13.418   7.131  71.435  1.00  0.00     0.000 HD 
HETATM   19  H1  UNL     1     -12.207   6.884  72.751  1.00  0.00     0.000 HD 
HETATM   20  N   UNL     1     -10.296   6.346  71.479  1.00  0.00    -0.204 NA 
HETATM   21  N   UNL     1     -12.478   6.911  71.767  1.00  0.00    -0.358 NA 
HETATM   22  C   UNL     1     -11.435   6.619  70.966  1.00  0.00    -0.330 C  
HETATM   23  H   UNL     1     -12.783   6.802  69.459  1.00  0.00     0.000 HD 
HETATM   24  H1  UNL     1     -10.024   6.319  72.462  1.00  0.00     0.000 HD 
HETATM   25  H2  UNL     1      -9.556   6.125  70.813  1.00  0.00     0.000 HD 
ENDBRANCH  16  17
ENDBRANCH  15  16
ENDBRANCH  14  15
ENDBRANCH  13  14
BRANCH  13  26
HETATM   26  N   UNL     1     -10.784  10.279  65.602  1.00  0.00     0.031 N  
HETATM   27  H   UNL     1     -11.395   9.674  65.052  1.00  0.00     0.000 HD 
BRANCH  26  28
HETATM   28  S   UNL     1     -10.920  11.977  65.498  1.00  0.00    -0.305 S  
HETATM   29  O   UNL     1     -12.067  12.286  64.684  1.00  0.00    -0.395 OA 
HETATM   30  O   UNL     1      -9.603  12.438  65.110  1.00  0.00    -0.114 OA 
BRANCH  28  31
HETATM   31  C   UNL     1     -11.219  12.442  67.184  1.00  0.00    -0.298 A  
HETATM   32  C   UNL     1     -11.017  15.405  69.589  1.00  0.00    -0.288 C  
HETATM   33  C   UNL     1     -11.631  11.427  68.061  1.00  0.00    -0.357 A  
HETATM   34  C   UNL     1     -10.066  17.703  69.185  1.00  0.00    -0.232 C  
HETATM   35  C   UNL     1     -11.872  11.714  69.401  1.00  0.00    -0.408 A  
HETATM   36  C   UNL     1     -10.115  16.260  68.693  1.00  0.00    -0.233 C  
HETATM   37  C   UNL     1     -10.640  16.163  67.267  1.00  0.00    -0.305 C  
HETATM   38  H   UNL     1     -10.202  14.570  65.860  1.00  0.00     0.000 HD 
HETATM   39  N   UNL     1     -10.575  14.786  66.785  1.00  0.00    -0.296 NA 
HETATM   40  C   UNL     1     -11.703  13.013  69.866  1.00  0.00    -0.326 A  
HETATM   41  C   UNL     1     -11.040  13.767  67.632  1.00  0.00    -0.273 A  
HETATM   42  C   UNL     1     -11.279  14.036  69.000  1.00  0.00    -0.311 A  
ENDBRANCH  28  31
ENDBRANCH  26  28
ENDBRANCH  13  26
ENDBRANCH   7  13
TORSDOF 8
ENDMDL
MODEL      253
REMARK 921   NORMALIZED FREE ENERGY PREDICTED BY IDOCK:   -4.82 KCAL/MOL
REMARK 922        TOTAL FREE ENERGY PREDICTED BY IDOCK:   -8.32 KCAL/MOL
REMARK 923 INTER-LIGAND FREE ENERGY PREDICTED BY IDOCK:   -6.74 KCAL/MOL
REMARK 924 INTRA-LIGAND FREE ENERGY PREDICTED BY IDOCK:   -1.59 KCAL/MOL
REMARK 927      BINDING AFFINITY PREDICTED BY RF-SCORE:    0.00 PKD
ROOT
HETATM    1  C   UNL     1     -10.202   9.359  65.885  1.00  0.00    -0.123 C  
HETATM    2  C   UNL     1     -10.432  10.724  65.251  1.00  0.00    -0.282 C  
HETATM    3  C   UNL     1      -9.112  11.439  64.944  1.00  0.00     0.002 C  
HETATM    4  C   UNL     1      -9.360  12.826  64.349  1.00  0.00     0.768 C  
HETATM    5  N   UNL     1     -10.318  13.645  65.142  1.00  0.00    -0.357 N  
HETATM    6  C   UNL     1     -11.581  12.960  65.495  1.00  0.00    -0.358 C  
HETATM    7  C   UNL     1      -9.802  14.761  65.813  1.00  0.00    -0.342 C  
HETATM    8  O   UNL     1      -8.585  14.983  65.733  1.00  0.00     0.452 OA 
HETATM    9  O   UNL     1     -12.203  13.214  63.177  1.00  0.00    -0.631 OA 
HETATM   10  C   UNL     1     -11.283  11.615  66.168  1.00  0.00    -0.314 C  
HETATM   11  C   UNL     1     -12.587  12.735  64.362  1.00  0.00    -0.352 C  
HETATM   12  O   UNL     1     -13.656  12.162  64.507  1.00  0.00    -0.477 OA 
ENDROOT
BRANCH   7  13
HETATM   13  C   UNL     1     -10.672  15.829  66.567  1.00  0.00    -0.283 C  
BRANCH  13  14
HETATM   14  C   UNL     1     -10.902  17.221  65.920  1.00  0.00    -0.003 C  
BRANCH  14  15
HETATM   15  C   UNL     1     -10.780  18.378  66.933  1.00  0.00    -0.303 C  
BRANCH  15  16
HETATM   16  C   UNL     1      -9.747  19.446  66.539  1.00  0.00    -0.375 C  
BRANCH  16  17
HETATM   17  N   UNL     1      -8.685  19.443  67.528  1.00  0.00    -0.298 NA 
HETATM   18  H2  UNL     1      -7.095  19.410  69.388  1.00  0.00     0.000 HD 
HETATM   19  H1  UNL     1      -6.125  20.776  68.716  1.00  0.00     0.000 HD 
HETATM   20  N   UNL     1      -7.327  21.222  66.738  1.00  0.00    -0.755 NA 
HETATM   21  N   UNL     1      -6.905  20.119  68.680  1.00  0.00    -0.293 NA 
HETATM   22  C   UNL     1      -7.652  20.312  67.575  1.00  0.00    -0.306 C  
HETATM   23  H   UNL     1      -8.722  18.723  68.249  1.00  0.00     0.000 HD 
HETATM   24  H1  UNL     1      -6.547  21.878  66.774  1.00  0.00     0.000 HD 
HETATM   25  H2  UNL     1      -7.932  21.303  65.921  1.00  0.00     0.000 HD 
ENDBRANCH  16  17
ENDBRANCH  15  16
ENDBRANCH  14  15
ENDBRANCH  13  14
BRANCH  13  26
HETATM   26  N   UNL     1     -10.252  16.037  67.980  1.00  0.00    -0.240 N  
HETATM   27  H   UNL     1      -9.403  16.558  68.198  1.00  0.00     0.000 HD 
BRANCH  26  28
HETATM   28  S   UNL     1     -11.217  15.385  69.228  1.00  0.00    -0.322 S  
HETATM   29  O   UNL     1     -12.599  15.548  68.857  1.00  0.00     0.096 OA 
HETATM   30  O   UNL     1     -10.712  15.982  70.447  1.00  0.00    -0.295 OA 
BRANCH  28  31
HETATM   31  C   UNL     1     -10.771  13.668  69.200  1.00  0.00    -0.104 A  
HETATM   32  C   UNL     1      -7.852  11.309  68.476  1.00  0.00    -0.138 C  
HETATM   33  C   UNL     1     -11.788  12.740  69.476  1.00  0.00    -0.379 A  
HETATM   34  C   UNL     1      -5.575  11.856  67.547  1.00  0.00    -0.096 C  
HETATM   35  C   UNL     1     -11.516  11.376  69.461  1.00  0.00    -0.381 A  
HETATM   36  C   UNL     1      -7.009  12.346  67.728  1.00  0.00    -0.118 C  
HETATM   37  C   UNL     1      -7.069  13.653  68.506  1.00  0.00    -0.107 C  
HETATM   38  H   UNL     1      -8.651  15.133  68.379  1.00  0.00     0.000 HD 
HETATM   39  N   UNL     1      -8.439  14.153  68.570  1.00  0.00    -0.165 NA 
HETATM   40  C   UNL     1     -10.230  10.936  69.171  1.00  0.00    -0.215 A  
HETATM   41  C   UNL     1      -9.458  13.246  68.904  1.00  0.00     0.223 A  
HETATM   42  C   UNL     1      -9.204  11.855  68.882  1.00  0.00     0.135 A  
ENDBRANCH  28  31
ENDBRANCH  26  28
ENDBRANCH  13  26
ENDBRANCH   7  13
TORSDOF 8
ENDMDL
MODEL      254
REMARK 921   NORMALIZED FREE ENERGY PREDICTED BY IDOCK:   -4.82 KCAL/MOL
REMARK 922        TOTAL FREE ENERGY PREDICTED BY IDOCK:   -8.32 KCAL/MOL
REMARK 923 INTER-LIGAND FREE ENERGY PREDICTED BY IDOCK:   -7.42 KCAL/MOL
REMARK 924 INTRA-LIGAND FREE ENERGY PREDICTED BY IDOCK:   -0.90 KCAL/MOL
REMARK 927      BINDING AFFINITY PREDICTED BY RF-SCORE:    0.00 PKD
ROOT
HETATM    1  C   UNL     1     -10.271   4.348  65.629  1.00  0.00    -0.259 C  
HETATM    2  C   UNL     1      -9.391   5.109  66.610  1.00  0.00    -0.137 C  
HETATM    3  C   UNL     1     -10.044   5.224  67.992  1.00  0.00    -0.208 C  
HETATM    4  C   UNL     1      -9.169   6.028  68.953  1.00  0.00    -0.124 C  
HETATM    5  N   UNL     1      -8.719   7.331  68.390  1.00  0.00    -0.123 N  
HETATM    6  C   UNL     1      -8.129   7.255  67.035  1.00  0.00    -0.117 C  
HETATM    7  C   UNL     1      -9.251   8.493  68.964  1.00  0.00    -0.146 C  
HETATM    8  O   UNL     1     -10.079   8.370  69.878  1.00  0.00    -0.188 OA 
HETATM    9  O   UNL     1      -6.202   6.249  68.084  1.00  0.00    -0.029 OA 
HETATM   10  C   UNL     1      -9.080   6.518  66.085  1.00  0.00    -0.146 C  
HETATM   11  C   UNL     1      -6.733   6.633  66.921  1.00  0.00    -0.056 C  
HETATM   12  O   UNL     1      -6.140   6.486  65.865  1.00  0.00    -0.028 OA 
ENDROOT
BRANCH   7  13
HETATM   13  C   UNL     1      -8.785   9.952  68.617  1.00  0.00    -0.124 C  
BRANCH  13  14
HETATM   14  C   UNL     1      -7.275  10.306  68.675  1.00  0.00    -0.081 C  
BRANCH  14  15
HETATM   15  C   UNL     1      -7.003  11.806  68.444  1.00  0.00    -0.080 C  
BRANCH  15  16
HETATM   16  C   UNL     1      -6.951  12.211  66.963  1.00  0.00    -0.068 C  
BRANCH  16  17
HETATM   17  N   UNL     1      -6.346  11.126  66.212  1.00  0.00    -0.267 NA 
HETATM   18  H2  UNL     1      -5.095   9.457  64.931  1.00  0.00     0.000 HD 
HETATM   19  H1  UNL     1      -6.492   9.094  63.848  1.00  0.00     0.000 HD 
HETATM   20  N   UNL     1      -8.113  10.557  64.735  1.00  0.00    -0.303 NA 
HETATM   21  N   UNL     1      -6.057   9.596  64.623  1.00  0.00    -0.081 NA 
HETATM   22  C   UNL     1      -6.921  10.463  65.186  1.00  0.00    -0.082 C  
HETATM   23  H   UNL     1      -5.405  10.841  66.482  1.00  0.00     0.000 HD 
HETATM   24  H1  UNL     1      -8.548  10.056  63.959  1.00  0.00     0.000 HD 
HETATM   25  H2  UNL     1      -8.714  11.226  65.216  1.00  0.00     0.000 HD 
ENDBRANCH  16  17
ENDBRANCH  15  16
ENDBRANCH  14  15
ENDBRANCH  13  14
BRANCH  13  26
HETATM   26  N   UNL     1      -9.537  11.001  69.361  1.00  0.00    -0.422 N  
HETATM   27  H   UNL     1      -9.208  11.331  70.269  1.00  0.00     0.000 HD 
BRANCH  26  28
HETATM   28  S   UNL     1     -10.959  11.640  68.666  1.00  0.00    -0.237 S  
HETATM   29  O   UNL     1     -11.418  10.719  67.659  1.00  0.00    -0.477 OA 
HETATM   30  O   UNL     1     -10.625  13.004  68.312  1.00  0.00    -0.233 OA 
BRANCH  28  31
HETATM   31  C   UNL     1     -12.081  11.660  70.040  1.00  0.00    -0.319 A  
HETATM   32  C   UNL     1     -13.510  13.948  72.748  1.00  0.00    -0.547 C  
HETATM   33  C   UNL     1     -12.685  10.442  70.389  1.00  0.00    -0.289 A  
HETATM   34  C   UNL     1     -12.868  16.319  73.311  1.00  0.00    -0.492 C  
HETATM   35  C   UNL     1     -13.567  10.379  71.463  1.00  0.00    -0.165 A  
HETATM   36  C   UNL     1     -12.447  15.040  72.593  1.00  0.00    -0.453 C  
HETATM   37  C   UNL     1     -12.221  15.271  71.105  1.00  0.00    -0.350 C  
HETATM   38  H   UNL     1     -10.925  14.096  69.822  1.00  0.00     0.000 HD 
HETATM   39  N   UNL     1     -11.716  14.060  70.466  1.00  0.00    -0.242 NA 
HETATM   40  C   UNL     1     -13.848  11.530  72.189  1.00  0.00     0.262 A  
HETATM   41  C   UNL     1     -12.350  12.842  70.761  1.00  0.00    -0.299 A  
HETATM   42  C   UNL     1     -13.241  12.755  71.857  1.00  0.00    -0.511 A  
ENDBRANCH  28  31
ENDBRANCH  26  28
ENDBRANCH  13  26
ENDBRANCH   7  13
TORSDOF 8
ENDMDL
MODEL      255
REMARK 921   NORMALIZED FREE ENERGY PREDICTED BY IDOCK:   -4.81 KCAL/MOL
REMARK 922        TOTAL FREE ENERGY PREDICTED BY IDOCK:   -8.31 KCAL/MOL
REMARK 923 INTER-LIGAND FREE ENERGY PREDICTED BY IDOCK:   -8.54 KCAL/MOL
REMARK 924 INTRA-LIGAND FREE ENERGY PREDICTED BY IDOCK:    0.24 KCAL/MOL
REMARK 927      BINDING AFFINITY PREDICTED BY RF-SCORE:    0.00 PKD
ROOT
HETATM    1  C   UNL     1      -5.346  10.700  62.330  1.00  0.00    -0.146 C  
HETATM    2  C   UNL     1      -6.495  10.089  63.120  1.00  0.00    -0.133 C  
HETATM    3  C   UNL     1      -7.817  10.158  62.349  1.00  0.00    -0.152 C  
HETATM    4  C   UNL     1      -8.969   9.582  63.173  1.00  0.00    -0.194 C  
HETATM    5  N   UNL     1      -9.046  10.142  64.550  1.00  0.00    -0.218 N  
HETATM    6  C   UNL     1      -7.771  10.133  65.300  1.00  0.00    -0.144 C  
HETATM    7  C   UNL     1     -10.138  10.970  64.843  1.00  0.00    -0.300 C  
HETATM    8  O   UNL     1     -10.951  11.210  63.940  1.00  0.00    -0.374 OA 
HETATM    9  O   UNL     1      -8.068   7.747  65.503  1.00  0.00    -0.113 OA 
HETATM   10  C   UNL     1      -6.666  10.800  64.472  1.00  0.00     0.323 C  
HETATM   11  C   UNL     1      -7.267   8.774  65.795  1.00  0.00    -0.084 C  
HETATM   12  O   UNL     1      -6.220   8.618  66.404  1.00  0.00    -0.058 OA 
ENDROOT
BRANCH   7  13
HETATM   13  C   UNL     1     -10.477  11.525  66.272  1.00  0.00    -0.251 C  
BRANCH  13  14
HETATM   14  C   UNL     1     -11.949  11.861  66.631  1.00  0.00     0.028 C  
BRANCH  14  15
HETATM   15  C   UNL     1     -12.281  13.357  66.457  1.00  0.00    -0.414 C  
BRANCH  15  16
HETATM   16  C   UNL     1     -11.637  13.999  65.219  1.00  0.00    -0.337 C  
BRANCH  16  17
HETATM   17  N   UNL     1     -10.701  15.016  65.663  1.00  0.00    -0.333 NA 
HETATM   18  H2  UNL     1      -9.199  16.663  66.674  1.00  0.00     0.000 HD 
HETATM   19  H1  UNL     1      -9.643  17.947  65.486  1.00  0.00     0.000 HD 
HETATM   20  N   UNL     1     -11.196  16.778  64.153  1.00  0.00    -1.383 NA 
HETATM   21  N   UNL     1      -9.720  17.003  65.866  1.00  0.00    -0.523 NA 
HETATM   22  C   UNL     1     -10.599  16.265  65.160  1.00  0.00    -0.304 C  
HETATM   23  H   UNL     1     -10.066  14.765  66.421  1.00  0.00     0.000 HD 
HETATM   24  H1  UNL     1     -11.119  17.722  63.773  1.00  0.00     0.000 HD 
HETATM   25  H2  UNL     1     -11.839  16.158  63.661  1.00  0.00     0.000 HD 
ENDBRANCH  16  17
ENDBRANCH  15  16
ENDBRANCH  14  15
ENDBRANCH  13  14
BRANCH  13  26
HETATM   26  N   UNL     1      -9.626  12.681  66.669  1.00  0.00    -0.243 N  
HETATM   27  H   UNL     1      -9.424  13.429  66.006  1.00  0.00     0.000 HD 
BRANCH  26  28
HETATM   28  S   UNL     1      -8.996  12.730  68.255  1.00  0.00    -0.138 S  
HETATM   29  O   UNL     1      -8.133  13.877  68.359  1.00  0.00    -0.137 OA 
HETATM   30  O   UNL     1      -8.477  11.400  68.496  1.00  0.00    -0.149 OA 
BRANCH  28  31
HETATM   31  C   UNL     1     -10.454  12.965  69.239  1.00  0.00     0.244 A  
HETATM   32  C   UNL     1     -12.999  11.080  71.379  1.00  0.00    -0.517 C  
HETATM   33  C   UNL     1     -10.992  14.261  69.282  1.00  0.00    -0.271 A  
HETATM   34  C   UNL     1     -13.227   8.596  71.737  1.00  0.00    -0.399 C  
HETATM   35  C   UNL     1     -12.141  14.518  70.023  1.00  0.00    -0.395 A  
HETATM   36  C   UNL     1     -12.626   9.688  70.857  1.00  0.00    -0.299 C  
HETATM   37  C   UNL     1     -11.107   9.598  70.798  1.00  0.00    -0.334 C  
HETATM   38  H   UNL     1      -9.856  10.328  69.183  1.00  0.00     0.000 HD 
HETATM   39  N   UNL     1     -10.567  10.585  69.867  1.00  0.00    -0.245 NA 
HETATM   40  C   UNL     1     -12.753  13.484  70.722  1.00  0.00    -0.316 A  
HETATM   41  C   UNL     1     -11.056  11.899  69.940  1.00  0.00     0.157 A  
HETATM   42  C   UNL     1     -12.230  12.179  70.679  1.00  0.00    -0.392 A  
ENDBRANCH  28  31
ENDBRANCH  26  28
ENDBRANCH  13  26
ENDBRANCH   7  13
TORSDOF 8
ENDMDL
MODEL      256
REMARK 921   NORMALIZED FREE ENERGY PREDICTED BY IDOCK:   -4.80 KCAL/MOL
REMARK 922        TOTAL FREE ENERGY PREDICTED BY IDOCK:   -8.30 KCAL/MOL
REMARK 923 INTER-LIGAND FREE ENERGY PREDICTED BY IDOCK:   -8.26 KCAL/MOL
REMARK 924 INTRA-LIGAND FREE ENERGY PREDICTED BY IDOCK:   -0.04 KCAL/MOL
REMARK 927      BINDING AFFINITY PREDICTED BY RF-SCORE:    0.00 PKD
ROOT
HETATM    1  C   UNL     1     -10.474   4.036  72.763  1.00  0.00    -0.234 C  
HETATM    2  C   UNL     1     -10.133   5.519  72.792  1.00  0.00    -0.208 C  
HETATM    3  C   UNL     1     -11.387   6.390  72.922  1.00  0.00    -0.169 C  
HETATM    4  C   UNL     1     -11.033   7.877  72.905  1.00  0.00    -0.388 C  
HETATM    5  N   UNL     1     -10.150   8.259  71.769  1.00  0.00    -0.203 N  
HETATM    6  C   UNL     1      -8.957   7.404  71.591  1.00  0.00    -0.123 C  
HETATM    7  C   UNL     1     -10.708   9.068  70.770  1.00  0.00    -0.241 C  
HETATM    8  O   UNL     1     -11.900   9.390  70.873  1.00  0.00    -0.281 OA 
HETATM    9  O   UNL     1      -8.064   8.481  73.557  1.00  0.00    -0.378 OA 
HETATM   10  C   UNL     1      -9.368   5.929  71.524  1.00  0.00    -0.160 C  
HETATM   11  C   UNL     1      -7.833   7.559  72.620  1.00  0.00    -0.096 C  
HETATM   12  O   UNL     1      -6.805   6.900  72.608  1.00  0.00    -0.068 OA 
ENDROOT
BRANCH   7  13
HETATM   13  C   UNL     1      -9.901   9.701  69.581  1.00  0.00    -0.215 C  
BRANCH  13  14
HETATM   14  C   UNL     1      -8.412   9.314  69.378  1.00  0.00    -0.137 C  
BRANCH  14  15
HETATM   15  C   UNL     1      -8.142   8.679  67.998  1.00  0.00    -0.111 C  
BRANCH  15  16
HETATM   16  C   UNL     1      -7.811   7.180  68.055  1.00  0.00    -0.118 C  
BRANCH  16  17
HETATM   17  N   UNL     1      -7.395   6.751  66.732  1.00  0.00    -0.080 NA 
HETATM   18  H2  UNL     1      -6.773   6.282  64.412  1.00  0.00     0.000 HD 
HETATM   19  H1  UNL     1      -7.493   4.628  64.447  1.00  0.00     0.000 HD 
HETATM   20  N   UNL     1      -8.295   4.557  66.663  1.00  0.00    -0.106 NA 
HETATM   21  N   UNL     1      -7.264   5.522  64.882  1.00  0.00    -0.061 NA 
HETATM   22  C   UNL     1      -7.697   5.568  66.157  1.00  0.00    -0.095 C  
HETATM   23  H   UNL     1      -6.824   7.401  66.190  1.00  0.00     0.000 HD 
HETATM   24  H1  UNL     1      -8.524   3.662  66.228  1.00  0.00     0.000 HD 
HETATM   25  H2  UNL     1      -8.585   4.659  67.635  1.00  0.00     0.000 HD 
ENDBRANCH  16  17
ENDBRANCH  15  16
ENDBRANCH  14  15
ENDBRANCH  13  14
BRANCH  13  26
HETATM   26  N   UNL     1     -10.007  11.186  69.525  1.00  0.00    -0.422 N  
HETATM   27  H   UNL     1      -9.507  11.768  70.197  1.00  0.00     0.000 HD 
BRANCH  26  28
HETATM   28  S   UNL     1     -10.980  11.894  68.314  1.00  0.00    -0.249 S  
HETATM   29  O   UNL     1     -12.233  11.186  68.276  1.00  0.00    -0.613 OA 
HETATM   30  O   UNL     1     -10.137  11.951  67.138  1.00  0.00    -0.202 OA 
BRANCH  28  31
HETATM   31  C   UNL     1     -11.220  13.540  68.930  1.00  0.00    -0.275 A  
HETATM   32  C   UNL     1     -10.325  17.191  68.240  1.00  0.00    -0.354 C  
HETATM   33  C   UNL     1     -11.940  13.674  70.128  1.00  0.00    -0.407 A  
HETATM   34  C   UNL     1      -8.757  18.131  66.506  1.00  0.00    -0.286 C  
HETATM   35  C   UNL     1     -12.157  14.933  70.678  1.00  0.00    -0.366 A  
HETATM   36  C   UNL     1      -9.179  16.880  67.272  1.00  0.00    -0.231 C  
HETATM   37  C   UNL     1      -9.640  15.770  66.337  1.00  0.00    -0.285 C  
HETATM   38  H   UNL     1      -9.592  13.645  66.773  1.00  0.00     0.000 HD 
HETATM   39  N   UNL     1      -9.935  14.553  67.088  1.00  0.00    -0.249 NA 
HETATM   40  C   UNL     1     -11.658  16.060  70.033  1.00  0.00    -0.316 A  
HETATM   41  C   UNL     1     -10.704  14.667  68.257  1.00  0.00    -0.239 A  
HETATM   42  C   UNL     1     -10.926  15.938  68.838  1.00  0.00    -0.290 A  
ENDBRANCH  28  31
ENDBRANCH  26  28
ENDBRANCH  13  26
ENDBRANCH   7  13
TORSDOF 8
ENDMDL
MODEL      257
REMARK 921   NORMALIZED FREE ENERGY PREDICTED BY IDOCK:   -4.80 KCAL/MOL
REMARK 922        TOTAL FREE ENERGY PREDICTED BY IDOCK:   -8.29 KCAL/MOL
REMARK 923 INTER-LIGAND FREE ENERGY PREDICTED BY IDOCK:   -6.32 KCAL/MOL
REMARK 924 INTRA-LIGAND FREE ENERGY PREDICTED BY IDOCK:   -1.97 KCAL/MOL
REMARK 927      BINDING AFFINITY PREDICTED BY RF-SCORE:    0.00 PKD
ROOT
HETATM    1  C   UNL     1      -5.315  13.445  67.778  1.00  0.00    -0.073 C  
HETATM    2  C   UNL     1      -5.804  12.021  68.002  1.00  0.00    -0.055 C  
HETATM    3  C   UNL     1      -6.170  11.330  66.684  1.00  0.00    -0.141 C  
HETATM    4  C   UNL     1      -6.701   9.918  66.929  1.00  0.00    -0.078 C  
HETATM    5  N   UNL     1      -7.777   9.863  67.957  1.00  0.00    -0.086 N  
HETATM    6  C   UNL     1      -7.469  10.565  69.221  1.00  0.00    -0.122 C  
HETATM    7  C   UNL     1      -9.069   9.548  67.513  1.00  0.00    -0.130 C  
HETATM    8  O   UNL     1      -9.244   9.365  66.300  1.00  0.00    -0.157 OA 
HETATM    9  O   UNL     1      -5.958   8.746  69.700  1.00  0.00    -0.032 OA 
HETATM   10  C   UNL     1      -7.026  12.004  68.933  1.00  0.00    -0.104 C  
HETATM   11  C   UNL     1      -6.442   9.907  70.147  1.00  0.00    -0.093 C  
HETATM   12  O   UNL     1      -6.076  10.388  71.208  1.00  0.00    -0.322 OA 
ENDROOT
BRANCH   7  13
HETATM   13  C   UNL     1     -10.297   9.290  68.457  1.00  0.00    -0.209 C  
BRANCH  13  14
HETATM   14  C   UNL     1     -10.964  10.486  69.185  1.00  0.00    -0.286 C  
BRANCH  14  15
HETATM   15  C   UNL     1     -12.025  11.197  68.320  1.00  0.00    -0.173 C  
BRANCH  15  16
HETATM   16  C   UNL     1     -11.487  12.406  67.540  1.00  0.00    -0.346 C  
BRANCH  16  17
HETATM   17  N   UNL     1     -11.260  12.001  66.165  1.00  0.00    -0.330 NA 
HETATM   18  H2  UNL     1     -10.603  11.354  63.898  1.00  0.00     0.000 HD 
HETATM   19  H1  UNL     1     -11.918  12.325  63.132  1.00  0.00     0.000 HD 
HETATM   20  N   UNL     1     -12.954  13.229  65.046  1.00  0.00    -0.732 NA 
HETATM   21  N   UNL     1     -11.408  11.979  63.945  1.00  0.00    -0.391 NA 
HETATM   22  C   UNL     1     -11.935  12.458  65.089  1.00  0.00    -0.400 C  
HETATM   23  H   UNL     1     -10.526  11.312  65.997  1.00  0.00     0.000 HD 
HETATM   24  H1  UNL     1     -13.464  13.574  64.233  1.00  0.00     0.000 HD 
HETATM   25  H2  UNL     1     -13.305  13.544  65.950  1.00  0.00     0.000 HD 
ENDBRANCH  16  17
ENDBRANCH  15  16
ENDBRANCH  14  15
ENDBRANCH  13  14
BRANCH  13  26
HETATM   26  N   UNL     1     -10.052   8.214  69.457  1.00  0.00    -0.189 N  
HETATM   27  H   UNL     1      -9.517   8.405  70.305  1.00  0.00     0.000 HD 
BRANCH  26  28
HETATM   28  S   UNL     1     -10.683   6.656  69.159  1.00  0.00    -0.284 S  
HETATM   29  O   UNL     1     -11.139   6.611  67.794  1.00  0.00    -0.285 OA 
HETATM   30  O   UNL     1     -11.606   6.409  70.247  1.00  0.00    -0.399 OA 
BRANCH  28  31
HETATM   31  C   UNL     1      -9.258   5.619  69.367  1.00  0.00    -0.121 A  
HETATM   32  C   UNL     1      -6.234   5.049  71.633  1.00  0.00    -0.029 C  
HETATM   33  C   UNL     1      -9.021   4.655  68.375  1.00  0.00    -0.140 A  
HETATM   34  C   UNL     1      -5.436   6.436  73.579  1.00  0.00    -0.041 C  
HETATM   35  C   UNL     1      -7.916   3.815  68.464  1.00  0.00    -0.072 A  
HETATM   36  C   UNL     1      -6.318   6.408  72.334  1.00  0.00    -0.054 C  
HETATM   37  C   UNL     1      -7.779   6.679  72.666  1.00  0.00    -0.101 C  
HETATM   38  H   UNL     1      -9.255   7.504  71.307  1.00  0.00     0.000 HD 
HETATM   39  N   UNL     1      -8.579   6.753  71.447  1.00  0.00    -0.124 NA 
HETATM   40  C   UNL     1      -7.048   3.934  69.544  1.00  0.00    -0.046 A  
HETATM   41  C   UNL     1      -8.393   5.760  70.472  1.00  0.00    -0.119 A  
HETATM   42  C   UNL     1      -7.269   4.903  70.539  1.00  0.00    -0.053 A  
ENDBRANCH  28  31
ENDBRANCH  26  28
ENDBRANCH  13  26
ENDBRANCH   7  13
TORSDOF 8
ENDMDL
MODEL      258
REMARK 921   NORMALIZED FREE ENERGY PREDICTED BY IDOCK:   -4.80 KCAL/MOL
REMARK 922        TOTAL FREE ENERGY PREDICTED BY IDOCK:   -8.29 KCAL/MOL
REMARK 923 INTER-LIGAND FREE ENERGY PREDICTED BY IDOCK:   -6.33 KCAL/MOL
REMARK 924 INTRA-LIGAND FREE ENERGY PREDICTED BY IDOCK:   -1.96 KCAL/MOL
REMARK 927      BINDING AFFINITY PREDICTED BY RF-SCORE:    0.00 PKD
ROOT
HETATM    1  C   UNL     1     -13.376  10.217  71.401  1.00  0.00    -0.413 C  
HETATM    2  C   UNL     1     -11.934   9.729  71.443  1.00  0.00    -0.493 C  
HETATM    3  C   UNL     1     -11.103  10.310  70.294  1.00  0.00    -0.388 C  
HETATM    4  C   UNL     1      -9.671   9.777  70.322  1.00  0.00    -0.223 C  
HETATM    5  N   UNL     1      -9.596   8.293  70.430  1.00  0.00    -0.167 N  
HETATM    6  C   UNL     1     -10.428   7.702  71.500  1.00  0.00    -0.204 C  
HETATM    7  C   UNL     1      -9.120   7.595  69.312  1.00  0.00    -0.145 C  
HETATM    8  O   UNL     1      -8.820   8.243  68.299  1.00  0.00    -0.139 OA 
HETATM    9  O   UNL     1      -8.813   8.593  73.056  1.00  0.00    -0.355 OA 
HETATM   10  C   UNL     1     -11.875   8.196  71.378  1.00  0.00    -0.329 C  
HETATM   11  C   UNL     1      -9.954   7.910  72.942  1.00  0.00    -0.294 C  
HETATM   12  O   UNL     1     -10.556   7.499  73.921  1.00  0.00    -0.279 OA 
ENDROOT
BRANCH   7  13
HETATM   13  C   UNL     1      -8.822   6.053  69.285  1.00  0.00    -0.123 C  
BRANCH  13  14
HETATM   14  C   UNL     1      -7.756   5.465  70.247  1.00  0.00    -0.077 C  
BRANCH  14  15
HETATM   15  C   UNL     1      -8.262   4.225  71.013  1.00  0.00    -0.078 C  
BRANCH  15  16
HETATM   16  C   UNL     1      -8.599   4.496  72.487  1.00  0.00    -0.114 C  
BRANCH  16  17
HETATM   17  N   UNL     1      -9.475   3.440  72.960  1.00  0.00    -0.101 NA 
HETATM   18  H2  UNL     1     -10.829   1.493  73.565  1.00  0.00     0.000 HD 
HETATM   19  H1  UNL     1     -12.350   2.460  73.678  1.00  0.00     0.000 HD 
HETATM   20  N   UNL     1     -11.532   4.607  73.150  1.00  0.00    -0.270 NA 
HETATM   21  N   UNL     1     -11.348   2.370  73.506  1.00  0.00    -0.214 NA 
HETATM   22  C   UNL     1     -10.800   3.559  73.189  1.00  0.00    -0.149 C  
HETATM   23  H   UNL     1      -9.052   2.528  73.135  1.00  0.00     0.000 HD 
HETATM   24  H1  UNL     1     -12.533   4.697  73.323  1.00  0.00     0.000 HD 
HETATM   25  H2  UNL     1     -11.047   5.472  72.914  1.00  0.00     0.000 HD 
ENDBRANCH  16  17
ENDBRANCH  15  16
ENDBRANCH  14  15
ENDBRANCH  13  14
BRANCH  13  26
HETATM   26  N   UNL     1      -8.551   5.532  67.916  1.00  0.00    -0.105 N  
HETATM   27  H   UNL     1      -7.660   5.718  67.456  1.00  0.00     0.000 HD 
BRANCH  26  28
HETATM   28  S   UNL     1      -9.761   4.618  67.132  1.00  0.00    -0.194 S  
HETATM   29  O   UNL     1     -10.962   5.409  67.087  1.00  0.00    -0.115 OA 
HETATM   30  O   UNL     1      -9.756   3.333  67.802  1.00  0.00    -0.152 OA 
BRANCH  28  31
HETATM   31  C   UNL     1      -9.093   4.417  65.501  1.00  0.00    -0.140 A  
HETATM   32  C   UNL     1      -7.455   6.353  62.641  1.00  0.00    -0.066 C  
HETATM   33  C   UNL     1      -9.190   3.141  64.924  1.00  0.00    -0.147 A  
HETATM   34  C   UNL     1      -7.087   8.836  62.424  1.00  0.00    -0.096 C  
HETATM   35  C   UNL     1      -8.699   2.912  63.643  1.00  0.00    -0.089 A  
HETATM   36  C   UNL     1      -7.857   7.740  63.154  1.00  0.00    -0.135 C  
HETATM   37  C   UNL     1      -7.610   7.776  64.657  1.00  0.00    -0.113 C  
HETATM   38  H   UNL     1      -8.963   7.032  66.182  1.00  0.00     0.000 HD 
HETATM   39  N   UNL     1      -8.440   6.788  65.340  1.00  0.00    -0.130 NA 
HETATM   40  C   UNL     1      -8.110   3.954  62.937  1.00  0.00    -0.076 A  
HETATM   41  C   UNL     1      -8.499   5.491  64.805  1.00  0.00    -0.125 A  
HETATM   42  C   UNL     1      -8.016   5.240  63.499  1.00  0.00    -0.097 A  
ENDBRANCH  28  31
ENDBRANCH  26  28
ENDBRANCH  13  26
ENDBRANCH   7  13
TORSDOF 8
ENDMDL
MODEL      259
REMARK 921   NORMALIZED FREE ENERGY PREDICTED BY IDOCK:   -4.79 KCAL/MOL
REMARK 922        TOTAL FREE ENERGY PREDICTED BY IDOCK:   -8.28 KCAL/MOL
REMARK 923 INTER-LIGAND FREE ENERGY PREDICTED BY IDOCK:   -7.96 KCAL/MOL
REMARK 924 INTRA-LIGAND FREE ENERGY PREDICTED BY IDOCK:   -0.32 KCAL/MOL
REMARK 927      BINDING AFFINITY PREDICTED BY RF-SCORE:    0.00 PKD
ROOT
HETATM    1  C   UNL     1      -5.585   5.666  69.140  1.00  0.00    -0.008 C  
HETATM    2  C   UNL     1      -6.133   7.054  69.439  1.00  0.00    -0.033 C  
HETATM    3  C   UNL     1      -7.083   7.045  70.641  1.00  0.00    -0.067 C  
HETATM    4  C   UNL     1      -7.661   8.436  70.901  1.00  0.00    -0.079 C  
HETATM    5  N   UNL     1      -8.236   9.072  69.684  1.00  0.00    -0.110 N  
HETATM    6  C   UNL     1      -7.358   9.051  68.494  1.00  0.00    -0.077 C  
HETATM    7  C   UNL     1      -9.627   9.237  69.646  1.00  0.00    -0.183 C  
HETATM    8  O   UNL     1     -10.294   8.821  70.604  1.00  0.00    -0.193 OA 
HETATM    9  O   UNL     1      -6.044  10.742  69.606  1.00  0.00    -0.052 OA 
HETATM   10  C   UNL     1      -6.875   7.622  68.220  1.00  0.00    -0.067 C  
HETATM   11  C   UNL     1      -6.147   9.989  68.509  1.00  0.00    -0.045 C  
HETATM   12  O   UNL     1      -5.328  10.055  67.606  1.00  0.00    -0.035 OA 
ENDROOT
BRANCH   7  13
HETATM   13  C   UNL     1     -10.401  10.021  68.528  1.00  0.00    -0.193 C  
BRANCH  13  14
HETATM   14  C   UNL     1     -10.607   9.364  67.137  1.00  0.00    -0.294 C  
BRANCH  14  15
HETATM   15  C   UNL     1     -10.069   7.920  67.073  1.00  0.00    -0.347 C  
BRANCH  15  16
HETATM   16  C   UNL     1     -11.155   6.842  67.206  1.00  0.00    -0.324 C  
BRANCH  16  17
HETATM   17  N   UNL     1     -11.208   6.411  68.591  1.00  0.00    -0.539 NA 
HETATM   18  H2  UNL     1     -11.345   5.953  70.991  1.00  0.00     0.000 HD 
HETATM   19  H1  UNL     1      -9.907   4.861  70.967  1.00  0.00     0.000 HD 
HETATM   20  N   UNL     1      -9.340   4.950  68.681  1.00  0.00    -0.127 NA 
HETATM   21  N   UNL     1     -10.579   5.480  70.512  1.00  0.00    -0.278 NA 
HETATM   22  C   UNL     1     -10.320   5.592  69.194  1.00  0.00    -0.248 C  
HETATM   23  H   UNL     1     -11.982   6.757  69.157  1.00  0.00     0.000 HD 
HETATM   24  H1  UNL     1      -8.669   4.331  69.137  1.00  0.00     0.000 HD 
HETATM   25  H2  UNL     1      -9.211   5.074  67.678  1.00  0.00     0.000 HD 
ENDBRANCH  16  17
ENDBRANCH  15  16
ENDBRANCH  14  15
ENDBRANCH  13  14
BRANCH  13  26
HETATM   26  N   UNL     1      -9.887  11.403  68.317  1.00  0.00    -0.194 N  
HETATM   27  H   UNL     1      -8.995  11.693  68.720  1.00  0.00     0.000 HD 
BRANCH  26  28
HETATM   28  S   UNL     1     -10.817  12.493  67.388  1.00  0.00    -0.248 S  
HETATM   29  O   UNL     1     -12.072  11.859  67.078  1.00  0.00    -0.600 OA 
HETATM   30  O   UNL     1      -9.935  12.929  66.325  1.00  0.00    -0.259 OA 
BRANCH  28  31
HETATM   31  C   UNL     1     -11.068  13.839  68.516  1.00  0.00    -0.267 A  
HETATM   32  C   UNL     1     -10.230  17.528  69.063  1.00  0.00    -0.314 C  
HETATM   33  C   UNL     1     -11.771  13.558  69.698  1.00  0.00    -0.378 A  
HETATM   34  C   UNL     1      -8.700  19.014  67.720  1.00  0.00    -0.328 C  
HETATM   35  C   UNL     1     -11.996  14.561  70.635  1.00  0.00    -0.387 A  
HETATM   36  C   UNL     1      -9.095  17.573  68.034  1.00  0.00    -0.269 C  
HETATM   37  C   UNL     1      -9.556  16.827  66.790  1.00  0.00    -0.249 C  
HETATM   38  H   UNL     1      -9.474  14.678  66.498  1.00  0.00     0.000 HD 
HETATM   39  N   UNL     1      -9.824  15.425  67.099  1.00  0.00    -0.220 NA 
HETATM   40  C   UNL     1     -11.522  15.845  70.394  1.00  0.00    -0.393 A  
HETATM   41  C   UNL     1     -10.577  15.134  68.248  1.00  0.00    -0.243 A  
HETATM   42  C   UNL     1     -10.806  16.137  69.219  1.00  0.00    -0.310 A  
ENDBRANCH  28  31
ENDBRANCH  26  28
ENDBRANCH  13  26
ENDBRANCH   7  13
TORSDOF 8
ENDMDL
MODEL      260
REMARK 921   NORMALIZED FREE ENERGY PREDICTED BY IDOCK:   -4.76 KCAL/MOL
REMARK 922        TOTAL FREE ENERGY PREDICTED BY IDOCK:   -8.24 KCAL/MOL
REMARK 923 INTER-LIGAND FREE ENERGY PREDICTED BY IDOCK:   -6.93 KCAL/MOL
REMARK 924 INTRA-LIGAND FREE ENERGY PREDICTED BY IDOCK:   -1.31 KCAL/MOL
REMARK 927      BINDING AFFINITY PREDICTED BY RF-SCORE:    0.00 PKD
ROOT
HETATM    1  C   UNL     1      -8.387   5.827  73.218  1.00  0.00    -0.116 C  
HETATM    2  C   UNL     1      -7.668   6.490  72.051  1.00  0.00    -0.098 C  
HETATM    3  C   UNL     1      -6.733   7.610  72.520  1.00  0.00    -0.063 C  
HETATM    4  C   UNL     1      -6.054   8.296  71.335  1.00  0.00    -0.038 C  
HETATM    5  N   UNL     1      -7.007   8.714  70.270  1.00  0.00    -0.039 N  
HETATM    6  C   UNL     1      -7.955   7.665  69.834  1.00  0.00    -0.115 C  
HETATM    7  C   UNL     1      -7.203  10.090  70.092  1.00  0.00    -0.161 C  
HETATM    8  O   UNL     1      -6.601  10.870  70.842  1.00  0.00    -0.242 OA 
HETATM    9  O   UNL     1      -6.080   6.631  68.720  1.00  0.00    -0.024 OA 
HETATM   10  C   UNL     1      -8.677   7.067  71.047  1.00  0.00    -0.139 C  
HETATM   11  C   UNL     1      -7.384   6.524  68.985  1.00  0.00    -0.093 C  
HETATM   12  O   UNL     1      -8.047   5.582  68.579  1.00  0.00    -0.097 OA 
ENDROOT
BRANCH   7  13
HETATM   13  C   UNL     1      -8.041  10.727  68.927  1.00  0.00    -0.145 C  
BRANCH  13  14
HETATM   14  C   UNL     1      -7.423  11.869  68.077  1.00  0.00    -0.107 C  
BRANCH  14  15
HETATM   15  C   UNL     1      -8.061  13.243  68.366  1.00  0.00    -0.134 C  
BRANCH  15  16
HETATM   16  C   UNL     1      -7.078  14.282  68.926  1.00  0.00    -0.113 C  
BRANCH  16  17
HETATM   17  N   UNL     1      -7.481  15.595  68.455  1.00  0.00    -0.119 NA 
HETATM   18  H2  UNL     1      -8.418  17.700  67.631  1.00  0.00     0.000 HD 
HETATM   19  H1  UNL     1      -7.004  18.026  66.558  1.00  0.00     0.000 HD 
HETATM   20  N   UNL     1      -5.673  16.135  67.017  1.00  0.00    -0.340 NA 
HETATM   21  N   UNL     1      -7.508  17.458  67.239  1.00  0.00    -0.182 NA 
HETATM   22  C   UNL     1      -6.814  16.347  67.554  1.00  0.00    -0.152 C  
HETATM   23  H   UNL     1      -8.343  15.983  68.840  1.00  0.00     0.000 HD 
HETATM   24  H1  UNL     1      -5.169  16.703  66.335  1.00  0.00     0.000 HD 
HETATM   25  H2  UNL     1      -5.202  15.280  67.310  1.00  0.00     0.000 HD 
ENDBRANCH  16  17
ENDBRANCH  15  16
ENDBRANCH  14  15
ENDBRANCH  13  14
BRANCH  13  26
HETATM   26  N   UNL     1      -9.406  11.149  69.349  1.00  0.00    -0.378 N  
HETATM   27  H   UNL     1      -9.530  11.862  70.068  1.00  0.00     0.000 HD 
BRANCH  26  28
HETATM   28  S   UNL     1     -10.758  10.416  68.607  1.00  0.00    -0.234 S  
HETATM   29  O   UNL     1     -11.940  11.108  69.049  1.00  0.00    -0.333 OA 
HETATM   30  O   UNL     1     -10.603   8.998  68.858  1.00  0.00    -0.222 OA 
BRANCH  28  31
HETATM   31  C   UNL     1     -10.467  10.731  66.886  1.00  0.00    -0.252 A  
HETATM   32  C   UNL     1     -10.724  13.460  64.221  1.00  0.00    -0.374 C  
HETATM   33  C   UNL     1     -10.034   9.649  66.104  1.00  0.00    -0.346 A  
HETATM   34  C   UNL     1     -11.720  15.766  64.416  1.00  0.00    -0.201 C  
HETATM   35  C   UNL     1      -9.798   9.817  64.743  1.00  0.00    -0.123 A  
HETATM   36  C   UNL     1     -11.643  14.374  65.037  1.00  0.00    -0.374 C  
HETATM   37  C   UNL     1     -11.117  14.418  66.466  1.00  0.00    -0.331 C  
HETATM   38  H   UNL     1     -11.525  12.951  68.012  1.00  0.00     0.000 HD 
HETATM   39  N   UNL     1     -11.156  13.090  67.071  1.00  0.00    -0.273 NA 
HETATM   40  C   UNL     1      -9.992  11.065  64.162  1.00  0.00    -0.385 A  
HETATM   41  C   UNL     1     -10.671  12.007  66.320  1.00  0.00    -0.267 A  
HETATM   42  C   UNL     1     -10.436  12.155  64.932  1.00  0.00    -0.325 A  
ENDBRANCH  28  31
ENDBRANCH  26  28
ENDBRANCH  13  26
ENDBRANCH   7  13
TORSDOF 8
ENDMDL
MODEL      261
REMARK 921   NORMALIZED FREE ENERGY PREDICTED BY IDOCK:   -4.76 KCAL/MOL
REMARK 922        TOTAL FREE ENERGY PREDICTED BY IDOCK:   -8.24 KCAL/MOL
REMARK 923 INTER-LIGAND FREE ENERGY PREDICTED BY IDOCK:   -6.22 KCAL/MOL
REMARK 924 INTRA-LIGAND FREE ENERGY PREDICTED BY IDOCK:   -2.02 KCAL/MOL
REMARK 927      BINDING AFFINITY PREDICTED BY RF-SCORE:    0.00 PKD
ROOT
HETATM    1  C   UNL     1      -5.657  13.534  70.591  1.00  0.00    -0.169 C  
HETATM    2  C   UNL     1      -5.950  12.255  69.821  1.00  0.00    -0.137 C  
HETATM    3  C   UNL     1      -5.131  12.167  68.529  1.00  0.00    -0.050 C  
HETATM    4  C   UNL     1      -5.470  10.899  67.744  1.00  0.00    -0.039 C  
HETATM    5  N   UNL     1      -6.932  10.702  67.544  1.00  0.00    -0.082 N  
HETATM    6  C   UNL     1      -7.752  10.831  68.769  1.00  0.00    -0.121 C  
HETATM    7  C   UNL     1      -7.422  10.834  66.238  1.00  0.00    -0.138 C  
HETATM    8  O   UNL     1      -6.624  11.135  65.340  1.00  0.00     0.161 OA 
HETATM    9  O   UNL     1      -6.847   8.694  69.431  1.00  0.00    -0.048 OA 
HETATM   10  C   UNL     1      -7.444  12.156  69.474  1.00  0.00     0.479 C  
HETATM   11  C   UNL     1      -7.657   9.692  69.790  1.00  0.00    -0.123 C  
HETATM   12  O   UNL     1      -8.259   9.681  70.852  1.00  0.00    -0.290 OA 
ENDROOT
BRANCH   7  13
HETATM   13  C   UNL     1      -8.896  10.513  65.803  1.00  0.00    -0.175 C  
BRANCH  13  14
HETATM   14  C   UNL     1      -9.184   9.237  64.967  1.00  0.00    -0.242 C  
BRANCH  14  15
HETATM   15  C   UNL     1      -9.110   7.944  65.805  1.00  0.00    -0.084 C  
BRANCH  15  16
HETATM   16  C   UNL     1     -10.219   7.819  66.860  1.00  0.00    -0.303 C  
BRANCH  16  17
HETATM   17  N   UNL     1      -9.626   7.337  68.094  1.00  0.00    -0.139 NA 
HETATM   18  H2  UNL     1      -8.527   6.308  70.024  1.00  0.00     0.000 HD 
HETATM   19  H1  UNL     1      -9.941   6.593  71.109  1.00  0.00     0.000 HD 
HETATM   20  N   UNL     1     -11.416   7.667  69.616  1.00  0.00    -0.441 NA 
HETATM   21  N   UNL     1      -9.468   6.655  70.206  1.00  0.00    -0.162 NA 
HETATM   22  C   UNL     1     -10.251   7.255  69.288  1.00  0.00    -0.193 C  
HETATM   23  H   UNL     1      -8.652   7.033  68.056  1.00  0.00     0.000 HD 
HETATM   24  H1  UNL     1     -11.888   7.605  70.519  1.00  0.00     0.000 HD 
HETATM   25  H2  UNL     1     -11.947   8.120  68.873  1.00  0.00     0.000 HD 
ENDBRANCH  16  17
ENDBRANCH  15  16
ENDBRANCH  14  15
ENDBRANCH  13  14
BRANCH  13  26
HETATM   26  N   UNL     1      -9.578  11.663  65.146  1.00  0.00    -0.332 N  
HETATM   27  H   UNL     1      -9.207  12.064  64.285  1.00  0.00     0.000 HD 
BRANCH  26  28
HETATM   28  S   UNL     1     -10.992  12.297  65.863  1.00  0.00    -0.315 S  
HETATM   29  O   UNL     1     -10.952  12.000  67.271  1.00  0.00    -0.237 OA 
HETATM   30  O   UNL     1     -12.081  11.808  65.043  1.00  0.00    -0.217 OA 
BRANCH  28  31
HETATM   31  C   UNL     1     -10.808  14.041  65.596  1.00  0.00    -0.295 A  
HETATM   32  C   UNL     1      -8.745  17.070  66.682  1.00  0.00    -0.282 C  
HETATM   33  C   UNL     1     -11.730  14.654  64.733  1.00  0.00    -0.429 A  
HETATM   34  C   UNL     1      -6.993  17.220  68.486  1.00  0.00    -0.209 C  
HETATM   35  C   UNL     1     -11.656  16.021  64.485  1.00  0.00    -0.205 A  
HETATM   36  C   UNL     1      -8.159  16.406  67.932  1.00  0.00    -0.164 C  
HETATM   37  C   UNL     1      -7.738  14.991  67.562  1.00  0.00    -0.185 C  
HETATM   38  H   UNL     1      -9.042  13.258  67.489  1.00  0.00     0.000 HD 
HETATM   39  N   UNL     1      -8.892  14.204  67.137  1.00  0.00    -0.219 NA 
HETATM   40  C   UNL     1     -10.662  16.777  65.096  1.00  0.00    -0.159 A  
HETATM   41  C   UNL     1      -9.791  14.786  66.228  1.00  0.00    -0.296 A  
HETATM   42  C   UNL     1      -9.739  16.176  65.971  1.00  0.00    -0.376 A  
ENDBRANCH  28  31
ENDBRANCH  26  28
ENDBRANCH  13  26
ENDBRANCH   7  13
TORSDOF 8
ENDMDL
MODEL      262
REMARK 921   NORMALIZED FREE ENERGY PREDICTED BY IDOCK:   -4.76 KCAL/MOL
REMARK 922        TOTAL FREE ENERGY PREDICTED BY IDOCK:   -8.23 KCAL/MOL
REMARK 923 INTER-LIGAND FREE ENERGY PREDICTED BY IDOCK:   -7.53 KCAL/MOL
REMARK 924 INTRA-LIGAND FREE ENERGY PREDICTED BY IDOCK:   -0.70 KCAL/MOL
REMARK 927      BINDING AFFINITY PREDICTED BY RF-SCORE:    0.00 PKD
ROOT
HETATM    1  C   UNL     1     -11.573  15.594  70.281  1.00  0.00    -0.370 C  
HETATM    2  C   UNL     1     -11.598  14.299  69.482  1.00  0.00    -0.353 C  
HETATM    3  C   UNL     1     -11.941  13.093  70.363  1.00  0.00    -0.343 C  
HETATM    4  C   UNL     1     -11.918  11.794  69.557  1.00  0.00    -0.300 C  
HETATM    5  N   UNL     1     -10.675  11.620  68.755  1.00  0.00    -0.212 N  
HETATM    6  C   UNL     1     -10.294  12.789  67.933  1.00  0.00    -0.226 C  
HETATM    7  C   UNL     1      -9.797  10.602  69.151  1.00  0.00    -0.200 C  
HETATM    8  O   UNL     1     -10.087   9.934  70.153  1.00  0.00    -0.250 OA 
HETATM    9  O   UNL     1     -12.138  12.200  66.492  1.00  0.00    -0.627 OA 
HETATM   10  C   UNL     1     -10.243  14.052  68.801  1.00  0.00    -0.200 C  
HETATM   11  C   UNL     1     -11.148  13.073  66.693  1.00  0.00    -0.289 C  
HETATM   12  O   UNL     1     -10.962  14.017  65.942  1.00  0.00    -0.283 OA 
ENDROOT
BRANCH   7  13
HETATM   13  C   UNL     1      -8.521  10.163  68.347  1.00  0.00    -0.118 C  
BRANCH  13  14
HETATM   14  C   UNL     1      -8.144  10.916  67.044  1.00  0.00    -0.131 C  
BRANCH  14  15
HETATM   15  C   UNL     1      -6.726  11.522  67.092  1.00  0.00    -0.129 C  
BRANCH  15  16
HETATM   16  C   UNL     1      -6.285  11.968  68.495  1.00  0.00    -0.053 C  
BRANCH  16  17
HETATM   17  N   UNL     1      -5.764  13.319  68.403  1.00  0.00    -0.077 NA 
HETATM   18  H2  UNL     1      -4.649  15.483  68.146  1.00  0.00     0.000 HD 
HETATM   19  H1  UNL     1      -5.210  16.077  69.756  1.00  0.00     0.000 HD 
HETATM   20  N   UNL     1      -6.450  14.212  70.492  1.00  0.00    -0.403 NA 
HETATM   21  N   UNL     1      -5.155  15.368  69.025  1.00  0.00    -0.095 NA 
HETATM   22  C   UNL     1      -5.837  14.258  69.371  1.00  0.00    -0.095 C  
HETATM   23  H   UNL     1      -5.301  13.583  67.533  1.00  0.00     0.000 HD 
HETATM   24  H1  UNL     1      -6.506  14.922  71.223  1.00  0.00     0.000 HD 
HETATM   25  H2  UNL     1      -6.954  13.346  70.682  1.00  0.00     0.000 HD 
ENDBRANCH  16  17
ENDBRANCH  15  16
ENDBRANCH  14  15
ENDBRANCH  13  14
BRANCH  13  26
HETATM   26  N   UNL     1      -8.478   8.701  68.069  1.00  0.00    -0.126 N  
HETATM   27  H   UNL     1      -7.896   8.081  68.633  1.00  0.00     0.000 HD 
BRANCH  26  28
HETATM   28  S   UNL     1      -9.422   8.081  66.788  1.00  0.00    -0.218 S  
HETATM   29  O   UNL     1      -8.738   8.358  65.552  1.00  0.00    -0.172 OA 
HETATM   30  O   UNL     1     -10.755   8.598  67.018  1.00  0.00    -0.271 OA 
BRANCH  28  31
HETATM   31  C   UNL     1      -9.417   6.338  67.118  1.00  0.00    -0.124 A  
HETATM   32  C   UNL     1      -9.862   3.786  69.928  1.00  0.00    -0.080 C  
HETATM   33  C   UNL     1      -9.094   5.488  66.048  1.00  0.00    -0.162 A  
HETATM   34  C   UNL     1     -10.145   4.193  72.399  1.00  0.00    -0.243 C  
HETATM   35  C   UNL     1      -9.058   4.110  66.235  1.00  0.00    -0.134 A  
HETATM   36  C   UNL     1      -9.700   4.796  71.069  1.00  0.00    -0.257 C  
HETATM   37  C   UNL     1     -10.500   6.042  70.714  1.00  0.00    -0.239 C  
HETATM   38  H   UNL     1      -9.822   7.663  69.441  1.00  0.00     0.000 HD 
HETATM   39  N   UNL     1      -9.982   6.657  69.495  1.00  0.00    -0.162 NA 
HETATM   40  C   UNL     1      -9.345   3.578  67.487  1.00  0.00    -0.249 A  
HETATM   41  C   UNL     1      -9.712   5.823  68.398  1.00  0.00    -0.133 A  
HETATM   42  C   UNL     1      -9.659   4.420  68.569  1.00  0.00    -0.208 A  
ENDBRANCH  28  31
ENDBRANCH  26  28
ENDBRANCH  13  26
ENDBRANCH   7  13
TORSDOF 8
ENDMDL
MODEL      263
REMARK 921   NORMALIZED FREE ENERGY PREDICTED BY IDOCK:   -4.75 KCAL/MOL
REMARK 922        TOTAL FREE ENERGY PREDICTED BY IDOCK:   -8.22 KCAL/MOL
REMARK 923 INTER-LIGAND FREE ENERGY PREDICTED BY IDOCK:   -6.97 KCAL/MOL
REMARK 924 INTRA-LIGAND FREE ENERGY PREDICTED BY IDOCK:   -1.25 KCAL/MOL
REMARK 927      BINDING AFFINITY PREDICTED BY RF-SCORE:    0.00 PKD
ROOT
HETATM    1  C   UNL     1     -10.388   4.949  72.697  1.00  0.00    -0.250 C  
HETATM    2  C   UNL     1     -11.184   5.964  71.889  1.00  0.00    -0.323 C  
HETATM    3  C   UNL     1     -11.074   5.705  70.383  1.00  0.00    -0.195 C  
HETATM    4  C   UNL     1     -11.840   6.759  69.583  1.00  0.00     0.013 C  
HETATM    5  N   UNL     1     -11.510   8.156  69.979  1.00  0.00    -0.015 N  
HETATM    6  C   UNL     1     -11.560   8.420  71.434  1.00  0.00    -0.284 C  
HETATM    7  C   UNL     1     -10.805   8.933  69.051  1.00  0.00    -0.046 C  
HETATM    8  O   UNL     1     -10.475   8.410  67.978  1.00  0.00    -0.217 OA 
HETATM    9  O   UNL     1     -13.962   8.306  71.230  1.00  0.00    -0.279 OA 
HETATM   10  C   UNL     1     -10.707   7.393  72.188  1.00  0.00    -0.262 C  
HETATM   11  C   UNL     1     -12.948   8.480  72.080  1.00  0.00    -0.371 C  
HETATM   12  O   UNL     1     -13.135   8.666  73.272  1.00  0.00    -0.012 OA 
ENDROOT
BRANCH   7  13
HETATM   13  C   UNL     1     -10.503  10.465  69.219  1.00  0.00    -0.234 C  
BRANCH  13  14
HETATM   14  C   UNL     1     -10.718  11.422  68.017  1.00  0.00    -0.240 C  
BRANCH  14  15
HETATM   15  C   UNL     1     -10.572  12.909  68.402  1.00  0.00    -0.267 C  
BRANCH  15  16
HETATM   16  C   UNL     1     -11.910  13.628  68.634  1.00  0.00    -0.374 C  
BRANCH  16  17
HETATM   17  N   UNL     1     -12.210  13.593  70.053  1.00  0.00    -0.338 NA 
HETATM   18  H2  UNL     1     -12.796  13.268  72.407  1.00  0.00     0.000 HD 
HETATM   19  H1  UNL     1     -13.620  14.870  72.528  1.00  0.00     0.000 HD 
HETATM   20  N   UNL     1     -13.308  15.678  70.335  1.00  0.00    -0.763 NA 
HETATM   21  N   UNL     1     -13.106  14.156  72.011  1.00  0.00    -0.362 NA 
HETATM   22  C   UNL     1     -12.890  14.538  70.737  1.00  0.00    -0.361 C  
HETATM   23  H   UNL     1     -11.879  12.785  70.580  1.00  0.00     0.000 HD 
HETATM   24  H1  UNL     1     -13.822  16.392  70.852  1.00  0.00     0.000 HD 
HETATM   25  H2  UNL     1     -13.100  15.904  69.363  1.00  0.00     0.000 HD 
ENDBRANCH  16  17
ENDBRANCH  15  16
ENDBRANCH  14  15
ENDBRANCH  13  14
BRANCH  13  26
HETATM   26  N   UNL     1      -9.157  10.738  69.796  1.00  0.00    -0.306 N  
HETATM   27  H   UNL     1      -9.063  11.144  70.727  1.00  0.00     0.000 HD 
BRANCH  26  28
HETATM   28  S   UNL     1      -7.775  10.357  68.869  1.00  0.00    -0.121 S  
HETATM   29  O   UNL     1      -6.666  11.116  69.386  1.00  0.00    -0.094 OA 
HETATM   30  O   UNL     1      -8.190  10.515  67.490  1.00  0.00    -0.114 OA 
BRANCH  28  31
HETATM   31  C   UNL     1      -7.551   8.630  69.207  1.00  0.00    -0.094 A  
HETATM   32  C   UNL     1      -7.168   6.131  72.074  1.00  0.00    -0.092 C  
HETATM   33  C   UNL     1      -7.391   7.779  68.102  1.00  0.00    -0.106 A  
HETATM   34  C   UNL     1      -6.954   6.583  74.543  1.00  0.00    -0.092 C  
HETATM   35  C   UNL     1      -7.197   6.415  68.290  1.00  0.00    -0.085 A  
HETATM   36  C   UNL     1      -6.855   7.182  73.143  1.00  0.00    -0.069 C  
HETATM   37  C   UNL     1      -7.816   8.348  72.954  1.00  0.00    -0.083 C  
HETATM   38  H   UNL     1      -7.566   9.983  71.550  1.00  0.00     0.000 HD 
HETATM   39  N   UNL     1      -7.624   8.968  71.647  1.00  0.00    -0.333 NA 
HETATM   40  C   UNL     1      -7.165   5.897  69.580  1.00  0.00    -0.070 A  
HETATM   41  C   UNL     1      -7.522   8.129  70.525  1.00  0.00    -0.063 A  
HETATM   42  C   UNL     1      -7.313   6.740  70.696  1.00  0.00    -0.075 A  
ENDBRANCH  28  31
ENDBRANCH  26  28
ENDBRANCH  13  26
ENDBRANCH   7  13
TORSDOF 8
ENDMDL
MODEL      264
REMARK 921   NORMALIZED FREE ENERGY PREDICTED BY IDOCK:   -4.74 KCAL/MOL
REMARK 922        TOTAL FREE ENERGY PREDICTED BY IDOCK:   -8.21 KCAL/MOL
REMARK 923 INTER-LIGAND FREE ENERGY PREDICTED BY IDOCK:   -5.50 KCAL/MOL
REMARK 924 INTRA-LIGAND FREE ENERGY PREDICTED BY IDOCK:   -2.71 KCAL/MOL
REMARK 927      BINDING AFFINITY PREDICTED BY RF-SCORE:    0.00 PKD
ROOT
HETATM    1  C   UNL     1     -11.092  10.813  70.225  1.00  0.00    -0.248 C  
HETATM    2  C   UNL     1     -10.769   9.431  70.774  1.00  0.00    -0.373 C  
HETATM    3  C   UNL     1      -9.265   9.247  71.007  1.00  0.00    -0.273 C  
HETATM    4  C   UNL     1      -8.952   7.840  71.515  1.00  0.00    -0.133 C  
HETATM    5  N   UNL     1      -9.569   6.764  70.691  1.00  0.00    -0.169 N  
HETATM    6  C   UNL     1     -11.010   6.943  70.409  1.00  0.00    -0.274 C  
HETATM    7  C   UNL     1      -8.703   5.959  69.939  1.00  0.00    -0.129 C  
HETATM    8  O   UNL     1      -7.489   6.205  69.980  1.00  0.00    -0.082 OA 
HETATM    9  O   UNL     1     -11.392   6.353  72.717  1.00  0.00    -0.251 OA 
HETATM   10  C   UNL     1     -11.265   8.335  69.818  1.00  0.00     0.029 C  
HETATM   11  C   UNL     1     -11.978   6.715  71.574  1.00  0.00    -0.352 C  
HETATM   12  O   UNL     1     -13.188   6.851  71.488  1.00  0.00    -0.345 OA 
ENDROOT
BRANCH   7  13
HETATM   13  C   UNL     1      -9.144   4.684  69.135  1.00  0.00    -0.117 C  
BRANCH  13  14
HETATM   14  C   UNL     1      -9.047   3.288  69.806  1.00  0.00    -0.200 C  
BRANCH  14  15
HETATM   15  C   UNL     1      -9.860   3.195  71.114  1.00  0.00    -0.131 C  
BRANCH  15  16
HETATM   16  C   UNL     1      -9.037   2.738  72.328  1.00  0.00    -0.088 C  
BRANCH  16  17
HETATM   17  N   UNL     1      -8.051   3.760  72.626  1.00  0.00    -0.087 NA 
HETATM   18  H2  UNL     1      -6.201   5.275  73.145  1.00  0.00     0.000 HD 
HETATM   19  H1  UNL     1      -7.186   6.241  74.310  1.00  0.00     0.000 HD 
HETATM   20  N   UNL     1      -9.248   5.109  74.168  1.00  0.00    -0.114 NA 
HETATM   21  N   UNL     1      -7.068   5.477  73.643  1.00  0.00    -0.085 NA 
HETATM   22  C   UNL     1      -8.207   4.771  73.507  1.00  0.00    -0.107 C  
HETATM   23  H   UNL     1      -7.163   3.710  72.125  1.00  0.00     0.000 HD 
HETATM   24  H1  UNL     1      -9.366   5.872  74.834  1.00  0.00     0.000 HD 
HETATM   25  H2  UNL     1     -10.076   4.535  74.007  1.00  0.00     0.000 HD 
ENDBRANCH  16  17
ENDBRANCH  15  16
ENDBRANCH  14  15
ENDBRANCH  13  14
BRANCH  13  26
HETATM   26  N   UNL     1      -8.520   4.596  67.786  1.00  0.00    -0.103 N  
HETATM   27  H   UNL     1      -7.508   4.523  67.685  1.00  0.00     0.000 HD 
BRANCH  26  28
HETATM   28  S   UNL     1      -9.532   4.621  66.411  1.00  0.00    -0.185 S  
HETATM   29  O   UNL     1     -10.824   5.113  66.814  1.00  0.00    -0.196 OA 
HETATM   30  O   UNL     1      -9.403   3.303  65.824  1.00  0.00    -0.154 OA 
BRANCH  28  31
HETATM   31  C   UNL     1      -8.723   5.800  65.361  1.00  0.00    -0.119 A  
HETATM   32  C   UNL     1      -7.611   9.453  65.204  1.00  0.00    -0.108 C  
HETATM   33  C   UNL     1      -8.358   5.365  64.077  1.00  0.00    -0.116 A  
HETATM   34  C   UNL     1      -8.059  11.311  66.846  1.00  0.00    -0.155 C  
HETATM   35  C   UNL     1      -7.732   6.238  63.193  1.00  0.00    -0.098 A  
HETATM   36  C   UNL     1      -8.478   9.920  66.377  1.00  0.00    -0.128 C  
HETATM   37  C   UNL     1      -8.362   8.887  67.490  1.00  0.00    -0.109 C  
HETATM   38  H   UNL     1      -9.501   7.045  67.632  1.00  0.00     0.000 HD 
HETATM   39  N   UNL     1      -8.870   7.592  67.045  1.00  0.00    -0.125 NA 
HETATM   40  C   UNL     1      -7.466   7.543  63.590  1.00  0.00    -0.105 A  
HETATM   41  C   UNL     1      -8.465   7.119  65.787  1.00  0.00    -0.146 A  
HETATM   42  C   UNL     1      -7.837   7.995  64.870  1.00  0.00    -0.129 A  
ENDBRANCH  28  31
ENDBRANCH  26  28
ENDBRANCH  13  26
ENDBRANCH   7  13
TORSDOF 8
ENDMDL
MODEL      265
REMARK 921   NORMALIZED FREE ENERGY PREDICTED BY IDOCK:   -4.74 KCAL/MOL
REMARK 922        TOTAL FREE ENERGY PREDICTED BY IDOCK:   -8.20 KCAL/MOL
REMARK 923 INTER-LIGAND FREE ENERGY PREDICTED BY IDOCK:   -5.92 KCAL/MOL
REMARK 924 INTRA-LIGAND FREE ENERGY PREDICTED BY IDOCK:   -2.28 KCAL/MOL
REMARK 927      BINDING AFFINITY PREDICTED BY RF-SCORE:    0.00 PKD
ROOT
HETATM    1  C   UNL     1     -14.038   8.746  72.060  1.00  0.00    -0.508 C  
HETATM    2  C   UNL     1     -12.520   8.639  72.071  1.00  0.00    -0.433 C  
HETATM    3  C   UNL     1     -11.874   9.609  71.076  1.00  0.00    -0.428 C  
HETATM    4  C   UNL     1     -10.353   9.459  71.064  1.00  0.00    -0.312 C  
HETATM    5  N   UNL     1      -9.900   8.049  70.910  1.00  0.00    -0.175 N  
HETATM    6  C   UNL     1     -10.546   7.083  71.826  1.00  0.00    -0.210 C  
HETATM    7  C   UNL     1      -9.271   7.708  69.705  1.00  0.00    -0.147 C  
HETATM    8  O   UNL     1      -9.155   8.583  68.836  1.00  0.00    -0.145 OA 
HETATM    9  O   UNL     1      -9.199   8.055  73.576  1.00  0.00    -0.272 OA 
HETATM   10  C   UNL     1     -12.071   7.208  71.738  1.00  0.00    -0.363 C  
HETATM   11  C   UNL     1     -10.128   7.138  73.299  1.00  0.00    -0.276 C  
HETATM   12  O   UNL     1     -10.597   6.418  74.165  1.00  0.00    -0.283 OA 
ENDROOT
BRANCH   7  13
HETATM   13  C   UNL     1      -8.589   6.323  69.417  1.00  0.00    -0.125 C  
BRANCH  13  14
HETATM   14  C   UNL     1      -7.245   5.975  70.109  1.00  0.00    -0.076 C  
BRANCH  14  15
HETATM   15  C   UNL     1      -7.218   4.541  70.676  1.00  0.00    -0.048 C  
BRANCH  15  16
HETATM   16  C   UNL     1      -6.035   3.695  70.182  1.00  0.00    -0.019 C  
BRANCH  16  17
HETATM   17  N   UNL     1      -6.480   2.896  69.055  1.00  0.00    -0.029 NA 
HETATM   18  H2  UNL     1      -7.125   1.327  67.291  1.00  0.00     0.000 HD 
HETATM   19  H1  UNL     1      -6.581   2.432  65.971  1.00  0.00     0.000 HD 
HETATM   20  N   UNL     1      -5.813   4.266  67.236  1.00  0.00    -0.022 NA 
HETATM   21  N   UNL     1      -6.720   2.201  66.955  1.00  0.00    -0.038 NA 
HETATM   22  C   UNL     1      -6.297   3.202  67.753  1.00  0.00    -0.036 C  
HETATM   23  H   UNL     1      -6.974   2.029  69.266  1.00  0.00     0.000 HD 
HETATM   24  H1  UNL     1      -5.674   4.497  66.252  1.00  0.00     0.000 HD 
HETATM   25  H2  UNL     1      -5.524   4.984  67.900  1.00  0.00     0.000 HD 
ENDBRANCH  16  17
ENDBRANCH  15  16
ENDBRANCH  14  15
ENDBRANCH  13  14
BRANCH  13  26
HETATM   26  N   UNL     1      -8.455   6.027  67.964  1.00  0.00    -0.115 N  
HETATM   27  H   UNL     1      -7.635   6.339  67.443  1.00  0.00     0.000 HD 
BRANCH  26  28
HETATM   28  S   UNL     1      -9.699   5.154  67.185  1.00  0.00    -0.172 S  
HETATM   29  O   UNL     1     -10.883   5.973  67.176  1.00  0.00    -0.301 OA 
HETATM   30  O   UNL     1      -9.712   3.858  67.832  1.00  0.00    -0.158 OA 
BRANCH  28  31
HETATM   31  C   UNL     1      -9.064   4.969  65.539  1.00  0.00    -0.158 A  
HETATM   32  C   UNL     1      -7.480   6.930  62.666  1.00  0.00    -0.085 C  
HETATM   33  C   UNL     1      -9.177   3.699  64.951  1.00  0.00    -0.147 A  
HETATM   34  C   UNL     1      -7.108   9.414  62.468  1.00  0.00    -0.099 C  
HETATM   35  C   UNL     1      -8.714   3.482  63.657  1.00  0.00    -0.094 A  
HETATM   36  C   UNL     1      -7.866   8.312  63.202  1.00  0.00    -0.148 C  
HETATM   37  C   UNL     1      -7.589   8.332  64.699  1.00  0.00    -0.106 C  
HETATM   38  H   UNL     1      -8.913   7.576  66.244  1.00  0.00     0.000 HD 
HETATM   39  N   UNL     1      -8.408   7.339  65.389  1.00  0.00    -0.139 NA 
HETATM   40  C   UNL     1      -8.135   4.530  62.950  1.00  0.00    -0.082 A  
HETATM   41  C   UNL     1      -8.482   6.048  64.842  1.00  0.00    -0.059 A  
HETATM   42  C   UNL     1      -8.026   5.810  63.524  1.00  0.00    -0.109 A  
ENDBRANCH  28  31
ENDBRANCH  26  28
ENDBRANCH  13  26
ENDBRANCH   7  13
TORSDOF 8
ENDMDL
MODEL      266
REMARK 921   NORMALIZED FREE ENERGY PREDICTED BY IDOCK:   -4.73 KCAL/MOL
REMARK 922        TOTAL FREE ENERGY PREDICTED BY IDOCK:   -8.18 KCAL/MOL
REMARK 923 INTER-LIGAND FREE ENERGY PREDICTED BY IDOCK:   -6.48 KCAL/MOL
REMARK 924 INTRA-LIGAND FREE ENERGY PREDICTED BY IDOCK:   -1.70 KCAL/MOL
REMARK 927      BINDING AFFINITY PREDICTED BY RF-SCORE:    0.00 PKD
ROOT
HETATM    1  C   UNL     1      -8.141   6.042  64.829  1.00  0.00    -0.132 C  
HETATM    2  C   UNL     1      -8.344   5.914  66.332  1.00  0.00    -0.114 C  
HETATM    3  C   UNL     1      -9.814   5.673  66.691  1.00  0.00    -0.191 C  
HETATM    4  C   UNL     1     -10.009   5.592  68.205  1.00  0.00    -0.147 C  
HETATM    5  N   UNL     1      -9.390   6.729  68.940  1.00  0.00    -0.131 N  
HETATM    6  C   UNL     1      -7.984   7.016  68.577  1.00  0.00    -0.123 C  
HETATM    7  C   UNL     1     -10.258   7.643  69.552  1.00  0.00    -0.209 C  
HETATM    8  O   UNL     1     -11.478   7.471  69.422  1.00  0.00     0.120 OA 
HETATM    9  O   UNL     1      -7.409   5.010  69.789  1.00  0.00    -0.054 OA 
HETATM   10  C   UNL     1      -7.853   7.176  67.058  1.00  0.00    -0.108 C  
HETATM   11  C   UNL     1      -6.926   6.021  69.064  1.00  0.00    -0.068 C  
HETATM   12  O   UNL     1      -5.735   6.121  68.816  1.00  0.00    -0.014 OA 
ENDROOT
BRANCH   7  13
HETATM   13  C   UNL     1      -9.801   8.811  70.497  1.00  0.00    -0.188 C  
BRANCH  13  14
HETATM   14  C   UNL     1      -9.314   8.484  71.934  1.00  0.00    -0.337 C  
BRANCH  14  15
HETATM   15  C   UNL     1      -9.773   7.093  72.419  1.00  0.00    -0.173 C  
BRANCH  15  16
HETATM   16  C   UNL     1     -10.997   7.128  73.347  1.00  0.00    -0.236 C  
BRANCH  16  17
HETATM   17  N   UNL     1     -11.816   8.270  72.984  1.00  0.00    -0.479 NA 
HETATM   18  H2  UNL     1     -13.161  10.285  72.635  1.00  0.00     0.000 HD 
HETATM   19  H1  UNL     1     -14.442   9.394  71.727  1.00  0.00     0.000 HD 
HETATM   20  N   UNL     1     -13.556   7.210  71.768  1.00  0.00    -0.508 NA 
HETATM   21  N   UNL     1     -13.559   9.434  72.236  1.00  0.00    -0.468 NA 
HETATM   22  C   UNL     1     -12.985   8.217  72.311  1.00  0.00    -0.204 C  
HETATM   23  H   UNL     1     -11.479   9.192  73.261  1.00  0.00     0.000 HD 
HETATM   24  H1  UNL     1     -14.440   7.170  71.259  1.00  0.00     0.000 HD 
HETATM   25  H2  UNL     1     -13.060   6.324  71.856  1.00  0.00     0.000 HD 
ENDBRANCH  16  17
ENDBRANCH  15  16
ENDBRANCH  14  15
ENDBRANCH  13  14
BRANCH  13  26
HETATM   26  N   UNL     1     -10.792   9.918  70.582  1.00  0.00    -0.320 N  
HETATM   27  H   UNL     1     -11.377  10.030  71.411  1.00  0.00     0.000 HD 
BRANCH  26  28
HETATM   28  S   UNL     1     -10.932  10.998  69.267  1.00  0.00    -0.261 S  
HETATM   29  O   UNL     1     -11.107  12.326  69.794  1.00  0.00    -0.049 OA 
HETATM   30  O   UNL     1     -11.939  10.414  68.405  1.00  0.00    -0.270 OA 
BRANCH  28  31
HETATM   31  C   UNL     1      -9.348  10.852  68.482  1.00  0.00    -0.181 A  
HETATM   32  C   UNL     1      -7.694  10.345  65.073  1.00  0.00    -0.095 C  
HETATM   33  C   UNL     1      -8.219  10.858  69.316  1.00  0.00    -0.046 A  
HETATM   34  C   UNL     1      -8.777   9.856  62.851  1.00  0.00    -0.213 C  
HETATM   35  C   UNL     1      -6.945  10.734  68.772  1.00  0.00    -0.075 A  
HETATM   36  C   UNL     1      -8.963   9.860  64.366  1.00  0.00    -0.275 C  
HETATM   37  C   UNL     1     -10.115  10.759  64.794  1.00  0.00    -0.331 C  
HETATM   38  H   UNL     1     -11.280  10.546  66.613  1.00  0.00     0.000 HD 
HETATM   39  N   UNL     1     -10.339  10.659  66.234  1.00  0.00    -0.245 NA 
HETATM   40  C   UNL     1      -6.795  10.606  67.396  1.00  0.00    -0.077 A  
HETATM   41  C   UNL     1      -9.222  10.723  67.082  1.00  0.00    -0.147 A  
HETATM   42  C   UNL     1      -7.918  10.588  66.550  1.00  0.00    -0.132 A  
ENDBRANCH  28  31
ENDBRANCH  26  28
ENDBRANCH  13  26
ENDBRANCH   7  13
TORSDOF 8
ENDMDL
MODEL      267
REMARK 921   NORMALIZED FREE ENERGY PREDICTED BY IDOCK:   -4.72 KCAL/MOL
REMARK 922        TOTAL FREE ENERGY PREDICTED BY IDOCK:   -8.18 KCAL/MOL
REMARK 923 INTER-LIGAND FREE ENERGY PREDICTED BY IDOCK:   -8.51 KCAL/MOL
REMARK 924 INTRA-LIGAND FREE ENERGY PREDICTED BY IDOCK:    0.33 KCAL/MOL
REMARK 927      BINDING AFFINITY PREDICTED BY RF-SCORE:    0.00 PKD
ROOT
HETATM    1  C   UNL     1      -5.126  10.019  68.025  1.00  0.00    -0.035 C  
HETATM    2  C   UNL     1      -6.423  10.796  68.201  1.00  0.00    -0.058 C  
HETATM    3  C   UNL     1      -7.521   9.937  68.838  1.00  0.00    -0.081 C  
HETATM    4  C   UNL     1      -8.829  10.716  68.967  1.00  0.00    -0.148 C  
HETATM    5  N   UNL     1      -9.245  11.384  67.702  1.00  0.00    -0.156 N  
HETATM    6  C   UNL     1      -8.189  12.181  67.041  1.00  0.00    -0.164 C  
HETATM    7  C   UNL     1     -10.387  10.884  67.062  1.00  0.00    -0.231 C  
HETATM    8  O   UNL     1     -10.961   9.907  67.563  1.00  0.00    -0.282 OA 
HETATM    9  O   UNL     1      -8.493  13.794  68.809  1.00  0.00    -0.097 OA 
HETATM   10  C   UNL     1      -6.927  11.332  66.852  1.00  0.00    -0.137 C  
HETATM   11  C   UNL     1      -7.801  13.505  67.705  1.00  0.00    -0.167 C  
HETATM   12  O   UNL     1      -6.930  14.248  67.281  1.00  0.00    -0.199 OA 
ENDROOT
BRANCH   7  13
HETATM   13  C   UNL     1     -11.070  11.547  65.813  1.00  0.00    -0.210 C  
BRANCH  13  14
HETATM   14  C   UNL     1     -10.189  12.244  64.742  1.00  0.00    -0.308 C  
BRANCH  14  15
HETATM   15  C   UNL     1      -9.817  11.310  63.572  1.00  0.00    -0.394 C  
BRANCH  15  16
HETATM   16  C   UNL     1      -9.600   9.847  63.987  1.00  0.00    -0.069 C  
BRANCH  16  17
HETATM   17  N   UNL     1      -8.242   9.469  63.644  1.00  0.00    -0.152 NA 
HETATM   18  H2  UNL     1      -5.978   8.998  62.842  1.00  0.00     0.000 HD 
HETATM   19  H1  UNL     1      -6.116   7.231  63.183  1.00  0.00     0.000 HD 
HETATM   20  N   UNL     1      -8.301   7.134  64.061  1.00  0.00    -0.355 NA 
HETATM   21  N   UNL     1      -6.490   8.180  63.174  1.00  0.00    -0.080 NA 
HETATM   22  C   UNL     1      -7.747   8.213  63.657  1.00  0.00    -0.143 C  
HETATM   23  H   UNL     1      -7.605  10.218  63.370  1.00  0.00     0.000 HD 
HETATM   24  H1  UNL     1      -7.928   6.184  64.071  1.00  0.00     0.000 HD 
HETATM   25  H2  UNL     1      -9.249   7.236  64.423  1.00  0.00     0.000 HD 
ENDBRANCH  16  17
ENDBRANCH  15  16
ENDBRANCH  14  15
ENDBRANCH  13  14
BRANCH  13  26
HETATM   26  N   UNL     1     -12.182  12.469  66.172  1.00  0.00    -0.282 N  
HETATM   27  H   UNL     1     -12.813  12.247  66.943  1.00  0.00     0.000 HD 
BRANCH  26  28
HETATM   28  S   UNL     1     -12.382  13.905  65.271  1.00  0.00    -0.479 S  
HETATM   29  O   UNL     1     -13.770  14.284  65.333  1.00  0.00    -0.311 OA 
HETATM   30  O   UNL     1     -11.754  13.639  63.993  1.00  0.00    -0.403 OA 
BRANCH  28  31
HETATM   31  C   UNL     1     -11.386  15.064  66.171  1.00  0.00    -0.270 A  
HETATM   32  C   UNL     1     -10.719  16.390  69.693  1.00  0.00    -0.337 C  
HETATM   33  C   UNL     1     -10.530  15.887  65.421  1.00  0.00    -0.429 A  
HETATM   34  C   UNL     1     -11.945  15.871  71.832  1.00  0.00    -0.588 C  
HETATM   35  C   UNL     1      -9.728  16.829  66.057  1.00  0.00    -0.287 A  
HETATM   36  C   UNL     1     -12.002  15.822  70.308  1.00  0.00    -0.383 C  
HETATM   37  C   UNL     1     -12.183  14.401  69.792  1.00  0.00    -0.321 C  
HETATM   38  H   UNL     1     -13.077  13.845  67.894  1.00  0.00     0.000 HD 
HETATM   39  N   UNL     1     -12.342  14.395  68.341  1.00  0.00    -0.118 NA 
HETATM   40  C   UNL     1      -9.777  16.950  67.441  1.00  0.00    -0.247 A  
HETATM   41  C   UNL     1     -11.454  15.168  67.576  1.00  0.00    -0.298 A  
HETATM   42  C   UNL     1     -10.639  16.140  68.203  1.00  0.00    -0.290 A  
ENDBRANCH  28  31
ENDBRANCH  26  28
ENDBRANCH  13  26
ENDBRANCH   7  13
TORSDOF 8
ENDMDL
MODEL      268
REMARK 921   NORMALIZED FREE ENERGY PREDICTED BY IDOCK:   -4.71 KCAL/MOL
REMARK 922        TOTAL FREE ENERGY PREDICTED BY IDOCK:   -8.16 KCAL/MOL
REMARK 923 INTER-LIGAND FREE ENERGY PREDICTED BY IDOCK:   -7.05 KCAL/MOL
REMARK 924 INTRA-LIGAND FREE ENERGY PREDICTED BY IDOCK:   -1.11 KCAL/MOL
REMARK 927      BINDING AFFINITY PREDICTED BY RF-SCORE:    0.00 PKD
ROOT
HETATM    1  C   UNL     1      -5.722   4.960  67.319  1.00  0.00    -0.017 C  
HETATM    2  C   UNL     1      -7.117   5.481  67.006  1.00  0.00    -0.070 C  
HETATM    3  C   UNL     1      -7.173   6.180  65.643  1.00  0.00    -0.074 C  
HETATM    4  C   UNL     1      -8.568   6.737  65.363  1.00  0.00    -0.047 C  
HETATM    5  N   UNL     1      -9.111   7.557  66.481  1.00  0.00    -0.160 N  
HETATM    6  C   UNL     1      -9.024   6.926  67.816  1.00  0.00    -0.117 C  
HETATM    7  C   UNL     1      -9.248   8.933  66.256  1.00  0.00    -0.207 C  
HETATM    8  O   UNL     1      -8.886   9.388  65.162  1.00  0.00    -0.171 OA 
HETATM    9  O   UNL     1     -10.809   5.473  67.091  1.00  0.00    -0.234 OA 
HETATM   10  C   UNL     1      -7.589   6.463  68.090  1.00  0.00    -0.103 C  
HETATM   11  C   UNL     1      -9.983   5.764  68.097  1.00  0.00    -0.148 C  
HETATM   12  O   UNL     1     -10.002   5.139  69.146  1.00  0.00    -0.173 OA 
ENDROOT
BRANCH   7  13
HETATM   13  C   UNL     1      -9.942   9.933  67.248  1.00  0.00    -0.196 C  
BRANCH  13  14
HETATM   14  C   UNL     1     -11.081   9.426  68.172  1.00  0.00    -0.000 C  
BRANCH  14  15
HETATM   15  C   UNL     1     -10.831   9.744  69.660  1.00  0.00    -0.274 C  
BRANCH  15  16
HETATM   16  C   UNL     1      -9.677   8.945  70.284  1.00  0.00    -0.185 C  
BRANCH  16  17
HETATM   17  N   UNL     1     -10.047   8.588  71.641  1.00  0.00    -0.241 NA 
HETATM   18  H2  UNL     1     -10.407   8.050  74.002  1.00  0.00     0.000 HD 
HETATM   19  H1  UNL     1     -11.331   6.546  73.622  1.00  0.00     0.000 HD 
HETATM   20  N   UNL     1     -11.285   6.599  71.266  1.00  0.00    -0.269 NA 
HETATM   21  N   UNL     1     -10.812   7.381  73.347  1.00  0.00    -0.373 NA 
HETATM   22  C   UNL     1     -10.733   7.484  72.006  1.00  0.00    -0.225 C  
HETATM   23  H   UNL     1      -9.764   9.228  72.385  1.00  0.00     0.000 HD 
HETATM   24  H1  UNL     1     -11.803   5.764  71.541  1.00  0.00     0.000 HD 
HETATM   25  H2  UNL     1     -11.193   6.748  70.261  1.00  0.00     0.000 HD 
ENDBRANCH  16  17
ENDBRANCH  15  16
ENDBRANCH  14  15
ENDBRANCH  13  14
BRANCH  13  26
HETATM   26  N   UNL     1     -10.401  11.188  66.591  1.00  0.00    -0.232 N  
HETATM   27  H   UNL     1     -11.122  11.163  65.869  1.00  0.00     0.000 HD 
BRANCH  26  28
HETATM   28  S   UNL     1      -9.698  12.669  67.067  1.00  0.00    -0.231 S  
HETATM   29  O   UNL     1      -8.286  12.604  66.792  1.00  0.00    -0.126 OA 
HETATM   30  O   UNL     1     -10.170  12.893  68.418  1.00  0.00    -0.235 OA 
BRANCH  28  31
HETATM   31  C   UNL     1     -10.484  13.833  65.983  1.00  0.00    -0.297 A  
HETATM   32  C   UNL     1     -10.920  17.580  65.366  1.00  0.00     0.194 C  
HETATM   33  C   UNL     1     -11.316  13.310  64.981  1.00  0.00    -0.326 A  
HETATM   34  C   UNL     1     -10.139  19.513  66.781  1.00  0.00    -0.519 C  
HETATM   35  C   UNL     1     -11.976  14.162  64.102  1.00  0.00    -0.421 A  
HETATM   36  C   UNL     1     -10.423  18.014  66.749  1.00  0.00    -0.335 C  
HETATM   37  C   UNL     1      -9.186  17.193  67.085  1.00  0.00    -0.236 C  
HETATM   38  H   UNL     1      -9.181  15.192  67.925  1.00  0.00     0.000 HD 
HETATM   39  N   UNL     1      -9.513  15.772  67.153  1.00  0.00    -0.211 NA 
HETATM   40  C   UNL     1     -11.806  15.536  64.220  1.00  0.00    -0.179 A  
HETATM   41  C   UNL     1     -10.295  15.224  66.124  1.00  0.00    -0.302 A  
HETATM   42  C   UNL     1     -10.984  16.074  65.227  1.00  0.00    -0.309 A  
ENDBRANCH  28  31
ENDBRANCH  26  28
ENDBRANCH  13  26
ENDBRANCH   7  13
TORSDOF 8
ENDMDL
MODEL      269
REMARK 921   NORMALIZED FREE ENERGY PREDICTED BY IDOCK:   -4.71 KCAL/MOL
REMARK 922        TOTAL FREE ENERGY PREDICTED BY IDOCK:   -8.15 KCAL/MOL
REMARK 923 INTER-LIGAND FREE ENERGY PREDICTED BY IDOCK:   -8.49 KCAL/MOL
REMARK 924 INTRA-LIGAND FREE ENERGY PREDICTED BY IDOCK:    0.34 KCAL/MOL
REMARK 927      BINDING AFFINITY PREDICTED BY RF-SCORE:    0.00 PKD
ROOT
HETATM    1  C   UNL     1      -5.598  17.884  66.852  1.00  0.00    -0.170 C  
HETATM    2  C   UNL     1      -6.524  17.062  67.736  1.00  0.00    -0.157 C  
HETATM    3  C   UNL     1      -5.769  15.954  68.478  1.00  0.00    -0.100 C  
HETATM    4  C   UNL     1      -6.720  15.108  69.326  1.00  0.00    -0.146 C  
HETATM    5  N   UNL     1      -7.911  14.626  68.574  1.00  0.00    -0.126 N  
HETATM    6  C   UNL     1      -8.629  15.668  67.808  1.00  0.00    -0.162 C  
HETATM    7  C   UNL     1      -7.990  13.250  68.319  1.00  0.00    -0.144 C  
HETATM    8  O   UNL     1      -7.061  12.527  68.704  1.00  0.00    -0.091 OA 
HETATM    9  O   UNL     1      -9.434  16.477  69.934  1.00  0.00     0.229 OA 
HETATM   10  C   UNL     1      -7.652  16.430  66.906  1.00  0.00    -0.275 C  
HETATM   11  C   UNL     1      -9.451  16.678  68.615  1.00  0.00    -0.249 C  
HETATM   12  O   UNL     1     -10.072  17.602  68.114  1.00  0.00    -0.307 OA 
ENDROOT
BRANCH   7  13
HETATM   13  C   UNL     1      -9.234  12.533  67.682  1.00  0.00    -0.190 C  
BRANCH  13  14
HETATM   14  C   UNL     1      -9.051  11.153  66.997  1.00  0.00    -0.158 C  
BRANCH  14  15
HETATM   15  C   UNL     1      -9.491  11.155  65.519  1.00  0.00    -0.251 C  
BRANCH  15  16
HETATM   16  C   UNL     1      -9.515   9.762  64.871  1.00  0.00    -0.265 C  
BRANCH  16  17
HETATM   17  N   UNL     1      -8.297   9.593  64.100  1.00  0.00    -0.156 NA 
HETATM   18  H2  UNL     1      -6.364   9.470  62.605  1.00  0.00     0.000 HD 
HETATM   19  H1  UNL     1      -6.141   7.699  62.876  1.00  0.00     0.000 HD 
HETATM   20  N   UNL     1      -7.898   7.272  64.387  1.00  0.00    -0.126 NA 
HETATM   21  N   UNL     1      -6.625   8.583  63.035  1.00  0.00    -0.090 NA 
HETATM   22  C   UNL     1      -7.655   8.424  63.889  1.00  0.00    -0.135 C  
HETATM   23  H   UNL     1      -7.891  10.431  63.682  1.00  0.00     0.000 HD 
HETATM   24  H1  UNL     1      -7.413   6.388  64.227  1.00  0.00     0.000 HD 
HETATM   25  H2  UNL     1      -8.686   7.230  65.033  1.00  0.00     0.000 HD 
ENDBRANCH  16  17
ENDBRANCH  15  16
ENDBRANCH  14  15
ENDBRANCH  13  14
BRANCH  13  26
HETATM   26  N   UNL     1     -10.009  13.410  66.761  1.00  0.00    -0.258 N  
HETATM   27  H   UNL     1      -9.536  13.948  66.035  1.00  0.00     0.000 HD 
BRANCH  26  28
HETATM   28  S   UNL     1     -11.704  13.498  66.944  1.00  0.00    -0.404 S  
HETATM   29  O   UNL     1     -12.306  12.651  65.948  1.00  0.00    -0.593 OA 
HETATM   30  O   UNL     1     -12.006  14.914  66.979  1.00  0.00    -0.293 OA 
BRANCH  28  31
HETATM   31  C   UNL     1     -11.950  12.818  68.564  1.00  0.00    -0.225 A  
HETATM   32  C   UNL     1     -12.596  13.809  72.198  1.00  0.00    -0.207 C  
HETATM   33  C   UNL     1     -11.840  11.424  68.694  1.00  0.00    -0.377 A  
HETATM   34  C   UNL     1     -12.641  16.110  73.222  1.00  0.00    -0.623 C  
HETATM   35  C   UNL     1     -12.008  10.820  69.935  1.00  0.00    -0.418 A  
HETATM   36  C   UNL     1     -12.199  15.278  72.022  1.00  0.00    -0.441 C  
HETATM   37  C   UNL     1     -12.816  15.780  70.724  1.00  0.00    -0.287 C  
HETATM   38  H   UNL     1     -11.981  15.517  68.738  1.00  0.00     0.000 HD 
HETATM   39  N   UNL     1     -12.294  15.035  69.582  1.00  0.00    -0.245 NA 
HETATM   40  C   UNL     1     -12.288  11.605  71.048  1.00  0.00    -0.405 A  
HETATM   41  C   UNL     1     -12.233  13.635  69.677  1.00  0.00    -0.270 A  
HETATM   42  C   UNL     1     -12.390  13.003  70.934  1.00  0.00    -0.376 A  
ENDBRANCH  28  31
ENDBRANCH  26  28
ENDBRANCH  13  26
ENDBRANCH   7  13
TORSDOF 8
ENDMDL
MODEL      270
REMARK 921   NORMALIZED FREE ENERGY PREDICTED BY IDOCK:   -4.70 KCAL/MOL
REMARK 922        TOTAL FREE ENERGY PREDICTED BY IDOCK:   -8.14 KCAL/MOL
REMARK 923 INTER-LIGAND FREE ENERGY PREDICTED BY IDOCK:   -6.79 KCAL/MOL
REMARK 924 INTRA-LIGAND FREE ENERGY PREDICTED BY IDOCK:   -1.35 KCAL/MOL
REMARK 927      BINDING AFFINITY PREDICTED BY RF-SCORE:    0.00 PKD
ROOT
HETATM    1  C   UNL     1     -11.987  12.801  63.447  1.00  0.00    -0.613 C  
HETATM    2  C   UNL     1     -10.898  12.319  64.396  1.00  0.00    -0.370 C  
HETATM    3  C   UNL     1      -9.944  11.333  63.713  1.00  0.00    -0.388 C  
HETATM    4  C   UNL     1      -8.883  10.824  64.690  1.00  0.00    -0.143 C  
HETATM    5  N   UNL     1      -9.454  10.321  65.970  1.00  0.00    -0.175 N  
HETATM    6  C   UNL     1     -10.417  11.233  66.625  1.00  0.00    -0.247 C  
HETATM    7  C   UNL     1      -9.372   8.942  66.208  1.00  0.00    -0.219 C  
HETATM    8  O   UNL     1      -8.862   8.225  65.335  1.00  0.00    -0.157 OA 
HETATM    9  O   UNL     1      -8.515  12.600  67.203  1.00  0.00    -0.184 OA 
HETATM   10  C   UNL     1     -11.511  11.647  65.633  1.00  0.00    -0.171 C  
HETATM   11  C   UNL     1      -9.843  12.491  67.283  1.00  0.00    -0.204 C  
HETATM   12  O   UNL     1     -10.525  13.339  67.836  1.00  0.00    -0.230 OA 
ENDROOT
BRANCH   7  13
HETATM   13  C   UNL     1      -9.772   8.246  67.557  1.00  0.00    -0.165 C  
BRANCH  13  14
HETATM   14  C   UNL     1      -9.530   8.985  68.899  1.00  0.00    -0.151 C  
BRANCH  14  15
HETATM   15  C   UNL     1     -10.648   8.733  69.932  1.00  0.00    -0.230 C  
BRANCH  15  16
HETATM   16  C   UNL     1     -10.515   9.570  71.213  1.00  0.00    -0.250 C  
BRANCH  16  17
HETATM   17  N   UNL     1     -10.359   8.666  72.338  1.00  0.00    -0.301 NA 
HETATM   18  H2  UNL     1     -10.313   7.274  74.351  1.00  0.00     0.000 HD 
HETATM   19  H1  UNL     1      -8.515   7.353  74.486  1.00  0.00     0.000 HD 
HETATM   20  N   UNL     1      -8.002   8.687  72.612  1.00  0.00    -0.381 NA 
HETATM   21  N   UNL     1      -9.397   7.586  74.028  1.00  0.00    -0.250 NA 
HETATM   22  C   UNL     1      -9.192   8.357  72.943  1.00  0.00    -0.218 C  
HETATM   23  H   UNL     1     -11.204   8.225  72.702  1.00  0.00     0.000 HD 
HETATM   24  H1  UNL     1      -7.120   8.454  73.069  1.00  0.00     0.000 HD 
HETATM   25  H2  UNL     1      -7.923   9.263  71.774  1.00  0.00     0.000 HD 
ENDBRANCH  16  17
ENDBRANCH  15  16
ENDBRANCH  14  15
ENDBRANCH  13  14
BRANCH  13  26
HETATM   26  N   UNL     1      -9.235   6.862  67.685  1.00  0.00    -0.120 N  
HETATM   27  H   UNL     1      -8.231   6.699  67.755  1.00  0.00     0.000 HD 
BRANCH  26  28
HETATM   28  S   UNL     1     -10.333   5.555  67.713  1.00  0.00    -0.168 S  
HETATM   29  O   UNL     1     -10.818   5.349  66.373  1.00  0.00    -0.284 OA 
HETATM   30  O   UNL     1     -11.257   5.861  68.785  1.00  0.00    -0.258 OA 
BRANCH  28  31
HETATM   31  C   UNL     1      -9.302   4.200  68.211  1.00  0.00    -0.158 A  
HETATM   32  C   UNL     1      -6.599   3.218  70.728  1.00  0.00    -0.032 C  
HETATM   33  C   UNL     1      -9.381   3.025  67.447  1.00  0.00    -0.216 A  
HETATM   34  C   UNL     1      -5.402   4.669  72.405  1.00  0.00    -0.004 C  
HETATM   35  C   UNL     1      -8.593   1.925  67.770  1.00  0.00    -0.105 A  
HETATM   36  C   UNL     1      -6.253   4.653  71.138  1.00  0.00    -0.018 C  
HETATM   37  C   UNL     1      -7.556   5.420  71.318  1.00  0.00    -0.101 C  
HETATM   38  H   UNL     1      -8.706   6.355  69.733  1.00  0.00     0.000 HD 
HETATM   39  N   UNL     1      -8.297   5.479  70.061  1.00  0.00    -0.114 NA 
HETATM   40  C   UNL     1      -7.728   1.995  68.856  1.00  0.00    -0.048 A  
HETATM   41  C   UNL     1      -8.432   4.296  69.317  1.00  0.00    -0.073 A  
HETATM   42  C   UNL     1      -7.632   3.171  69.623  1.00  0.00    -0.044 A  
ENDBRANCH  28  31
ENDBRANCH  26  28
ENDBRANCH  13  26
ENDBRANCH   7  13
TORSDOF 8
ENDMDL
MODEL      271
REMARK 921   NORMALIZED FREE ENERGY PREDICTED BY IDOCK:   -4.67 KCAL/MOL
REMARK 922        TOTAL FREE ENERGY PREDICTED BY IDOCK:   -8.11 KCAL/MOL
REMARK 923 INTER-LIGAND FREE ENERGY PREDICTED BY IDOCK:   -6.93 KCAL/MOL
REMARK 924 INTRA-LIGAND FREE ENERGY PREDICTED BY IDOCK:   -1.18 KCAL/MOL
REMARK 927      BINDING AFFINITY PREDICTED BY RF-SCORE:    0.00 PKD
ROOT
HETATM    1  C   UNL     1     -11.370   7.755  72.836  1.00  0.00    -0.406 C  
HETATM    2  C   UNL     1     -10.193   7.330  71.969  1.00  0.00    -0.212 C  
HETATM    3  C   UNL     1      -8.970   8.226  72.190  1.00  0.00    -0.274 C  
HETATM    4  C   UNL     1      -7.812   7.816  71.280  1.00  0.00    -0.086 C  
HETATM    5  N   UNL     1      -8.205   7.676  69.851  1.00  0.00    -0.128 N  
HETATM    6  C   UNL     1      -9.414   6.855  69.614  1.00  0.00    -0.147 C  
HETATM    7  C   UNL     1      -7.693   8.621  68.952  1.00  0.00    -0.100 C  
HETATM    8  O   UNL     1      -6.975   9.526  69.398  1.00  0.00    -0.047 OA 
HETATM    9  O   UNL     1      -8.047   4.940  70.148  1.00  0.00    -0.071 OA 
HETATM   10  C   UNL     1     -10.573   7.359  70.481  1.00  0.00    -0.234 C  
HETATM   11  C   UNL     1      -9.273   5.342  69.806  1.00  0.00    -0.126 C  
HETATM   12  O   UNL     1     -10.193   4.551  69.667  1.00  0.00    -0.188 OA 
ENDROOT
BRANCH   7  13
HETATM   13  C   UNL     1      -7.865   8.551  67.392  1.00  0.00    -0.098 C  
BRANCH  13  14
HETATM   14  C   UNL     1      -6.701   8.011  66.520  1.00  0.00    -0.062 C  
BRANCH  14  15
HETATM   15  C   UNL     1      -7.065   6.708  65.778  1.00  0.00    -0.061 C  
BRANCH  15  16
HETATM   16  C   UNL     1      -8.197   5.908  66.440  1.00  0.00    -0.112 C  
BRANCH  16  17
HETATM   17  N   UNL     1      -9.066   5.393  65.397  1.00  0.00    -0.280 NA 
HETATM   18  H2  UNL     1     -10.619   4.788  63.605  1.00  0.00     0.000 HD 
HETATM   19  H1  UNL     1     -11.205   3.317  64.473  1.00  0.00     0.000 HD 
HETATM   20  N   UNL     1      -9.905   3.431  66.435  1.00  0.00    -0.411 NA 
HETATM   21  N   UNL     1     -10.618   4.149  64.400  1.00  0.00    -0.187 NA 
HETATM   22  C   UNL     1      -9.842   4.292  65.493  1.00  0.00    -0.215 C  
HETATM   23  H   UNL     1      -9.091   5.907  64.516  1.00  0.00     0.000 HD 
HETATM   24  H1  UNL     1     -10.492   2.599  66.508  1.00  0.00     0.000 HD 
HETATM   25  H2  UNL     1      -9.282   3.598  67.225  1.00  0.00     0.000 HD 
ENDBRANCH  16  17
ENDBRANCH  15  16
ENDBRANCH  14  15
ENDBRANCH  13  14
BRANCH  13  26
HETATM   26  N   UNL     1      -8.337   9.832  66.797  1.00  0.00    -0.123 N  
HETATM   27  H   UNL     1      -7.789  10.686  66.898  1.00  0.00     0.000 HD 
BRANCH  26  28
HETATM   28  S   UNL     1      -9.814   9.843  65.941  1.00  0.00    -0.276 S  
HETATM   29  O   UNL     1     -10.718   8.933  66.594  1.00  0.00    -0.161 OA 
HETATM   30  O   UNL     1      -9.448   9.641  64.554  1.00  0.00    -0.253 OA 
BRANCH  28  31
HETATM   31  C   UNL     1     -10.366  11.516  66.151  1.00  0.00    -0.245 A  
HETATM   32  C   UNL     1      -9.421  14.831  67.803  1.00  0.00    -0.204 C  
HETATM   33  C   UNL     1     -11.613  11.850  65.600  1.00  0.00    -0.275 A  
HETATM   34  C   UNL     1      -7.514  15.324  69.374  1.00  0.00    -0.212 C  
HETATM   35  C   UNL     1     -12.117  13.140  65.736  1.00  0.00    -0.502 A  
HETATM   36  C   UNL     1      -8.374  14.231  68.747  1.00  0.00    -0.095 C  
HETATM   37  C   UNL     1      -7.539  13.235  67.953  1.00  0.00    -0.152 C  
HETATM   38  H   UNL     1      -8.074  11.172  67.545  1.00  0.00     0.000 HD 
HETATM   39  N   UNL     1      -8.372  12.144  67.455  1.00  0.00    -0.156 NA 
HETATM   40  C   UNL     1     -11.376  14.098  66.420  1.00  0.00    -0.342 A  
HETATM   41  C   UNL     1      -9.596  12.470  66.849  1.00  0.00    -0.229 A  
HETATM   42  C   UNL     1     -10.130  13.773  66.986  1.00  0.00    -0.256 A  
ENDBRANCH  28  31
ENDBRANCH  26  28
ENDBRANCH  13  26
ENDBRANCH   7  13
TORSDOF 8
ENDMDL
MODEL      272
REMARK 921   NORMALIZED FREE ENERGY PREDICTED BY IDOCK:   -4.67 KCAL/MOL
REMARK 922        TOTAL FREE ENERGY PREDICTED BY IDOCK:   -8.11 KCAL/MOL
REMARK 923 INTER-LIGAND FREE ENERGY PREDICTED BY IDOCK:   -5.89 KCAL/MOL
REMARK 924 INTRA-LIGAND FREE ENERGY PREDICTED BY IDOCK:   -2.22 KCAL/MOL
REMARK 927      BINDING AFFINITY PREDICTED BY RF-SCORE:    0.00 PKD
ROOT
HETATM    1  C   UNL     1     -10.259  13.608  67.052  1.00  0.00    -0.250 C  
HETATM    2  C   UNL     1     -10.257  12.140  67.453  1.00  0.00    -0.211 C  
HETATM    3  C   UNL     1     -10.554  11.957  68.945  1.00  0.00    -0.205 C  
HETATM    4  C   UNL     1     -10.504  10.481  69.343  1.00  0.00    -0.240 C  
HETATM    5  N   UNL     1      -9.267   9.789  68.886  1.00  0.00    -0.149 N  
HETATM    6  C   UNL     1      -8.931   9.990  67.460  1.00  0.00    -0.134 C  
HETATM    7  C   UNL     1      -8.356   9.393  69.873  1.00  0.00    -0.167 C  
HETATM    8  O   UNL     1      -8.613   9.665  71.054  1.00  0.00    -0.218 OA 
HETATM    9  O   UNL     1     -10.775   8.517  66.961  1.00  0.00    -0.275 OA 
HETATM   10  C   UNL     1      -8.905  11.487  67.128  1.00  0.00    -0.168 C  
HETATM   11  C   UNL     1      -9.809   9.270  66.432  1.00  0.00    -0.277 C  
HETATM   12  O   UNL     1      -9.659   9.366  65.224  1.00  0.00    -0.269 OA 
ENDROOT
BRANCH   7  13
HETATM   13  C   UNL     1      -7.078   8.518  69.607  1.00  0.00    -0.052 C  
BRANCH  13  14
HETATM   14  C   UNL     1      -5.801   9.187  69.033  1.00  0.00    -0.039 C  
BRANCH  14  15
HETATM   15  C   UNL     1      -5.402   8.628  67.652  1.00  0.00    -0.035 C  
BRANCH  15  16
HETATM   16  C   UNL     1      -5.663   9.595  66.488  1.00  0.00    -0.053 C  
BRANCH  16  17
HETATM   17  N   UNL     1      -5.854   8.816  65.278  1.00  0.00    -0.047 NA 
HETATM   18  H2  UNL     1      -5.917   7.406  63.278  1.00  0.00     0.000 HD 
HETATM   19  H1  UNL     1      -6.686   8.693  62.272  1.00  0.00     0.000 HD 
HETATM   20  N   UNL     1      -6.874  10.424  63.861  1.00  0.00    -0.321 NA 
HETATM   21  N   UNL     1      -6.301   8.343  63.150  1.00  0.00    -0.085 NA 
HETATM   22  C   UNL     1      -6.365   9.279  64.117  1.00  0.00    -0.086 C  
HETATM   23  H   UNL     1      -5.580   7.834  65.308  1.00  0.00     0.000 HD 
HETATM   24  H1  UNL     1      -7.260  10.774  62.984  1.00  0.00     0.000 HD 
HETATM   25  H2  UNL     1      -6.899  11.078  64.643  1.00  0.00     0.000 HD 
ENDBRANCH  16  17
ENDBRANCH  15  16
ENDBRANCH  14  15
ENDBRANCH  13  14
BRANCH  13  26
HETATM   26  N   UNL     1      -7.362   7.295  68.807  1.00  0.00    -0.093 N  
HETATM   27  H   UNL     1      -7.827   7.361  67.902  1.00  0.00     0.000 HD 
BRANCH  26  28
HETATM   28  S   UNL     1      -6.894   5.777  69.435  1.00  0.00    -0.064 S  
HETATM   29  O   UNL     1      -5.471   5.802  69.652  1.00  0.00    -0.004 OA 
HETATM   30  O   UNL     1      -7.481   4.802  68.539  1.00  0.00    -0.064 OA 
BRANCH  28  31
HETATM   31  C   UNL     1      -7.753   5.723  70.986  1.00  0.00    -0.101 A  
HETATM   32  C   UNL     1     -11.185   6.292  72.569  1.00  0.00    -0.316 C  
HETATM   33  C   UNL     1      -6.991   5.425  72.127  1.00  0.00    -0.080 A  
HETATM   34  C   UNL     1     -13.281   7.204  71.507  1.00  0.00    -0.419 C  
HETATM   35  C   UNL     1      -7.594   5.378  73.380  1.00  0.00    -0.096 A  
HETATM   36  C   UNL     1     -11.766   7.070  71.383  1.00  0.00    -0.344 C  
HETATM   37  C   UNL     1     -11.361   6.350  70.104  1.00  0.00    -0.420 C  
HETATM   38  H   UNL     1      -9.466   6.568  69.071  1.00  0.00     0.000 HD 
HETATM   39  N   UNL     1      -9.908   6.331  69.959  1.00  0.00    -0.167 NA 
HETATM   40  C   UNL     1      -8.956   5.625  73.496  1.00  0.00    -0.125 A  
HETATM   41  C   UNL     1      -9.137   5.978  71.078  1.00  0.00    -0.143 A  
HETATM   42  C   UNL     1      -9.729   5.935  72.362  1.00  0.00    -0.175 A  
ENDBRANCH  28  31
ENDBRANCH  26  28
ENDBRANCH  13  26
ENDBRANCH   7  13
TORSDOF 8
ENDMDL
MODEL      273
REMARK 921   NORMALIZED FREE ENERGY PREDICTED BY IDOCK:   -4.67 KCAL/MOL
REMARK 922        TOTAL FREE ENERGY PREDICTED BY IDOCK:   -8.10 KCAL/MOL
REMARK 923 INTER-LIGAND FREE ENERGY PREDICTED BY IDOCK:   -5.77 KCAL/MOL
REMARK 924 INTRA-LIGAND FREE ENERGY PREDICTED BY IDOCK:   -2.33 KCAL/MOL
REMARK 927      BINDING AFFINITY PREDICTED BY RF-SCORE:    0.00 PKD
ROOT
HETATM    1  C   UNL     1      -7.723   8.641  65.970  1.00  0.00    -0.100 C  
HETATM    2  C   UNL     1      -8.363   7.364  66.496  1.00  0.00    -0.124 C  
HETATM    3  C   UNL     1      -9.864   7.541  66.748  1.00  0.00    -0.295 C  
HETATM    4  C   UNL     1     -10.484   6.265  67.318  1.00  0.00    -0.254 C  
HETATM    5  N   UNL     1      -9.738   5.718  68.485  1.00  0.00    -0.125 N  
HETATM    6  C   UNL     1      -8.278   5.584  68.286  1.00  0.00    -0.095 C  
HETATM    7  C   UNL     1     -10.370   5.782  69.734  1.00  0.00    -0.263 C  
HETATM    8  O   UNL     1     -11.488   6.311  69.799  1.00  0.00    -0.430 OA 
HETATM    9  O   UNL     1      -8.788   3.713  66.850  1.00  0.00    -0.114 OA 
HETATM   10  C   UNL     1      -7.687   6.912  67.799  1.00  0.00    -0.112 C  
HETATM   11  C   UNL     1      -7.806   4.461  67.357  1.00  0.00    -0.096 C  
HETATM   12  O   UNL     1      -6.634   4.252  67.085  1.00  0.00    -0.044 OA 
ENDROOT
BRANCH   7  13
HETATM   13  C   UNL     1      -9.817   5.122  71.047  1.00  0.00    -0.196 C  
BRANCH  13  14
HETATM   14  C   UNL     1     -10.013   3.601  71.278  1.00  0.00    -0.144 C  
BRANCH  14  15
HETATM   15  C   UNL     1      -9.958   3.210  72.770  1.00  0.00    -0.213 C  
BRANCH  15  16
HETATM   16  C   UNL     1      -8.538   2.946  73.294  1.00  0.00    -0.079 C  
BRANCH  16  17
HETATM   17  N   UNL     1      -7.760   2.340  72.229  1.00  0.00    -0.047 NA 
HETATM   18  H2  UNL     1      -6.452   1.084  70.586  1.00  0.00     0.000 HD 
HETATM   19  H1  UNL     1      -5.298   2.445  70.314  1.00  0.00     0.000 HD 
HETATM   20  N   UNL     1      -6.190   4.061  71.780  1.00  0.00    -0.014 NA 
HETATM   21  N   UNL     1      -6.113   2.029  70.766  1.00  0.00    -0.018 NA 
HETATM   22  C   UNL     1      -6.682   2.891  71.631  1.00  0.00    -0.023 C  
HETATM   23  H   UNL     1      -8.054   1.418  71.904  1.00  0.00     0.000 HD 
HETATM   24  H1  UNL     1      -5.375   4.477  71.328  1.00  0.00     0.000 HD 
HETATM   25  H2  UNL     1      -6.678   4.662  72.443  1.00  0.00     0.000 HD 
ENDBRANCH  16  17
ENDBRANCH  15  16
ENDBRANCH  14  15
ENDBRANCH  13  14
BRANCH  13  26
HETATM   26  N   UNL     1     -10.236   5.838  72.284  1.00  0.00    -0.191 N  
HETATM   27  H   UNL     1     -11.193   5.762  72.630  1.00  0.00     0.000 HD 
BRANCH  26  28
HETATM   28  S   UNL     1      -9.085   6.787  73.113  1.00  0.00    -0.129 S  
HETATM   29  O   UNL     1      -8.026   5.920  73.559  1.00  0.00    -0.104 OA 
HETATM   30  O   UNL     1      -9.851   7.558  74.072  1.00  0.00    -0.236 OA 
BRANCH  28  31
HETATM   31  C   UNL     1      -8.496   7.874  71.841  1.00  0.00    -0.122 A  
HETATM   32  C   UNL     1      -9.665  10.507  69.329  1.00  0.00    -0.215 C  
HETATM   33  C   UNL     1      -7.134   7.792  71.511  1.00  0.00    -0.063 A  
HETATM   34  C   UNL     1     -12.015  11.230  68.779  1.00  0.00    -0.350 C  
HETATM   35  C   UNL     1      -6.604   8.605  70.514  1.00  0.00    -0.039 A  
HETATM   36  C   UNL     1     -11.151  10.149  69.423  1.00  0.00    -0.288 C  
HETATM   37  C   UNL     1     -11.496   9.947  70.892  1.00  0.00    -0.376 C  
HETATM   38  H   UNL     1     -11.183   8.124  72.028  1.00  0.00     0.000 HD 
HETATM   39  N   UNL     1     -10.731   8.836  71.452  1.00  0.00    -0.260 NA 
HETATM   40  C   UNL     1      -7.431   9.501  69.847  1.00  0.00    -0.113 A  
HETATM   41  C   UNL     1      -9.356   8.775  71.178  1.00  0.00    -0.233 A  
HETATM   42  C   UNL     1      -8.800   9.585  70.160  1.00  0.00    -0.266 A  
ENDBRANCH  28  31
ENDBRANCH  26  28
ENDBRANCH  13  26
ENDBRANCH   7  13
TORSDOF 8
ENDMDL
MODEL      274
REMARK 921   NORMALIZED FREE ENERGY PREDICTED BY IDOCK:   -4.65 KCAL/MOL
REMARK 922        TOTAL FREE ENERGY PREDICTED BY IDOCK:   -8.08 KCAL/MOL
REMARK 923 INTER-LIGAND FREE ENERGY PREDICTED BY IDOCK:   -7.90 KCAL/MOL
REMARK 924 INTRA-LIGAND FREE ENERGY PREDICTED BY IDOCK:   -0.18 KCAL/MOL
REMARK 927      BINDING AFFINITY PREDICTED BY RF-SCORE:    0.00 PKD
ROOT
HETATM    1  C   UNL     1     -11.045  16.459  69.943  1.00  0.00    -0.313 C  
HETATM    2  C   UNL     1     -10.872  15.374  68.890  1.00  0.00    -0.251 C  
HETATM    3  C   UNL     1     -12.183  14.628  68.619  1.00  0.00    -0.138 C  
HETATM    4  C   UNL     1     -11.983  13.512  67.593  1.00  0.00    -0.336 C  
HETATM    5  N   UNL     1     -10.836  12.618  67.911  1.00  0.00    -0.213 N  
HETATM    6  C   UNL     1      -9.570  13.314  68.225  1.00  0.00    -0.221 C  
HETATM    7  C   UNL     1     -11.138  11.302  68.287  1.00  0.00    -0.240 C  
HETATM    8  O   UNL     1     -12.329  10.971  68.362  1.00  0.00    -0.528 OA 
HETATM    9  O   UNL     1      -9.426  13.818  65.869  1.00  0.00    -0.177 OA 
HETATM   10  C   UNL     1      -9.800  14.362  69.320  1.00  0.00     0.042 C  
HETATM   11  C   UNL     1      -8.833  13.975  67.055  1.00  0.00    -0.219 C  
HETATM   12  O   UNL     1      -7.793  14.602  67.174  1.00  0.00    -0.197 OA 
ENDROOT
BRANCH   7  13
HETATM   13  C   UNL     1     -10.070  10.171  68.507  1.00  0.00    -0.169 C  
BRANCH  13  14
HETATM   14  C   UNL     1      -9.365  10.045  69.884  1.00  0.00    -0.207 C  
BRANCH  14  15
HETATM   15  C   UNL     1     -10.036   9.006  70.805  1.00  0.00    -0.303 C  
BRANCH  15  16
HETATM   16  C   UNL     1     -11.335   9.499  71.461  1.00  0.00    -0.385 C  
BRANCH  16  17
HETATM   17  N   UNL     1     -12.400   8.572  71.125  1.00  0.00    -0.430 NA 
HETATM   18  H2  UNL     1     -14.164   7.094  70.293  1.00  0.00     0.000 HD 
HETATM   19  H1  UNL     1     -15.273   7.479  71.664  1.00  0.00     0.000 HD 
HETATM   20  N   UNL     1     -13.937   8.991  72.883  1.00  0.00    -1.067 NA 
HETATM   21  N   UNL     1     -14.391   7.579  71.160  1.00  0.00    -0.290 NA 
HETATM   22  C   UNL     1     -13.566   8.438  71.791  1.00  0.00    -0.377 C  
HETATM   23  H   UNL     1     -12.254   7.969  70.314  1.00  0.00     0.000 HD 
HETATM   24  H1  UNL     1     -14.819   8.890  73.387  1.00  0.00     0.000 HD 
HETATM   25  H2  UNL     1     -13.258   9.620  73.309  1.00  0.00     0.000 HD 
ENDBRANCH  16  17
ENDBRANCH  15  16
ENDBRANCH  14  15
ENDBRANCH  13  14
BRANCH  13  26
HETATM   26  N   UNL     1      -9.026  10.136  67.445  1.00  0.00    -0.135 N  
HETATM   27  H   UNL     1      -8.986  10.863  66.731  1.00  0.00     0.000 HD 
BRANCH  26  28
HETATM   28  S   UNL     1      -7.898   8.855  67.446  1.00  0.00    -0.097 S  
HETATM   29  O   UNL     1      -6.914   9.125  68.461  1.00  0.00    -0.066 OA 
HETATM   30  O   UNL     1      -7.498   8.703  66.062  1.00  0.00    -0.083 OA 
BRANCH  28  31
HETATM   31  C   UNL     1      -8.897   7.465  67.911  1.00  0.00    -0.132 A  
HETATM   32  C   UNL     1      -8.770   4.136  69.786  1.00  0.00    -0.117 C  
HETATM   33  C   UNL     1     -10.217   7.439  67.433  1.00  0.00    -0.315 A  
HETATM   34  C   UNL     1      -6.776   2.964  70.787  1.00  0.00    -0.032 C  
HETATM   35  C   UNL     1     -11.056   6.375  67.746  1.00  0.00    -0.376 A  
HETATM   36  C   UNL     1      -7.241   4.040  69.809  1.00  0.00    -0.042 C  
HETATM   37  C   UNL     1      -6.688   5.412  70.169  1.00  0.00    -0.047 C  
HETATM   38  H   UNL     1      -6.371   7.054  68.786  1.00  0.00     0.000 HD 
HETATM   39  N   UNL     1      -7.059   6.399  69.159  1.00  0.00    -0.081 NA 
HETATM   40  C   UNL     1     -10.580   5.336  68.538  1.00  0.00    -0.084 A  
HETATM   41  C   UNL     1      -8.391   6.422  68.716  1.00  0.00    -0.121 A  
HETATM   42  C   UNL     1      -9.256   5.343  69.014  1.00  0.00    -0.149 A  
ENDBRANCH  28  31
ENDBRANCH  26  28
ENDBRANCH  13  26
ENDBRANCH   7  13
TORSDOF 8
ENDMDL
MODEL      275
REMARK 921   NORMALIZED FREE ENERGY PREDICTED BY IDOCK:   -4.64 KCAL/MOL
REMARK 922        TOTAL FREE ENERGY PREDICTED BY IDOCK:   -8.06 KCAL/MOL
REMARK 923 INTER-LIGAND FREE ENERGY PREDICTED BY IDOCK:   -6.52 KCAL/MOL
REMARK 924 INTRA-LIGAND FREE ENERGY PREDICTED BY IDOCK:   -1.54 KCAL/MOL
REMARK 927      BINDING AFFINITY PREDICTED BY RF-SCORE:    0.00 PKD
ROOT
HETATM    1  C   UNL     1      -5.547  13.430  70.642  1.00  0.00    -0.177 C  
HETATM    2  C   UNL     1      -5.918  12.170  69.874  1.00  0.00    -0.149 C  
HETATM    3  C   UNL     1      -5.139  12.053  68.560  1.00  0.00    -0.046 C  
HETATM    4  C   UNL     1      -5.554  10.807  67.778  1.00  0.00    -0.043 C  
HETATM    5  N   UNL     1      -7.029  10.677  67.617  1.00  0.00    -0.078 N  
HETATM    6  C   UNL     1      -7.809  10.835  68.864  1.00  0.00    -0.136 C  
HETATM    7  C   UNL     1      -7.547  10.839  66.325  1.00  0.00    -0.142 C  
HETATM    8  O   UNL     1      -6.760  11.109  65.407  1.00  0.00     0.181 OA 
HETATM    9  O   UNL     1      -6.985   8.655  69.491  1.00  0.00    -0.047 OA 
HETATM   10  C   UNL     1      -7.423  12.141  69.567  1.00  0.00     0.479 C  
HETATM   11  C   UNL     1      -7.739   9.687  69.876  1.00  0.00    -0.144 C  
HETATM   12  O   UNL     1      -8.313   9.696  70.954  1.00  0.00    -0.272 OA 
ENDROOT
BRANCH   7  13
HETATM   13  C   UNL     1      -9.045  10.587  65.928  1.00  0.00    -0.168 C  
BRANCH  13  14
HETATM   14  C   UNL     1      -9.369   9.738  64.670  1.00  0.00    -0.318 C  
BRANCH  14  15
HETATM   15  C   UNL     1      -8.335   8.621  64.420  1.00  0.00    -0.148 C  
BRANCH  15  16
HETATM   16  C   UNL     1      -8.461   7.427  65.378  1.00  0.00    -0.092 C  
BRANCH  16  17
HETATM   17  N   UNL     1      -9.716   7.546  66.097  1.00  0.00    -0.435 NA 
HETATM   18  H2  UNL     1     -11.784   8.023  67.318  1.00  0.00     0.000 HD 
HETATM   19  H1  UNL     1     -11.562   6.626  68.440  1.00  0.00     0.000 HD 
HETATM   20  N   UNL     1      -9.539   5.736  67.621  1.00  0.00    -0.112 NA 
HETATM   21  N   UNL     1     -11.267   7.211  67.657  1.00  0.00    -0.032 NA 
HETATM   22  C   UNL     1     -10.107   6.772  67.132  1.00  0.00    -0.190 C  
HETATM   23  H   UNL     1     -10.359   8.278  65.794  1.00  0.00     0.000 HD 
HETATM   24  H1  UNL     1      -9.834   5.151  68.404  1.00  0.00     0.000 HD 
HETATM   25  H2  UNL     1      -8.670   5.456  67.167  1.00  0.00     0.000 HD 
ENDBRANCH  16  17
ENDBRANCH  15  16
ENDBRANCH  14  15
ENDBRANCH  13  14
BRANCH  13  26
HETATM   26  N   UNL     1      -9.854  11.836  65.866  1.00  0.00    -0.232 N  
HETATM   27  H   UNL     1      -9.524  12.643  65.336  1.00  0.00     0.000 HD 
BRANCH  26  28
HETATM   28  S   UNL     1     -11.343  11.892  66.700  1.00  0.00    -0.309 S  
HETATM   29  O   UNL     1     -11.500  10.655  67.419  1.00  0.00    -0.436 OA 
HETATM   30  O   UNL     1     -12.318  12.289  65.704  1.00  0.00    -0.619 OA 
BRANCH  28  31
HETATM   31  C   UNL     1     -11.098  13.236  67.831  1.00  0.00    -0.262 A  
HETATM   32  C   UNL     1      -9.577  16.733  68.097  1.00  0.00    -0.242 C  
HETATM   33  C   UNL     1     -11.531  13.044  69.153  1.00  0.00    -0.353 A  
HETATM   34  C   UNL     1      -8.200  17.987  66.400  1.00  0.00    -0.285 C  
HETATM   35  C   UNL     1     -11.361  14.050  70.099  1.00  0.00    -0.109 A  
HETATM   36  C   UNL     1      -8.731  16.621  66.824  1.00  0.00    -0.256 C  
HETATM   37  C   UNL     1      -9.590  15.984  65.741  1.00  0.00    -0.276 C  
HETATM   38  H   UNL     1      -9.924  13.856  65.475  1.00  0.00     0.000 HD 
HETATM   39  N   UNL     1      -9.995  14.636  66.130  1.00  0.00    -0.289 NA 
HETATM   40  C   UNL     1     -10.761  15.247  69.729  1.00  0.00    -0.295 A  
HETATM   41  C   UNL     1     -10.486  14.442  67.431  1.00  0.00    -0.261 A  
HETATM   42  C   UNL     1     -10.312  15.448  68.411  1.00  0.00    -0.229 A  
ENDBRANCH  28  31
ENDBRANCH  26  28
ENDBRANCH  13  26
ENDBRANCH   7  13
TORSDOF 8
ENDMDL
MODEL      276
REMARK 921   NORMALIZED FREE ENERGY PREDICTED BY IDOCK:   -4.64 KCAL/MOL
REMARK 922        TOTAL FREE ENERGY PREDICTED BY IDOCK:   -8.06 KCAL/MOL
REMARK 923 INTER-LIGAND FREE ENERGY PREDICTED BY IDOCK:   -6.54 KCAL/MOL
REMARK 924 INTRA-LIGAND FREE ENERGY PREDICTED BY IDOCK:   -1.52 KCAL/MOL
REMARK 927      BINDING AFFINITY PREDICTED BY RF-SCORE:    0.00 PKD
ROOT
HETATM    1  C   UNL     1     -12.081  11.122  69.581  1.00  0.00    -0.406 C  
HETATM    2  C   UNL     1     -10.912  10.351  70.178  1.00  0.00    -0.365 C  
HETATM    3  C   UNL     1      -9.589  10.692  69.484  1.00  0.00    -0.060 C  
HETATM    4  C   UNL     1      -8.434   9.877  70.065  1.00  0.00    -0.165 C  
HETATM    5  N   UNL     1      -8.718   8.417  70.134  1.00  0.00    -0.133 N  
HETATM    6  C   UNL     1     -10.013   8.062  70.755  1.00  0.00    -0.188 C  
HETATM    7  C   UNL     1      -7.990   7.583  69.274  1.00  0.00    -0.121 C  
HETATM    8  O   UNL     1      -7.182   8.106  68.494  1.00  0.00    -0.084 OA 
HETATM    9  O   UNL     1      -9.010   8.674  72.863  1.00  0.00    -0.343 OA 
HETATM   10  C   UNL     1     -11.152   8.836  70.082  1.00  0.00    -0.214 C  
HETATM   11  C   UNL     1     -10.124   8.236  72.273  1.00  0.00    -0.300 C  
HETATM   12  O   UNL     1     -11.139   8.005  72.910  1.00  0.00    -0.392 OA 
ENDROOT
BRANCH   7  13
HETATM   13  C   UNL     1      -8.034   6.014  69.308  1.00  0.00    -0.103 C  
BRANCH  13  14
HETATM   14  C   UNL     1      -7.175   5.248  70.349  1.00  0.00    -0.062 C  
BRANCH  14  15
HETATM   15  C   UNL     1      -8.017   4.652  71.496  1.00  0.00    -0.100 C  
BRANCH  15  16
HETATM   16  C   UNL     1      -9.520   4.568  71.189  1.00  0.00    -0.160 C  
BRANCH  16  17
HETATM   17  N   UNL     1     -10.120   3.605  72.093  1.00  0.00    -0.165 NA 
HETATM   18  H2  UNL     1     -11.229   1.849  73.390  1.00  0.00     0.000 HD 
HETATM   19  H1  UNL     1     -11.888   3.018  74.598  1.00  0.00     0.000 HD 
HETATM   20  N   UNL     1     -11.030   5.042  73.747  1.00  0.00    -0.332 NA 
HETATM   21  N   UNL     1     -11.352   2.792  73.759  1.00  0.00    -0.189 NA 
HETATM   22  C   UNL     1     -10.829   3.903  73.203  1.00  0.00    -0.174 C  
HETATM   23  H   UNL     1      -9.995   2.616  71.871  1.00  0.00     0.000 HD 
HETATM   24  H1  UNL     1     -11.566   5.268  74.586  1.00  0.00     0.000 HD 
HETATM   25  H2  UNL     1     -10.595   5.836  73.278  1.00  0.00     0.000 HD 
ENDBRANCH  16  17
ENDBRANCH  15  16
ENDBRANCH  14  15
ENDBRANCH  13  14
BRANCH  13  26
HETATM   26  N   UNL     1      -7.810   5.392  67.973  1.00  0.00    -0.091 N  
HETATM   27  H   UNL     1      -6.915   4.958  67.745  1.00  0.00     0.000 HD 
BRANCH  26  28
HETATM   28  S   UNL     1      -9.078   5.421  66.831  1.00  0.00    -0.116 S  
HETATM   29  O   UNL     1     -10.235   6.003  67.460  1.00  0.00    -0.145 OA 
HETATM   30  O   UNL     1      -9.135   4.076  66.297  1.00  0.00    -0.124 OA 
BRANCH  28  31
HETATM   31  C   UNL     1      -8.444   6.509  65.581  1.00  0.00    -0.144 A  
HETATM   32  C   UNL     1      -8.795  10.051  64.189  1.00  0.00    -0.244 C  
HETATM   33  C   UNL     1      -7.506   5.973  64.685  1.00  0.00    -0.080 A  
HETATM   34  C   UNL     1     -10.463  11.834  64.812  1.00  0.00    -0.341 C  
HETATM   35  C   UNL     1      -6.974   6.763  63.671  1.00  0.00    -0.056 A  
HETATM   36  C   UNL     1     -10.135  10.345  64.872  1.00  0.00    -0.382 C  
HETATM   37  C   UNL     1     -10.055   9.837  66.305  1.00  0.00    -0.243 C  
HETATM   38  H   UNL     1     -10.395   7.792  66.946  1.00  0.00     0.000 HD 
HETATM   39  N   UNL     1      -9.846   8.392  66.329  1.00  0.00    -0.227 NA 
HETATM   40  C   UNL     1      -7.376   8.089  63.551  1.00  0.00    -0.110 A  
HETATM   41  C   UNL     1      -8.869   7.851  65.480  1.00  0.00    -0.031 A  
HETATM   42  C   UNL     1      -8.325   8.635  64.435  1.00  0.00    -0.148 A  
ENDBRANCH  28  31
ENDBRANCH  26  28
ENDBRANCH  13  26
ENDBRANCH   7  13
TORSDOF 8
ENDMDL
MODEL      277
REMARK 921   NORMALIZED FREE ENERGY PREDICTED BY IDOCK:   -4.64 KCAL/MOL
REMARK 922        TOTAL FREE ENERGY PREDICTED BY IDOCK:   -8.05 KCAL/MOL
REMARK 923 INTER-LIGAND FREE ENERGY PREDICTED BY IDOCK:   -8.27 KCAL/MOL
REMARK 924 INTRA-LIGAND FREE ENERGY PREDICTED BY IDOCK:    0.22 KCAL/MOL
REMARK 927      BINDING AFFINITY PREDICTED BY RF-SCORE:    0.00 PKD
ROOT
HETATM    1  C   UNL     1     -14.084  13.630  72.190  1.00  0.00    -0.553 C  
HETATM    2  C   UNL     1     -12.832  13.853  71.353  1.00  0.00    -0.439 C  
HETATM    3  C   UNL     1     -11.863  14.831  72.025  1.00  0.00    -0.327 C  
HETATM    4  C   UNL     1     -10.633  15.079  71.152  1.00  0.00     0.390 C  
HETATM    5  N   UNL     1     -10.970  15.436  69.746  1.00  0.00    -0.265 N  
HETATM    6  C   UNL     1     -11.942  14.535  69.090  1.00  0.00    -0.309 C  
HETATM    7  C   UNL     1     -10.694  16.747  69.337  1.00  0.00    -0.300 C  
HETATM    8  O   UNL     1     -10.219  17.534  70.167  1.00  0.00     0.442 OA 
HETATM    9  O   UNL     1     -10.158  12.914  68.986  1.00  0.00    -0.005 OA 
HETATM   10  C   UNL     1     -13.196  14.387  69.959  1.00  0.00     0.459 C  
HETATM   11  C   UNL     1     -11.441  13.141  68.699  1.00  0.00    -0.305 C  
HETATM   12  O   UNL     1     -12.142  12.290  68.175  1.00  0.00    -0.407 OA 
ENDROOT
BRANCH   7  13
HETATM   13  C   UNL     1     -10.831  17.267  67.861  1.00  0.00    -0.283 C  
BRANCH  13  14
HETATM   14  C   UNL     1      -9.981  16.613  66.739  1.00  0.00    -0.284 C  
BRANCH  14  15
HETATM   15  C   UNL     1     -10.830  15.788  65.750  1.00  0.00    -0.286 C  
BRANCH  15  16
HETATM   16  C   UNL     1     -10.202  14.441  65.362  1.00  0.00    -0.382 C  
BRANCH  16  17
HETATM   17  N   UNL     1     -11.254  13.444  65.299  1.00  0.00    -0.287 NA 
HETATM   18  H2  UNL     1     -12.827  11.570  65.212  1.00  0.00     0.000 HD 
HETATM   19  H1  UNL     1     -13.796  12.314  63.884  1.00  0.00     0.000 HD 
HETATM   20  N   UNL     1     -12.611  14.327  63.564  1.00  0.00    -1.015 NA 
HETATM   21  N   UNL     1     -13.020  12.318  64.546  1.00  0.00    -0.749 NA 
HETATM   22  C   UNL     1     -12.282  13.439  64.424  1.00  0.00    -0.389 C  
HETATM   23  H   UNL     1     -11.214  12.681  65.975  1.00  0.00     0.000 HD 
HETATM   24  H1  UNL     1     -13.388  14.323  62.902  1.00  0.00     0.000 HD 
HETATM   25  H2  UNL     1     -12.014  15.153  63.535  1.00  0.00     0.000 HD 
ENDBRANCH  16  17
ENDBRANCH  15  16
ENDBRANCH  14  15
ENDBRANCH  13  14
BRANCH  13  26
HETATM   26  N   UNL     1     -10.696  18.746  67.745  1.00  0.00    -0.386 N  
HETATM   27  H   UNL     1     -11.110  19.362  68.445  1.00  0.00     0.000 HD 
BRANCH  26  28
HETATM   28  S   UNL     1      -9.834  19.390  66.420  1.00  0.00    -0.424 S  
HETATM   29  O   UNL     1      -9.900  20.826  66.497  1.00  0.00    -0.204 OA 
HETATM   30  O   UNL     1     -10.353  18.696  65.259  1.00  0.00    -0.328 OA 
BRANCH  28  31
HETATM   31  C   UNL     1      -8.179  18.831  66.731  1.00  0.00    -0.278 A  
HETATM   32  C   UNL     1      -5.408  18.890  69.363  1.00  0.00    -0.202 C  
HETATM   33  C   UNL     1      -7.527  18.157  65.687  1.00  0.00     0.007 A  
HETATM   34  C   UNL     1      -5.337  20.137  71.551  1.00  0.00    -0.397 C  
HETATM   35  C   UNL     1      -6.223  17.701  65.853  1.00  0.00    -0.203 A  
HETATM   36  C   UNL     1      -6.015  20.029  70.188  1.00  0.00    -0.373 C  
HETATM   37  C   UNL     1      -7.511  19.774  70.317  1.00  0.00     0.638 C  
HETATM   38  H   UNL     1      -9.017  20.297  68.844  1.00  0.00     0.000 HD 
HETATM   39  N   UNL     1      -8.150  19.782  69.004  1.00  0.00    -0.194 NA 
HETATM   40  C   UNL     1      -5.570  17.915  67.061  1.00  0.00    -0.162 A  
HETATM   41  C   UNL     1      -7.537  19.062  67.966  1.00  0.00    -0.270 A  
HETATM   42  C   UNL     1      -6.208  18.600  68.112  1.00  0.00    -0.206 A  
ENDBRANCH  28  31
ENDBRANCH  26  28
ENDBRANCH  13  26
ENDBRANCH   7  13
TORSDOF 8
ENDMDL
MODEL      278
REMARK 921   NORMALIZED FREE ENERGY PREDICTED BY IDOCK:   -4.62 KCAL/MOL
REMARK 922        TOTAL FREE ENERGY PREDICTED BY IDOCK:   -8.03 KCAL/MOL
REMARK 923 INTER-LIGAND FREE ENERGY PREDICTED BY IDOCK:   -6.71 KCAL/MOL
REMARK 924 INTRA-LIGAND FREE ENERGY PREDICTED BY IDOCK:   -1.32 KCAL/MOL
REMARK 927      BINDING AFFINITY PREDICTED BY RF-SCORE:    0.00 PKD
ROOT
HETATM    1  C   UNL     1      -5.569  13.214  67.747  1.00  0.00    -0.119 C  
HETATM    2  C   UNL     1      -6.001  11.790  68.068  1.00  0.00    -0.049 C  
HETATM    3  C   UNL     1      -6.542  11.066  66.830  1.00  0.00    -0.124 C  
HETATM    4  C   UNL     1      -7.013   9.654  67.177  1.00  0.00    -0.085 C  
HETATM    5  N   UNL     1      -7.931   9.610  68.349  1.00  0.00    -0.095 N  
HETATM    6  C   UNL     1      -7.455  10.343  69.542  1.00  0.00    -0.148 C  
HETATM    7  C   UNL     1      -9.267   9.271  68.101  1.00  0.00    -0.130 C  
HETATM    8  O   UNL     1      -9.612   9.060  66.930  1.00  0.00    -0.160 OA 
HETATM    9  O   UNL     1      -5.865   8.551  69.837  1.00  0.00    -0.025 OA 
HETATM   10  C   UNL     1      -7.077  11.780  69.163  1.00  0.00    -0.071 C  
HETATM   11  C   UNL     1      -6.296   9.717  70.325  1.00  0.00    -0.076 C  
HETATM   12  O   UNL     1      -5.790  10.226  71.312  1.00  0.00    -0.248 OA 
ENDROOT
BRANCH   7  13
HETATM   13  C   UNL     1     -10.345   9.021  69.216  1.00  0.00    -0.219 C  
BRANCH  13  14
HETATM   14  C   UNL     1     -10.622  10.125  70.271  1.00  0.00    -0.324 C  
BRANCH  14  15
HETATM   15  C   UNL     1     -11.901  10.933  69.969  1.00  0.00    -0.428 C  
BRANCH  15  16
HETATM   16  C   UNL     1     -11.639  12.284  69.286  1.00  0.00    -0.324 C  
BRANCH  16  17
HETATM   17  N   UNL     1     -11.369  13.273  70.314  1.00  0.00    -0.450 NA 
HETATM   18  H2  UNL     1     -10.982  14.741  72.233  1.00  0.00     0.000 HD 
HETATM   19  H1  UNL     1     -11.822  16.140  71.459  1.00  0.00     0.000 HD 
HETATM   20  N   UNL     1     -12.438  15.182  69.396  1.00  0.00    -0.591 NA 
HETATM   21  N   UNL     1     -11.490  15.175  71.461  1.00  0.00    -0.371 NA 
HETATM   22  C   UNL     1     -11.809  14.549  70.311  1.00  0.00    -0.308 C  
HETATM   23  H   UNL     1     -10.799  12.977  71.106  1.00  0.00     0.000 HD 
HETATM   24  H1  UNL     1     -12.770  16.147  69.394  1.00  0.00     0.000 HD 
HETATM   25  H2  UNL     1     -12.636  14.648  68.550  1.00  0.00     0.000 HD 
ENDBRANCH  16  17
ENDBRANCH  15  16
ENDBRANCH  14  15
ENDBRANCH  13  14
BRANCH  13  26
HETATM   26  N   UNL     1     -10.157   7.729  69.933  1.00  0.00    -0.199 N  
HETATM   27  H   UNL     1      -9.456   7.640  70.668  1.00  0.00     0.000 HD 
BRANCH  26  28
HETATM   28  S   UNL     1     -11.139   6.401  69.500  1.00  0.00    -0.408 S  
HETATM   29  O   UNL     1     -11.462   6.519  68.102  1.00  0.00    -0.146 OA 
HETATM   30  O   UNL     1     -12.192   6.370  70.494  1.00  0.00    -0.235 OA 
BRANCH  28  31
HETATM   31  C   UNL     1     -10.056   5.021  69.768  1.00  0.00    -0.267 A  
HETATM   32  C   UNL     1      -7.685   3.488  72.344  1.00  0.00    -0.063 C  
HETATM   33  C   UNL     1      -9.885   4.127  68.699  1.00  0.00    -0.082 A  
HETATM   34  C   UNL     1      -6.929   4.436  74.553  1.00  0.00    -0.067 C  
HETATM   35  C   UNL     1      -9.041   3.029  68.831  1.00  0.00    -0.210 A  
HETATM   36  C   UNL     1      -7.565   4.751  73.203  1.00  0.00    -0.092 C  
HETATM   37  C   UNL     1      -8.957   5.351  73.356  1.00  0.00    -0.129 C  
HETATM   38  H   UNL     1      -9.942   6.650  71.924  1.00  0.00     0.000 HD 
HETATM   39  N   UNL     1      -9.496   5.742  72.057  1.00  0.00    -0.150 NA 
HETATM   40  C   UNL     1      -8.368   2.821  70.029  1.00  0.00    -0.077 A  
HETATM   41  C   UNL     1      -9.384   4.831  70.994  1.00  0.00    -0.148 A  
HETATM   42  C   UNL     1      -8.522   3.715  71.104  1.00  0.00    -0.095 A  
ENDBRANCH  28  31
ENDBRANCH  26  28
ENDBRANCH  13  26
ENDBRANCH   7  13
TORSDOF 8
ENDMDL
MODEL      279
REMARK 921   NORMALIZED FREE ENERGY PREDICTED BY IDOCK:   -4.61 KCAL/MOL
REMARK 922        TOTAL FREE ENERGY PREDICTED BY IDOCK:   -8.02 KCAL/MOL
REMARK 923 INTER-LIGAND FREE ENERGY PREDICTED BY IDOCK:   -6.96 KCAL/MOL
REMARK 924 INTRA-LIGAND FREE ENERGY PREDICTED BY IDOCK:   -1.06 KCAL/MOL
REMARK 927      BINDING AFFINITY PREDICTED BY RF-SCORE:    0.00 PKD
ROOT
HETATM    1  C   UNL     1      -6.833   3.930  65.238  1.00  0.00    -0.053 C  
HETATM    2  C   UNL     1      -7.648   4.197  66.495  1.00  0.00    -0.089 C  
HETATM    3  C   UNL     1      -9.153   4.053  66.240  1.00  0.00    -0.139 C  
HETATM    4  C   UNL     1      -9.960   4.368  67.499  1.00  0.00    -0.071 C  
HETATM    5  N   UNL     1      -9.579   5.658  68.137  1.00  0.00    -0.111 N  
HETATM    6  C   UNL     1      -8.127   5.844  68.350  1.00  0.00    -0.109 C  
HETATM    7  C   UNL     1     -10.517   6.698  68.087  1.00  0.00    -0.214 C  
HETATM    8  O   UNL     1     -11.586   6.495  67.495  1.00  0.00     0.025 OA 
HETATM    9  O   UNL     1      -8.321   4.222  70.126  1.00  0.00    -0.064 OA 
HETATM   10  C   UNL     1      -7.366   5.605  67.041  1.00  0.00    -0.080 C  
HETATM   11  C   UNL     1      -7.477   5.012  69.460  1.00  0.00    -0.057 C  
HETATM   12  O   UNL     1      -6.286   5.047  69.726  1.00  0.00    -0.024 OA 
ENDROOT
BRANCH   7  13
HETATM   13  C   UNL     1     -10.365   8.072  68.832  1.00  0.00    -0.209 C  
BRANCH  13  14
HETATM   14  C   UNL     1     -10.950   8.235  70.260  1.00  0.00    -0.233 C  
BRANCH  14  15
HETATM   15  C   UNL     1     -10.570   7.071  71.199  1.00  0.00    -0.237 C  
BRANCH  15  16
HETATM   16  C   UNL     1     -11.661   6.708  72.217  1.00  0.00    -0.269 C  
BRANCH  16  17
HETATM   17  N   UNL     1     -12.436   7.901  72.505  1.00  0.00    -0.566 NA 
HETATM   18  H2  UNL     1     -13.685   9.866  73.262  1.00  0.00     0.000 HD 
HETATM   19  H1  UNL     1     -15.064   9.544  72.143  1.00  0.00     0.000 HD 
HETATM   20  N   UNL     1     -14.300   7.589  71.072  1.00  0.00    -0.605 NA 
HETATM   21  N   UNL     1     -14.151   9.318  72.539  1.00  0.00    -0.445 NA 
HETATM   22  C   UNL     1     -13.643   8.201  71.981  1.00  0.00    -0.289 C  
HETATM   23  H   UNL     1     -12.032   8.572  73.160  1.00  0.00     0.000 HD 
HETATM   24  H1  UNL     1     -15.213   7.815  70.676  1.00  0.00     0.000 HD 
HETATM   25  H2  UNL     1     -13.850   6.758  70.689  1.00  0.00     0.000 HD 
ENDBRANCH  16  17
ENDBRANCH  15  16
ENDBRANCH  14  15
ENDBRANCH  13  14
BRANCH  13  26
HETATM   26  N   UNL     1     -10.806   9.235  68.013  1.00  0.00    -0.467 N  
HETATM   27  H   UNL     1     -11.782   9.331  67.731  1.00  0.00     0.000 HD 
BRANCH  26  28
HETATM   28  S   UNL     1      -9.649  10.404  67.557  1.00  0.00    -0.158 S  
HETATM   29  O   UNL     1      -9.718  10.568  66.128  1.00  0.00    -0.191 OA 
HETATM   30  O   UNL     1      -8.415   9.978  68.185  1.00  0.00    -0.113 OA 
BRANCH  28  31
HETATM   31  C   UNL     1     -10.236  11.864  68.375  1.00  0.00    -0.204 A  
HETATM   32  C   UNL     1      -9.234  15.441  69.274  1.00  0.00    -0.259 C  
HETATM   33  C   UNL     1     -11.489  11.783  69.003  1.00  0.00    -0.358 A  
HETATM   34  C   UNL     1      -7.014  16.588  68.946  1.00  0.00    -0.191 C  
HETATM   35  C   UNL     1     -12.009  12.885  69.675  1.00  0.00    -0.358 A  
HETATM   36  C   UNL     1      -7.739  15.246  69.006  1.00  0.00    -0.183 C  
HETATM   37  C   UNL     1      -7.590  14.462  67.709  1.00  0.00    -0.164 C  
HETATM   38  H   UNL     1      -7.711  12.304  67.511  1.00  0.00     0.000 HD 
HETATM   39  N   UNL     1      -8.200  13.141  67.833  1.00  0.00    -0.149 NA 
HETATM   40  C   UNL     1     -11.281  14.068  69.719  1.00  0.00    -0.175 A  
HETATM   41  C   UNL     1      -9.478  13.053  68.406  1.00  0.00    -0.165 A  
HETATM   42  C   UNL     1     -10.019  14.159  69.103  1.00  0.00     0.015 A  
ENDBRANCH  28  31
ENDBRANCH  26  28
ENDBRANCH  13  26
ENDBRANCH   7  13
TORSDOF 8
ENDMDL
MODEL      280
REMARK 921   NORMALIZED FREE ENERGY PREDICTED BY IDOCK:   -4.61 KCAL/MOL
REMARK 922        TOTAL FREE ENERGY PREDICTED BY IDOCK:   -8.01 KCAL/MOL
REMARK 923 INTER-LIGAND FREE ENERGY PREDICTED BY IDOCK:   -6.70 KCAL/MOL
REMARK 924 INTRA-LIGAND FREE ENERGY PREDICTED BY IDOCK:   -1.31 KCAL/MOL
REMARK 927      BINDING AFFINITY PREDICTED BY RF-SCORE:    0.00 PKD
ROOT
HETATM    1  C   UNL     1      -6.880  18.199  67.332  1.00  0.00    -0.206 C  
HETATM    2  C   UNL     1      -8.042  17.220  67.430  1.00  0.00    -0.205 C  
HETATM    3  C   UNL     1      -8.016  16.434  68.745  1.00  0.00    -0.233 C  
HETATM    4  C   UNL     1      -9.161  15.424  68.810  1.00  0.00    -0.206 C  
HETATM    5  N   UNL     1      -9.259  14.565  67.597  1.00  0.00    -0.190 N  
HETATM    6  C   UNL     1      -9.236  15.296  66.311  1.00  0.00    -0.315 C  
HETATM    7  C   UNL     1      -8.946  13.208  67.749  1.00  0.00    -0.194 C  
HETATM    8  O   UNL     1      -8.581  12.811  68.865  1.00  0.00     0.111 OA 
HETATM    9  O   UNL     1     -11.480  16.010  66.838  1.00  0.00     0.084 OA 
HETATM   10  C   UNL     1      -8.022  16.230  66.255  1.00  0.00    -0.208 C  
HETATM   11  C   UNL     1     -10.492  16.092  65.944  1.00  0.00    -0.352 C  
HETATM   12  O   UNL     1     -10.601  16.760  64.928  1.00  0.00    -0.702 OA 
ENDROOT
BRANCH   7  13
HETATM   13  C   UNL     1      -9.137  12.119  66.634  1.00  0.00    -0.206 C  
BRANCH  13  14
HETATM   14  C   UNL     1     -10.563  11.812  66.104  1.00  0.00    -0.301 C  
BRANCH  14  15
HETATM   15  C   UNL     1     -11.669  12.497  66.932  1.00  0.00    -0.447 C  
BRANCH  15  16
HETATM   16  C   UNL     1     -11.899  11.864  68.312  1.00  0.00    -0.277 C  
BRANCH  16  17
HETATM   17  N   UNL     1     -11.559  10.455  68.233  1.00  0.00    -0.682 NA 
HETATM   18  H2  UNL     1     -11.260   8.031  68.069  1.00  0.00     0.000 HD 
HETATM   19  H1  UNL     1     -10.074   7.984  69.430  1.00  0.00     0.000 HD 
HETATM   20  N   UNL     1      -9.984  10.270  69.998  1.00  0.00    -0.420 NA 
HETATM   21  N   UNL     1     -10.708   8.479  68.801  1.00  0.00    -0.119 NA 
HETATM   22  C   UNL     1     -10.720   9.800  69.065  1.00  0.00    -0.217 C  
HETATM   23  H   UNL     1     -11.991   9.913  67.484  1.00  0.00     0.000 HD 
HETATM   24  H1  UNL     1      -9.350   9.775  70.627  1.00  0.00     0.000 HD 
HETATM   25  H2  UNL     1     -10.037  11.279  70.134  1.00  0.00     0.000 HD 
ENDBRANCH  16  17
ENDBRANCH  15  16
ENDBRANCH  14  15
ENDBRANCH  13  14
BRANCH  13  26
HETATM   26  N   UNL     1      -8.473  10.826  66.956  1.00  0.00    -0.126 N  
HETATM   27  H   UNL     1      -8.890  10.180  67.627  1.00  0.00     0.000 HD 
BRANCH  26  28
HETATM   28  S   UNL     1      -7.000  10.444  66.182  1.00  0.00    -0.132 S  
HETATM   29  O   UNL     1      -6.054  11.489  66.479  1.00  0.00    -0.145 OA 
HETATM   30  O   UNL     1      -7.360  10.151  64.810  1.00  0.00    -0.141 OA 
BRANCH  28  31
HETATM   31  C   UNL     1      -6.524   8.936  66.986  1.00  0.00    -0.061 A  
HETATM   32  C   UNL     1      -7.264   5.187  67.074  1.00  0.00    -0.081 C  
HETATM   33  C   UNL     1      -5.578   9.035  68.019  1.00  0.00    -0.038 A  
HETATM   34  C   UNL     1      -9.065   3.906  65.864  1.00  0.00    -0.146 C  
HETATM   35  C   UNL     1      -5.166   7.896  68.703  1.00  0.00    -0.027 A  
HETATM   36  C   UNL     1      -8.596   5.284  66.323  1.00  0.00    -0.116 C  
HETATM   37  C   UNL     1      -8.408   6.239  65.152  1.00  0.00    -0.119 C  
HETATM   38  H   UNL     1      -8.528   8.403  65.250  1.00  0.00     0.000 HD 
HETATM   39  N   UNL     1      -8.064   7.576  65.627  1.00  0.00    -0.121 NA 
HETATM   40  C   UNL     1      -5.695   6.658  68.358  1.00  0.00    -0.017 A  
HETATM   41  C   UNL     1      -7.076   7.692  66.618  1.00  0.00    -0.079 A  
HETATM   42  C   UNL     1      -6.653   6.547  67.333  1.00  0.00    -0.061 A  
ENDBRANCH  28  31
ENDBRANCH  26  28
ENDBRANCH  13  26
ENDBRANCH   7  13
TORSDOF 8
ENDMDL
MODEL      281
REMARK 921   NORMALIZED FREE ENERGY PREDICTED BY IDOCK:   -4.60 KCAL/MOL
REMARK 922        TOTAL FREE ENERGY PREDICTED BY IDOCK:   -8.00 KCAL/MOL
REMARK 923 INTER-LIGAND FREE ENERGY PREDICTED BY IDOCK:   -5.60 KCAL/MOL
REMARK 924 INTRA-LIGAND FREE ENERGY PREDICTED BY IDOCK:   -2.40 KCAL/MOL
REMARK 927      BINDING AFFINITY PREDICTED BY RF-SCORE:    0.00 PKD
ROOT
HETATM    1  C   UNL     1      -8.888  10.604  65.222  1.00  0.00    -0.204 C  
HETATM    2  C   UNL     1      -8.689   9.150  65.625  1.00  0.00    -0.203 C  
HETATM    3  C   UNL     1      -9.985   8.520  66.145  1.00  0.00    -0.160 C  
HETATM    4  C   UNL     1      -9.759   7.074  66.588  1.00  0.00    -0.166 C  
HETATM    5  N   UNL     1      -8.599   6.914  67.509  1.00  0.00    -0.121 N  
HETATM    6  C   UNL     1      -7.347   7.556  67.053  1.00  0.00    -0.094 C  
HETATM    7  C   UNL     1      -8.882   6.570  68.837  1.00  0.00    -0.126 C  
HETATM    8  O   UNL     1     -10.069   6.449  69.173  1.00  0.00    -0.153 OA 
HETATM    9  O   UNL     1      -7.192   5.780  65.428  1.00  0.00    -0.067 OA 
HETATM   10  C   UNL     1      -7.604   9.027  66.705  1.00  0.00    -0.090 C  
HETATM   11  C   UNL     1      -6.612   6.891  65.885  1.00  0.00    -0.051 C  
HETATM   12  O   UNL     1      -5.583   7.327  65.394  1.00  0.00    -0.031 OA 
ENDROOT
BRANCH   7  13
HETATM   13  C   UNL     1      -7.798   6.206  69.913  1.00  0.00    -0.109 C  
BRANCH  13  14
HETATM   14  C   UNL     1      -7.651   4.734  70.382  1.00  0.00    -0.054 C  
BRANCH  14  15
HETATM   15  C   UNL     1      -6.541   3.974  69.626  1.00  0.00    -0.033 C  
BRANCH  15  16
HETATM   16  C   UNL     1      -6.963   2.581  69.134  1.00  0.00    -0.040 C  
BRANCH  16  17
HETATM   17  N   UNL     1      -8.146   2.725  68.306  1.00  0.00    -0.060 NA 
HETATM   18  H2  UNL     1     -10.247   2.749  67.051  1.00  0.00     0.000 HD 
HETATM   19  H1  UNL     1      -9.416   3.003  65.469  1.00  0.00     0.000 HD 
HETATM   20  N   UNL     1      -7.167   3.070  66.173  1.00  0.00    -0.065 NA 
HETATM   21  N   UNL     1      -9.410   2.875  66.481  1.00  0.00    -0.100 NA 
HETATM   22  C   UNL     1      -8.154   2.895  66.967  1.00  0.00    -0.079 C  
HETATM   23  H   UNL     1      -9.051   2.695  68.778  1.00  0.00     0.000 HD 
HETATM   24  H1  UNL     1      -7.173   3.199  65.160  1.00  0.00     0.000 HD 
HETATM   25  H2  UNL     1      -6.247   3.084  66.612  1.00  0.00     0.000 HD 
ENDBRANCH  16  17
ENDBRANCH  15  16
ENDBRANCH  14  15
ENDBRANCH  13  14
BRANCH  13  26
HETATM   26  N   UNL     1      -7.856   7.074  71.121  1.00  0.00    -0.098 N  
HETATM   27  H   UNL     1      -8.242   6.722  71.997  1.00  0.00     0.000 HD 
BRANCH  26  28
HETATM   28  S   UNL     1      -7.262   8.672  71.013  1.00  0.00    -0.089 S  
HETATM   29  O   UNL     1      -6.213   8.694  70.028  1.00  0.00    -0.033 OA 
HETATM   30  O   UNL     1      -6.990   9.067  72.380  1.00  0.00    -0.320 OA 
BRANCH  28  31
HETATM   31  C   UNL     1      -8.677   9.567  70.426  1.00  0.00    -0.223 A  
HETATM   32  C   UNL     1     -12.484   9.740  70.715  1.00  0.00    -0.297 C  
HETATM   33  C   UNL     1      -8.447  10.563  69.465  1.00  0.00    -0.060 A  
HETATM   34  C   UNL     1     -14.047   8.176  71.924  1.00  0.00    -0.493 C  
HETATM   35  C   UNL     1      -9.510  11.298  68.949  1.00  0.00    -0.102 A  
HETATM   36  C   UNL     1     -12.646   8.354  71.347  1.00  0.00    -0.299 C  
HETATM   37  C   UNL     1     -11.569   8.192  72.411  1.00  0.00    -0.399 C  
HETATM   38  H   UNL     1      -9.518   7.578  72.056  1.00  0.00     0.000 HD 
HETATM   39  N   UNL     1     -10.238   8.259  71.813  1.00  0.00    -0.210 NA 
HETATM   40  C   UNL     1     -10.802  11.042  69.393  1.00  0.00    -0.278 A  
HETATM   41  C   UNL     1      -9.978   9.287  70.893  1.00  0.00    -0.297 A  
HETATM   42  C   UNL     1     -11.047  10.038  70.348  1.00  0.00    -0.393 A  
ENDBRANCH  28  31
ENDBRANCH  26  28
ENDBRANCH  13  26
ENDBRANCH   7  13
TORSDOF 8
ENDMDL
MODEL      282
REMARK 921   NORMALIZED FREE ENERGY PREDICTED BY IDOCK:   -4.59 KCAL/MOL
REMARK 922        TOTAL FREE ENERGY PREDICTED BY IDOCK:   -7.99 KCAL/MOL
REMARK 923 INTER-LIGAND FREE ENERGY PREDICTED BY IDOCK:   -6.56 KCAL/MOL
REMARK 924 INTRA-LIGAND FREE ENERGY PREDICTED BY IDOCK:   -1.44 KCAL/MOL
REMARK 927      BINDING AFFINITY PREDICTED BY RF-SCORE:    0.00 PKD
ROOT
HETATM    1  C   UNL     1      -6.569   4.218  63.489  1.00  0.00    -0.034 C  
HETATM    2  C   UNL     1      -6.729   5.504  64.288  1.00  0.00    -0.046 C  
HETATM    3  C   UNL     1      -6.074   5.402  65.669  1.00  0.00    -0.033 C  
HETATM    4  C   UNL     1      -6.281   6.683  66.477  1.00  0.00    -0.041 C  
HETATM    5  N   UNL     1      -7.700   7.133  66.515  1.00  0.00    -0.098 N  
HETATM    6  C   UNL     1      -8.372   7.193  65.198  1.00  0.00    -0.076 C  
HETATM    7  C   UNL     1      -8.364   7.048  67.746  1.00  0.00    -0.117 C  
HETATM    8  O   UNL     1      -7.748   6.580  68.714  1.00  0.00    -0.104 OA 
HETATM    9  O   UNL     1      -7.035   9.154  64.762  1.00  0.00    -0.083 OA 
HETATM   10  C   UNL     1      -8.213   5.857  64.463  1.00  0.00    -0.110 C  
HETATM   11  C   UNL     1      -7.955   8.329  64.258  1.00  0.00    -0.148 C  
HETATM   12  O   UNL     1      -8.409   8.482  63.135  1.00  0.00    -0.176 OA 
ENDROOT
BRANCH   7  13
HETATM   13  C   UNL     1      -9.802   7.614  68.023  1.00  0.00    -0.161 C  
BRANCH  13  14
HETATM   14  C   UNL     1     -11.001   6.634  68.128  1.00  0.00    -0.323 C  
BRANCH  14  15
HETATM   15  C   UNL     1     -11.228   6.119  69.564  1.00  0.00    -0.482 C  
BRANCH  15  16
HETATM   16  C   UNL     1     -10.427   4.854  69.908  1.00  0.00    -0.023 C  
BRANCH  16  17
HETATM   17  N   UNL     1     -10.056   4.195  68.669  1.00  0.00     0.113 NA 
HETATM   18  H2  UNL     1      -9.690   2.978  66.577  1.00  0.00     0.000 HD 
HETATM   19  H1  UNL     1      -8.054   2.405  67.079  1.00  0.00     0.000 HD 
HETATM   20  N   UNL     1      -7.891   3.392  69.213  1.00  0.00    -0.051 NA 
HETATM   21  N   UNL     1      -8.919   2.920  67.243  1.00  0.00    -0.147 NA 
HETATM   22  C   UNL     1      -8.911   3.514  68.452  1.00  0.00    -0.117 C  
HETATM   23  H   UNL     1     -10.718   4.252  67.894  1.00  0.00     0.000 HD 
HETATM   24  H1  UNL     1      -7.025   2.877  69.050  1.00  0.00     0.000 HD 
HETATM   25  H2  UNL     1      -7.950   3.877  70.108  1.00  0.00     0.000 HD 
ENDBRANCH  16  17
ENDBRANCH  15  16
ENDBRANCH  14  15
ENDBRANCH  13  14
BRANCH  13  26
HETATM   26  N   UNL     1     -10.185   8.720  67.103  1.00  0.00    -0.251 N  
HETATM   27  H   UNL     1     -10.394   8.531  66.122  1.00  0.00     0.000 HD 
BRANCH  26  28
HETATM   28  S   UNL     1     -10.267  10.310  67.719  1.00  0.00    -0.200 S  
HETATM   29  O   UNL     1      -9.065  10.562  68.470  1.00  0.00    -0.140 OA 
HETATM   30  O   UNL     1     -11.563  10.399  68.361  1.00  0.00    -0.277 OA 
BRANCH  28  31
HETATM   31  C   UNL     1     -10.289  11.293  66.243  1.00  0.00    -0.247 A  
HETATM   32  C   UNL     1     -10.295  14.912  65.014  1.00  0.00    -0.401 C  
HETATM   33  C   UNL     1     -10.393  10.608  65.022  1.00  0.00    -0.341 A  
HETATM   34  C   UNL     1     -10.471  17.035  66.360  1.00  0.00    -0.252 C  
HETATM   35  C   UNL     1     -10.429  11.313  63.823  1.00  0.00    -0.459 A  
HETATM   36  C   UNL     1     -10.684  15.524  66.364  1.00  0.00    -0.303 C  
HETATM   37  C   UNL     1      -9.863  14.837  67.447  1.00  0.00    -0.222 C  
HETATM   38  H   UNL     1     -10.340  12.940  68.387  1.00  0.00     0.000 HD 
HETATM   39  N   UNL     1     -10.168  13.410  67.498  1.00  0.00    -0.225 NA 
HETATM   40  C   UNL     1     -10.359  12.701  63.840  1.00  0.00    -0.405 A  
HETATM   41  C   UNL     1     -10.217  12.701  66.287  1.00  0.00    -0.251 A  
HETATM   42  C   UNL     1     -10.266  13.400  65.058  1.00  0.00    -0.325 A  
ENDBRANCH  28  31
ENDBRANCH  26  28
ENDBRANCH  13  26
ENDBRANCH   7  13
TORSDOF 8
ENDMDL
MODEL      283
REMARK 921   NORMALIZED FREE ENERGY PREDICTED BY IDOCK:   -4.58 KCAL/MOL
REMARK 922        TOTAL FREE ENERGY PREDICTED BY IDOCK:   -7.98 KCAL/MOL
REMARK 923 INTER-LIGAND FREE ENERGY PREDICTED BY IDOCK:   -6.93 KCAL/MOL
REMARK 924 INTRA-LIGAND FREE ENERGY PREDICTED BY IDOCK:   -1.05 KCAL/MOL
REMARK 927      BINDING AFFINITY PREDICTED BY RF-SCORE:    0.00 PKD
ROOT
HETATM    1  C   UNL     1     -12.174  12.657  63.543  1.00  0.00    -0.638 C  
HETATM    2  C   UNL     1     -10.936  12.212  64.310  1.00  0.00    -0.391 C  
HETATM    3  C   UNL     1     -10.114  11.188  63.521  1.00  0.00    -0.437 C  
HETATM    4  C   UNL     1      -8.900  10.717  64.322  1.00  0.00    -0.164 C  
HETATM    5  N   UNL     1      -9.239  10.280  65.704  1.00  0.00    -0.172 N  
HETATM    6  C   UNL     1     -10.075  11.229  66.471  1.00  0.00    -0.217 C  
HETATM    7  C   UNL     1      -9.116   8.914  65.990  1.00  0.00    -0.214 C  
HETATM    8  O   UNL     1      -8.764   8.152  65.078  1.00  0.00    -0.099 OA 
HETATM    9  O   UNL     1      -8.103  12.609  66.644  1.00  0.00     0.004 OA 
HETATM   10  C   UNL     1     -11.325  11.604  65.666  1.00  0.00    -0.233 C  
HETATM   11  C   UNL     1      -9.396  12.513  66.959  1.00  0.00    -0.210 C  
HETATM   12  O   UNL     1      -9.972  13.392  67.580  1.00  0.00    -0.221 OA 
ENDROOT
BRANCH   7  13
HETATM   13  C   UNL     1      -9.276   8.285  67.421  1.00  0.00    -0.141 C  
BRANCH  13  14
HETATM   14  C   UNL     1     -10.697   8.037  67.991  1.00  0.00    -0.112 C  
BRANCH  14  15
HETATM   15  C   UNL     1     -10.717   7.948  69.531  1.00  0.00    -0.195 C  
BRANCH  15  16
HETATM   16  C   UNL     1     -11.375   9.154  70.218  1.00  0.00    -0.188 C  
BRANCH  16  17
HETATM   17  N   UNL     1     -12.550   8.690  70.932  1.00  0.00    -0.493 NA 
HETATM   18  H2  UNL     1     -14.612   7.790  71.896  1.00  0.00     0.000 HD 
HETATM   19  H1  UNL     1     -14.981   9.317  72.786  1.00  0.00     0.000 HD 
HETATM   20  N   UNL     1     -13.133  10.637  72.156  1.00  0.00    -0.546 NA 
HETATM   21  N   UNL     1     -14.400   8.751  72.167  1.00  0.00    -0.429 NA 
HETATM   22  C   UNL     1     -13.318   9.438  71.753  1.00  0.00    -0.415 C  
HETATM   23  H   UNL     1     -12.818   7.714  70.804  1.00  0.00     0.000 HD 
HETATM   24  H1  UNL     1     -13.714  11.203  72.776  1.00  0.00     0.000 HD 
HETATM   25  H2  UNL     1     -12.288  11.092  71.811  1.00  0.00     0.000 HD 
ENDBRANCH  16  17
ENDBRANCH  15  16
ENDBRANCH  14  15
ENDBRANCH  13  14
BRANCH  13  26
HETATM   26  N   UNL     1      -8.473   8.985  68.462  1.00  0.00    -0.127 N  
HETATM   27  H   UNL     1      -8.832   9.822  68.920  1.00  0.00     0.000 HD 
BRANCH  26  28
HETATM   28  S   UNL     1      -6.939   8.359  68.873  1.00  0.00    -0.063 S  
HETATM   29  O   UNL     1      -6.087   9.462  69.236  1.00  0.00    -0.037 OA 
HETATM   30  O   UNL     1      -6.579   7.488  67.773  1.00  0.00    -0.057 OA 
BRANCH  28  31
HETATM   31  C   UNL     1      -7.300   7.366  70.298  1.00  0.00    -0.078 A  
HETATM   32  C   UNL     1      -8.539   3.903  71.340  1.00  0.00    -0.116 C  
HETATM   33  C   UNL     1      -7.173   7.981  71.554  1.00  0.00    -0.071 A  
HETATM   34  C   UNL     1      -9.417   2.039  69.889  1.00  0.00    -0.124 C  
HETATM   35  C   UNL     1      -7.451   7.268  72.715  1.00  0.00    -0.082 A  
HETATM   36  C   UNL     1      -9.105   3.531  69.966  1.00  0.00    -0.197 C  
HETATM   37  C   UNL     1      -8.094   3.955  68.909  1.00  0.00    -0.069 C  
HETATM   38  H   UNL     1      -7.895   5.948  68.073  1.00  0.00     0.000 HD 
HETATM   39  N   UNL     1      -7.897   5.402  68.935  1.00  0.00    -0.083 NA 
HETATM   40  C   UNL     1      -7.856   5.941  72.626  1.00  0.00    -0.101 A  
HETATM   41  C   UNL     1      -7.709   6.021  70.181  1.00  0.00    -0.096 A  
HETATM   42  C   UNL     1      -7.999   5.316  71.373  1.00  0.00    -0.114 A  
ENDBRANCH  28  31
ENDBRANCH  26  28
ENDBRANCH  13  26
ENDBRANCH   7  13
TORSDOF 8
ENDMDL
MODEL      284
REMARK 921   NORMALIZED FREE ENERGY PREDICTED BY IDOCK:   -4.58 KCAL/MOL
REMARK 922        TOTAL FREE ENERGY PREDICTED BY IDOCK:   -7.96 KCAL/MOL
REMARK 923 INTER-LIGAND FREE ENERGY PREDICTED BY IDOCK:   -6.72 KCAL/MOL
REMARK 924 INTRA-LIGAND FREE ENERGY PREDICTED BY IDOCK:   -1.24 KCAL/MOL
REMARK 927      BINDING AFFINITY PREDICTED BY RF-SCORE:    0.00 PKD
ROOT
HETATM    1  C   UNL     1      -8.684   6.846  68.585  1.00  0.00    -0.122 C  
HETATM    2  C   UNL     1      -8.142   8.081  67.880  1.00  0.00    -0.129 C  
HETATM    3  C   UNL     1      -6.828   8.563  68.504  1.00  0.00    -0.064 C  
HETATM    4  C   UNL     1      -6.320   9.829  67.815  1.00  0.00    -0.053 C  
HETATM    5  N   UNL     1      -7.355  10.893  67.697  1.00  0.00    -0.092 N  
HETATM    6  C   UNL     1      -8.651  10.443  67.144  1.00  0.00    -0.130 C  
HETATM    7  C   UNL     1      -7.175  12.048  68.470  1.00  0.00    -0.101 C  
HETATM    8  O   UNL     1      -6.191  12.104  69.220  1.00  0.00    -0.080 OA 
HETATM    9  O   UNL     1      -7.538  10.321  65.007  1.00  0.00    -0.140 OA 
HETATM   10  C   UNL     1      -9.165   9.227  67.922  1.00  0.00    -0.140 C  
HETATM   11  C   UNL     1      -8.693  10.127  65.646  1.00  0.00    -0.158 C  
HETATM   12  O   UNL     1      -9.688   9.724  65.064  1.00  0.00    -0.298 OA 
ENDROOT
BRANCH   7  13
HETATM   13  C   UNL     1      -8.067  13.336  68.368  1.00  0.00    -0.134 C  
BRANCH  13  14
HETATM   14  C   UNL     1      -7.392  14.733  68.344  1.00  0.00    -0.116 C  
BRANCH  14  15
HETATM   15  C   UNL     1      -7.203  15.330  69.753  1.00  0.00    -0.146 C  
BRANCH  15  16
HETATM   16  C   UNL     1      -6.253  16.536  69.798  1.00  0.00    -0.205 C  
BRANCH  16  17
HETATM   17  N   UNL     1      -6.991  17.718  69.393  1.00  0.00    -0.152 NA 
HETATM   18  H2  UNL     1      -8.434  19.536  68.616  1.00  0.00     0.000 HD 
HETATM   19  H1  UNL     1      -7.056  20.459  67.903  1.00  0.00     0.000 HD 
HETATM   20  N   UNL     1      -5.261  19.026  68.430  1.00  0.00    -0.181 NA 
HETATM   21  N   UNL     1      -7.444  19.657  68.400  1.00  0.00    -0.317 NA 
HETATM   22  C   UNL     1      -6.478  18.780  68.735  1.00  0.00    -0.252 C  
HETATM   23  H   UNL     1      -7.984  17.750  69.627  1.00  0.00     0.000 HD 
HETATM   24  H1  UNL     1      -4.873  19.828  67.933  1.00  0.00     0.000 HD 
HETATM   25  H2  UNL     1      -4.584  18.323  68.725  1.00  0.00     0.000 HD 
ENDBRANCH  16  17
ENDBRANCH  15  16
ENDBRANCH  14  15
ENDBRANCH  13  14
BRANCH  13  26
HETATM   26  N   UNL     1      -9.167  13.369  69.372  1.00  0.00     0.241 N  
HETATM   27  H   UNL     1      -8.959  13.447  70.368  1.00  0.00     0.000 HD 
BRANCH  26  28
HETATM   28  S   UNL     1     -10.781  13.273  68.825  1.00  0.00    -0.190 S  
HETATM   29  O   UNL     1     -11.601  14.059  69.708  1.00  0.00    -0.272 OA 
HETATM   30  O   UNL     1     -11.038  11.857  68.654  1.00  0.00    -0.213 OA 
BRANCH  28  31
HETATM   31  C   UNL     1     -10.690  14.037  67.226  1.00  0.00    -0.278 A  
HETATM   32  C   UNL     1     -10.442  17.441  65.507  1.00  0.00    -0.112 C  
HETATM   33  C   UNL     1     -10.785  13.192  66.109  1.00  0.00    -0.289 A  
HETATM   34  C   UNL     1     -10.549  19.739  66.535  1.00  0.00    -0.580 C  
HETATM   35  C   UNL     1     -10.734  13.721  64.823  1.00  0.00    -0.429 A  
HETATM   36  C   UNL     1     -10.848  18.257  66.739  1.00  0.00    -0.107 C  
HETATM   37  C   UNL     1     -10.110  17.689  67.944  1.00  0.00    -0.345 C  
HETATM   38  H   UNL     1     -10.730  15.971  69.116  1.00  0.00     0.000 HD 
HETATM   39  N   UNL     1     -10.497  16.301  68.178  1.00  0.00    -0.277 NA 
HETATM   40  C   UNL     1     -10.586  15.092  64.651  1.00  0.00    -0.167 A  
HETATM   41  C   UNL     1     -10.539  15.431  67.077  1.00  0.00    -0.309 A  
HETATM   42  C   UNL     1     -10.501  15.951  65.762  1.00  0.00    -0.386 A  
ENDBRANCH  28  31
ENDBRANCH  26  28
ENDBRANCH  13  26
ENDBRANCH   7  13
TORSDOF 8
ENDMDL
MODEL      285
REMARK 921   NORMALIZED FREE ENERGY PREDICTED BY IDOCK:   -4.56 KCAL/MOL
REMARK 922        TOTAL FREE ENERGY PREDICTED BY IDOCK:   -7.95 KCAL/MOL
REMARK 923 INTER-LIGAND FREE ENERGY PREDICTED BY IDOCK:   -6.02 KCAL/MOL
REMARK 924 INTRA-LIGAND FREE ENERGY PREDICTED BY IDOCK:   -1.93 KCAL/MOL
REMARK 927      BINDING AFFINITY PREDICTED BY RF-SCORE:    0.00 PKD
ROOT
HETATM    1  C   UNL     1     -12.502  11.441  70.011  1.00  0.00    -0.224 C  
HETATM    2  C   UNL     1     -11.855  10.098  70.321  1.00  0.00    -0.342 C  
HETATM    3  C   UNL     1     -11.842   9.806  71.826  1.00  0.00    -0.335 C  
HETATM    4  C   UNL     1     -11.149   8.477  72.126  1.00  0.00    -0.366 C  
HETATM    5  N   UNL     1      -9.816   8.348  71.476  1.00  0.00    -0.189 N  
HETATM    6  C   UNL     1      -9.790   8.673  70.033  1.00  0.00    -0.179 C  
HETATM    7  C   UNL     1      -8.693   8.353  72.315  1.00  0.00    -0.209 C  
HETATM    8  O   UNL     1      -8.872   8.494  73.533  1.00  0.00    -0.279 OA 
HETATM    9  O   UNL     1     -10.938   6.578  69.685  1.00  0.00    -0.270 OA 
HETATM   10  C   UNL     1     -10.414  10.051  69.790  1.00  0.00    -0.291 C  
HETATM   11  C   UNL     1     -10.439   7.660  69.083  1.00  0.00    -0.214 C  
HETATM   12  O   UNL     1     -10.511   7.813  67.874  1.00  0.00    -0.214 OA 
ENDROOT
BRANCH   7  13
HETATM   13  C   UNL     1      -7.223   8.073  71.838  1.00  0.00    -0.080 C  
BRANCH  13  14
HETATM   14  C   UNL     1      -6.338   9.254  71.360  1.00  0.00    -0.053 C  
BRANCH  14  15
HETATM   15  C   UNL     1      -6.452   9.511  69.843  1.00  0.00    -0.053 C  
BRANCH  15  16
HETATM   16  C   UNL     1      -6.357  10.993  69.452  1.00  0.00    -0.083 C  
BRANCH  16  17
HETATM   17  N   UNL     1      -6.036  11.762  70.640  1.00  0.00    -0.495 NA 
HETATM   18  H2  UNL     1      -5.719  12.938  72.763  1.00  0.00     0.000 HD 
HETATM   19  H1  UNL     1      -5.360  14.511  71.953  1.00  0.00     0.000 HD 
HETATM   20  N   UNL     1      -5.539  13.878  69.690  1.00  0.00    -0.089 NA 
HETATM   21  N   UNL     1      -5.596  13.519  71.933  1.00  0.00    -0.401 NA 
HETATM   22  C   UNL     1      -5.724  13.075  70.667  1.00  0.00    -0.165 C  
HETATM   23  H   UNL     1      -6.048  11.267  71.532  1.00  0.00     0.000 HD 
HETATM   24  H1  UNL     1      -5.302  14.871  69.710  1.00  0.00     0.000 HD 
HETATM   25  H2  UNL     1      -5.642  13.471  68.761  1.00  0.00     0.000 HD 
ENDBRANCH  16  17
ENDBRANCH  15  16
ENDBRANCH  14  15
ENDBRANCH  13  14
BRANCH  13  26
HETATM   26  N   UNL     1      -7.132   6.984  70.827  1.00  0.00    -0.066 N  
HETATM   27  H   UNL     1      -7.487   7.122  69.881  1.00  0.00     0.000 HD 
BRANCH  26  28
HETATM   28  S   UNL     1      -6.423   5.499  71.281  1.00  0.00    -0.037 S  
HETATM   29  O   UNL     1      -6.315   5.474  72.716  1.00  0.00    -0.051 OA 
HETATM   30  O   UNL     1      -5.238   5.380  70.457  1.00  0.00    -0.004 OA 
BRANCH  28  31
HETATM   31  C   UNL     1      -7.626   4.316  70.733  1.00  0.00    -0.052 A  
HETATM   32  C   UNL     1      -9.759   3.343  67.715  1.00  0.00    -0.048 C  
HETATM   33  C   UNL     1      -8.074   3.378  71.677  1.00  0.00    -0.061 A  
HETATM   34  C   UNL     1     -10.038   4.554  65.523  1.00  0.00    -0.240 C  
HETATM   35  C   UNL     1      -9.026   2.428  71.323  1.00  0.00    -0.145 A  
HETATM   36  C   UNL     1      -9.579   4.671  66.974  1.00  0.00    -0.198 C  
HETATM   37  C   UNL     1      -8.113   5.072  67.075  1.00  0.00    -0.107 C  
HETATM   38  H   UNL     1      -7.193   6.102  68.749  1.00  0.00     0.000 HD 
HETATM   39  N   UNL     1      -7.731   5.281  68.469  1.00  0.00    -0.079 NA 
HETATM   40  C   UNL     1      -9.530   2.410  70.028  1.00  0.00    -0.135 A  
HETATM   41  C   UNL     1      -8.123   4.319  69.413  1.00  0.00    -0.059 A  
HETATM   42  C   UNL     1      -9.098   3.351  69.076  1.00  0.00    -0.205 A  
ENDBRANCH  28  31
ENDBRANCH  26  28
ENDBRANCH  13  26
ENDBRANCH   7  13
TORSDOF 8
ENDMDL
MODEL      286
REMARK 921   NORMALIZED FREE ENERGY PREDICTED BY IDOCK:   -4.52 KCAL/MOL
REMARK 922        TOTAL FREE ENERGY PREDICTED BY IDOCK:   -7.88 KCAL/MOL
REMARK 923 INTER-LIGAND FREE ENERGY PREDICTED BY IDOCK:   -6.58 KCAL/MOL
REMARK 924 INTRA-LIGAND FREE ENERGY PREDICTED BY IDOCK:   -1.30 KCAL/MOL
REMARK 927      BINDING AFFINITY PREDICTED BY RF-SCORE:    0.00 PKD
ROOT
HETATM    1  C   UNL     1      -6.016   5.208  63.541  1.00  0.00    -0.021 C  
HETATM    2  C   UNL     1      -6.426   6.462  64.299  1.00  0.00    -0.033 C  
HETATM    3  C   UNL     1      -5.746   6.548  65.669  1.00  0.00    -0.025 C  
HETATM    4  C   UNL     1      -6.202   7.789  66.437  1.00  0.00    -0.045 C  
HETATM    5  N   UNL     1      -7.683   7.939  66.489  1.00  0.00    -0.095 N  
HETATM    6  C   UNL     1      -8.369   7.811  65.185  1.00  0.00    -0.106 C  
HETATM    7  C   UNL     1      -8.299   7.766  67.735  1.00  0.00    -0.125 C  
HETATM    8  O   UNL     1      -7.588   7.471  68.706  1.00  0.00    -0.101 OA 
HETATM    9  O   UNL     1      -7.469   9.987  64.656  1.00  0.00    -0.136 OA 
HETATM   10  C   UNL     1      -7.949   6.510  64.492  1.00  0.00    -0.110 C  
HETATM   11  C   UNL     1      -8.206   8.973  64.199  1.00  0.00    -0.166 C  
HETATM   12  O   UNL     1      -8.697   8.988  63.081  1.00  0.00    -0.192 OA 
ENDROOT
BRANCH   7  13
HETATM   13  C   UNL     1      -9.819   8.035  68.023  1.00  0.00    -0.167 C  
BRANCH  13  14
HETATM   14  C   UNL     1     -10.857   6.912  67.758  1.00  0.00    -0.312 C  
BRANCH  14  15
HETATM   15  C   UNL     1     -11.190   6.096  69.024  1.00  0.00    -0.375 C  
BRANCH  15  16
HETATM   16  C   UNL     1     -10.108   5.076  69.411  1.00  0.00    -0.218 C  
BRANCH  16  17
HETATM   17  N   UNL     1      -9.366   5.601  70.542  1.00  0.00    -0.158 NA 
HETATM   18  H2  UNL     1      -7.891   6.496  72.278  1.00  0.00     0.000 HD 
HETATM   19  H1  UNL     1      -8.524   5.370  73.538  1.00  0.00     0.000 HD 
HETATM   20  N   UNL     1     -10.127   4.181  72.283  1.00  0.00    -0.176 NA 
HETATM   21  N   UNL     1      -8.504   5.743  72.588  1.00  0.00    -0.120 NA 
HETATM   22  C   UNL     1      -9.393   5.109  71.799  1.00  0.00    -0.146 C  
HETATM   23  H   UNL     1      -8.772   6.414  70.372  1.00  0.00     0.000 HD 
HETATM   24  H1  UNL     1     -10.148   3.809  73.233  1.00  0.00     0.000 HD 
HETATM   25  H2  UNL     1     -10.783   3.754  71.630  1.00  0.00     0.000 HD 
ENDBRANCH  16  17
ENDBRANCH  15  16
ENDBRANCH  14  15
ENDBRANCH  13  14
BRANCH  13  26
HETATM   26  N   UNL     1     -10.321   9.290  67.396  1.00  0.00    -0.246 N  
HETATM   27  H   UNL     1     -10.379   9.376  66.381  1.00  0.00     0.000 HD 
BRANCH  26  28
HETATM   28  S   UNL     1     -10.798  10.579  68.408  1.00  0.00    -0.260 S  
HETATM   29  O   UNL     1     -10.687  10.141  69.775  1.00  0.00    -0.241 OA 
HETATM   30  O   UNL     1     -12.075  11.019  67.882  1.00  0.00    -0.600 OA 
BRANCH  28  31
HETATM   31  C   UNL     1      -9.575  11.815  68.056  1.00  0.00    -0.187 A  
HETATM   32  C   UNL     1      -9.067  15.597  67.842  1.00  0.00    -0.185 C  
HETATM   33  C   UNL     1      -8.311  11.363  67.646  1.00  0.00    -0.129 A  
HETATM   34  C   UNL     1     -10.781  17.433  68.045  1.00  0.00    -0.359 C  
HETATM   35  C   UNL     1      -7.306  12.275  67.340  1.00  0.00    -0.151 A  
HETATM   36  C   UNL     1     -10.559  15.943  67.803  1.00  0.00    -0.302 C  
HETATM   37  C   UNL     1     -11.269  15.087  68.843  1.00  0.00    -0.277 C  
HETATM   38  H   UNL     1     -11.934  13.040  68.560  1.00  0.00     0.000 HD 
HETATM   39  N   UNL     1     -11.130  13.668  68.525  1.00  0.00    -0.262 NA 
HETATM   40  C   UNL     1      -7.559  13.637  67.446  1.00  0.00    -0.144 A  
HETATM   41  C   UNL     1      -9.858  13.192  68.170  1.00  0.00    -0.228 A  
HETATM   42  C   UNL     1      -8.825  14.104  67.845  1.00  0.00    -0.182 A  
ENDBRANCH  28  31
ENDBRANCH  26  28
ENDBRANCH  13  26
ENDBRANCH   7  13
TORSDOF 8
ENDMDL
MODEL      287
REMARK 921   NORMALIZED FREE ENERGY PREDICTED BY IDOCK:   -4.51 KCAL/MOL
REMARK 922        TOTAL FREE ENERGY PREDICTED BY IDOCK:   -7.86 KCAL/MOL
REMARK 923 INTER-LIGAND FREE ENERGY PREDICTED BY IDOCK:   -7.31 KCAL/MOL
REMARK 924 INTRA-LIGAND FREE ENERGY PREDICTED BY IDOCK:   -0.56 KCAL/MOL
REMARK 927      BINDING AFFINITY PREDICTED BY RF-SCORE:    0.00 PKD
ROOT
HETATM    1  C   UNL     1      -5.388   5.725  69.475  1.00  0.00    -0.004 C  
HETATM    2  C   UNL     1      -6.242   6.952  69.760  1.00  0.00    -0.034 C  
HETATM    3  C   UNL     1      -7.515   6.594  70.534  1.00  0.00    -0.087 C  
HETATM    4  C   UNL     1      -8.383   7.829  70.773  1.00  0.00    -0.116 C  
HETATM    5  N   UNL     1      -8.633   8.623  69.538  1.00  0.00    -0.129 N  
HETATM    6  C   UNL     1      -7.425   8.940  68.746  1.00  0.00    -0.083 C  
HETATM    7  C   UNL     1      -9.941   8.628  69.036  1.00  0.00    -0.192 C  
HETATM    8  O   UNL     1     -10.799   7.955  69.625  1.00  0.00    -0.242 OA 
HETATM    9  O   UNL     1      -6.870  10.519  70.484  1.00  0.00    -0.312 OA 
HETATM   10  C   UNL     1      -6.633   7.660  68.454  1.00  0.00    -0.054 C  
HETATM   11  C   UNL     1      -6.473   9.992  69.324  1.00  0.00    -0.049 C  
HETATM   12  O   UNL     1      -5.430  10.331  68.788  1.00  0.00    -0.039 OA 
ENDROOT
BRANCH   7  13
HETATM   13  C   UNL     1     -10.434   9.523  67.843  1.00  0.00    -0.241 C  
BRANCH  13  14
HETATM   14  C   UNL     1     -10.112   9.098  66.386  1.00  0.00    -0.345 C  
BRANCH  14  15
HETATM   15  C   UNL     1      -9.376   7.744  66.307  1.00  0.00    -0.210 C  
BRANCH  15  16
HETATM   16  C   UNL     1      -8.445   7.610  65.092  1.00  0.00    -0.043 C  
BRANCH  16  17
HETATM   17  N   UNL     1      -7.243   8.382  65.348  1.00  0.00    -0.081 NA 
HETATM   18  H2  UNL     1      -5.232   9.591  66.043  1.00  0.00     0.000 HD 
HETATM   19  H1  UNL     1      -5.704  11.090  65.156  1.00  0.00     0.000 HD 
HETATM   20  N   UNL     1      -7.753  10.402  64.213  1.00  0.00    -0.310 NA 
HETATM   21  N   UNL     1      -5.867  10.127  65.451  1.00  0.00    -0.087 NA 
HETATM   22  C   UNL     1      -7.028   9.656  64.957  1.00  0.00    -0.111 C  
HETATM   23  H   UNL     1      -6.495   7.921  65.867  1.00  0.00     0.000 HD 
HETATM   24  H1  UNL     1      -7.590  11.366  63.918  1.00  0.00     0.000 HD 
HETATM   25  H2  UNL     1      -8.612   9.976  63.867  1.00  0.00     0.000 HD 
ENDBRANCH  16  17
ENDBRANCH  15  16
ENDBRANCH  14  15
ENDBRANCH  13  14
BRANCH  13  26
HETATM   26  N   UNL     1     -10.072  10.959  68.000  1.00  0.00    -0.173 N  
HETATM   27  H   UNL     1      -9.476  11.264  68.769  1.00  0.00     0.000 HD 
BRANCH  26  28
HETATM   28  S   UNL     1     -10.675  12.085  66.867  1.00  0.00    -0.256 S  
HETATM   29  O   UNL     1     -11.875  11.540  66.288  1.00  0.00    -0.354 OA 
HETATM   30  O   UNL     1      -9.543  12.417  66.026  1.00  0.00    -0.242 OA 
BRANCH  28  31
HETATM   31  C   UNL     1     -11.063  13.484  67.886  1.00  0.00    -0.265 A  
HETATM   32  C   UNL     1     -11.066  17.306  67.909  1.00  0.00    -0.053 C  
HETATM   33  C   UNL     1     -11.481  13.219  69.200  1.00  0.00    -0.357 A  
HETATM   34  C   UNL     1     -10.173  18.895  66.169  1.00  0.00    -0.485 C  
HETATM   35  C   UNL     1     -11.790  14.267  70.062  1.00  0.00    -0.378 A  
HETATM   36  C   UNL     1     -10.153  17.460  66.688  1.00  0.00    -0.317 C  
HETATM   37  C   UNL     1     -10.611  16.466  65.629  1.00  0.00    -0.323 C  
HETATM   38  H   UNL     1     -10.059  14.370  65.536  1.00  0.00     0.000 HD 
HETATM   39  N   UNL     1     -10.479  15.096  66.117  1.00  0.00    -0.298 NA 
HETATM   40  C   UNL     1     -11.685  15.578  69.614  1.00  0.00    -0.371 A  
HETATM   41  C   UNL     1     -10.948  14.806  67.408  1.00  0.00    -0.313 A  
HETATM   42  C   UNL     1     -11.256  15.858  68.303  1.00  0.00    -0.354 A  
ENDBRANCH  28  31
ENDBRANCH  26  28
ENDBRANCH  13  26
ENDBRANCH   7  13
TORSDOF 8
ENDMDL
MODEL      288
REMARK 921   NORMALIZED FREE ENERGY PREDICTED BY IDOCK:   -4.48 KCAL/MOL
REMARK 922        TOTAL FREE ENERGY PREDICTED BY IDOCK:   -7.83 KCAL/MOL
REMARK 923 INTER-LIGAND FREE ENERGY PREDICTED BY IDOCK:   -6.54 KCAL/MOL
REMARK 924 INTRA-LIGAND FREE ENERGY PREDICTED BY IDOCK:   -1.29 KCAL/MOL
REMARK 927      BINDING AFFINITY PREDICTED BY RF-SCORE:    0.00 PKD
ROOT
HETATM    1  C   UNL     1      -6.101  18.491  67.484  1.00  0.00    -0.175 C  
HETATM    2  C   UNL     1      -7.336  17.707  67.905  1.00  0.00    -0.203 C  
HETATM    3  C   UNL     1      -7.004  16.643  68.957  1.00  0.00    -0.212 C  
HETATM    4  C   UNL     1      -8.245  15.834  69.337  1.00  0.00    -0.211 C  
HETATM    5  N   UNL     1      -8.987  15.306  68.159  1.00  0.00    -0.171 N  
HETATM    6  C   UNL     1      -9.277  16.303  67.105  1.00  0.00    -0.213 C  
HETATM    7  C   UNL     1      -8.968  13.919  67.962  1.00  0.00    -0.184 C  
HETATM    8  O   UNL     1      -8.316  13.222  68.752  1.00  0.00    -0.045 OA 
HETATM    9  O   UNL     1     -10.926  17.212  68.615  1.00  0.00    -0.295 OA 
HETATM   10  C   UNL     1      -7.990  17.026  66.693  1.00  0.00    -0.302 C  
HETATM   11  C   UNL     1     -10.354  17.347  67.416  1.00  0.00    -0.343 C  
HETATM   12  O   UNL     1     -10.676  18.240  66.649  1.00  0.00    -0.330 OA 
ENDROOT
BRANCH   7  13
HETATM   13  C   UNL     1      -9.813  13.162  66.876  1.00  0.00    -0.249 C  
BRANCH  13  14
HETATM   14  C   UNL     1     -11.269  12.737  67.201  1.00  0.00    -0.336 C  
BRANCH  14  15
HETATM   15  C   UNL     1     -11.728  13.197  68.600  1.00  0.00    -0.362 C  
BRANCH  15  16
HETATM   16  C   UNL     1     -12.144  12.047  69.530  1.00  0.00    -0.212 C  
BRANCH  16  17
HETATM   17  N   UNL     1     -11.400  10.860  69.152  1.00  0.00    -0.258 NA 
HETATM   18  H2  UNL     1     -10.337   8.822  68.311  1.00  0.00     0.000 HD 
HETATM   19  H1  UNL     1     -10.068   8.158  69.968  1.00  0.00     0.000 HD 
HETATM   20  N   UNL     1     -10.983   9.891  71.277  1.00  0.00    -0.260 NA 
HETATM   21  N   UNL     1     -10.406   8.877  69.327  1.00  0.00    -0.210 NA 
HETATM   22  C   UNL     1     -10.953   9.908  69.999  1.00  0.00    -0.291 C  
HETATM   23  H   UNL     1     -11.198  10.733  68.160  1.00  0.00     0.000 HD 
HETATM   24  H1  UNL     1     -10.645   9.172  71.918  1.00  0.00     0.000 HD 
HETATM   25  H2  UNL     1     -11.403  10.709  71.718  1.00  0.00     0.000 HD 
ENDBRANCH  16  17
ENDBRANCH  15  16
ENDBRANCH  14  15
ENDBRANCH  13  14
BRANCH  13  26
HETATM   26  N   UNL     1      -9.105  11.987  66.296  1.00  0.00    -0.307 N  
HETATM   27  H   UNL     1      -8.329  11.549  66.794  1.00  0.00     0.000 HD 
BRANCH  26  28
HETATM   28  S   UNL     1      -9.615  11.386  64.782  1.00  0.00    -0.173 S  
HETATM   29  O   UNL     1      -9.734  12.498  63.875  1.00  0.00    -0.163 OA 
HETATM   30  O   UNL     1     -10.765  10.555  65.074  1.00  0.00    -0.156 OA 
BRANCH  28  31
HETATM   31  C   UNL     1      -8.259  10.345  64.305  1.00  0.00    -0.121 A  
HETATM   32  C   UNL     1      -5.930   7.616  65.622  1.00  0.00    -0.038 C  
HETATM   33  C   UNL     1      -7.729  10.537  63.020  1.00  0.00    -0.070 A  
HETATM   34  C   UNL     1      -5.734   6.702  67.962  1.00  0.00    -0.012 C  
HETATM   35  C   UNL     1      -6.657   9.766  62.582  1.00  0.00    -0.108 A  
HETATM   36  C   UNL     1      -6.250   7.852  67.101  1.00  0.00    -0.054 C  
HETATM   37  C   UNL     1      -7.756   8.032  67.236  1.00  0.00    -0.101 C  
HETATM   38  H   UNL     1      -8.846   9.878  66.904  1.00  0.00     0.000 HD 
HETATM   39  N   UNL     1      -8.204   9.203  66.488  1.00  0.00    -0.110 NA 
HETATM   40  C   UNL     1      -6.114   8.803  63.424  1.00  0.00    -0.085 A  
HETATM   41  C   UNL     1      -7.726   9.375  65.179  1.00  0.00    -0.109 A  
HETATM   42  C   UNL     1      -6.629   8.609  64.719  1.00  0.00    -0.066 A  
ENDBRANCH  28  31
ENDBRANCH  26  28
ENDBRANCH  13  26
ENDBRANCH   7  13
TORSDOF 8
ENDMDL
MODEL      289
REMARK 921   NORMALIZED FREE ENERGY PREDICTED BY IDOCK:   -4.45 KCAL/MOL
REMARK 922        TOTAL FREE ENERGY PREDICTED BY IDOCK:   -7.78 KCAL/MOL
REMARK 923 INTER-LIGAND FREE ENERGY PREDICTED BY IDOCK:   -7.66 KCAL/MOL
REMARK 924 INTRA-LIGAND FREE ENERGY PREDICTED BY IDOCK:   -0.12 KCAL/MOL
REMARK 927      BINDING AFFINITY PREDICTED BY RF-SCORE:    0.00 PKD
ROOT
HETATM    1  C   UNL     1      -6.147   9.182  62.531  1.00  0.00    -0.094 C  
HETATM    2  C   UNL     1      -7.422   9.364  63.341  1.00  0.00    -0.106 C  
HETATM    3  C   UNL     1      -8.550   9.971  62.499  1.00  0.00    -0.202 C  
HETATM    4  C   UNL     1      -9.810  10.190  63.337  1.00  0.00     0.087 C  
HETATM    5  N   UNL     1      -9.552  10.917  64.610  1.00  0.00    -0.237 N  
HETATM    6  C   UNL     1      -8.435  10.381  65.419  1.00  0.00    -0.168 C  
HETATM    7  C   UNL     1     -10.065  12.216  64.719  1.00  0.00    -0.251 C  
HETATM    8  O   UNL     1     -10.671  12.691  63.749  1.00  0.00    -0.416 OA 
HETATM    9  O   UNL     1      -9.894   8.536  65.957  1.00  0.00    -0.212 OA 
HETATM   10  C   UNL     1      -7.170  10.263  64.561  1.00  0.00    -0.073 C  
HETATM   11  C   UNL     1      -8.675   9.049  66.136  1.00  0.00    -0.147 C  
HETATM   12  O   UNL     1      -7.833   8.482  66.815  1.00  0.00    -0.090 OA 
ENDROOT
BRANCH   7  13
HETATM   13  C   UNL     1     -10.034  13.079  66.031  1.00  0.00    -0.276 C  
BRANCH  13  14
HETATM   14  C   UNL     1     -10.856  14.393  66.100  1.00  0.00    -0.309 C  
BRANCH  14  15
HETATM   15  C   UNL     1     -10.092  15.608  65.534  1.00  0.00    -0.395 C  
BRANCH  15  16
HETATM   16  C   UNL     1      -9.995  16.793  66.505  1.00  0.00    -0.298 C  
BRANCH  16  17
HETATM   17  N   UNL     1      -8.968  17.699  66.025  1.00  0.00    -0.515 NA 
HETATM   18  H2  UNL     1      -7.379  19.234  64.973  1.00  0.00     0.000 HD 
HETATM   19  H1  UNL     1      -5.943  18.337  65.599  1.00  0.00     0.000 HD 
HETATM   20  N   UNL     1      -7.007  16.610  66.799  1.00  0.00    -0.225 NA 
HETATM   21  N   UNL     1      -6.949  18.474  65.500  1.00  0.00    -0.516 NA 
HETATM   22  C   UNL     1      -7.636  17.518  66.156  1.00  0.00    -0.285 C  
HETATM   23  H   UNL     1      -9.279  18.544  65.546  1.00  0.00     0.000 HD 
HETATM   24  H1  UNL     1      -6.000  16.474  66.898  1.00  0.00     0.000 HD 
HETATM   25  H2  UNL     1      -7.591  15.927  67.280  1.00  0.00     0.000 HD 
ENDBRANCH  16  17
ENDBRANCH  15  16
ENDBRANCH  14  15
ENDBRANCH  13  14
BRANCH  13  26
HETATM   26  N   UNL     1      -8.654  13.369  66.509  1.00  0.00    -0.424 N  
HETATM   27  H   UNL     1      -7.910  13.592  65.847  1.00  0.00     0.000 HD 
BRANCH  26  28
HETATM   28  S   UNL     1      -8.339  13.321  68.187  1.00  0.00    -0.164 S  
HETATM   29  O   UNL     1      -8.285  14.675  68.671  1.00  0.00    -0.148 OA 
HETATM   30  O   UNL     1      -7.193  12.446  68.331  1.00  0.00    -0.095 OA 
BRANCH  28  31
HETATM   31  C   UNL     1      -9.775  12.496  68.822  1.00  0.00     0.057 A  
HETATM   32  C   UNL     1     -10.975   9.144  70.213  1.00  0.00    -0.279 C  
HETATM   33  C   UNL     1     -10.981  13.216  68.813  1.00  0.00    -0.298 A  
HETATM   34  C   UNL     1      -9.724   6.962  70.370  1.00  0.00    -0.177 C  
HETATM   35  C   UNL     1     -12.151  12.629  69.284  1.00  0.00    -0.218 A  
HETATM   36  C   UNL     1      -9.770   8.339  69.714  1.00  0.00    -0.180 C  
HETATM   37  C   UNL     1      -8.512   9.148  69.999  1.00  0.00    -0.157 C  
HETATM   38  H   UNL     1      -7.719  10.740  68.757  1.00  0.00     0.000 HD 
HETATM   39  N   UNL     1      -8.537  10.414  69.273  1.00  0.00    -0.161 NA 
HETATM   40  C   UNL     1     -12.120  11.326  69.766  1.00  0.00    -0.394 A  
HETATM   41  C   UNL     1      -9.718  11.172  69.305  1.00  0.00     0.057 A  
HETATM   42  C   UNL     1     -10.921  10.590  69.770  1.00  0.00    -0.350 A  
ENDBRANCH  28  31
ENDBRANCH  26  28
ENDBRANCH  13  26
ENDBRANCH   7  13
TORSDOF 8
ENDMDL
MODEL      290
REMARK 921   NORMALIZED FREE ENERGY PREDICTED BY IDOCK:   -4.45 KCAL/MOL
REMARK 922        TOTAL FREE ENERGY PREDICTED BY IDOCK:   -7.78 KCAL/MOL
REMARK 923 INTER-LIGAND FREE ENERGY PREDICTED BY IDOCK:   -7.90 KCAL/MOL
REMARK 924 INTRA-LIGAND FREE ENERGY PREDICTED BY IDOCK:    0.12 KCAL/MOL
REMARK 927      BINDING AFFINITY PREDICTED BY RF-SCORE:    0.00 PKD
ROOT
HETATM    1  C   UNL     1      -6.106   6.859  68.956  1.00  0.00    -0.026 C  
HETATM    2  C   UNL     1      -6.418   8.268  68.470  1.00  0.00    -0.054 C  
HETATM    3  C   UNL     1      -7.106   9.105  69.553  1.00  0.00    -0.059 C  
HETATM    4  C   UNL     1      -7.453  10.501  69.036  1.00  0.00    -0.112 C  
HETATM    5  N   UNL     1      -8.180  10.485  67.737  1.00  0.00    -0.107 N  
HETATM    6  C   UNL     1      -7.563   9.643  66.688  1.00  0.00    -0.098 C  
HETATM    7  C   UNL     1      -9.522  10.888  67.750  1.00  0.00    -0.157 C  
HETATM    8  O   UNL     1     -10.029  11.202  68.836  1.00  0.00    -0.201 OA 
HETATM    9  O   UNL     1      -5.867  11.350  66.512  1.00  0.00    -0.137 OA 
HETATM   10  C   UNL     1      -7.315   8.228  67.223  1.00  0.00    -0.089 C  
HETATM   11  C   UNL     1      -6.272  10.166  66.050  1.00  0.00    -0.086 C  
HETATM   12  O   UNL     1      -5.647   9.563  65.192  1.00  0.00    -0.048 OA 
ENDROOT
BRANCH   7  13
HETATM   13  C   UNL     1     -10.405  11.086  66.467  1.00  0.00    -0.245 C  
BRANCH  13  14
HETATM   14  C   UNL     1      -9.734  11.523  65.138  1.00  0.00    -0.268 C  
BRANCH  14  15
HETATM   15  C   UNL     1      -9.992  10.532  63.984  1.00  0.00    -0.363 C  
BRANCH  15  16
HETATM   16  C   UNL     1      -8.735  10.171  63.178  1.00  0.00    -0.211 C  
BRANCH  16  17
HETATM   17  N   UNL     1      -8.556   8.731  63.228  1.00  0.00    -0.399 NA 
HETATM   18  H2  UNL     1      -8.382   6.313  63.561  1.00  0.00     0.000 HD 
HETATM   19  H1  UNL     1      -6.677   6.253  62.972  1.00  0.00     0.000 HD 
HETATM   20  N   UNL     1      -6.319   8.526  62.463  1.00  0.00    -0.091 NA 
HETATM   21  N   UNL     1      -7.538   6.753  63.193  1.00  0.00    -0.083 NA 
HETATM   22  C   UNL     1      -7.416   8.070  62.935  1.00  0.00    -0.113 C  
HETATM   23  H   UNL     1      -9.361   8.171  63.508  1.00  0.00     0.000 HD 
HETATM   24  H1  UNL     1      -5.457   8.026  62.242  1.00  0.00     0.000 HD 
HETATM   25  H2  UNL     1      -6.303   9.530  62.283  1.00  0.00     0.000 HD 
ENDBRANCH  16  17
ENDBRANCH  15  16
ENDBRANCH  14  15
ENDBRANCH  13  14
BRANCH  13  26
HETATM   26  N   UNL     1     -11.588  11.961  66.699  1.00  0.00    -0.321 N  
HETATM   27  H   UNL     1     -12.387  11.623  67.237  1.00  0.00     0.000 HD 
BRANCH  26  28
HETATM   28  S   UNL     1     -11.583  13.539  66.049  1.00  0.00    -0.353 S  
HETATM   29  O   UNL     1     -12.807  13.726  65.315  1.00  0.00    -0.681 OA 
HETATM   30  O   UNL     1     -10.303  13.668  65.382  1.00  0.00    -0.308 OA 
BRANCH  28  31
HETATM   31  C   UNL     1     -11.577  14.553  67.505  1.00  0.00    -0.381 A  
HETATM   32  C   UNL     1     -10.637  18.037  68.765  1.00  0.00    -0.040 C  
HETATM   33  C   UNL     1     -11.999  13.953  68.702  1.00  0.00    -0.401 A  
HETATM   34  C   UNL     1      -9.444  19.888  67.541  1.00  0.00    -0.477 C  
HETATM   35  C   UNL     1     -12.010  14.683  69.886  1.00  0.00    -0.381 A  
HETATM   36  C   UNL     1      -9.759  18.396  67.561  1.00  0.00    -0.308 C  
HETATM   37  C   UNL     1     -10.485  17.951  66.299  1.00  0.00    -0.320 C  
HETATM   38  H   UNL     1     -10.471  15.947  65.468  1.00  0.00     0.000 HD 
HETATM   39  N   UNL     1     -10.678  16.504  66.297  1.00  0.00    -0.210 NA 
HETATM   40  C   UNL     1     -11.601  16.011  69.878  1.00  0.00    -0.301 A  
HETATM   41  C   UNL     1     -11.156  15.899  67.471  1.00  0.00    -0.235 A  
HETATM   42  C   UNL     1     -11.164  16.621  68.688  1.00  0.00    -0.235 A  
ENDBRANCH  28  31
ENDBRANCH  26  28
ENDBRANCH  13  26
ENDBRANCH   7  13
TORSDOF 8
ENDMDL
MODEL      291
REMARK 921   NORMALIZED FREE ENERGY PREDICTED BY IDOCK:   -4.43 KCAL/MOL
REMARK 922        TOTAL FREE ENERGY PREDICTED BY IDOCK:   -7.75 KCAL/MOL
REMARK 923 INTER-LIGAND FREE ENERGY PREDICTED BY IDOCK:   -6.65 KCAL/MOL
REMARK 924 INTRA-LIGAND FREE ENERGY PREDICTED BY IDOCK:   -1.10 KCAL/MOL
REMARK 927      BINDING AFFINITY PREDICTED BY RF-SCORE:    0.00 PKD
ROOT
HETATM    1  C   UNL     1      -6.391   5.903  65.972  1.00  0.00    -0.042 C  
HETATM    2  C   UNL     1      -6.268   7.417  65.878  1.00  0.00    -0.041 C  
HETATM    3  C   UNL     1      -5.215   7.964  66.847  1.00  0.00    -0.031 C  
HETATM    4  C   UNL     1      -5.134   9.489  66.774  1.00  0.00    -0.040 C  
HETATM    5  N   UNL     1      -6.461  10.156  66.888  1.00  0.00    -0.068 N  
HETATM    6  C   UNL     1      -7.511   9.613  65.998  1.00  0.00    -0.099 C  
HETATM    7  C   UNL     1      -6.707  10.895  68.053  1.00  0.00    -0.063 C  
HETATM    8  O   UNL     1      -5.827  10.926  68.925  1.00  0.00    -0.041 OA 
HETATM    9  O   UNL     1      -6.341  10.700  64.188  1.00  0.00    -0.016 OA 
HETATM   10  C   UNL     1      -7.616   8.093  66.170  1.00  0.00    -0.089 C  
HETATM   11  C   UNL     1      -7.388   9.935  64.505  1.00  0.00    -0.140 C  
HETATM   12  O   UNL     1      -8.169   9.532  63.657  1.00  0.00    -0.142 OA 
ENDROOT
BRANCH   7  13
HETATM   13  C   UNL     1      -7.975  11.791  68.288  1.00  0.00    -0.147 C  
BRANCH  13  14
HETATM   14  C   UNL     1      -8.857  12.199  67.079  1.00  0.00    -0.203 C  
BRANCH  14  15
HETATM   15  C   UNL     1     -10.366  12.067  67.368  1.00  0.00    -0.226 C  
BRANCH  15  16
HETATM   16  C   UNL     1     -11.177  11.487  66.199  1.00  0.00    -0.202 C  
BRANCH  16  17
HETATM   17  N   UNL     1     -11.994  12.547  65.636  1.00  0.00    -0.488 NA 
HETATM   18  H2  UNL     1     -13.585  14.154  64.700  1.00  0.00     0.000 HD 
HETATM   19  H1  UNL     1     -12.427  14.716  63.434  1.00  0.00     0.000 HD 
HETATM   20  N   UNL     1     -10.556  13.374  63.939  1.00  0.00    -0.530 NA 
HETATM   21  N   UNL     1     -12.679  14.130  64.231  1.00  0.00    -0.629 NA 
HETATM   22  C   UNL     1     -11.660  13.322  64.582  1.00  0.00    -0.350 C  
HETATM   23  H   UNL     1     -12.898  12.721  66.075  1.00  0.00     0.000 HD 
HETATM   24  H1  UNL     1     -10.304  13.959  63.142  1.00  0.00     0.000 HD 
HETATM   25  H2  UNL     1      -9.827  12.742  64.267  1.00  0.00     0.000 HD 
ENDBRANCH  16  17
ENDBRANCH  15  16
ENDBRANCH  14  15
ENDBRANCH  13  14
BRANCH  13  26
HETATM   26  N   UNL     1      -7.688  13.014  69.088  1.00  0.00    -0.316 N  
HETATM   27  H   UNL     1      -7.893  13.042  70.087  1.00  0.00     0.000 HD 
BRANCH  26  28
HETATM   28  S   UNL     1      -7.007  14.368  68.302  1.00  0.00    -0.130 S  
HETATM   29  O   UNL     1      -6.274  13.899  67.155  1.00  0.00    -0.204 OA 
HETATM   30  O   UNL     1      -6.334  15.112  69.347  1.00  0.00    -0.113 OA 
BRANCH  28  31
HETATM   31  C   UNL     1      -8.444  15.274  67.787  1.00  0.00    -0.152 A  
HETATM   32  C   UNL     1     -11.998  16.180  68.862  1.00  0.00    -0.029 C  
HETATM   33  C   UNL     1      -8.398  15.876  66.520  1.00  0.00    -0.330 A  
HETATM   34  C   UNL     1     -13.304  15.352  70.851  1.00  0.00    -0.476 C  
HETATM   35  C   UNL     1      -9.491  16.591  66.043  1.00  0.00    -0.317 A  
HETATM   36  C   UNL     1     -12.103  15.101  69.944  1.00  0.00    -0.373 C  
HETATM   37  C   UNL     1     -10.795  15.086  70.724  1.00  0.00    -0.071 C  
HETATM   38  H   UNL     1      -8.981  14.050  70.138  1.00  0.00     0.000 HD 
HETATM   39  N   UNL     1      -9.678  14.738  69.851  1.00  0.00     0.194 NA 
HETATM   40  C   UNL     1     -10.631  16.709  66.831  1.00  0.00    -0.229 A  
HETATM   41  C   UNL     1      -9.588  15.378  68.605  1.00  0.00    -0.204 A  
HETATM   42  C   UNL     1     -10.694  16.101  68.098  1.00  0.00    -0.315 A  
ENDBRANCH  28  31
ENDBRANCH  26  28
ENDBRANCH  13  26
ENDBRANCH   7  13
TORSDOF 8
ENDMDL
MODEL      292
REMARK 921   NORMALIZED FREE ENERGY PREDICTED BY IDOCK:   -4.41 KCAL/MOL
REMARK 922        TOTAL FREE ENERGY PREDICTED BY IDOCK:   -7.72 KCAL/MOL
REMARK 923 INTER-LIGAND FREE ENERGY PREDICTED BY IDOCK:   -7.47 KCAL/MOL
REMARK 924 INTRA-LIGAND FREE ENERGY PREDICTED BY IDOCK:   -0.25 KCAL/MOL
REMARK 927      BINDING AFFINITY PREDICTED BY RF-SCORE:    0.00 PKD
ROOT
HETATM    1  C   UNL     1     -12.143  12.956  63.001  1.00  0.00    -0.100 C  
HETATM    2  C   UNL     1     -11.979  12.785  64.505  1.00  0.00    -0.454 C  
HETATM    3  C   UNL     1     -12.484  14.009  65.276  1.00  0.00    -0.495 C  
HETATM    4  C   UNL     1     -12.272  13.843  66.781  1.00  0.00    -0.399 C  
HETATM    5  N   UNL     1     -10.885  13.436  67.139  1.00  0.00    -0.274 N  
HETATM    6  C   UNL     1     -10.354  12.286  66.373  1.00  0.00    -0.225 C  
HETATM    7  C   UNL     1     -10.096  14.379  67.811  1.00  0.00    -0.226 C  
HETATM    8  O   UNL     1     -10.583  15.495  68.040  1.00  0.00    -0.257 OA 
HETATM    9  O   UNL     1     -11.841  10.908  67.682  1.00  0.00    -0.572 OA 
HETATM   10  C   UNL     1     -10.507  12.537  64.869  1.00  0.00    -0.328 C  
HETATM   11  C   UNL     1     -10.930  10.906  66.707  1.00  0.00    -0.185 C  
HETATM   12  O   UNL     1     -10.601   9.878  66.138  1.00  0.00    -0.121 OA 
ENDROOT
BRANCH   7  13
HETATM   13  C   UNL     1      -8.673  14.087  68.407  1.00  0.00    -0.179 C  
BRANCH  13  14
HETATM   14  C   UNL     1      -7.412  14.398  67.559  1.00  0.00    -0.206 C  
BRANCH  14  15
HETATM   15  C   UNL     1      -7.392  15.845  67.024  1.00  0.00    -0.243 C  
BRANCH  15  16
HETATM   16  C   UNL     1      -7.469  16.917  68.122  1.00  0.00    -0.178 C  
BRANCH  16  17
HETATM   17  N   UNL     1      -7.547  18.219  67.486  1.00  0.00    -0.214 NA 
HETATM   18  H2  UNL     1      -7.501  20.505  66.612  1.00  0.00     0.000 HD 
HETATM   19  H1  UNL     1      -9.287  20.550  66.354  1.00  0.00     0.000 HD 
HETATM   20  N   UNL     1      -9.881  18.392  67.093  1.00  0.00    -0.308 NA 
HETATM   21  N   UNL     1      -8.429  20.083  66.650  1.00  0.00    -0.321 NA 
HETATM   22  C   UNL     1      -8.682  18.837  67.095  1.00  0.00    -0.277 C  
HETATM   23  H   UNL     1      -6.668  18.711  67.321  1.00  0.00     0.000 HD 
HETATM   24  H1  UNL     1     -10.739  18.859  66.798  1.00  0.00     0.000 HD 
HETATM   25  H2  UNL     1      -9.996  17.438  67.434  1.00  0.00     0.000 HD 
ENDBRANCH  16  17
ENDBRANCH  15  16
ENDBRANCH  14  15
ENDBRANCH  13  14
BRANCH  13  26
HETATM   26  N   UNL     1      -8.537  12.709  68.954  1.00  0.00    -0.338 N  
HETATM   27  H   UNL     1      -9.175  12.370  69.675  1.00  0.00     0.000 HD 
BRANCH  26  28
HETATM   28  S   UNL     1      -7.295  11.705  68.352  1.00  0.00    -0.102 S  
HETATM   29  O   UNL     1      -6.151  11.840  69.215  1.00  0.00    -0.068 OA 
HETATM   30  O   UNL     1      -7.192  12.035  66.945  1.00  0.00    -0.125 OA 
BRANCH  28  31
HETATM   31  C   UNL     1      -7.999  10.085  68.512  1.00  0.00    -0.102 A  
HETATM   32  C   UNL     1      -8.202   6.686  66.775  1.00  0.00    -0.114 C  
HETATM   33  C   UNL     1      -8.852   9.865  69.605  1.00  0.00    -0.224 A  
HETATM   34  C   UNL     1      -7.318   6.015  64.513  1.00  0.00    -0.068 C  
HETATM   35  C   UNL     1      -9.451   8.623  69.789  1.00  0.00    -0.166 A  
HETATM   36  C   UNL     1      -7.693   7.184  65.419  1.00  0.00    -0.111 C  
HETATM   37  C   UNL     1      -6.510   8.110  65.670  1.00  0.00    -0.049 C  
HETATM   38  H   UNL     1      -6.634  10.215  66.180  1.00  0.00     0.000 HD 
HETATM   39  N   UNL     1      -6.923   9.274  66.449  1.00  0.00    -0.083 NA 
HETATM   40  C   UNL     1      -9.199   7.599  68.884  1.00  0.00    -0.139 A  
HETATM   41  C   UNL     1      -7.728   9.061  67.580  1.00  0.00    -0.096 A  
HETATM   42  C   UNL     1      -8.355   7.809  67.778  1.00  0.00    -0.125 A  
ENDBRANCH  28  31
ENDBRANCH  26  28
ENDBRANCH  13  26
ENDBRANCH   7  13
TORSDOF 8
ENDMDL
MODEL      293
REMARK 921   NORMALIZED FREE ENERGY PREDICTED BY IDOCK:   -4.40 KCAL/MOL
REMARK 922        TOTAL FREE ENERGY PREDICTED BY IDOCK:   -7.71 KCAL/MOL
REMARK 923 INTER-LIGAND FREE ENERGY PREDICTED BY IDOCK:   -6.77 KCAL/MOL
REMARK 924 INTRA-LIGAND FREE ENERGY PREDICTED BY IDOCK:   -0.94 KCAL/MOL
REMARK 927      BINDING AFFINITY PREDICTED BY RF-SCORE:    0.00 PKD
ROOT
HETATM    1  C   UNL     1      -6.249   5.698  64.935  1.00  0.00    -0.032 C  
HETATM    2  C   UNL     1      -6.352   7.216  64.883  1.00  0.00    -0.037 C  
HETATM    3  C   UNL     1      -5.279   7.889  65.745  1.00  0.00    -0.028 C  
HETATM    4  C   UNL     1      -5.423   9.411  65.720  1.00  0.00    -0.040 C  
HETATM    5  N   UNL     1      -6.807   9.877  66.009  1.00  0.00    -0.094 N  
HETATM    6  C   UNL     1      -7.868   9.207  65.225  1.00  0.00    -0.105 C  
HETATM    7  C   UNL     1      -7.014  10.549  67.221  1.00  0.00    -0.087 C  
HETATM    8  O   UNL     1      -6.051  10.689  67.987  1.00  0.00    -0.047 OA 
HETATM    9  O   UNL     1      -7.086  10.487  63.335  1.00  0.00    -0.071 OA 
HETATM   10  C   UNL     1      -7.737   7.685  65.352  1.00  0.00    -0.104 C  
HETATM   11  C   UNL     1      -7.970   9.574  63.741  1.00  0.00    -0.142 C  
HETATM   12  O   UNL     1      -8.781   9.079  62.974  1.00  0.00    -0.199 OA 
ENDROOT
BRANCH   7  13
HETATM   13  C   UNL     1      -8.359  11.249  67.633  1.00  0.00    -0.123 C  
BRANCH  13  14
HETATM   14  C   UNL     1      -9.231  11.927  66.544  1.00  0.00    -0.216 C  
BRANCH  14  15
HETATM   15  C   UNL     1     -10.639  11.306  66.432  1.00  0.00    -0.316 C  
BRANCH  15  16
HETATM   16  C   UNL     1     -11.025  10.417  67.624  1.00  0.00    -0.312 C  
BRANCH  16  17
HETATM   17  N   UNL     1     -11.151   9.050  67.156  1.00  0.00    -0.222 NA 
HETATM   18  H2  UNL     1     -11.642   6.783  66.373  1.00  0.00     0.000 HD 
HETATM   19  H1  UNL     1     -10.401   6.034  67.450  1.00  0.00     0.000 HD 
HETATM   20  N   UNL     1      -9.545   7.954  68.516  1.00  0.00    -0.149 NA 
HETATM   21  N   UNL     1     -10.908   6.839  67.079  1.00  0.00    -0.376 NA 
HETATM   22  C   UNL     1     -10.481   7.985  67.645  1.00  0.00    -0.232 C  
HETATM   23  H   UNL     1     -11.803   8.878  66.390  1.00  0.00     0.000 HD 
HETATM   24  H1  UNL     1      -9.038   7.150  68.886  1.00  0.00     0.000 HD 
HETATM   25  H2  UNL     1      -9.266   8.860  68.893  1.00  0.00     0.000 HD 
ENDBRANCH  16  17
ENDBRANCH  15  16
ENDBRANCH  14  15
ENDBRANCH  13  14
BRANCH  13  26
HETATM   26  N   UNL     1      -8.200  12.205  68.764  1.00  0.00    -0.344 N  
HETATM   27  H   UNL     1      -8.433  11.926  69.717  1.00  0.00     0.000 HD 
BRANCH  26  28
HETATM   28  S   UNL     1      -7.620  13.777  68.434  1.00  0.00    -0.142 S  
HETATM   29  O   UNL     1      -7.089  13.787  67.096  1.00  0.00    -0.080 OA 
HETATM   30  O   UNL     1      -6.772  14.110  69.560  1.00  0.00    -0.125 OA 
BRANCH  28  31
HETATM   31  C   UNL     1      -9.097  14.755  68.518  1.00  0.00    -0.187 A  
HETATM   32  C   UNL     1     -10.443  18.269  67.847  1.00  0.00    -0.408 C  
HETATM   33  C   UNL     1     -10.239  14.142  69.057  1.00  0.00    -0.130 A  
HETATM   34  C   UNL     1      -9.179  20.341  67.170  1.00  0.00    -0.519 C  
HETATM   35  C   UNL     1     -11.431  14.852  69.166  1.00  0.00    -0.324 A  
HETATM   36  C   UNL     1      -9.068  18.939  67.762  1.00  0.00    -0.322 C  
HETATM   37  C   UNL     1      -8.157  18.042  66.935  1.00  0.00    -0.236 C  
HETATM   38  H   UNL     1      -7.060  16.322  67.675  1.00  0.00     0.000 HD 
HETATM   39  N   UNL     1      -7.984  16.745  67.582  1.00  0.00    -0.173 NA 
HETATM   40  C   UNL     1     -11.485  16.172  68.736  1.00  0.00    -0.340 A  
HETATM   41  C   UNL     1      -9.127  16.094  68.074  1.00  0.00    -0.190 A  
HETATM   42  C   UNL     1     -10.345  16.802  68.203  1.00  0.00    -0.318 A  
ENDBRANCH  28  31
ENDBRANCH  26  28
ENDBRANCH  13  26
ENDBRANCH   7  13
TORSDOF 8
ENDMDL
MODEL      294
REMARK 921   NORMALIZED FREE ENERGY PREDICTED BY IDOCK:   -4.38 KCAL/MOL
REMARK 922        TOTAL FREE ENERGY PREDICTED BY IDOCK:   -7.68 KCAL/MOL
REMARK 923 INTER-LIGAND FREE ENERGY PREDICTED BY IDOCK:   -7.53 KCAL/MOL
REMARK 924 INTRA-LIGAND FREE ENERGY PREDICTED BY IDOCK:   -0.16 KCAL/MOL
REMARK 927      BINDING AFFINITY PREDICTED BY RF-SCORE:    0.00 PKD
ROOT
HETATM    1  C   UNL     1     -10.425  17.802  65.858  1.00  0.00    -0.251 C  
HETATM    2  C   UNL     1      -9.956  16.855  66.954  1.00  0.00    -0.279 C  
HETATM    3  C   UNL     1      -8.427  16.802  67.045  1.00  0.00    -0.225 C  
HETATM    4  C   UNL     1      -7.971  15.814  68.119  1.00  0.00    -0.135 C  
HETATM    5  N   UNL     1      -8.613  14.476  68.000  1.00  0.00    -0.154 N  
HETATM    6  C   UNL     1     -10.086  14.501  67.860  1.00  0.00    -0.227 C  
HETATM    7  C   UNL     1      -7.793  13.406  67.618  1.00  0.00    -0.173 C  
HETATM    8  O   UNL     1      -6.601  13.637  67.375  1.00  0.00    -0.243 OA 
HETATM    9  O   UNL     1     -10.157  15.099  70.197  1.00  0.00    -0.174 OA 
HETATM   10  C   UNL     1     -10.492  15.435  66.715  1.00  0.00    -0.299 C  
HETATM   11  C   UNL     1     -10.894  14.866  69.109  1.00  0.00    -0.250 C  
HETATM   12  O   UNL     1     -12.112  14.948  69.129  1.00  0.00    -0.291 OA 
ENDROOT
BRANCH   7  13
HETATM   13  C   UNL     1      -8.247  11.902  67.589  1.00  0.00    -0.148 C  
BRANCH  13  14
HETATM   14  C   UNL     1      -8.675  11.260  66.243  1.00  0.00    -0.184 C  
BRANCH  14  15
HETATM   15  C   UNL     1      -9.806  12.039  65.542  1.00  0.00    -0.251 C  
BRANCH  15  16
HETATM   16  C   UNL     1     -10.246  11.429  64.202  1.00  0.00    -0.324 C  
BRANCH  16  17
HETATM   17  N   UNL     1     -11.008  12.426  63.472  1.00  0.00    -0.498 NA 
HETATM   18  H2  UNL     1     -12.064  14.270  62.258  1.00  0.00     0.000 HD 
HETATM   19  H1  UNL     1     -13.619  14.107  63.160  1.00  0.00     0.000 HD 
HETATM   20  N   UNL     1     -13.101  12.299  64.582  1.00  0.00    -0.702 NA 
HETATM   21  N   UNL     1     -12.658  13.827  62.959  1.00  0.00    -0.538 NA 
HETATM   22  C   UNL     1     -12.278  12.796  63.739  1.00  0.00    -0.489 C  
HETATM   23  H   UNL     1     -10.542  12.887  62.690  1.00  0.00     0.000 HD 
HETATM   24  H1  UNL     1     -14.061  12.579  64.784  1.00  0.00     0.000 HD 
HETATM   25  H2  UNL     1     -12.748  11.515  65.130  1.00  0.00     0.000 HD 
ENDBRANCH  16  17
ENDBRANCH  15  16
ENDBRANCH  14  15
ENDBRANCH  13  14
BRANCH  13  26
HETATM   26  N   UNL     1      -9.285  11.584  68.608  1.00  0.00    -0.315 N  
HETATM   27  H   UNL     1      -9.840  12.326  69.034  1.00  0.00     0.000 HD 
BRANCH  26  28
HETATM   28  S   UNL     1      -9.529   9.952  69.049  1.00  0.00    -0.194 S  
HETATM   29  O   UNL     1     -10.098   9.264  67.919  1.00  0.00    -0.178 OA 
HETATM   30  O   UNL     1     -10.242  10.004  70.308  1.00  0.00    -0.268 OA 
BRANCH  28  31
HETATM   31  C   UNL     1      -7.875   9.385  69.347  1.00  0.00    -0.087 A  
HETATM   32  C   UNL     1      -5.407   6.620  68.411  1.00  0.00    -0.012 C  
HETATM   33  C   UNL     1      -7.117  10.097  70.290  1.00  0.00    -0.146 A  
HETATM   34  C   UNL     1      -5.804   4.555  67.023  1.00  0.00    -0.023 C  
HETATM   35  C   UNL     1      -5.816   9.702  70.586  1.00  0.00    -0.066 A  
HETATM   36  C   UNL     1      -6.461   5.677  67.821  1.00  0.00    -0.047 C  
HETATM   37  C   UNL     1      -7.408   6.505  66.963  1.00  0.00    -0.079 C  
HETATM   38  H   UNL     1      -9.109   7.641  67.687  1.00  0.00     0.000 HD 
HETATM   39  N   UNL     1      -8.102   7.501  67.775  1.00  0.00    -0.117 NA 
HETATM   40  C   UNL     1      -5.270   8.599  69.940  1.00  0.00    -0.029 A  
HETATM   41  C   UNL     1      -7.344   8.261  68.680  1.00  0.00    -0.089 A  
HETATM   42  C   UNL     1      -6.023   7.870  69.002  1.00  0.00    -0.038 A  
ENDBRANCH  28  31
ENDBRANCH  26  28
ENDBRANCH  13  26
ENDBRANCH   7  13
TORSDOF 8
ENDMDL
MODEL      295
REMARK 921   NORMALIZED FREE ENERGY PREDICTED BY IDOCK:   -4.38 KCAL/MOL
REMARK 922        TOTAL FREE ENERGY PREDICTED BY IDOCK:   -7.68 KCAL/MOL
REMARK 923 INTER-LIGAND FREE ENERGY PREDICTED BY IDOCK:   -6.00 KCAL/MOL
REMARK 924 INTRA-LIGAND FREE ENERGY PREDICTED BY IDOCK:   -1.68 KCAL/MOL
REMARK 927      BINDING AFFINITY PREDICTED BY RF-SCORE:    0.00 PKD
ROOT
HETATM    1  C   UNL     1     -12.070  13.143  66.433  1.00  0.00    -0.447 C  
HETATM    2  C   UNL     1     -11.422  11.814  66.796  1.00  0.00    -0.352 C  
HETATM    3  C   UNL     1     -11.765  11.385  68.226  1.00  0.00    -0.359 C  
HETATM    4  C   UNL     1     -11.072  10.072  68.592  1.00  0.00    -0.174 C  
HETATM    5  N   UNL     1      -9.612  10.074  68.297  1.00  0.00    -0.139 N  
HETATM    6  C   UNL     1      -9.251  10.532  66.938  1.00  0.00    -0.155 C  
HETATM    7  C   UNL     1      -8.739  10.061  69.393  1.00  0.00    -0.186 C  
HETATM    8  O   UNL     1      -9.227  10.079  70.532  1.00  0.00    -0.009 OA 
HETATM    9  O   UNL     1     -10.115   8.421  66.149  1.00  0.00    -0.182 OA 
HETATM   10  C   UNL     1      -9.895  11.892  66.649  1.00  0.00    -0.219 C  
HETATM   11  C   UNL     1      -9.564   9.579  65.779  1.00  0.00    -0.270 C  
HETATM   12  O   UNL     1      -9.341   9.839  64.607  1.00  0.00    -0.260 OA 
ENDROOT
BRANCH   7  13
HETATM   13  C   UNL     1      -7.180   9.904  69.289  1.00  0.00    -0.073 C  
BRANCH  13  14
HETATM   14  C   UNL     1      -6.361  10.942  68.476  1.00  0.00    -0.049 C  
BRANCH  14  15
HETATM   15  C   UNL     1      -6.563  12.387  68.976  1.00  0.00    -0.100 C  
BRANCH  15  16
HETATM   16  C   UNL     1      -6.056  13.462  68.002  1.00  0.00    -0.129 C  
BRANCH  16  17
HETATM   17  N   UNL     1      -7.197  14.026  67.306  1.00  0.00    -0.323 NA 
HETATM   18  H2  UNL     1      -9.054  14.809  65.916  1.00  0.00     0.000 HD 
HETATM   19  H1  UNL     1      -8.784  16.539  66.355  1.00  0.00     0.000 HD 
HETATM   20  N   UNL     1      -6.947  16.329  67.817  1.00  0.00    -0.127 NA 
HETATM   21  N   UNL     1      -8.554  15.547  66.413  1.00  0.00    -0.295 NA 
HETATM   22  C   UNL     1      -7.503  15.339  67.229  1.00  0.00    -0.202 C  
HETATM   23  H   UNL     1      -7.823  13.373  66.833  1.00  0.00     0.000 HD 
HETATM   24  H1  UNL     1      -7.178  17.322  67.759  1.00  0.00     0.000 HD 
HETATM   25  H2  UNL     1      -6.165  16.095  68.427  1.00  0.00     0.000 HD 
ENDBRANCH  16  17
ENDBRANCH  15  16
ENDBRANCH  14  15
ENDBRANCH  13  14
BRANCH  13  26
HETATM   26  N   UNL     1      -6.755   8.542  68.865  1.00  0.00    -0.053 N  
HETATM   27  H   UNL     1      -6.359   8.386  67.938  1.00  0.00     0.000 HD 
BRANCH  26  28
HETATM   28  S   UNL     1      -6.943   7.245  69.960  1.00  0.00    -0.062 S  
HETATM   29  O   UNL     1      -7.054   7.793  71.287  1.00  0.00    -0.055 OA 
HETATM   30  O   UNL     1      -5.876   6.321  69.637  1.00  0.00    -0.016 OA 
BRANCH  28  31
HETATM   31  C   UNL     1      -8.489   6.538  69.454  1.00  0.00    -0.127 A  
HETATM   32  C   UNL     1     -10.180   4.720  66.548  1.00  0.00    -0.294 C  
HETATM   33  C   UNL     1      -9.574   6.680  70.334  1.00  0.00    -0.173 A  
HETATM   34  C   UNL     1      -9.268   4.224  64.252  1.00  0.00    -0.151 C  
HETATM   35  C   UNL     1     -10.820   6.161  69.999  1.00  0.00    -0.408 A  
HETATM   36  C   UNL     1      -9.106   5.069  65.513  1.00  0.00    -0.159 C  
HETATM   37  C   UNL     1      -7.743   4.867  66.161  1.00  0.00    -0.091 C  
HETATM   38  H   UNL     1      -6.716   6.301  67.425  1.00  0.00     0.000 HD 
HETATM   39  N   UNL     1      -7.576   5.765  67.300  1.00  0.00    -0.095 NA 
HETATM   40  C   UNL     1     -10.986   5.500  68.788  1.00  0.00     0.028 A  
HETATM   41  C   UNL     1      -8.632   5.871  68.219  1.00  0.00    -0.113 A  
HETATM   42  C   UNL     1      -9.910   5.361  67.892  1.00  0.00    -0.179 A  
ENDBRANCH  28  31
ENDBRANCH  26  28
ENDBRANCH  13  26
ENDBRANCH   7  13
TORSDOF 8
ENDMDL
MODEL      296
REMARK 921   NORMALIZED FREE ENERGY PREDICTED BY IDOCK:   -4.37 KCAL/MOL
REMARK 922        TOTAL FREE ENERGY PREDICTED BY IDOCK:   -7.67 KCAL/MOL
REMARK 923 INTER-LIGAND FREE ENERGY PREDICTED BY IDOCK:   -6.46 KCAL/MOL
REMARK 924 INTRA-LIGAND FREE ENERGY PREDICTED BY IDOCK:   -1.21 KCAL/MOL
REMARK 927      BINDING AFFINITY PREDICTED BY RF-SCORE:    0.00 PKD
ROOT
HETATM    1  C   UNL     1     -14.003  15.457  72.109  1.00  0.00    -0.649 C  
HETATM    2  C   UNL     1     -12.932  14.561  71.504  1.00  0.00    -0.406 C  
HETATM    3  C   UNL     1     -11.670  15.349  71.137  1.00  0.00    -0.418 C  
HETATM    4  C   UNL     1     -10.621  14.444  70.490  1.00  0.00     0.702 C  
HETATM    5  N   UNL     1     -11.162  13.619  69.374  1.00  0.00    -0.231 N  
HETATM    6  C   UNL     1     -12.408  12.887  69.687  1.00  0.00    -0.023 C  
HETATM    7  C   UNL     1     -10.720  13.927  68.080  1.00  0.00    -0.250 C  
HETATM    8  O   UNL     1      -9.937  14.876  67.937  1.00  0.00    -0.217 OA 
HETATM    9  O   UNL     1     -11.044  11.422  71.035  1.00  0.00     1.068 OA 
HETATM   10  C   UNL     1     -13.460  13.849  70.249  1.00  0.00     0.757 C  
HETATM   11  C   UNL     1     -12.287  11.681  70.625  1.00  0.00    -0.344 C  
HETATM   12  O   UNL     1     -13.236  11.003  70.985  1.00  0.00    -0.237 OA 
ENDROOT
BRANCH   7  13
HETATM   13  C   UNL     1     -11.051  13.078  66.801  1.00  0.00    -0.286 C  
BRANCH  13  14
HETATM   14  C   UNL     1     -12.358  13.363  66.013  1.00  0.00    -0.471 C  
BRANCH  14  15
HETATM   15  C   UNL     1     -12.102  14.065  64.664  1.00  0.00    -0.462 C  
BRANCH  15  16
HETATM   16  C   UNL     1     -12.268  13.150  63.442  1.00  0.00    -0.444 C  
BRANCH  16  17
HETATM   17  N   UNL     1     -10.949  12.783  62.960  1.00  0.00    -0.462 NA 
HETATM   18  H2  UNL     1      -8.809  12.256  61.896  1.00  0.00     0.000 HD 
HETATM   19  H1  UNL     1      -8.678  10.656  62.721  1.00  0.00     0.000 HD 
HETATM   20  N   UNL     1     -10.662  10.667  63.993  1.00  0.00    -0.342 NA 
HETATM   21  N   UNL     1      -9.158  11.535  62.527  1.00  0.00    -0.270 NA 
HETATM   22  C   UNL     1     -10.314  11.620  63.216  1.00  0.00    -0.398 C  
HETATM   23  H   UNL     1     -10.460  13.463  62.377  1.00  0.00     0.000 HD 
HETATM   24  H1  UNL     1     -10.182   9.787  64.187  1.00  0.00     0.000 HD 
HETATM   25  H2  UNL     1     -11.542  10.804  64.489  1.00  0.00     0.000 HD 
ENDBRANCH  16  17
ENDBRANCH  15  16
ENDBRANCH  14  15
ENDBRANCH  13  14
BRANCH  13  26
HETATM   26  N   UNL     1     -10.957  11.610  67.030  1.00  0.00    -0.273 N  
HETATM   27  H   UNL     1     -11.784  11.017  66.953  1.00  0.00     0.000 HD 
BRANCH  26  28
HETATM   28  S   UNL     1      -9.438  10.937  67.425  1.00  0.00    -0.155 S  
HETATM   29  O   UNL     1      -8.935  11.619  68.588  1.00  0.00    -0.159 OA 
HETATM   30  O   UNL     1      -8.687  10.950  66.187  1.00  0.00    -0.172 OA 
BRANCH  28  31
HETATM   31  C   UNL     1      -9.855   9.260  67.826  1.00  0.00    -0.171 A  
HETATM   32  C   UNL     1      -9.453   6.609  70.551  1.00  0.00    -0.171 C  
HETATM   33  C   UNL     1     -10.534   8.519  66.846  1.00  0.00    -0.345 A  
HETATM   34  C   UNL     1      -8.091   6.716  72.668  1.00  0.00    -0.102 C  
HETATM   35  C   UNL     1     -10.882   7.194  67.085  1.00  0.00    -0.403 A  
HETATM   36  C   UNL     1      -8.321   7.329  71.289  1.00  0.00    -0.111 C  
HETATM   37  C   UNL     1      -8.679   8.806  71.377  1.00  0.00    -0.214 C  
HETATM   38  H   UNL     1      -8.347  10.285  69.824  1.00  0.00     0.000 HD 
HETATM   39  N   UNL     1      -8.787   9.391  70.043  1.00  0.00    -0.192 NA 
HETATM   40  C   UNL     1     -10.557   6.606  68.302  1.00  0.00    -0.291 A  
HETATM   41  C   UNL     1      -9.513   8.687  69.069  1.00  0.00    -0.153 A  
HETATM   42  C   UNL     1      -9.867   7.334  69.289  1.00  0.00    -0.166 A  
ENDBRANCH  28  31
ENDBRANCH  26  28
ENDBRANCH  13  26
ENDBRANCH   7  13
TORSDOF 8
ENDMDL
MODEL      297
REMARK 921   NORMALIZED FREE ENERGY PREDICTED BY IDOCK:   -4.36 KCAL/MOL
REMARK 922        TOTAL FREE ENERGY PREDICTED BY IDOCK:   -7.65 KCAL/MOL
REMARK 923 INTER-LIGAND FREE ENERGY PREDICTED BY IDOCK:   -8.27 KCAL/MOL
REMARK 924 INTRA-LIGAND FREE ENERGY PREDICTED BY IDOCK:    0.62 KCAL/MOL
REMARK 927      BINDING AFFINITY PREDICTED BY RF-SCORE:    0.00 PKD
ROOT
HETATM    1  C   UNL     1     -10.016  19.519  68.851  1.00  0.00    -0.529 C  
HETATM    2  C   UNL     1      -9.712  18.312  67.975  1.00  0.00    -0.324 C  
HETATM    3  C   UNL     1     -10.761  18.129  66.873  1.00  0.00    -0.246 C  
HETATM    4  C   UNL     1     -10.469  16.888  66.031  1.00  0.00    -0.290 C  
HETATM    5  N   UNL     1     -10.233  15.664  66.846  1.00  0.00    -0.274 N  
HETATM    6  C   UNL     1      -9.261  15.827  67.949  1.00  0.00    -0.191 C  
HETATM    7  C   UNL     1     -11.204  14.656  66.780  1.00  0.00    -0.344 C  
HETATM    8  O   UNL     1     -12.207  14.852  66.079  1.00  0.00    -0.102 OA 
HETATM    9  O   UNL     1      -7.550  15.867  66.248  1.00  0.00     0.002 OA 
HETATM   10  C   UNL     1      -9.644  17.029  68.819  1.00  0.00    -0.269 C  
HETATM   11  C   UNL     1      -7.784  15.948  67.559  1.00  0.00    -0.159 C  
HETATM   12  O   UNL     1      -6.880  16.110  68.364  1.00  0.00    -0.123 OA 
ENDROOT
BRANCH   7  13
HETATM   13  C   UNL     1     -11.062  13.238  67.439  1.00  0.00    -0.278 C  
BRANCH  13  14
HETATM   14  C   UNL     1     -11.887  12.049  66.878  1.00  0.00    -0.250 C  
BRANCH  14  15
HETATM   15  C   UNL     1     -11.081  11.173  65.897  1.00  0.00    -0.105 C  
BRANCH  15  16
HETATM   16  C   UNL     1      -9.598  11.558  65.788  1.00  0.00    -0.235 C  
BRANCH  16  17
HETATM   17  N   UNL     1      -9.205  11.484  64.393  1.00  0.00    -0.414 NA 
HETATM   18  H2  UNL     1      -8.756  11.535  61.988  1.00  0.00     0.000 HD 
HETATM   19  H1  UNL     1      -8.489   9.751  61.898  1.00  0.00     0.000 HD 
HETATM   20  N   UNL     1      -8.823   9.154  64.153  1.00  0.00    -0.394 NA 
HETATM   21  N   UNL     1      -8.706  10.607  62.410  1.00  0.00    -0.240 NA 
HETATM   22  C   UNL     1      -8.918  10.352  63.716  1.00  0.00    -0.229 C  
HETATM   23  H   UNL     1      -9.141  12.363  63.880  1.00  0.00     0.000 HD 
HETATM   24  H1  UNL     1      -8.606   8.299  63.641  1.00  0.00     0.000 HD 
HETATM   25  H2  UNL     1      -8.986   9.038  65.153  1.00  0.00     0.000 HD 
ENDBRANCH  16  17
ENDBRANCH  15  16
ENDBRANCH  14  15
ENDBRANCH  13  14
BRANCH  13  26
HETATM   26  N   UNL     1     -11.225  13.259  68.919  1.00  0.00    -0.265 N  
HETATM   27  H   UNL     1     -10.952  14.080  69.460  1.00  0.00     0.000 HD 
BRANCH  26  28
HETATM   28  S   UNL     1     -11.877  11.885  69.693  1.00  0.00    -0.325 S  
HETATM   29  O   UNL     1     -12.768  11.231  68.771  1.00  0.00    -0.126 OA 
HETATM   30  O   UNL     1     -12.369  12.367  70.968  1.00  0.00    -0.349 OA 
BRANCH  28  31
HETATM   31  C   UNL     1     -10.439  10.884  69.974  1.00  0.00     0.223 A  
HETATM   32  C   UNL     1      -9.128   7.997  72.107  1.00  0.00    -0.227 C  
HETATM   33  C   UNL     1      -9.284  11.208  69.244  1.00  0.00     0.141 A  
HETATM   34  C   UNL     1     -10.246   6.830  74.041  1.00  0.00    -0.399 C  
HETATM   35  C   UNL     1      -8.115  10.476  69.420  1.00  0.00    -0.136 A  
HETATM   36  C   UNL     1     -10.241   8.074  73.157  1.00  0.00    -0.287 C  
HETATM   37  C   UNL     1     -11.565   8.258  72.428  1.00  0.00    -0.396 C  
HETATM   38  H   UNL     1     -12.369  10.144  71.717  1.00  0.00     0.000 HD 
HETATM   39  N   UNL     1     -11.571   9.510  71.677  1.00  0.00    -0.393 NA 
HETATM   40  C   UNL     1      -8.096   9.419  70.323  1.00  0.00    -0.180 A  
HETATM   41  C   UNL     1     -10.445   9.817  70.896  1.00  0.00    -0.228 A  
HETATM   42  C   UNL     1      -9.243   9.091  71.069  1.00  0.00    -0.331 A  
ENDBRANCH  28  31
ENDBRANCH  26  28
ENDBRANCH  13  26
ENDBRANCH   7  13
TORSDOF 8
ENDMDL
MODEL      298
REMARK 921   NORMALIZED FREE ENERGY PREDICTED BY IDOCK:   -4.36 KCAL/MOL
REMARK 922        TOTAL FREE ENERGY PREDICTED BY IDOCK:   -7.65 KCAL/MOL
REMARK 923 INTER-LIGAND FREE ENERGY PREDICTED BY IDOCK:   -5.70 KCAL/MOL
REMARK 924 INTRA-LIGAND FREE ENERGY PREDICTED BY IDOCK:   -1.95 KCAL/MOL
REMARK 927      BINDING AFFINITY PREDICTED BY RF-SCORE:    0.00 PKD
ROOT
HETATM    1  C   UNL     1     -10.944   2.395  72.384  1.00  0.00     0.325 C  
HETATM    2  C   UNL     1     -10.128   3.667  72.561  1.00  0.00    -0.237 C  
HETATM    3  C   UNL     1     -11.010   4.861  72.941  1.00  0.00    -0.332 C  
HETATM    4  C   UNL     1     -10.184   6.141  73.071  1.00  0.00    -0.195 C  
HETATM    5  N   UNL     1      -9.300   6.394  71.900  1.00  0.00    -0.153 N  
HETATM    6  C   UNL     1      -8.474   5.241  71.481  1.00  0.00    -0.122 C  
HETATM    7  C   UNL     1      -9.622   7.484  71.081  1.00  0.00    -0.158 C  
HETATM    8  O   UNL     1     -10.630   8.149  71.358  1.00  0.00    -0.212 OA 
HETATM    9  O   UNL     1      -7.146   5.655  73.453  1.00  0.00    -0.083 OA 
HETATM   10  C   UNL     1      -9.356   4.004  71.276  1.00  0.00    -0.212 C  
HETATM   11  C   UNL     1      -7.297   4.865  72.388  1.00  0.00    -0.088 C  
HETATM   12  O   UNL     1      -6.550   3.924  72.176  1.00  0.00    -0.017 OA 
ENDROOT
BRANCH   7  13
HETATM   13  C   UNL     1      -8.730   8.003  69.897  1.00  0.00    -0.139 C  
BRANCH  13  14
HETATM   14  C   UNL     1      -7.188   7.845  69.977  1.00  0.00    -0.062 C  
BRANCH  14  15
HETATM   15  C   UNL     1      -6.583   7.227  68.700  1.00  0.00    -0.045 C  
BRANCH  15  16
HETATM   16  C   UNL     1      -7.522   6.252  67.973  1.00  0.00    -0.090 C  
BRANCH  16  17
HETATM   17  N   UNL     1      -7.467   6.536  66.551  1.00  0.00    -0.084 NA 
HETATM   18  H2  UNL     1      -7.183   7.211  64.216  1.00  0.00     0.000 HD 
HETATM   19  H1  UNL     1      -8.958   7.183  63.887  1.00  0.00     0.000 HD 
HETATM   20  N   UNL     1      -9.774   6.523  65.998  1.00  0.00    -0.395 NA 
HETATM   21  N   UNL     1      -8.152   7.065  64.501  1.00  0.00    -0.107 NA 
HETATM   22  C   UNL     1      -8.534   6.692  65.738  1.00  0.00    -0.148 C  
HETATM   23  H   UNL     1      -6.542   6.626  66.129  1.00  0.00     0.000 HD 
HETATM   24  H1  UNL     1     -10.580   6.641  65.383  1.00  0.00     0.000 HD 
HETATM   25  H2  UNL     1      -9.988   6.231  66.951  1.00  0.00     0.000 HD 
ENDBRANCH  16  17
ENDBRANCH  15  16
ENDBRANCH  14  15
ENDBRANCH  13  14
BRANCH  13  26
HETATM   26  N   UNL     1      -9.034   9.408  69.506  1.00  0.00    -0.152 N  
HETATM   27  H   UNL     1      -8.810  10.182  70.132  1.00  0.00     0.000 HD 
BRANCH  26  28
HETATM   28  S   UNL     1      -9.762   9.698  67.990  1.00  0.00    -0.149 S  
HETATM   29  O   UNL     1     -10.871   8.791  67.844  1.00  0.00    -0.151 OA 
HETATM   30  O   UNL     1      -8.672   9.679  67.037  1.00  0.00    -0.127 OA 
BRANCH  28  31
HETATM   31  C   UNL     1     -10.348  11.364  68.160  1.00  0.00    -0.188 A  
HETATM   32  C   UNL     1     -12.439  13.623  70.426  1.00  0.00    -0.364 C  
HETATM   33  C   UNL     1     -10.041  12.258  67.121  1.00  0.00    -0.218 A  
HETATM   34  C   UNL     1     -13.803  12.999  72.451  1.00  0.00    -0.526 C  
HETATM   35  C   UNL     1     -10.478  13.577  67.179  1.00  0.00    -0.256 A  
HETATM   36  C   UNL     1     -13.107  12.479  71.196  1.00  0.00    -0.132 C  
HETATM   37  C   UNL     1     -12.039  11.445  71.525  1.00  0.00     0.311 C  
HETATM   38  H   UNL     1     -11.336   9.882  70.195  1.00  0.00     0.000 HD 
HETATM   39  N   UNL     1     -11.466  10.888  70.303  1.00  0.00    -0.311 NA 
HETATM   40  C   UNL     1     -11.220  14.007  68.272  1.00  0.00    -0.293 A  
HETATM   41  C   UNL     1     -11.100  11.777  69.280  1.00  0.00    -0.218 A  
HETATM   42  C   UNL     1     -11.544  13.120  69.314  1.00  0.00    -0.370 A  
ENDBRANCH  28  31
ENDBRANCH  26  28
ENDBRANCH  13  26
ENDBRANCH   7  13
TORSDOF 8
ENDMDL
MODEL      299
REMARK 921   NORMALIZED FREE ENERGY PREDICTED BY IDOCK:   -4.35 KCAL/MOL
REMARK 922        TOTAL FREE ENERGY PREDICTED BY IDOCK:   -7.64 KCAL/MOL
REMARK 923 INTER-LIGAND FREE ENERGY PREDICTED BY IDOCK:   -6.65 KCAL/MOL
REMARK 924 INTRA-LIGAND FREE ENERGY PREDICTED BY IDOCK:   -0.99 KCAL/MOL
REMARK 927      BINDING AFFINITY PREDICTED BY RF-SCORE:    0.00 PKD
ROOT
HETATM    1  C   UNL     1     -12.771  12.606  64.642  1.00  0.00    -0.458 C  
HETATM    2  C   UNL     1     -11.376  12.402  65.217  1.00  0.00    -0.374 C  
HETATM    3  C   UNL     1     -10.562  11.398  64.393  1.00  0.00    -0.403 C  
HETATM    4  C   UNL     1      -9.181  11.169  65.007  1.00  0.00    -0.170 C  
HETATM    5  N   UNL     1      -9.227  10.856  66.462  1.00  0.00    -0.167 N  
HETATM    6  C   UNL     1     -10.048  11.782  67.273  1.00  0.00    -0.192 C  
HETATM    7  C   UNL     1      -8.873   9.556  66.847  1.00  0.00    -0.127 C  
HETATM    8  O   UNL     1      -8.576   8.743  65.962  1.00  0.00    -0.132 OA 
HETATM    9  O   UNL     1      -8.280  13.395  66.967  1.00  0.00    -0.142 OA 
HETATM   10  C   UNL     1     -11.451  11.911  66.671  1.00  0.00    -0.382 C  
HETATM   11  C   UNL     1      -9.479  13.184  67.512  1.00  0.00    -0.212 C  
HETATM   12  O   UNL     1     -10.060  14.054  68.142  1.00  0.00    -0.231 OA 
ENDROOT
BRANCH   7  13
HETATM   13  C   UNL     1      -8.710   9.081  68.335  1.00  0.00    -0.130 C  
BRANCH  13  14
HETATM   14  C   UNL     1      -7.692   7.960  68.671  1.00  0.00    -0.113 C  
BRANCH  14  15
HETATM   15  C   UNL     1      -8.224   6.550  68.341  1.00  0.00    -0.114 C  
BRANCH  15  16
HETATM   16  C   UNL     1      -7.269   5.707  67.482  1.00  0.00    -0.076 C  
BRANCH  16  17
HETATM   17  N   UNL     1      -7.274   4.348  67.989  1.00  0.00    -0.064 NA 
HETATM   18  H2  UNL     1      -7.206   2.164  69.093  1.00  0.00     0.000 HD 
HETATM   19  H1  UNL     1      -6.363   1.376  67.705  1.00  0.00     0.000 HD 
HETATM   20  N   UNL     1      -6.177   3.202  66.226  1.00  0.00    -0.024 NA 
HETATM   21  N   UNL     1      -6.786   2.184  68.164  1.00  0.00    -0.035 NA 
HETATM   22  C   UNL     1      -6.715   3.279  67.383  1.00  0.00    -0.045 C  
HETATM   23  H   UNL     1      -7.740   4.186  68.883  1.00  0.00     0.000 HD 
HETATM   24  H1  UNL     1      -5.754   2.394  65.767  1.00  0.00     0.000 HD 
HETATM   25  H2  UNL     1      -6.168   4.067  65.686  1.00  0.00     0.000 HD 
ENDBRANCH  16  17
ENDBRANCH  15  16
ENDBRANCH  14  15
ENDBRANCH  13  14
BRANCH  13  26
HETATM   26  N   UNL     1     -10.005   8.745  68.988  1.00  0.00    -0.186 N  
HETATM   27  H   UNL     1     -10.641   8.068  68.565  1.00  0.00     0.000 HD 
BRANCH  26  28
HETATM   28  S   UNL     1     -10.406   9.513  70.460  1.00  0.00    -0.303 S  
HETATM   29  O   UNL     1     -11.084  10.745  70.152  1.00  0.00    -0.281 OA 
HETATM   30  O   UNL     1      -9.177   9.526  71.226  1.00  0.00    -0.237 OA 
BRANCH  28  31
HETATM   31  C   UNL     1     -11.532   8.359  71.200  1.00  0.00    -0.274 A  
HETATM   32  C   UNL     1     -11.695   4.897  72.813  1.00  0.00    -0.092 C  
HETATM   33  C   UNL     1     -12.892   8.709  71.207  1.00  0.00    -0.220 A  
HETATM   34  C   UNL     1      -9.874   3.169  73.027  1.00  0.00    -0.184 C  
HETATM   35  C   UNL     1     -13.835   7.848  71.759  1.00  0.00    -0.449 A  
HETATM   36  C   UNL     1     -10.327   4.434  72.303  1.00  0.00    -0.230 C  
HETATM   37  C   UNL     1      -9.341   5.579  72.491  1.00  0.00    -0.142 C  
HETATM   38  H   UNL     1      -9.066   7.250  71.134  1.00  0.00     0.000 HD 
HETATM   39  N   UNL     1      -9.743   6.741  71.702  1.00  0.00    -0.163 NA 
HETATM   40  C   UNL     1     -13.423   6.638  72.305  1.00  0.00     0.194 A  
HETATM   41  C   UNL     1     -11.090   7.137  71.748  1.00  0.00    -0.236 A  
HETATM   42  C   UNL     1     -12.065   6.270  72.294  1.00  0.00    -0.255 A  
ENDBRANCH  28  31
ENDBRANCH  26  28
ENDBRANCH  13  26
ENDBRANCH   7  13
TORSDOF 8
ENDMDL
MODEL      300
REMARK 921   NORMALIZED FREE ENERGY PREDICTED BY IDOCK:   -4.35 KCAL/MOL
REMARK 922        TOTAL FREE ENERGY PREDICTED BY IDOCK:   -7.63 KCAL/MOL
REMARK 923 INTER-LIGAND FREE ENERGY PREDICTED BY IDOCK:   -6.06 KCAL/MOL
REMARK 924 INTRA-LIGAND FREE ENERGY PREDICTED BY IDOCK:   -1.57 KCAL/MOL
REMARK 927      BINDING AFFINITY PREDICTED BY RF-SCORE:    0.00 PKD
ROOT
HETATM    1  C   UNL     1     -12.774  12.823  64.388  1.00  0.00    -0.370 C  
HETATM    2  C   UNL     1     -11.370  12.551  64.910  1.00  0.00    -0.351 C  
HETATM    3  C   UNL     1     -10.601  11.587  63.999  1.00  0.00    -0.437 C  
HETATM    4  C   UNL     1      -9.211  11.287  64.559  1.00  0.00    -0.056 C  
HETATM    5  N   UNL     1      -9.227  10.880  65.991  1.00  0.00    -0.181 N  
HETATM    6  C   UNL     1     -10.004  11.767  66.884  1.00  0.00    -0.199 C  
HETATM    7  C   UNL     1      -8.894   9.549  66.280  1.00  0.00    -0.149 C  
HETATM    8  O   UNL     1      -8.639   8.790  65.335  1.00  0.00    -0.159 OA 
HETATM    9  O   UNL     1      -8.207  13.358  66.635  1.00  0.00     0.080 OA 
HETATM   10  C   UNL     1     -11.419  11.967  66.330  1.00  0.00    -0.408 C  
HETATM   11  C   UNL     1      -9.396  13.138  67.199  1.00  0.00    -0.235 C  
HETATM   12  O   UNL     1      -9.940  13.977  67.900  1.00  0.00    -0.227 OA 
ENDROOT
BRANCH   7  13
HETATM   13  C   UNL     1      -8.703   8.973  67.729  1.00  0.00    -0.125 C  
BRANCH  13  14
HETATM   14  C   UNL     1      -7.627   7.885  67.982  1.00  0.00    -0.113 C  
BRANCH  14  15
HETATM   15  C   UNL     1      -8.218   6.462  68.049  1.00  0.00    -0.116 C  
BRANCH  15  16
HETATM   16  C   UNL     1      -7.651   5.603  69.189  1.00  0.00    -0.088 C  
BRANCH  16  17
HETATM   17  N   UNL     1      -8.652   4.622  69.565  1.00  0.00    -0.081 NA 
HETATM   18  H2  UNL     1     -10.505   3.184  70.265  1.00  0.00     0.000 HD 
HETATM   19  H1  UNL     1      -9.422   2.057  71.169  1.00  0.00     0.000 HD 
HETATM   20  N   UNL     1      -7.329   3.067  70.775  1.00  0.00    -0.033 NA 
HETATM   21  N   UNL     1      -9.587   2.884  70.594  1.00  0.00    -0.146 NA 
HETATM   22  C   UNL     1      -8.434   3.528  70.326  1.00  0.00    -0.056 C  
HETATM   23  H   UNL     1      -9.603   4.772  69.226  1.00  0.00     0.000 HD 
HETATM   24  H1  UNL     1      -7.164   2.240  71.350  1.00  0.00     0.000 HD 
HETATM   25  H2  UNL     1      -6.497   3.600  70.524  1.00  0.00     0.000 HD 
ENDBRANCH  16  17
ENDBRANCH  15  16
ENDBRANCH  14  15
ENDBRANCH  13  14
BRANCH  13  26
HETATM   26  N   UNL     1      -9.978   8.521  68.352  1.00  0.00    -0.181 N  
HETATM   27  H   UNL     1     -10.511   7.752  67.946  1.00  0.00     0.000 HD 
BRANCH  26  28
HETATM   28  S   UNL     1     -10.530   9.313  69.760  1.00  0.00    -0.232 S  
HETATM   29  O   UNL     1     -11.821   9.882  69.476  1.00  0.00    -0.014 OA 
HETATM   30  O   UNL     1      -9.431  10.162  70.171  1.00  0.00    -0.147 OA 
BRANCH  28  31
HETATM   31  C   UNL     1     -10.687   7.976  70.915  1.00  0.00    -0.221 A  
HETATM   32  C   UNL     1      -8.701   5.916  73.451  1.00  0.00    -0.120 C  
HETATM   33  C   UNL     1     -11.929   7.324  70.972  1.00  0.00    -0.362 A  
HETATM   34  C   UNL     1      -6.231   5.977  73.944  1.00  0.00    -0.065 C  
HETATM   35  C   UNL     1     -12.122   6.258  71.845  1.00  0.00    -0.311 A  
HETATM   36  C   UNL     1      -7.322   6.354  72.946  1.00  0.00    -0.094 C  
HETATM   37  C   UNL     1      -7.367   7.854  72.693  1.00  0.00    -0.097 C  
HETATM   38  H   UNL     1      -8.115   8.815  70.896  1.00  0.00     0.000 HD 
HETATM   39  N   UNL     1      -8.345   8.173  71.656  1.00  0.00    -0.119 NA 
HETATM   40  C   UNL     1     -11.078   5.843  72.663  1.00  0.00    -0.322 A  
HETATM   41  C   UNL     1      -9.612   7.573  71.735  1.00  0.00    -0.152 A  
HETATM   42  C   UNL     1      -9.825   6.480  72.608  1.00  0.00    -0.179 A  
ENDBRANCH  28  31
ENDBRANCH  26  28
ENDBRANCH  13  26
ENDBRANCH   7  13
TORSDOF 8
ENDMDL
MODEL      301
REMARK 921   NORMALIZED FREE ENERGY PREDICTED BY IDOCK:   -4.35 KCAL/MOL
REMARK 922        TOTAL FREE ENERGY PREDICTED BY IDOCK:   -7.63 KCAL/MOL
REMARK 923 INTER-LIGAND FREE ENERGY PREDICTED BY IDOCK:   -6.95 KCAL/MOL
REMARK 924 INTRA-LIGAND FREE ENERGY PREDICTED BY IDOCK:   -0.68 KCAL/MOL
REMARK 927      BINDING AFFINITY PREDICTED BY RF-SCORE:    0.00 PKD
ROOT
HETATM    1  C   UNL     1     -13.102  14.369  71.807  1.00  0.00    -0.428 C  
HETATM    2  C   UNL     1     -12.637  13.571  70.598  1.00  0.00    -0.345 C  
HETATM    3  C   UNL     1     -12.435  12.090  70.935  1.00  0.00    -0.384 C  
HETATM    4  C   UNL     1     -11.925  11.310  69.724  1.00  0.00    -0.360 C  
HETATM    5  N   UNL     1     -10.748  11.944  69.067  1.00  0.00    -0.194 N  
HETATM    6  C   UNL     1     -10.898  13.386  68.775  1.00  0.00    -0.246 C  
HETATM    7  C   UNL     1      -9.522  11.274  69.171  1.00  0.00     0.085 C  
HETATM    8  O   UNL     1      -9.482  10.220  69.821  1.00  0.00    -0.191 OA 
HETATM    9  O   UNL     1     -12.406  12.728  67.010  1.00  0.00    -0.387 OA 
HETATM   10  C   UNL     1     -11.324  14.140  70.040  1.00  0.00    -0.195 C  
HETATM   11  C   UNL     1     -11.842  13.766  67.629  1.00  0.00    -0.378 C  
HETATM   12  O   UNL     1     -12.077  14.917  67.297  1.00  0.00    -0.246 OA 
ENDROOT
BRANCH   7  13
HETATM   13  C   UNL     1      -8.209  11.698  68.420  1.00  0.00    -0.155 C  
BRANCH  13  14
HETATM   14  C   UNL     1      -8.306  12.612  67.170  1.00  0.00    -0.172 C  
BRANCH  14  15
HETATM   15  C   UNL     1      -7.825  14.052  67.444  1.00  0.00    -0.188 C  
BRANCH  15  16
HETATM   16  C   UNL     1      -8.546  15.120  66.609  1.00  0.00    -0.243 C  
BRANCH  16  17
HETATM   17  N   UNL     1      -9.061  16.136  67.508  1.00  0.00    -0.201 NA 
HETATM   18  H2  UNL     1     -10.067  17.642  69.154  1.00  0.00     0.000 HD 
HETATM   19  H1  UNL     1     -10.453  18.899  67.918  1.00  0.00     0.000 HD 
HETATM   20  N   UNL     1      -9.607  17.864  65.977  1.00  0.00    -0.529 NA 
HETATM   21  N   UNL     1     -10.070  17.996  68.198  1.00  0.00    -0.351 NA 
HETATM   22  C   UNL     1      -9.568  17.331  67.138  1.00  0.00    -0.257 C  
HETATM   23  H   UNL     1      -9.037  15.929  68.507  1.00  0.00     0.000 HD 
HETATM   24  H1  UNL     1      -9.990  18.767  65.697  1.00  0.00     0.000 HD 
HETATM   25  H2  UNL     1      -9.199  17.308  65.225  1.00  0.00     0.000 HD 
ENDBRANCH  16  17
ENDBRANCH  15  16
ENDBRANCH  14  15
ENDBRANCH  13  14
BRANCH  13  26
HETATM   26  N   UNL     1      -7.326  10.546  68.087  1.00  0.00    -0.087 N  
HETATM   27  H   UNL     1      -6.508  10.335  68.659  1.00  0.00     0.000 HD 
BRANCH  26  28
HETATM   28  S   UNL     1      -7.709   9.583  66.730  1.00  0.00    -0.098 S  
HETATM   29  O   UNL     1      -6.669   9.756  65.750  1.00  0.00    -0.084 OA 
HETATM   30  O   UNL     1      -9.081   9.917  66.407  1.00  0.00    -0.144 OA 
BRANCH  28  31
HETATM   31  C   UNL     1      -7.659   7.941  67.399  1.00  0.00    -0.097 A  
HETATM   32  C   UNL     1      -8.255   4.278  66.482  1.00  0.00    -0.102 C  
HETATM   33  C   UNL     1      -7.353   7.817  68.764  1.00  0.00    -0.087 A  
HETATM   34  C   UNL     1      -9.186   3.318  64.346  1.00  0.00    -0.134 C  
HETATM   35  C   UNL     1      -7.308   6.561  69.361  1.00  0.00    -0.092 A  
HETATM   36  C   UNL     1      -9.040   4.575  65.200  1.00  0.00    -0.150 C  
HETATM   37  C   UNL     1      -8.319   5.688  64.452  1.00  0.00    -0.093 C  
HETATM   38  H   UNL     1      -8.523   7.814  64.839  1.00  0.00     0.000 HD 
HETATM   39  N   UNL     1      -8.288   6.910  65.251  1.00  0.00    -0.127 NA 
HETATM   40  C   UNL     1      -7.567   5.428  68.598  1.00  0.00    -0.083 A  
HETATM   41  C   UNL     1      -7.926   6.807  66.604  1.00  0.00    -0.108 A  
HETATM   42  C   UNL     1      -7.886   5.540  67.232  1.00  0.00    -0.101 A  
ENDBRANCH  28  31
ENDBRANCH  26  28
ENDBRANCH  13  26
ENDBRANCH   7  13
TORSDOF 8
ENDMDL
MODEL      302
REMARK 921   NORMALIZED FREE ENERGY PREDICTED BY IDOCK:   -4.34 KCAL/MOL
REMARK 922        TOTAL FREE ENERGY PREDICTED BY IDOCK:   -7.62 KCAL/MOL
REMARK 923 INTER-LIGAND FREE ENERGY PREDICTED BY IDOCK:   -6.69 KCAL/MOL
REMARK 924 INTRA-LIGAND FREE ENERGY PREDICTED BY IDOCK:   -0.93 KCAL/MOL
REMARK 927      BINDING AFFINITY PREDICTED BY RF-SCORE:    0.00 PKD
ROOT
HETATM    1  C   UNL     1     -13.155  14.416  72.230  1.00  0.00    -0.474 C  
HETATM    2  C   UNL     1     -12.860  13.656  70.944  1.00  0.00    -0.321 C  
HETATM    3  C   UNL     1     -12.999  12.142  71.133  1.00  0.00    -0.240 C  
HETATM    4  C   UNL     1     -12.656  11.390  69.847  1.00  0.00    -0.027 C  
HETATM    5  N   UNL     1     -11.356  11.805  69.250  1.00  0.00    -0.269 N  
HETATM    6  C   UNL     1     -11.176  13.266  69.102  1.00  0.00    -0.251 C  
HETATM    7  C   UNL     1     -10.312  10.871  69.279  1.00  0.00    -0.187 C  
HETATM    8  O   UNL     1     -10.519   9.777  69.822  1.00  0.00    -0.215 OA 
HETATM    9  O   UNL     1     -12.763  13.138  67.289  1.00  0.00     0.114 OA 
HETATM   10  C   UNL     1     -11.444  13.969  70.438  1.00  0.00    -0.107 C  
HETATM   11  C   UNL     1     -11.992  13.958  68.006  1.00  0.00    -0.355 C  
HETATM   12  O   UNL     1     -11.959  15.159  67.791  1.00  0.00    -0.250 OA 
ENDROOT
BRANCH   7  13
HETATM   13  C   UNL     1      -8.926  11.063  68.567  1.00  0.00    -0.163 C  
BRANCH  13  14
HETATM   14  C   UNL     1      -8.877  11.675  67.142  1.00  0.00    -0.172 C  
BRANCH  14  15
HETATM   15  C   UNL     1      -8.374  13.133  67.134  1.00  0.00    -0.146 C  
BRANCH  15  16
HETATM   16  C   UNL     1      -9.145  14.054  66.176  1.00  0.00     0.077 C  
BRANCH  16  17
HETATM   17  N   UNL     1      -9.802  13.231  65.177  1.00  0.00    -0.534 NA 
HETATM   18  H2  UNL     1     -10.652  11.786  63.394  1.00  0.00     0.000 HD 
HETATM   19  H1  UNL     1     -11.984  12.927  62.967  1.00  0.00     0.000 HD 
HETATM   20  N   UNL     1     -11.595  14.645  64.533  1.00  0.00    -0.572 NA 
HETATM   21  N   UNL     1     -11.172  12.654  63.521  1.00  0.00    -0.464 NA 
HETATM   22  C   UNL     1     -10.876  13.591  64.443  1.00  0.00    -0.389 C  
HETATM   23  H   UNL     1      -9.418  12.299  65.015  1.00  0.00     0.000 HD 
HETATM   24  H1  UNL     1     -12.407  14.917  63.979  1.00  0.00     0.000 HD 
HETATM   25  H2  UNL     1     -11.319  15.304  65.260  1.00  0.00     0.000 HD 
ENDBRANCH  16  17
ENDBRANCH  15  16
ENDBRANCH  14  15
ENDBRANCH  13  14
BRANCH  13  26
HETATM   26  N   UNL     1      -8.089   9.831  68.573  1.00  0.00    -0.103 N  
HETATM   27  H   UNL     1      -7.429   9.654  69.330  1.00  0.00     0.000 HD 
BRANCH  26  28
HETATM   28  S   UNL     1      -8.256   8.719  67.288  1.00  0.00    -0.104 S  
HETATM   29  O   UNL     1      -7.094   8.831  66.445  1.00  0.00    -0.080 OA 
HETATM   30  O   UNL     1      -9.577   8.962  66.748  1.00  0.00    -0.169 OA 
BRANCH  28  31
HETATM   31  C   UNL     1      -8.257   7.158  68.130  1.00  0.00    -0.124 A  
HETATM   32  C   UNL     1      -8.580   3.396  67.534  1.00  0.00    -0.117 C  
HETATM   33  C   UNL     1      -8.165   7.188  69.531  1.00  0.00    -0.132 A  
HETATM   34  C   UNL     1      -9.131   2.179  65.398  1.00  0.00    -0.102 C  
HETATM   35  C   UNL     1      -8.172   6.004  70.260  1.00  0.00    -0.119 A  
HETATM   36  C   UNL     1      -9.162   3.521  66.123  1.00  0.00    -0.173 C  
HETATM   37  C   UNL     1      -8.370   4.587  65.378  1.00  0.00    -0.117 C  
HETATM   38  H   UNL     1      -8.703   6.728  65.497  1.00  0.00     0.000 HD 
HETATM   39  N   UNL     1      -8.506   5.884  66.036  1.00  0.00    -0.131 NA 
HETATM   40  C   UNL     1      -8.270   4.788  69.594  1.00  0.00    -0.072 A  
HETATM   41  C   UNL     1      -8.357   5.937  67.431  1.00  0.00    -0.105 A  
HETATM   42  C   UNL     1      -8.375   4.744  68.191  1.00  0.00    -0.098 A  
ENDBRANCH  28  31
ENDBRANCH  26  28
ENDBRANCH  13  26
ENDBRANCH   7  13
TORSDOF 8
ENDMDL
MODEL      303
REMARK 921   NORMALIZED FREE ENERGY PREDICTED BY IDOCK:   -4.32 KCAL/MOL
REMARK 922        TOTAL FREE ENERGY PREDICTED BY IDOCK:   -7.59 KCAL/MOL
REMARK 923 INTER-LIGAND FREE ENERGY PREDICTED BY IDOCK:   -6.51 KCAL/MOL
REMARK 924 INTRA-LIGAND FREE ENERGY PREDICTED BY IDOCK:   -1.08 KCAL/MOL
REMARK 927      BINDING AFFINITY PREDICTED BY RF-SCORE:    0.00 PKD
ROOT
HETATM    1  C   UNL     1      -5.462  14.152  68.042  1.00  0.00    -0.120 C  
HETATM    2  C   UNL     1      -5.851  12.683  68.129  1.00  0.00    -0.075 C  
HETATM    3  C   UNL     1      -6.264  12.121  66.765  1.00  0.00     0.125 C  
HETATM    4  C   UNL     1      -6.694  10.658  66.876  1.00  0.00    -0.091 C  
HETATM    5  N   UNL     1      -7.693  10.418  67.953  1.00  0.00    -0.089 N  
HETATM    6  C   UNL     1      -7.342  10.994  69.270  1.00  0.00    -0.113 C  
HETATM    7  C   UNL     1      -8.991  10.070  67.554  1.00  0.00    -0.134 C  
HETATM    8  O   UNL     1      -9.237  10.013  66.342  1.00  0.00    -0.149 OA 
HETATM    9  O   UNL     1      -5.699   9.236  69.444  1.00  0.00    -0.035 OA 
HETATM   10  C   UNL     1      -7.005  12.482  69.123  1.00  0.00    -0.025 C  
HETATM   11  C   UNL     1      -6.218  10.305  70.050  1.00  0.00    -0.088 C  
HETATM   12  O   UNL     1      -5.811  10.688  71.135  1.00  0.00    -0.293 OA 
ENDROOT
BRANCH   7  13
HETATM   13  C   UNL     1     -10.136   9.628  68.534  1.00  0.00    -0.175 C  
BRANCH  13  14
HETATM   14  C   UNL     1     -10.573  10.582  69.678  1.00  0.00    -0.281 C  
BRANCH  14  15
HETATM   15  C   UNL     1     -11.845  11.383  69.335  1.00  0.00    -0.419 C  
BRANCH  15  16
HETATM   16  C   UNL     1     -11.592  12.602  68.435  1.00  0.00    -0.328 C  
BRANCH  16  17
HETATM   17  N   UNL     1     -12.010  12.271  67.085  1.00  0.00    -0.576 NA 
HETATM   18  H2  UNL     1     -12.538  11.496  64.824  1.00  0.00     0.000 HD 
HETATM   19  H1  UNL     1     -12.497  13.164  64.134  1.00  0.00     0.000 HD 
HETATM   20  N   UNL     1     -11.996  14.415  66.068  1.00  0.00    -0.385 NA 
HETATM   21  N   UNL     1     -12.414  12.505  64.909  1.00  0.00    -0.549 NA 
HETATM   22  C   UNL     1     -12.120  13.143  66.059  1.00  0.00    -0.436 C  
HETATM   23  H   UNL     1     -12.241  11.296  66.895  1.00  0.00     0.000 HD 
HETATM   24  H1  UNL     1     -12.079  15.074  65.293  1.00  0.00     0.000 HD 
HETATM   25  H2  UNL     1     -11.783  14.830  66.975  1.00  0.00     0.000 HD 
ENDBRANCH  16  17
ENDBRANCH  15  16
ENDBRANCH  14  15
ENDBRANCH  13  14
BRANCH  13  26
HETATM   26  N   UNL     1      -9.920   8.274  69.116  1.00  0.00    -0.190 N  
HETATM   27  H   UNL     1      -9.419   8.161  69.997  1.00  0.00     0.000 HD 
BRANCH  26  28
HETATM   28  S   UNL     1     -10.527   6.916  68.279  1.00  0.00    -0.216 S  
HETATM   29  O   UNL     1     -11.153   7.378  67.068  1.00  0.00    -0.268 OA 
HETATM   30  O   UNL     1     -11.293   6.178  69.262  1.00  0.00    -0.416 OA 
BRANCH  28  31
HETATM   31  C   UNL     1      -9.051   6.007  67.900  1.00  0.00    -0.117 A  
HETATM   32  C   UNL     1      -7.610   3.457  65.445  1.00  0.00    -0.077 C  
HETATM   33  C   UNL     1      -7.967   6.157  68.780  1.00  0.00    -0.101 A  
HETATM   34  C   UNL     1      -8.788   2.195  63.609  1.00  0.00    -0.089 C  
HETATM   35  C   UNL     1      -6.781   5.466  68.554  1.00  0.00    -0.054 A  
HETATM   36  C   UNL     1      -8.965   3.010  64.887  1.00  0.00    -0.132 C  
HETATM   37  C   UNL     1      -9.813   4.253  64.655  1.00  0.00    -0.139 C  
HETATM   38  H   UNL     1     -10.989   5.285  66.158  1.00  0.00     0.000 HD 
HETATM   39  N   UNL     1     -10.056   4.955  65.912  1.00  0.00    -0.213 NA 
HETATM   40  C   UNL     1      -6.673   4.627  67.451  1.00  0.00    -0.051 A  
HETATM   41  C   UNL     1      -8.967   5.162  66.774  1.00  0.00    -0.113 A  
HETATM   42  C   UNL     1      -7.756   4.460  66.568  1.00  0.00    -0.094 A  
ENDBRANCH  28  31
ENDBRANCH  26  28
ENDBRANCH  13  26
ENDBRANCH   7  13
TORSDOF 8
ENDMDL
MODEL      304
REMARK 921   NORMALIZED FREE ENERGY PREDICTED BY IDOCK:   -4.32 KCAL/MOL
REMARK 922        TOTAL FREE ENERGY PREDICTED BY IDOCK:   -7.58 KCAL/MOL
REMARK 923 INTER-LIGAND FREE ENERGY PREDICTED BY IDOCK:   -5.90 KCAL/MOL
REMARK 924 INTRA-LIGAND FREE ENERGY PREDICTED BY IDOCK:   -1.69 KCAL/MOL
REMARK 927      BINDING AFFINITY PREDICTED BY RF-SCORE:    0.00 PKD
ROOT
HETATM    1  C   UNL     1     -11.620  13.044  67.552  1.00  0.00    -0.405 C  
HETATM    2  C   UNL     1     -11.378  11.586  67.915  1.00  0.00    -0.372 C  
HETATM    3  C   UNL     1     -12.020  11.220  69.258  1.00  0.00    -0.411 C  
HETATM    4  C   UNL     1     -11.730   9.766  69.631  1.00  0.00     0.104 C  
HETATM    5  N   UNL     1     -10.288   9.408  69.536  1.00  0.00    -0.204 N  
HETATM    6  C   UNL     1      -9.631   9.796  68.268  1.00  0.00    -0.143 C  
HETATM    7  C   UNL     1      -9.614   9.148  70.736  1.00  0.00    -0.275 C  
HETATM    8  O   UNL     1     -10.242   9.258  71.798  1.00  0.00    -0.311 OA 
HETATM    9  O   UNL     1     -10.862   7.992  67.241  1.00  0.00    -0.261 OA 
HETATM   10  C   UNL     1      -9.874  11.282  67.980  1.00  0.00    -0.186 C  
HETATM   11  C   UNL     1      -9.996   8.984  67.021  1.00  0.00    -0.230 C  
HETATM   12  O   UNL     1      -9.549   9.210  65.908  1.00  0.00    -0.253 OA 
ENDROOT
BRANCH   7  13
HETATM   13  C   UNL     1      -8.142   8.607  70.832  1.00  0.00    -0.136 C  
BRANCH  13  14
HETATM   14  C   UNL     1      -7.023   9.289  70.002  1.00  0.00    -0.060 C  
BRANCH  14  15
HETATM   15  C   UNL     1      -6.283   8.304  69.073  1.00  0.00    -0.043 C  
BRANCH  15  16
HETATM   16  C   UNL     1      -6.126   8.806  67.630  1.00  0.00    -0.048 C  
BRANCH  16  17
HETATM   17  N   UNL     1      -6.073  10.256  67.651  1.00  0.00    -0.056 NA 
HETATM   18  H2  UNL     1      -6.176  12.690  67.891  1.00  0.00     0.000 HD 
HETATM   19  H1  UNL     1      -6.180  12.966  66.107  1.00  0.00     0.000 HD 
HETATM   20  N   UNL     1      -6.071  10.744  65.329  1.00  0.00    -0.338 NA 
HETATM   21  N   UNL     1      -6.158  12.358  66.926  1.00  0.00    -0.220 NA 
HETATM   22  C   UNL     1      -6.101  11.061  66.567  1.00  0.00    -0.134 C  
HETATM   23  H   UNL     1      -6.008  10.707  68.565  1.00  0.00     0.000 HD 
HETATM   24  H1  UNL     1      -6.093  11.352  64.510  1.00  0.00     0.000 HD 
HETATM   25  H2  UNL     1      -6.018   9.745  65.133  1.00  0.00     0.000 HD 
ENDBRANCH  16  17
ENDBRANCH  15  16
ENDBRANCH  14  15
ENDBRANCH  13  14
BRANCH  13  26
HETATM   26  N   UNL     1      -8.044   7.135  70.626  1.00  0.00    -0.111 N  
HETATM   27  H   UNL     1      -8.180   6.730  69.700  1.00  0.00     0.000 HD 
BRANCH  26  28
HETATM   28  S   UNL     1      -7.699   6.139  71.969  1.00  0.00    -0.098 S  
HETATM   29  O   UNL     1      -8.310   6.727  73.132  1.00  0.00    -0.114 OA 
HETATM   30  O   UNL     1      -6.266   5.929  71.923  1.00  0.00    -0.041 OA 
BRANCH  28  31
HETATM   31  C   UNL     1      -8.516   4.624  71.542  1.00  0.00    -0.111 A  
HETATM   32  C   UNL     1      -9.320   2.347  68.579  1.00  0.00    -0.252 C  
HETATM   33  C   UNL     1      -9.194   3.953  72.572  1.00  0.00    -0.149 A  
HETATM   34  C   UNL     1      -8.888   2.736  66.127  1.00  0.00    -0.140 C  
HETATM   35  C   UNL     1      -9.869   2.765  72.310  1.00  0.00    -0.234 A  
HETATM   36  C   UNL     1      -8.997   3.388  67.503  1.00  0.00    -0.173 C  
HETATM   37  C   UNL     1      -7.707   4.093  67.901  1.00  0.00    -0.071 C  
HETATM   38  H   UNL     1      -7.547   5.757  69.285  1.00  0.00     0.000 HD 
HETATM   39  N   UNL     1      -7.875   4.797  69.169  1.00  0.00    -0.071 NA 
HETATM   40  C   UNL     1      -9.867   2.244  71.021  1.00  0.00    -0.067 A  
HETATM   41  C   UNL     1      -8.499   4.116  70.226  1.00  0.00    -0.068 A  
HETATM   42  C   UNL     1      -9.200   2.912  69.978  1.00  0.00    -0.211 A  
ENDBRANCH  28  31
ENDBRANCH  26  28
ENDBRANCH  13  26
ENDBRANCH   7  13
TORSDOF 8
ENDMDL
MODEL      305
REMARK 921   NORMALIZED FREE ENERGY PREDICTED BY IDOCK:   -4.30 KCAL/MOL
REMARK 922        TOTAL FREE ENERGY PREDICTED BY IDOCK:   -7.56 KCAL/MOL
REMARK 923 INTER-LIGAND FREE ENERGY PREDICTED BY IDOCK:   -6.03 KCAL/MOL
REMARK 924 INTRA-LIGAND FREE ENERGY PREDICTED BY IDOCK:   -1.54 KCAL/MOL
REMARK 927      BINDING AFFINITY PREDICTED BY RF-SCORE:    0.00 PKD
ROOT
HETATM    1  C   UNL     1      -8.782   3.672  62.669  1.00  0.00    -0.089 C  
HETATM    2  C   UNL     1      -8.728   4.017  64.150  1.00  0.00    -0.116 C  
HETATM    3  C   UNL     1     -10.092   3.845  64.827  1.00  0.00    -0.203 C  
HETATM    4  C   UNL     1     -10.032   4.239  66.303  1.00  0.00    -0.211 C  
HETATM    5  N   UNL     1      -9.411   5.572  66.532  1.00  0.00    -0.142 N  
HETATM    6  C   UNL     1      -8.116   5.784  65.849  1.00  0.00    -0.113 C  
HETATM    7  C   UNL     1     -10.251   6.598  66.985  1.00  0.00    -0.223 C  
HETATM    8  O   UNL     1     -11.454   6.347  67.138  1.00  0.00    -0.182 OA 
HETATM    9  O   UNL     1      -7.167   4.286  67.487  1.00  0.00    -0.066 OA 
HETATM   10  C   UNL     1      -8.246   5.462  64.356  1.00  0.00    -0.133 C  
HETATM   11  C   UNL     1      -6.904   5.035  66.414  1.00  0.00    -0.062 C  
HETATM   12  O   UNL     1      -5.783   5.098  65.934  1.00  0.00    -0.017 OA 
ENDROOT
BRANCH   7  13
HETATM   13  C   UNL     1      -9.758   8.021  67.431  1.00  0.00    -0.166 C  
BRANCH  13  14
HETATM   14  C   UNL     1      -9.709   8.374  68.941  1.00  0.00    -0.168 C  
BRANCH  14  15
HETATM   15  C   UNL     1      -9.521   7.134  69.839  1.00  0.00    -0.153 C  
BRANCH  15  16
HETATM   16  C   UNL     1      -8.528   7.342  70.992  1.00  0.00    -0.127 C  
BRANCH  16  17
HETATM   17  N   UNL     1      -8.136   8.739  71.014  1.00  0.00    -0.141 NA 
HETATM   18  H2  UNL     1      -7.732  11.152  70.953  1.00  0.00     0.000 HD 
HETATM   19  H1  UNL     1      -6.084  10.960  70.241  1.00  0.00     0.000 HD 
HETATM   20  N   UNL     1      -5.954   8.612  70.090  1.00  0.00    -0.030 NA 
HETATM   21  N   UNL     1      -6.963  10.584  70.598  1.00  0.00    -0.224 NA 
HETATM   22  C   UNL     1      -6.973   9.238  70.541  1.00  0.00    -0.093 C  
HETATM   23  H   UNL     1      -8.796   9.402  71.421  1.00  0.00     0.000 HD 
HETATM   24  H1  UNL     1      -5.075   8.988  69.732  1.00  0.00     0.000 HD 
HETATM   25  H2  UNL     1      -6.029   7.595  70.086  1.00  0.00     0.000 HD 
ENDBRANCH  16  17
ENDBRANCH  15  16
ENDBRANCH  14  15
ENDBRANCH  13  14
BRANCH  13  26
HETATM   26  N   UNL     1     -10.448   9.131  66.717  1.00  0.00    -0.231 N  
HETATM   27  H   UNL     1     -11.431   9.336  66.900  1.00  0.00     0.000 HD 
BRANCH  26  28
HETATM   28  S   UNL     1      -9.564  10.055  65.585  1.00  0.00    -0.272 S  
HETATM   29  O   UNL     1     -10.491  10.598  64.628  1.00  0.00    -0.336 OA 
HETATM   30  O   UNL     1      -8.487   9.189  65.151  1.00  0.00    -0.147 OA 
BRANCH  28  31
HETATM   31  C   UNL     1      -8.889  11.350  66.592  1.00  0.00    -0.183 A  
HETATM   32  C   UNL     1      -9.879  14.422  68.639  1.00  0.00    -0.231 C  
HETATM   33  C   UNL     1      -7.491  11.400  66.714  1.00  0.00    -0.137 A  
HETATM   34  C   UNL     1     -12.141  15.512  68.856  1.00  0.00    -0.219 C  
HETATM   35  C   UNL     1      -6.889  12.395  67.478  1.00  0.00    -0.143 A  
HETATM   36  C   UNL     1     -11.281  14.554  68.036  1.00  0.00    -0.308 C  
HETATM   37  C   UNL     1     -11.895  13.163  67.960  1.00  0.00    -0.358 C  
HETATM   38  H   UNL     1     -11.560  11.714  66.379  1.00  0.00     0.000 HD 
HETATM   39  N   UNL     1     -11.109  12.299  67.083  1.00  0.00    -0.262 NA 
HETATM   40  C   UNL     1      -7.681  13.340  68.121  1.00  0.00    -0.143 A  
HETATM   41  C   UNL     1      -9.713  12.297  67.235  1.00  0.00    -0.195 A  
HETATM   42  C   UNL     1      -9.082  13.308  67.998  1.00  0.00    -0.202 A  
ENDBRANCH  28  31
ENDBRANCH  26  28
ENDBRANCH  13  26
ENDBRANCH   7  13
TORSDOF 8
ENDMDL
MODEL      306
REMARK 921   NORMALIZED FREE ENERGY PREDICTED BY IDOCK:   -4.30 KCAL/MOL
REMARK 922        TOTAL FREE ENERGY PREDICTED BY IDOCK:   -7.56 KCAL/MOL
REMARK 923 INTER-LIGAND FREE ENERGY PREDICTED BY IDOCK:   -5.62 KCAL/MOL
REMARK 924 INTRA-LIGAND FREE ENERGY PREDICTED BY IDOCK:   -1.94 KCAL/MOL
REMARK 927      BINDING AFFINITY PREDICTED BY RF-SCORE:    0.00 PKD
ROOT
HETATM    1  C   UNL     1     -12.341  12.875  70.362  1.00  0.00    -0.333 C  
HETATM    2  C   UNL     1     -11.156  12.073  69.843  1.00  0.00     0.124 C  
HETATM    3  C   UNL     1     -10.696  12.563  68.465  1.00  0.00    -0.263 C  
HETATM    4  C   UNL     1      -9.536  11.720  67.937  1.00  0.00    -0.191 C  
HETATM    5  N   UNL     1      -9.795  10.255  67.999  1.00  0.00    -0.149 N  
HETATM    6  C   UNL     1     -10.288   9.763  69.305  1.00  0.00    -0.215 C  
HETATM    7  C   UNL     1      -9.958   9.583  66.780  1.00  0.00    -0.233 C  
HETATM    8  O   UNL     1      -9.907  10.244  65.734  1.00  0.00    -0.224 OA 
HETATM    9  O   UNL     1      -8.043  10.106  70.122  1.00  0.00    -0.146 OA 
HETATM   10  C   UNL     1     -11.505  10.580  69.752  1.00  0.00    -0.365 C  
HETATM   11  C   UNL     1      -9.275   9.713  70.453  1.00  0.00    -0.202 C  
HETATM   12  O   UNL     1      -9.551   9.352  71.586  1.00  0.00    -0.260 OA 
ENDROOT
BRANCH   7  13
HETATM   13  C   UNL     1     -10.082   8.024  66.632  1.00  0.00    -0.259 C  
BRANCH  13  14
HETATM   14  C   UNL     1     -11.151   7.262  67.459  1.00  0.00    -0.110 C  
BRANCH  14  15
HETATM   15  C   UNL     1     -10.638   5.911  67.999  1.00  0.00    -0.321 C  
BRANCH  15  16
HETATM   16  C   UNL     1     -10.583   5.831  69.532  1.00  0.00    -0.319 C  
BRANCH  16  17
HETATM   17  N   UNL     1     -11.739   6.525  70.069  1.00  0.00    -0.584 NA 
HETATM   18  H2  UNL     1     -13.701   7.831  70.730  1.00  0.00     0.000 HD 
HETATM   19  H1  UNL     1     -13.045   8.171  72.377  1.00  0.00     0.000 HD 
HETATM   20  N   UNL     1     -10.987   7.028  72.263  1.00  0.00    -0.236 NA 
HETATM   21  N   UNL     1     -12.981   7.752  71.449  1.00  0.00    -0.316 NA 
HETATM   22  C   UNL     1     -11.823   7.080  71.297  1.00  0.00    -0.330 C  
HETATM   23  H   UNL     1     -12.559   6.600  69.467  1.00  0.00     0.000 HD 
HETATM   24  H1  UNL     1     -11.050   7.448  73.191  1.00  0.00     0.000 HD 
HETATM   25  H2  UNL     1     -10.138   6.494  72.080  1.00  0.00     0.000 HD 
ENDBRANCH  16  17
ENDBRANCH  15  16
ENDBRANCH  14  15
ENDBRANCH  13  14
BRANCH  13  26
HETATM   26  N   UNL     1      -8.782   7.315  66.786  1.00  0.00    -0.125 N  
HETATM   27  H   UNL     1      -8.615   6.702  67.584  1.00  0.00     0.000 HD 
BRANCH  26  28
HETATM   28  S   UNL     1      -7.575   7.547  65.601  1.00  0.00    -0.096 S  
HETATM   29  O   UNL     1      -6.664   8.553  66.080  1.00  0.00    -0.066 OA 
HETATM   30  O   UNL     1      -8.297   7.744  64.361  1.00  0.00    -0.089 OA 
BRANCH  28  31
HETATM   31  C   UNL     1      -6.775   5.964  65.554  1.00  0.00    -0.048 A  
HETATM   32  C   UNL     1      -5.419   3.189  67.806  1.00  0.00    -0.017 C  
HETATM   33  C   UNL     1      -6.411   5.470  64.291  1.00  0.00    -0.030 A  
HETATM   34  C   UNL     1      -5.217   3.152  70.317  1.00  0.00    -0.004 C  
HETATM   35  C   UNL     1      -5.769   4.242  64.177  1.00  0.00    -0.014 A  
HETATM   36  C   UNL     1      -5.405   4.032  69.084  1.00  0.00    -0.012 C  
HETATM   37  C   UNL     1      -6.706   4.821  69.143  1.00  0.00    -0.049 C  
HETATM   38  H   UNL     1      -7.093   6.704  68.136  1.00  0.00     0.000 HD 
HETATM   39  N   UNL     1      -6.808   5.733  68.007  1.00  0.00    -0.062 NA 
HETATM   40  C   UNL     1      -5.490   3.504  65.322  1.00  0.00    -0.010 A  
HETATM   41  C   UNL     1      -6.503   5.234  66.730  1.00  0.00    -0.041 A  
HETATM   42  C   UNL     1      -5.840   3.992  66.594  1.00  0.00    -0.023 A  
ENDBRANCH  28  31
ENDBRANCH  26  28
ENDBRANCH  13  26
ENDBRANCH   7  13
TORSDOF 8
ENDMDL
MODEL      307
REMARK 921   NORMALIZED FREE ENERGY PREDICTED BY IDOCK:   -4.28 KCAL/MOL
REMARK 922        TOTAL FREE ENERGY PREDICTED BY IDOCK:   -7.53 KCAL/MOL
REMARK 923 INTER-LIGAND FREE ENERGY PREDICTED BY IDOCK:   -6.18 KCAL/MOL
REMARK 924 INTRA-LIGAND FREE ENERGY PREDICTED BY IDOCK:   -1.35 KCAL/MOL
REMARK 927      BINDING AFFINITY PREDICTED BY RF-SCORE:    0.00 PKD
ROOT
HETATM    1  C   UNL     1      -7.617   6.025  68.627  1.00  0.00    -0.091 C  
HETATM    2  C   UNL     1      -7.245   7.288  67.864  1.00  0.00    -0.091 C  
HETATM    3  C   UNL     1      -5.922   7.884  68.358  1.00  0.00    -0.036 C  
HETATM    4  C   UNL     1      -5.584   9.176  67.614  1.00  0.00    -0.038 C  
HETATM    5  N   UNL     1      -6.709  10.151  67.585  1.00  0.00    -0.074 N  
HETATM    6  C   UNL     1      -8.010   9.590  67.159  1.00  0.00    -0.102 C  
HETATM    7  C   UNL     1      -6.553  11.329  68.327  1.00  0.00    -0.058 C  
HETATM    8  O   UNL     1      -5.511  11.476  68.982  1.00  0.00    -0.046 OA 
HETATM    9  O   UNL     1      -7.093   9.523  64.928  1.00  0.00    -0.098 OA 
HETATM   10  C   UNL     1      -8.349   8.349  67.992  1.00  0.00    -0.128 C  
HETATM   11  C   UNL     1      -8.165   9.247  65.674  1.00  0.00    -0.118 C  
HETATM   12  O   UNL     1      -9.173   8.757  65.191  1.00  0.00    -0.122 OA 
ENDROOT
BRANCH   7  13
HETATM   13  C   UNL     1      -7.553  12.539  68.298  1.00  0.00    -0.129 C  
BRANCH  13  14
HETATM   14  C   UNL     1      -8.845  12.442  67.445  1.00  0.00    -0.188 C  
BRANCH  14  15
HETATM   15  C   UNL     1     -10.119  12.298  68.303  1.00  0.00    -0.218 C  
BRANCH  15  16
HETATM   16  C   UNL     1     -11.374  12.914  67.665  1.00  0.00    -0.303 C  
BRANCH  16  17
HETATM   17  N   UNL     1     -10.960  13.752  66.555  1.00  0.00    -0.297 NA 
HETATM   18  H2  UNL     1     -10.112  15.310  64.868  1.00  0.00     0.000 HD 
HETATM   19  H1  UNL     1     -11.725  15.490  64.078  1.00  0.00     0.000 HD 
HETATM   20  N   UNL     1     -13.025  14.060  65.427  1.00  0.00    -0.743 NA 
HETATM   21  N   UNL     1     -11.107  15.099  64.790  1.00  0.00    -0.397 NA 
HETATM   22  C   UNL     1     -11.778  14.269  65.613  1.00  0.00    -0.358 C  
HETATM   23  H   UNL     1      -9.966  13.969  66.480  1.00  0.00     0.000 HD 
HETATM   24  H1  UNL     1     -13.643  14.451  64.715  1.00  0.00     0.000 HD 
HETATM   25  H2  UNL     1     -13.464  13.412  66.081  1.00  0.00     0.000 HD 
ENDBRANCH  16  17
ENDBRANCH  15  16
ENDBRANCH  14  15
ENDBRANCH  13  14
BRANCH  13  26
HETATM   26  N   UNL     1      -6.892  13.839  67.995  1.00  0.00    -0.121 N  
HETATM   27  H   UNL     1      -6.456  14.001  67.087  1.00  0.00     0.000 HD 
BRANCH  26  28
HETATM   28  S   UNL     1      -6.878  15.053  69.195  1.00  0.00    -0.145 S  
HETATM   29  O   UNL     1      -6.018  16.117  68.746  1.00  0.00    -0.107 OA 
HETATM   30  O   UNL     1      -6.593  14.356  70.433  1.00  0.00    -0.148 OA 
BRANCH  28  31
HETATM   31  C   UNL     1      -8.568  15.592  69.214  1.00  0.00    -0.262 A  
HETATM   32  C   UNL     1     -11.020  17.929  67.445  1.00  0.00    -0.089 C  
HETATM   33  C   UNL     1      -9.387  15.087  70.236  1.00  0.00     0.645 A  
HETATM   34  C   UNL     1     -10.560  19.624  65.638  1.00  0.00    -0.462 C  
HETATM   35  C   UNL     1     -10.720  15.475  70.322  1.00  0.00    -0.352 A  
HETATM   36  C   UNL     1      -9.946  18.757  66.733  1.00  0.00    -0.394 C  
HETATM   37  C   UNL     1      -8.901  17.797  66.178  1.00  0.00    -0.091 C  
HETATM   38  H   UNL     1      -7.240  16.951  67.289  1.00  0.00     0.000 HD 
HETATM   39  N   UNL     1      -8.255  17.058  67.259  1.00  0.00    -0.182 NA 
HETATM   40  C   UNL     1     -11.238  16.365  69.389  1.00  0.00    -0.267 A  
HETATM   41  C   UNL     1      -9.069  16.497  68.256  1.00  0.00    -0.214 A  
HETATM   42  C   UNL     1     -10.424  16.888  68.367  1.00  0.00    -0.355 A  
ENDBRANCH  28  31
ENDBRANCH  26  28
ENDBRANCH  13  26
ENDBRANCH   7  13
TORSDOF 8
ENDMDL
MODEL      308
REMARK 921   NORMALIZED FREE ENERGY PREDICTED BY IDOCK:   -4.27 KCAL/MOL
REMARK 922        TOTAL FREE ENERGY PREDICTED BY IDOCK:   -7.51 KCAL/MOL
REMARK 923 INTER-LIGAND FREE ENERGY PREDICTED BY IDOCK:   -6.43 KCAL/MOL
REMARK 924 INTRA-LIGAND FREE ENERGY PREDICTED BY IDOCK:   -1.08 KCAL/MOL
REMARK 927      BINDING AFFINITY PREDICTED BY RF-SCORE:    0.00 PKD
ROOT
HETATM    1  C   UNL     1     -11.099  19.177  67.448  1.00  0.00    -0.249 C  
HETATM    2  C   UNL     1     -10.471  18.052  68.259  1.00  0.00    -0.355 C  
HETATM    3  C   UNL     1      -8.944  18.167  68.305  1.00  0.00    -0.306 C  
HETATM    4  C   UNL     1      -8.324  17.007  69.084  1.00  0.00    -0.026 C  
HETATM    5  N   UNL     1      -8.814  15.672  68.641  1.00  0.00    -0.189 N  
HETATM    6  C   UNL     1     -10.285  15.549  68.540  1.00  0.00    -0.215 C  
HETATM    7  C   UNL     1      -7.896  14.841  67.985  1.00  0.00    -0.130 C  
HETATM    8  O   UNL     1      -6.752  15.271  67.787  1.00  0.00    -0.137 OA 
HETATM    9  O   UNL     1     -10.309  15.531  70.953  1.00  0.00    -0.037 OA 
HETATM   10  C   UNL     1     -10.852  16.682  67.677  1.00  0.00    -0.258 C  
HETATM   11  C   UNL     1     -11.067  15.487  69.855  1.00  0.00    -0.310 C  
HETATM   12  O   UNL     1     -12.284  15.410  69.918  1.00  0.00    -0.342 OA 
ENDROOT
BRANCH   7  13
HETATM   13  C   UNL     1      -8.175  13.348  67.585  1.00  0.00    -0.177 C  
BRANCH  13  14
HETATM   14  C   UNL     1      -9.389  13.015  66.678  1.00  0.00    -0.242 C  
BRANCH  14  15
HETATM   15  C   UNL     1     -10.281  11.898  67.258  1.00  0.00    -0.220 C  
BRANCH  15  16
HETATM   16  C   UNL     1     -10.438  10.680  66.335  1.00  0.00    -0.213 C  
BRANCH  16  17
HETATM   17  N   UNL     1      -9.605  10.882  65.164  1.00  0.00    -0.227 NA 
HETATM   18  H2  UNL     1      -8.018  11.350  63.360  1.00  0.00     0.000 HD 
HETATM   19  H1  UNL     1      -9.317  11.865  62.216  1.00  0.00     0.000 HD 
HETATM   20  N   UNL     1     -11.223  11.569  63.570  1.00  0.00    -0.674 NA 
HETATM   21  N   UNL     1      -8.995  11.524  63.123  1.00  0.00    -0.072 NA 
HETATM   22  C   UNL     1     -10.030  11.333  63.965  1.00  0.00    -0.312 C  
HETATM   23  H   UNL     1      -8.612  10.664  65.255  1.00  0.00     0.000 HD 
HETATM   24  H1  UNL     1     -11.544  11.910  62.664  1.00  0.00     0.000 HD 
HETATM   25  H2  UNL     1     -11.955  11.392  64.257  1.00  0.00     0.000 HD 
ENDBRANCH  16  17
ENDBRANCH  15  16
ENDBRANCH  14  15
ENDBRANCH  13  14
BRANCH  13  26
HETATM   26  N   UNL     1      -8.198  12.422  68.751  1.00  0.00    -0.343 N  
HETATM   27  H   UNL     1      -9.051  12.292  69.294  1.00  0.00     0.000 HD 
BRANCH  26  28
HETATM   28  S   UNL     1      -6.768  11.583  69.161  1.00  0.00    -0.116 S  
HETATM   29  O   UNL     1      -7.072  10.682  70.242  1.00  0.00    -0.230 OA 
HETATM   30  O   UNL     1      -5.762  12.612  69.327  1.00  0.00    -0.072 OA 
BRANCH  28  31
HETATM   31  C   UNL     1      -6.420  10.672  67.679  1.00  0.00    -0.057 A  
HETATM   32  C   UNL     1      -7.165   7.365  65.913  1.00  0.00    -0.066 C  
HETATM   33  C   UNL     1      -5.516  11.248  66.773  1.00  0.00    -0.115 A  
HETATM   34  C   UNL     1      -8.428   5.364  66.777  1.00  0.00    -0.107 C  
HETATM   35  C   UNL     1      -5.185  10.586  65.596  1.00  0.00    -0.098 A  
HETATM   36  C   UNL     1      -7.706   6.654  67.157  1.00  0.00    -0.100 C  
HETATM   37  C   UNL     1      -8.621   7.622  67.893  1.00  0.00    -0.122 C  
HETATM   38  H   UNL     1      -7.983   9.159  69.286  1.00  0.00     0.000 HD 
HETATM   39  N   UNL     1      -7.878   8.798  68.338  1.00  0.00    -0.103 NA 
HETATM   40  C   UNL     1      -5.756   9.350  65.319  1.00  0.00    -0.057 A  
HETATM   41  C   UNL     1      -7.014   9.418  67.422  1.00  0.00    -0.085 A  
HETATM   42  C   UNL     1      -6.656   8.756  66.224  1.00  0.00    -0.066 A  
ENDBRANCH  28  31
ENDBRANCH  26  28
ENDBRANCH  13  26
ENDBRANCH   7  13
TORSDOF 8
ENDMDL
MODEL      309
REMARK 921   NORMALIZED FREE ENERGY PREDICTED BY IDOCK:   -4.26 KCAL/MOL
REMARK 922        TOTAL FREE ENERGY PREDICTED BY IDOCK:   -7.50 KCAL/MOL
REMARK 923 INTER-LIGAND FREE ENERGY PREDICTED BY IDOCK:   -6.27 KCAL/MOL
REMARK 924 INTRA-LIGAND FREE ENERGY PREDICTED BY IDOCK:   -1.23 KCAL/MOL
REMARK 927      BINDING AFFINITY PREDICTED BY RF-SCORE:    0.00 PKD
ROOT
HETATM    1  C   UNL     1      -6.283  11.669  69.671  1.00  0.00    -0.127 C  
HETATM    2  C   UNL     1      -6.129  10.232  70.150  1.00  0.00    -0.088 C  
HETATM    3  C   UNL     1      -5.424   9.356  69.109  1.00  0.00    -0.036 C  
HETATM    4  C   UNL     1      -5.317   7.908  69.585  1.00  0.00    -0.023 C  
HETATM    5  N   UNL     1      -6.610   7.348  70.067  1.00  0.00    -0.045 N  
HETATM    6  C   UNL     1      -7.336   8.198  71.036  1.00  0.00    -0.058 C  
HETATM    7  C   UNL     1      -7.200   6.343  69.289  1.00  0.00    -0.090 C  
HETATM    8  O   UNL     1      -6.633   6.003  68.241  1.00  0.00    -0.050 OA 
HETATM    9  O   UNL     1      -5.658   7.551  72.646  1.00  0.00    -0.037 OA 
HETATM   10  C   UNL     1      -7.497   9.617  70.478  1.00  0.00    -0.147 C  
HETATM   11  C   UNL     1      -6.756   8.285  72.452  1.00  0.00    -0.087 C  
HETATM   12  O   UNL     1      -7.238   8.967  73.342  1.00  0.00    -0.359 OA 
ENDROOT
BRANCH   7  13
HETATM   13  C   UNL     1      -8.474   5.525  69.707  1.00  0.00    -0.105 C  
BRANCH  13  14
HETATM   14  C   UNL     1      -8.310   4.079  70.245  1.00  0.00    -0.081 C  
BRANCH  14  15
HETATM   15  C   UNL     1      -9.625   3.494  70.799  1.00  0.00    -0.246 C  
BRANCH  15  16
HETATM   16  C   UNL     1      -9.597   3.214  72.309  1.00  0.00    -0.137 C  
BRANCH  16  17
HETATM   17  N   UNL     1      -9.782   4.470  73.012  1.00  0.00    -0.135 NA 
HETATM   18  H2  UNL     1     -10.205   6.687  73.959  1.00  0.00     0.000 HD 
HETATM   19  H1  UNL     1      -8.599   6.754  74.780  1.00  0.00     0.000 HD 
HETATM   20  N   UNL     1      -7.707   4.667  74.145  1.00  0.00    -0.088 NA 
HETATM   21  N   UNL     1      -9.297   6.290  74.197  1.00  0.00    -0.150 NA 
HETATM   22  C   UNL     1      -8.860   5.084  73.784  1.00  0.00    -0.115 C  
HETATM   23  H   UNL     1     -10.689   4.929  72.915  1.00  0.00     0.000 HD 
HETATM   24  H1  UNL     1      -7.009   5.131  74.728  1.00  0.00     0.000 HD 
HETATM   25  H2  UNL     1      -7.448   3.742  73.803  1.00  0.00     0.000 HD 
ENDBRANCH  16  17
ENDBRANCH  15  16
ENDBRANCH  14  15
ENDBRANCH  13  14
BRANCH  13  26
HETATM   26  N   UNL     1      -9.534   5.515  68.661  1.00  0.00    -0.124 N  
HETATM   27  H   UNL     1      -9.925   4.635  68.326  1.00  0.00     0.000 HD 
BRANCH  26  28
HETATM   28  S   UNL     1     -10.082   7.005  68.033  1.00  0.00    -0.179 S  
HETATM   29  O   UNL     1     -11.113   6.732  67.066  1.00  0.00    -0.403 OA 
HETATM   30  O   UNL     1      -8.881   7.714  67.642  1.00  0.00    -0.125 OA 
BRANCH  28  31
HETATM   31  C   UNL     1     -10.773   7.792  69.465  1.00  0.00    -0.198 A  
HETATM   32  C   UNL     1     -11.975  11.176  70.776  1.00  0.00    -0.415 C  
HETATM   33  C   UNL     1     -10.937   7.000  70.612  1.00  0.00    -0.292 A  
HETATM   34  C   UNL     1     -11.829  13.437  69.674  1.00  0.00    -0.394 C  
HETATM   35  C   UNL     1     -11.461   7.552  71.777  1.00  0.00    -0.295 A  
HETATM   36  C   UNL     1     -11.301  12.005  69.679  1.00  0.00    -0.249 C  
HETATM   37  C   UNL     1     -11.538  11.308  68.346  1.00  0.00    -0.308 C  
HETATM   38  H   UNL     1     -10.369   9.661  67.552  1.00  0.00     0.000 HD 
HETATM   39  N   UNL     1     -10.929   9.981  68.343  1.00  0.00    -0.236 NA 
HETATM   40  C   UNL     1     -11.825   8.894  71.797  1.00  0.00    -0.429 A  
HETATM   41  C   UNL     1     -11.134   9.156  69.461  1.00  0.00    -0.051 A  
HETATM   42  C   UNL     1     -11.655   9.702  70.658  1.00  0.00    -0.371 A  
ENDBRANCH  28  31
ENDBRANCH  26  28
ENDBRANCH  13  26
ENDBRANCH   7  13
TORSDOF 8
ENDMDL
MODEL      310
REMARK 921   NORMALIZED FREE ENERGY PREDICTED BY IDOCK:   -4.23 KCAL/MOL
REMARK 922        TOTAL FREE ENERGY PREDICTED BY IDOCK:   -7.46 KCAL/MOL
REMARK 923 INTER-LIGAND FREE ENERGY PREDICTED BY IDOCK:   -7.63 KCAL/MOL
REMARK 924 INTRA-LIGAND FREE ENERGY PREDICTED BY IDOCK:    0.17 KCAL/MOL
REMARK 927      BINDING AFFINITY PREDICTED BY RF-SCORE:    0.00 PKD
ROOT
HETATM    1  C   UNL     1      -6.094   6.872  68.965  1.00  0.00    -0.026 C  
HETATM    2  C   UNL     1      -6.319   8.278  68.429  1.00  0.00    -0.054 C  
HETATM    3  C   UNL     1      -6.898   9.210  69.499  1.00  0.00    -0.048 C  
HETATM    4  C   UNL     1      -7.161  10.606  68.935  1.00  0.00    -0.090 C  
HETATM    5  N   UNL     1      -7.939  10.591  67.665  1.00  0.00    -0.106 N  
HETATM    6  C   UNL     1      -7.430   9.663  66.632  1.00  0.00    -0.094 C  
HETATM    7  C   UNL     1      -9.246  11.096  67.711  1.00  0.00    -0.153 C  
HETATM    8  O   UNL     1      -9.684  11.492  68.800  1.00  0.00    -0.196 OA 
HETATM    9  O   UNL     1      -5.620  11.227  66.319  1.00  0.00    -0.137 OA 
HETATM   10  C   UNL     1      -7.266   8.257  67.220  1.00  0.00    -0.084 C  
HETATM   11  C   UNL     1      -6.131  10.059  65.924  1.00  0.00    -0.080 C  
HETATM   12  O   UNL     1      -5.587   9.376  65.071  1.00  0.00    -0.055 OA 
ENDROOT
BRANCH   7  13
HETATM   13  C   UNL     1     -10.163  11.309  66.454  1.00  0.00    -0.230 C  
BRANCH  13  14
HETATM   14  C   UNL     1      -9.514  11.601  65.076  1.00  0.00    -0.128 C  
BRANCH  14  15
HETATM   15  C   UNL     1      -9.942  10.595  63.988  1.00  0.00    -0.401 C  
BRANCH  15  16
HETATM   16  C   UNL     1      -8.776  10.039  63.157  1.00  0.00    -0.217 C  
BRANCH  16  17
HETATM   17  N   UNL     1      -8.779   8.592  63.271  1.00  0.00    -0.430 NA 
HETATM   18  H2  UNL     1      -8.901   6.189  63.718  1.00  0.00     0.000 HD 
HETATM   19  H1  UNL     1      -7.241   5.884  63.079  1.00  0.00     0.000 HD 
HETATM   20  N   UNL     1      -6.617   8.067  62.448  1.00  0.00    -0.086 NA 
HETATM   21  N   UNL     1      -8.023   6.500  63.302  1.00  0.00    -0.107 NA 
HETATM   22  C   UNL     1      -7.744   7.777  62.976  1.00  0.00    -0.132 C  
HETATM   23  H   UNL     1      -9.638   8.153  63.604  1.00  0.00     0.000 HD 
HETATM   24  H1  UNL     1      -5.834   7.451  62.225  1.00  0.00     0.000 HD 
HETATM   25  H2  UNL     1      -6.480   9.051  62.218  1.00  0.00     0.000 HD 
ENDBRANCH  16  17
ENDBRANCH  15  16
ENDBRANCH  14  15
ENDBRANCH  13  14
BRANCH  13  26
HETATM   26  N   UNL     1     -11.245  12.307  66.680  1.00  0.00    -0.298 N  
HETATM   27  H   UNL     1     -11.981  12.131  67.364  1.00  0.00     0.000 HD 
BRANCH  26  28
HETATM   28  S   UNL     1     -11.228  13.754  65.773  1.00  0.00    -0.300 S  
HETATM   29  O   UNL     1     -12.538  13.941  65.205  1.00  0.00    -0.497 OA 
HETATM   30  O   UNL     1     -10.067  13.647  64.914  1.00  0.00    -0.343 OA 
BRANCH  28  31
HETATM   31  C   UNL     1     -10.914  14.981  67.015  1.00  0.00    -0.318 A  
HETATM   32  C   UNL     1     -11.830  15.976  70.590  1.00  0.00    -0.342 C  
HETATM   33  C   UNL     1     -10.084  16.054  66.655  1.00  0.00    -0.287 A  
HETATM   34  C   UNL     1     -13.543  14.946  72.124  1.00  0.00    -0.522 C  
HETATM   35  C   UNL     1      -9.803  17.061  67.572  1.00  0.00    -0.258 A  
HETATM   36  C   UNL     1     -13.064  15.073  70.681  1.00  0.00    -0.365 C  
HETATM   37  C   UNL     1     -12.705  13.721  70.080  1.00  0.00    -0.091 C  
HETATM   38  H   UNL     1     -12.736  13.224  67.968  1.00  0.00     0.000 HD 
HETATM   39  N   UNL     1     -12.355  13.860  68.669  1.00  0.00    -0.162 NA 
HETATM   40  C   UNL     1     -10.347  16.998  68.850  1.00  0.00    -0.337 A  
HETATM   41  C   UNL     1     -11.478  14.894  68.305  1.00  0.00    -0.324 A  
HETATM   42  C   UNL     1     -11.189  15.934  69.220  1.00  0.00    -0.335 A  
ENDBRANCH  28  31
ENDBRANCH  26  28
ENDBRANCH  13  26
ENDBRANCH   7  13
TORSDOF 8
ENDMDL
MODEL      311
REMARK 921   NORMALIZED FREE ENERGY PREDICTED BY IDOCK:   -4.22 KCAL/MOL
REMARK 922        TOTAL FREE ENERGY PREDICTED BY IDOCK:   -7.44 KCAL/MOL
REMARK 923 INTER-LIGAND FREE ENERGY PREDICTED BY IDOCK:   -7.46 KCAL/MOL
REMARK 924 INTRA-LIGAND FREE ENERGY PREDICTED BY IDOCK:    0.02 KCAL/MOL
REMARK 927      BINDING AFFINITY PREDICTED BY RF-SCORE:    0.00 PKD
ROOT
HETATM    1  C   UNL     1      -6.808  17.660  65.908  1.00  0.00    -0.253 C  
HETATM    2  C   UNL     1      -7.615  16.890  66.944  1.00  0.00    -0.250 C  
HETATM    3  C   UNL     1      -6.719  16.030  67.840  1.00  0.00    -0.158 C  
HETATM    4  C   UNL     1      -7.546  15.228  68.845  1.00  0.00    -0.152 C  
HETATM    5  N   UNL     1      -8.669  14.477  68.218  1.00  0.00    -0.167 N  
HETATM    6  C   UNL     1      -9.521  15.273  67.308  1.00  0.00    -0.208 C  
HETATM    7  C   UNL     1      -8.571  13.079  68.201  1.00  0.00    -0.188 C  
HETATM    8  O   UNL     1      -7.554  12.556  68.676  1.00  0.00    -0.119 OA 
HETATM    9  O   UNL     1     -10.411  16.325  69.288  1.00  0.00    -0.244 OA 
HETATM   10  C   UNL     1      -8.656  15.988  66.263  1.00  0.00    -0.363 C  
HETATM   11  C   UNL     1     -10.462  16.295  67.955  1.00  0.00    -0.293 C  
HETATM   12  O   UNL     1     -11.200  17.033  67.323  1.00  0.00     0.017 OA 
ENDROOT
BRANCH   7  13
HETATM   13  C   UNL     1      -9.715  12.112  67.728  1.00  0.00    -0.197 C  
BRANCH  13  14
HETATM   14  C   UNL     1     -11.003  11.979  68.583  1.00  0.00    -0.281 C  
BRANCH  14  15
HETATM   15  C   UNL     1     -11.026  12.945  69.785  1.00  0.00     0.262 C  
BRANCH  15  16
HETATM   16  C   UNL     1     -12.285  13.822  69.858  1.00  0.00    -0.321 C  
BRANCH  16  17
HETATM   17  N   UNL     1     -12.807  13.764  71.211  1.00  0.00    -0.352 NA 
HETATM   18  H2  UNL     1     -13.942  13.638  73.376  1.00  0.00     0.000 HD 
HETATM   19  H1  UNL     1     -12.972  14.990  74.076  1.00  0.00     0.000 HD 
HETATM   20  N   UNL     1     -11.589  15.519  72.243  1.00  0.00    -0.455 NA 
HETATM   21  N   UNL     1     -13.222  14.358  73.315  1.00  0.00    -0.580 NA 
HETATM   22  C   UNL     1     -12.477  14.600  72.219  1.00  0.00    -0.306 C  
HETATM   23  H   UNL     1     -13.483  13.028  71.419  1.00  0.00     0.000 HD 
HETATM   24  H1  UNL     1     -11.339  16.151  73.004  1.00  0.00     0.000 HD 
HETATM   25  H2  UNL     1     -11.057  15.639  71.381  1.00  0.00     0.000 HD 
ENDBRANCH  16  17
ENDBRANCH  15  16
ENDBRANCH  14  15
ENDBRANCH  13  14
BRANCH  13  26
HETATM   26  N   UNL     1      -9.228  10.743  67.405  1.00  0.00    -0.147 N  
HETATM   27  H   UNL     1      -9.230  10.404  66.442  1.00  0.00     0.000 HD 
BRANCH  26  28
HETATM   28  S   UNL     1      -8.666   9.750  68.674  1.00  0.00    -0.125 S  
HETATM   29  O   UNL     1      -9.123  10.312  69.919  1.00  0.00    -0.143 OA 
HETATM   30  O   UNL     1      -7.249   9.582  68.424  1.00  0.00    -0.074 OA 
BRANCH  28  31
HETATM   31  C   UNL     1      -9.492   8.213  68.353  1.00  0.00    -0.142 A  
HETATM   32  C   UNL     1      -9.922   4.665  69.709  1.00  0.00    -0.295 C  
HETATM   33  C   UNL     1     -10.251   8.130  67.175  1.00  0.00    -0.366 A  
HETATM   34  C   UNL     1      -8.732   3.556  71.633  1.00  0.00    -0.124 C  
HETATM   35  C   UNL     1     -10.916   6.953  66.850  1.00  0.00    -0.328 A  
HETATM   36  C   UNL     1      -8.710   4.718  70.644  1.00  0.00    -0.134 C  
HETATM   37  C   UNL     1      -8.718   6.067  71.351  1.00  0.00    -0.132 C  
HETATM   38  H   UNL     1      -7.937   7.925  70.547  1.00  0.00     0.000 HD 
HETATM   39  N   UNL     1      -8.588   7.156  70.387  1.00  0.00    -0.141 NA 
HETATM   40  C   UNL     1     -10.827   5.857  67.700  1.00  0.00    -0.331 A  
HETATM   41  C   UNL     1      -9.385   7.114  69.232  1.00  0.00    -0.146 A  
HETATM   42  C   UNL     1     -10.060   5.922  68.878  1.00  0.00    -0.231 A  
ENDBRANCH  28  31
ENDBRANCH  26  28
ENDBRANCH  13  26
ENDBRANCH   7  13
TORSDOF 8
ENDMDL
MODEL      312
REMARK 921   NORMALIZED FREE ENERGY PREDICTED BY IDOCK:   -4.21 KCAL/MOL
REMARK 922        TOTAL FREE ENERGY PREDICTED BY IDOCK:   -7.43 KCAL/MOL
REMARK 923 INTER-LIGAND FREE ENERGY PREDICTED BY IDOCK:   -5.25 KCAL/MOL
REMARK 924 INTRA-LIGAND FREE ENERGY PREDICTED BY IDOCK:   -2.18 KCAL/MOL
REMARK 927      BINDING AFFINITY PREDICTED BY RF-SCORE:    0.00 PKD
ROOT
HETATM    1  C   UNL     1      -6.305  13.455  70.034  1.00  0.00    -0.031 C  
HETATM    2  C   UNL     1      -6.953  12.330  69.240  1.00  0.00     0.004 C  
HETATM    3  C   UNL     1      -6.095  11.912  68.040  1.00  0.00    -0.055 C  
HETATM    4  C   UNL     1      -6.778  10.813  67.226  1.00  0.00    -0.080 C  
HETATM    5  N   UNL     1      -8.190  11.132  66.875  1.00  0.00    -0.143 N  
HETATM    6  C   UNL     1      -9.027  11.585  68.007  1.00  0.00    -0.170 C  
HETATM    7  C   UNL     1      -8.472  11.377  65.524  1.00  0.00     0.163 C  
HETATM    8  O   UNL     1      -7.535  11.345  64.714  1.00  0.00     0.880 OA 
HETATM    9  O   UNL     1      -9.000   9.294  68.763  1.00  0.00    -0.131 OA 
HETATM   10  C   UNL     1      -8.344  12.746  68.739  1.00  0.00     0.139 C  
HETATM   11  C   UNL     1      -9.439  10.525  69.033  1.00  0.00    -0.201 C  
HETATM   12  O   UNL     1     -10.107  10.765  70.026  1.00  0.00     0.058 OA 
ENDROOT
BRANCH   7  13
HETATM   13  C   UNL     1      -9.915  11.574  64.937  1.00  0.00    -0.259 C  
BRANCH  13  14
HETATM   14  C   UNL     1     -10.459  10.563  63.894  1.00  0.00     0.077 C  
BRANCH  14  15
HETATM   15  C   UNL     1      -9.575  10.469  62.634  1.00  0.00    -0.285 C  
BRANCH  15  16
HETATM   16  C   UNL     1      -8.939   9.087  62.417  1.00  0.00    -0.089 C  
BRANCH  16  17
HETATM   17  N   UNL     1      -9.000   8.354  63.668  1.00  0.00    -0.096 NA 
HETATM   18  H2  UNL     1      -9.279   7.314  65.866  1.00  0.00     0.000 HD 
HETATM   19  H1  UNL     1      -7.515   6.976  66.043  1.00  0.00     0.000 HD 
HETATM   20  N   UNL     1      -6.706   7.848  64.007  1.00  0.00    -0.061 NA 
HETATM   21  N   UNL     1      -8.317   7.343  65.529  1.00  0.00    -0.138 NA 
HETATM   22  C   UNL     1      -7.939   7.869  64.348  1.00  0.00    -0.132 C  
HETATM   23  H   UNL     1      -9.924   8.190  64.069  1.00  0.00     0.000 HD 
HETATM   24  H1  UNL     1      -5.904   7.481  64.521  1.00  0.00     0.000 HD 
HETATM   25  H2  UNL     1      -6.496   8.254  63.096  1.00  0.00     0.000 HD 
ENDBRANCH  16  17
ENDBRANCH  15  16
ENDBRANCH  14  15
ENDBRANCH  13  14
BRANCH  13  26
HETATM   26  N   UNL     1     -10.155  12.950  64.420  1.00  0.00    -0.594 N  
HETATM   27  H   UNL     1      -9.458  13.416  63.839  1.00  0.00     0.000 HD 
BRANCH  26  28
HETATM   28  S   UNL     1     -11.619  13.732  64.818  1.00  0.00    -0.381 S  
HETATM   29  O   UNL     1     -12.664  12.742  64.843  1.00  0.00    -0.629 OA 
HETATM   30  O   UNL     1     -11.702  14.861  63.914  1.00  0.00    -0.170 OA 
BRANCH  28  31
HETATM   31  C   UNL     1     -11.300  14.332  66.457  1.00  0.00    -0.346 A  
HETATM   32  C   UNL     1      -8.949  16.593  68.450  1.00  0.00    -0.223 C  
HETATM   33  C   UNL     1     -12.102  13.823  67.490  1.00  0.00    -0.366 A  
HETATM   34  C   UNL     1      -6.869  17.783  67.672  1.00  0.00    -0.189 C  
HETATM   35  C   UNL     1     -11.902  14.237  68.803  1.00  0.00    -0.377 A  
HETATM   36  C   UNL     1      -7.869  16.672  67.366  1.00  0.00    -0.188 C  
HETATM   37  C   UNL     1      -8.559  16.881  66.026  1.00  0.00    -0.159 C  
HETATM   38  H   UNL     1      -9.418  15.321  64.785  1.00  0.00     0.000 HD 
HETATM   39  N   UNL     1      -9.428  15.750  65.711  1.00  0.00    -0.330 NA 
HETATM   40  C   UNL     1     -10.902  15.161  69.087  1.00  0.00    -0.251 A  
HETATM   41  C   UNL     1     -10.279  15.269  66.719  1.00  0.00    -0.272 A  
HETATM   42  C   UNL     1     -10.083  15.670  68.062  1.00  0.00    -0.224 A  
ENDBRANCH  28  31
ENDBRANCH  26  28
ENDBRANCH  13  26
ENDBRANCH   7  13
TORSDOF 8
ENDMDL
MODEL      313
REMARK 921   NORMALIZED FREE ENERGY PREDICTED BY IDOCK:   -4.20 KCAL/MOL
REMARK 922        TOTAL FREE ENERGY PREDICTED BY IDOCK:   -7.42 KCAL/MOL
REMARK 923 INTER-LIGAND FREE ENERGY PREDICTED BY IDOCK:   -6.65 KCAL/MOL
REMARK 924 INTRA-LIGAND FREE ENERGY PREDICTED BY IDOCK:   -0.76 KCAL/MOL
REMARK 927      BINDING AFFINITY PREDICTED BY RF-SCORE:    0.00 PKD
ROOT
HETATM    1  C   UNL     1      -5.128  10.021  63.785  1.00  0.00    -0.091 C  
HETATM    2  C   UNL     1      -6.161  10.507  64.792  1.00  0.00    -0.057 C  
HETATM    3  C   UNL     1      -5.510  11.254  65.961  1.00  0.00    -0.065 C  
HETATM    4  C   UNL     1      -6.554  11.696  66.985  1.00  0.00    -0.144 C  
HETATM    5  N   UNL     1      -7.469  10.599  67.406  1.00  0.00    -0.093 N  
HETATM    6  C   UNL     1      -8.072   9.830  66.297  1.00  0.00    -0.113 C  
HETATM    7  C   UNL     1      -7.349  10.139  68.724  1.00  0.00    -0.084 C  
HETATM    8  O   UNL     1      -6.479  10.645  69.446  1.00  0.00    -0.051 OA 
HETATM    9  O   UNL     1      -9.454  11.766  65.891  1.00  0.00    -0.227 OA 
HETATM   10  C   UNL     1      -6.980   9.331  65.343  1.00  0.00    -0.085 C  
HETATM   11  C   UNL     1      -9.162  10.531  65.479  1.00  0.00    -0.188 C  
HETATM   12  O   UNL     1      -9.726  10.023  64.523  1.00  0.00    -0.310 OA 
ENDROOT
BRANCH   7  13
HETATM   13  C   UNL     1      -8.321   9.105  69.398  1.00  0.00    -0.124 C  
BRANCH  13  14
HETATM   14  C   UNL     1      -7.987   8.551  70.809  1.00  0.00    -0.111 C  
BRANCH  14  15
HETATM   15  C   UNL     1      -7.076   7.307  70.763  1.00  0.00    -0.065 C  
BRANCH  15  16
HETATM   16  C   UNL     1      -7.350   6.292  71.883  1.00  0.00    -0.093 C  
BRANCH  16  17
HETATM   17  N   UNL     1      -8.464   5.453  71.480  1.00  0.00    -0.125 NA 
HETATM   18  H2  UNL     1     -10.457   4.271  70.691  1.00  0.00     0.000 HD 
HETATM   19  H1  UNL     1     -10.632   3.336  72.225  1.00  0.00     0.000 HD 
HETATM   20  N   UNL     1      -8.790   4.160  73.442  1.00  0.00    -0.097 NA 
HETATM   21  N   UNL     1     -10.159   4.020  71.634  1.00  0.00    -0.154 NA 
HETATM   22  C   UNL     1      -9.090   4.548  72.262  1.00  0.00    -0.125 C  
HETATM   23  H   UNL     1      -8.803   5.557  70.524  1.00  0.00     0.000 HD 
HETATM   24  H1  UNL     1      -9.263   3.475  74.033  1.00  0.00     0.000 HD 
HETATM   25  H2  UNL     1      -7.962   4.594  73.851  1.00  0.00     0.000 HD 
ENDBRANCH  16  17
ENDBRANCH  15  16
ENDBRANCH  14  15
ENDBRANCH  13  14
BRANCH  13  26
HETATM   26  N   UNL     1      -8.657   7.954  68.515  1.00  0.00    -0.128 N  
HETATM   27  H   UNL     1      -7.937   7.506  67.948  1.00  0.00     0.000 HD 
BRANCH  26  28
HETATM   28  S   UNL     1     -10.271   7.399  68.468  1.00  0.00    -0.186 S  
HETATM   29  O   UNL     1     -10.270   5.993  68.777  1.00  0.00    -0.157 OA 
HETATM   30  O   UNL     1     -10.796   7.870  67.203  1.00  0.00    -0.296 OA 
BRANCH  28  31
HETATM   31  C   UNL     1     -11.030   8.318  69.783  1.00  0.00    -0.129 A  
HETATM   32  C   UNL     1     -12.318  11.800  70.692  1.00  0.00    -0.421 C  
HETATM   33  C   UNL     1     -11.234   7.644  70.997  1.00  0.00    -0.283 A  
HETATM   34  C   UNL     1     -12.147  13.940  69.373  1.00  0.00    -0.384 C  
HETATM   35  C   UNL     1     -11.813   8.304  72.076  1.00  0.00    -0.408 A  
HETATM   36  C   UNL     1     -11.606  12.523  69.545  1.00  0.00    -0.348 C  
HETATM   37  C   UNL     1     -11.780  11.691  68.282  1.00  0.00    -0.304 C  
HETATM   38  H   UNL     1     -10.562   9.989  67.708  1.00  0.00     0.000 HD 
HETATM   39  N   UNL     1     -11.158  10.379  68.439  1.00  0.00    -0.266 NA 
HETATM   40  C   UNL     1     -12.189   9.635  71.946  1.00  0.00    -0.413 A  
HETATM   41  C   UNL     1     -11.403   9.669  69.625  1.00  0.00    -0.073 A  
HETATM   42  C   UNL     1     -11.980  10.326  70.738  1.00  0.00    -0.456 A  
ENDBRANCH  28  31
ENDBRANCH  26  28
ENDBRANCH  13  26
ENDBRANCH   7  13
TORSDOF 8
ENDMDL
MODEL      314
REMARK 921   NORMALIZED FREE ENERGY PREDICTED BY IDOCK:   -4.19 KCAL/MOL
REMARK 922        TOTAL FREE ENERGY PREDICTED BY IDOCK:   -7.41 KCAL/MOL
REMARK 923 INTER-LIGAND FREE ENERGY PREDICTED BY IDOCK:   -6.23 KCAL/MOL
REMARK 924 INTRA-LIGAND FREE ENERGY PREDICTED BY IDOCK:   -1.17 KCAL/MOL
REMARK 927      BINDING AFFINITY PREDICTED BY RF-SCORE:    0.00 PKD
ROOT
HETATM    1  C   UNL     1     -12.147  13.210  66.412  1.00  0.00    -0.447 C  
HETATM    2  C   UNL     1     -11.403  11.906  66.667  1.00  0.00    -0.400 C  
HETATM    3  C   UNL     1     -11.705  11.341  68.059  1.00  0.00    -0.305 C  
HETATM    4  C   UNL     1     -10.917  10.056  68.317  1.00  0.00    -0.227 C  
HETATM    5  N   UNL     1      -9.463  10.187  68.022  1.00  0.00    -0.144 N  
HETATM    6  C   UNL     1      -9.144  10.777  66.703  1.00  0.00    -0.159 C  
HETATM    7  C   UNL     1      -8.584  10.149  69.113  1.00  0.00    -0.165 C  
HETATM    8  O   UNL     1      -9.064  10.041  70.250  1.00  0.00    -0.136 OA 
HETATM    9  O   UNL     1      -9.860   8.679  65.749  1.00  0.00    -0.130 OA 
HETATM   10  C   UNL     1      -9.887  12.106  66.525  1.00  0.00    -0.232 C  
HETATM   11  C   UNL     1      -9.396   9.900  65.473  1.00  0.00    -0.223 C  
HETATM   12  O   UNL     1      -9.201  10.268  64.325  1.00  0.00    -0.211 OA 
ENDROOT
BRANCH   7  13
HETATM   13  C   UNL     1      -7.019  10.115  68.994  1.00  0.00    -0.058 C  
BRANCH  13  14
HETATM   14  C   UNL     1      -6.281  11.278  68.281  1.00  0.00    -0.045 C  
BRANCH  14  15
HETATM   15  C   UNL     1      -6.670  12.663  68.838  1.00  0.00    -0.098 C  
BRANCH  15  16
HETATM   16  C   UNL     1      -6.197  13.840  67.971  1.00  0.00    -0.141 C  
BRANCH  16  17
HETATM   17  N   UNL     1      -7.314  14.290  67.160  1.00  0.00    -0.330 NA 
HETATM   18  H2  UNL     1      -9.079  14.907  65.580  1.00  0.00     0.000 HD 
HETATM   19  H1  UNL     1      -9.116  16.624  66.137  1.00  0.00     0.000 HD 
HETATM   20  N   UNL     1      -7.461  16.566  67.815  1.00  0.00    -0.141 NA 
HETATM   21  N   UNL     1      -8.755  15.670  66.175  1.00  0.00    -0.290 NA 
HETATM   22  C   UNL     1      -7.793  15.551  67.110  1.00  0.00    -0.221 C  
HETATM   23  H   UNL     1      -7.777  13.592  66.576  1.00  0.00     0.000 HD 
HETATM   24  H1  UNL     1      -7.823  17.519  67.778  1.00  0.00     0.000 HD 
HETATM   25  H2  UNL     1      -6.735  16.399  68.510  1.00  0.00     0.000 HD 
ENDBRANCH  16  17
ENDBRANCH  15  16
ENDBRANCH  14  15
ENDBRANCH  13  14
BRANCH  13  26
HETATM   26  N   UNL     1      -6.500   8.830  68.447  1.00  0.00    -0.055 N  
HETATM   27  H   UNL     1      -6.255   8.748  67.460  1.00  0.00     0.000 HD 
BRANCH  26  28
HETATM   28  S   UNL     1      -6.325   7.499  69.501  1.00  0.00    -0.032 S  
HETATM   29  O   UNL     1      -6.098   8.007  70.829  1.00  0.00    -0.033 OA 
HETATM   30  O   UNL     1      -5.344   6.643  68.868  1.00  0.00    -0.014 OA 
BRANCH  28  31
HETATM   31  C   UNL     1      -7.916   6.721  69.403  1.00  0.00    -0.115 A  
HETATM   32  C   UNL     1     -10.620   5.078  71.548  1.00  0.00    -0.175 C  
HETATM   33  C   UNL     1      -8.459   6.538  68.122  1.00  0.00    -0.116 A  
HETATM   34  C   UNL     1     -10.568   4.530  74.006  1.00  0.00    -0.338 C  
HETATM   35  C   UNL     1      -9.697   5.923  67.966  1.00  0.00    -0.132 A  
HETATM   36  C   UNL     1      -9.731   4.883  72.780  1.00  0.00    -0.173 C  
HETATM   37  C   UNL     1      -8.928   6.159  72.989  1.00  0.00    -0.131 C  
HETATM   38  H   UNL     1      -7.079   6.674  71.975  1.00  0.00     0.000 HD 
HETATM   39  N   UNL     1      -8.057   6.414  71.844  1.00  0.00    -0.108 NA 
HETATM   40  C   UNL     1     -10.396   5.492  69.088  1.00  0.00    -0.318 A  
HETATM   41  C   UNL     1      -8.605   6.292  70.557  1.00  0.00    -0.139 A  
HETATM   42  C   UNL     1      -9.858   5.659  70.377  1.00  0.00    -0.253 A  
ENDBRANCH  28  31
ENDBRANCH  26  28
ENDBRANCH  13  26
ENDBRANCH   7  13
TORSDOF 8
ENDMDL
MODEL      315
REMARK 921   NORMALIZED FREE ENERGY PREDICTED BY IDOCK:   -4.19 KCAL/MOL
REMARK 922        TOTAL FREE ENERGY PREDICTED BY IDOCK:   -7.40 KCAL/MOL
REMARK 923 INTER-LIGAND FREE ENERGY PREDICTED BY IDOCK:  -10.00 KCAL/MOL
REMARK 924 INTRA-LIGAND FREE ENERGY PREDICTED BY IDOCK:    2.60 KCAL/MOL
REMARK 927      BINDING AFFINITY PREDICTED BY RF-SCORE:    0.00 PKD
ROOT
HETATM    1  C   UNL     1     -13.285  11.570  63.172  1.00  0.00     0.813 C  
HETATM    2  C   UNL     1     -12.189  12.396  63.830  1.00  0.00    -0.626 C  
HETATM    3  C   UNL     1     -11.020  11.523  64.298  1.00  0.00    -0.406 C  
HETATM    4  C   UNL     1      -9.949  12.360  64.996  1.00  0.00    -0.197 C  
HETATM    5  N   UNL     1     -10.495  13.253  66.055  1.00  0.00    -0.281 N  
HETATM    6  C   UNL     1     -11.656  14.072  65.643  1.00  0.00    -0.331 C  
HETATM    7  C   UNL     1     -10.166  12.946  67.382  1.00  0.00    -0.230 C  
HETATM    8  O   UNL     1      -9.472  11.942  67.598  1.00  0.00    -0.175 OA 
HETATM    9  O   UNL     1     -10.094  15.391  64.362  1.00  0.00     0.117 OA 
HETATM   10  C   UNL     1     -12.742  13.179  65.030  1.00  0.00    -0.456 C  
HETATM   11  C   UNL     1     -11.378  15.239  64.691  1.00  0.00    -0.358 C  
HETATM   12  O   UNL     1     -12.245  15.979  64.253  1.00  0.00    -0.522 OA 
ENDROOT
BRANCH   7  13
HETATM   13  C   UNL     1     -10.513  13.850  68.619  1.00  0.00    -0.246 C  
BRANCH  13  14
HETATM   14  C   UNL     1     -11.730  14.810  68.545  1.00  0.00    -0.347 C  
BRANCH  14  15
HETATM   15  C   UNL     1     -11.785  15.798  69.727  1.00  0.00    -0.355 C  
BRANCH  15  16
HETATM   16  C   UNL     1     -12.893  15.492  70.746  1.00  0.00    -0.458 C  
BRANCH  16  17
HETATM   17  N   UNL     1     -12.271  15.185  72.021  1.00  0.00    -0.339 NA 
HETATM   18  H2  UNL     1     -11.165  14.413  74.064  1.00  0.00     0.000 HD 
HETATM   19  H1  UNL     1     -12.440  15.107  75.137  1.00  0.00     0.000 HD 
HETATM   20  N   UNL     1     -13.877  16.063  73.531  1.00  0.00    -0.760 NA 
HETATM   21  N   UNL     1     -12.036  14.921  74.218  1.00  0.00    -0.489 NA 
HETATM   22  C   UNL     1     -12.805  15.432  73.237  1.00  0.00    -0.518 C  
HETATM   23  H   UNL     1     -11.351  14.743  71.997  1.00  0.00     0.000 HD 
HETATM   24  H1  UNL     1     -14.280  16.250  74.450  1.00  0.00     0.000 HD 
HETATM   25  H2  UNL     1     -14.402  16.431  72.739  1.00  0.00     0.000 HD 
ENDBRANCH  16  17
ENDBRANCH  15  16
ENDBRANCH  14  15
ENDBRANCH  13  14
BRANCH  13  26
HETATM   26  N   UNL     1      -9.344  14.619  69.129  1.00  0.00    -0.378 N  
HETATM   27  H   UNL     1      -9.252  14.825  70.124  1.00  0.00     0.000 HD 
BRANCH  26  28
HETATM   28  S   UNL     1      -8.162  15.149  68.018  1.00  0.00    -0.149 S  
HETATM   29  O   UNL     1      -8.228  14.303  66.855  1.00  0.00    -0.145 OA 
HETATM   30  O   UNL     1      -6.937  15.241  68.786  1.00  0.00    -0.103 OA 
BRANCH  28  31
HETATM   31  C   UNL     1      -8.716  16.787  67.620  1.00  0.00    -0.204 A  
HETATM   32  C   UNL     1      -7.485  20.381  67.202  1.00  0.00    -0.358 C  
HETATM   33  C   UNL     1     -10.093  16.962  67.415  1.00  0.00    -0.279 A  
HETATM   34  C   UNL     1      -5.199  21.331  67.672  1.00  0.00    -0.314 C  
HETATM   35  C   UNL     1     -10.603  18.220  67.113  1.00  0.00    -0.392 A  
HETATM   36  C   UNL     1      -6.149  20.162  67.919  1.00  0.00    -0.258 C  
HETATM   37  C   UNL     1      -5.564  18.843  67.434  1.00  0.00    -0.161 C  
HETATM   38  H   UNL     1      -6.074  16.875  68.195  1.00  0.00     0.000 HD 
HETATM   39  N   UNL     1      -6.445  17.731  67.780  1.00  0.00    -0.180 NA 
HETATM   40  C   UNL     1      -9.739  19.305  67.012  1.00  0.00    -0.406 A  
HETATM   41  C   UNL     1      -7.819  17.871  67.525  1.00  0.00    -0.212 A  
HETATM   42  C   UNL     1      -8.358  19.145  67.227  1.00  0.00    -0.301 A  
ENDBRANCH  28  31
ENDBRANCH  26  28
ENDBRANCH  13  26
ENDBRANCH   7  13
TORSDOF 8
ENDMDL
MODEL      316
REMARK 921   NORMALIZED FREE ENERGY PREDICTED BY IDOCK:   -4.19 KCAL/MOL
REMARK 922        TOTAL FREE ENERGY PREDICTED BY IDOCK:   -7.40 KCAL/MOL
REMARK 923 INTER-LIGAND FREE ENERGY PREDICTED BY IDOCK:   -6.48 KCAL/MOL
REMARK 924 INTRA-LIGAND FREE ENERGY PREDICTED BY IDOCK:   -0.92 KCAL/MOL
REMARK 927      BINDING AFFINITY PREDICTED BY RF-SCORE:    0.00 PKD
ROOT
HETATM    1  C   UNL     1      -5.828  13.344  70.169  1.00  0.00    -0.148 C  
HETATM    2  C   UNL     1      -6.217  12.089  69.400  1.00  0.00    -0.109 C  
HETATM    3  C   UNL     1      -5.276  11.830  68.218  1.00  0.00    -0.043 C  
HETATM    4  C   UNL     1      -5.705  10.593  67.430  1.00  0.00    -0.044 C  
HETATM    5  N   UNL     1      -7.148  10.601  67.060  1.00  0.00    -0.095 N  
HETATM    6  C   UNL     1      -8.076  10.898  68.174  1.00  0.00    -0.119 C  
HETATM    7  C   UNL     1      -7.459  10.749  65.702  1.00  0.00    -0.034 C  
HETATM    8  O   UNL     1      -6.526  10.893  64.899  1.00  0.00     0.103 OA 
HETATM    9  O   UNL     1      -7.581   8.682  68.991  1.00  0.00    -0.087 OA 
HETATM   10  C   UNL     1      -7.658  12.193  68.879  1.00  0.00     0.003 C  
HETATM   11  C   UNL     1      -8.270   9.801  69.225  1.00  0.00    -0.132 C  
HETATM   12  O   UNL     1      -8.985   9.921  70.207  1.00  0.00    -0.199 OA 
ENDROOT
BRANCH   7  13
HETATM   13  C   UNL     1      -8.904  10.625  65.100  1.00  0.00    -0.193 C  
BRANCH  13  14
HETATM   14  C   UNL     1      -9.225   9.469  64.117  1.00  0.00    -0.142 C  
BRANCH  14  15
HETATM   15  C   UNL     1      -8.085   8.435  64.016  1.00  0.00    -0.142 C  
BRANCH  15  16
HETATM   16  C   UNL     1      -7.898   7.846  62.609  1.00  0.00    -0.142 C  
BRANCH  16  17
HETATM   17  N   UNL     1      -6.967   6.737  62.696  1.00  0.00    -0.047 NA 
HETATM   18  H2  UNL     1      -5.250   4.993  62.638  1.00  0.00     0.000 HD 
HETATM   19  H1  UNL     1      -6.461   3.657  62.729  1.00  0.00     0.000 HD 
HETATM   20  N   UNL     1      -8.462   4.899  62.822  1.00  0.00    -0.109 NA 
HETATM   21  N   UNL     1      -6.208   4.645  62.696  1.00  0.00    -0.017 NA 
HETATM   22  C   UNL     1      -7.302   5.430  62.739  1.00  0.00    -0.047 C  
HETATM   23  H   UNL     1      -5.973   6.964  62.726  1.00  0.00     0.000 HD 
HETATM   24  H1  UNL     1      -8.716   3.911  62.855  1.00  0.00     0.000 HD 
HETATM   25  H2  UNL     1      -9.243   5.554  62.861  1.00  0.00     0.000 HD 
ENDBRANCH  16  17
ENDBRANCH  15  16
ENDBRANCH  14  15
ENDBRANCH  13  14
BRANCH  13  26
HETATM   26  N   UNL     1      -9.400  11.896  64.502  1.00  0.00    -0.425 N  
HETATM   27  H   UNL     1      -8.859  12.379  63.785  1.00  0.00     0.000 HD 
BRANCH  26  28
HETATM   28  S   UNL     1     -10.892  12.528  65.039  1.00  0.00    -0.302 S  
HETATM   29  O   UNL     1     -11.587  11.490  65.755  1.00  0.00    -0.233 OA 
HETATM   30  O   UNL     1     -11.489  13.133  63.867  1.00  0.00    -0.396 OA 
BRANCH  28  31
HETATM   31  C   UNL     1     -10.385  13.811  66.154  1.00  0.00    -0.301 A  
HETATM   32  C   UNL     1     -10.867  15.084  69.726  1.00  0.00    -0.277 C  
HETATM   33  C   UNL     1      -9.543  14.809  65.638  1.00  0.00    -0.235 A  
HETATM   34  C   UNL     1     -12.459  14.257  71.494  1.00  0.00    -0.435 C  
HETATM   35  C   UNL     1      -9.115  15.854  66.449  1.00  0.00    -0.355 A  
HETATM   36  C   UNL     1     -12.130  14.263  70.004  1.00  0.00    -0.400 C  
HETATM   37  C   UNL     1     -11.906  12.857  69.466  1.00  0.00    -0.320 C  
HETATM   38  H   UNL     1     -12.185  12.228  67.407  1.00  0.00     0.000 HD 
HETATM   39  N   UNL     1     -11.700  12.885  68.020  1.00  0.00    -0.343 NA 
HETATM   40  C   UNL     1      -9.524  15.905  67.777  1.00  0.00    -0.216 A  
HETATM   41  C   UNL     1     -10.815  13.840  67.497  1.00  0.00    -0.265 A  
HETATM   42  C   UNL     1     -10.377  14.917  68.304  1.00  0.00    -0.232 A  
ENDBRANCH  28  31
ENDBRANCH  26  28
ENDBRANCH  13  26
ENDBRANCH   7  13
TORSDOF 8
ENDMDL
MODEL      317
REMARK 921   NORMALIZED FREE ENERGY PREDICTED BY IDOCK:   -4.17 KCAL/MOL
REMARK 922        TOTAL FREE ENERGY PREDICTED BY IDOCK:   -7.37 KCAL/MOL
REMARK 923 INTER-LIGAND FREE ENERGY PREDICTED BY IDOCK:   -6.80 KCAL/MOL
REMARK 924 INTRA-LIGAND FREE ENERGY PREDICTED BY IDOCK:   -0.57 KCAL/MOL
REMARK 927      BINDING AFFINITY PREDICTED BY RF-SCORE:    0.00 PKD
ROOT
HETATM    1  C   UNL     1      -6.145  18.063  66.855  1.00  0.00    -0.181 C  
HETATM    2  C   UNL     1      -7.442  17.453  67.367  1.00  0.00    -0.201 C  
HETATM    3  C   UNL     1      -7.246  16.746  68.713  1.00  0.00    -0.217 C  
HETATM    4  C   UNL     1      -8.546  16.100  69.193  1.00  0.00    -0.235 C  
HETATM    5  N   UNL     1      -9.202  15.254  68.157  1.00  0.00    -0.181 N  
HETATM    6  C   UNL     1      -9.358  15.896  66.834  1.00  0.00    -0.225 C  
HETATM    7  C   UNL     1      -9.219  13.870  68.380  1.00  0.00    -0.194 C  
HETATM    8  O   UNL     1      -8.667  13.433  69.399  1.00  0.00     0.665 OA 
HETATM    9  O   UNL     1     -11.098  17.230  67.843  1.00  0.00    -0.276 OA 
HETATM   10  C   UNL     1      -8.013  16.451  66.353  1.00  0.00    -0.329 C  
HETATM   11  C   UNL     1     -10.418  16.997  66.719  1.00  0.00    -0.257 C  
HETATM   12  O   UNL     1     -10.635  17.626  65.695  1.00  0.00    -0.565 OA 
ENDROOT
BRANCH   7  13
HETATM   13  C   UNL     1      -9.993  12.834  67.489  1.00  0.00    -0.210 C  
BRANCH  13  14
HETATM   14  C   UNL     1     -11.531  12.962  67.331  1.00  0.00    -0.388 C  
BRANCH  14  15
HETATM   15  C   UNL     1     -12.159  13.930  68.355  1.00  0.00    -0.327 C  
BRANCH  15  16
HETATM   16  C   UNL     1     -12.079  13.439  69.809  1.00  0.00    -0.310 C  
BRANCH  16  17
HETATM   17  N   UNL     1     -12.200  14.587  70.688  1.00  0.00    -0.307 NA 
HETATM   18  H2  UNL     1     -12.127  16.505  72.208  1.00  0.00     0.000 HD 
HETATM   19  H1  UNL     1     -13.596  15.973  73.112  1.00  0.00     0.000 HD 
HETATM   20  N   UNL     1     -14.126  13.996  71.943  1.00  0.00    -0.458 NA 
HETATM   21  N   UNL     1     -12.897  15.858  72.377  1.00  0.00    -0.444 NA 
HETATM   22  C   UNL     1     -13.125  14.740  71.660  1.00  0.00    -0.337 C  
HETATM   23  H   UNL     1     -11.529  15.345  70.561  1.00  0.00     0.000 HD 
HETATM   24  H1  UNL     1     -14.824  14.111  72.677  1.00  0.00     0.000 HD 
HETATM   25  H2  UNL     1     -14.241  13.173  71.352  1.00  0.00     0.000 HD 
ENDBRANCH  16  17
ENDBRANCH  15  16
ENDBRANCH  14  15
ENDBRANCH  13  14
BRANCH  13  26
HETATM   26  N   UNL     1      -9.676  11.419  67.827  1.00  0.00    -0.172 N  
HETATM   27  H   UNL     1      -9.848  11.057  68.765  1.00  0.00     0.000 HD 
BRANCH  26  28
HETATM   28  S   UNL     1      -9.021  10.413  66.613  1.00  0.00    -0.142 S  
HETATM   29  O   UNL     1      -7.967  11.136  65.952  1.00  0.00    -0.107 OA 
HETATM   30  O   UNL     1     -10.163   9.935  65.862  1.00  0.00    -0.261 OA 
BRANCH  28  31
HETATM   31  C   UNL     1      -8.349   9.067  67.554  1.00  0.00    -0.116 A  
HETATM   32  C   UNL     1      -7.804   5.284  67.464  1.00  0.00    -0.096 C  
HETATM   33  C   UNL     1      -7.855   9.367  68.833  1.00  0.00    -0.083 A  
HETATM   34  C   UNL     1      -8.618   3.613  65.763  1.00  0.00    -0.114 C  
HETATM   35  C   UNL     1      -7.324   8.360  69.633  1.00  0.00    -0.072 A  
HETATM   36  C   UNL     1      -8.793   5.022  66.324  1.00  0.00    -0.118 C  
HETATM   37  C   UNL     1      -8.578   6.088  65.258  1.00  0.00    -0.099 C  
HETATM   38  H   UNL     1      -9.427   8.085  65.275  1.00  0.00     0.000 HD 
HETATM   39  N   UNL     1      -8.857   7.417  65.796  1.00  0.00    -0.121 NA 
HETATM   40  C   UNL     1      -7.283   7.055  69.158  1.00  0.00    -0.090 A  
HETATM   41  C   UNL     1      -8.319   7.750  67.049  1.00  0.00    -0.117 A  
HETATM   42  C   UNL     1      -7.785   6.739  67.882  1.00  0.00    -0.112 A  
ENDBRANCH  28  31
ENDBRANCH  26  28
ENDBRANCH  13  26
ENDBRANCH   7  13
TORSDOF 8
ENDMDL
MODEL      318
REMARK 921   NORMALIZED FREE ENERGY PREDICTED BY IDOCK:   -4.17 KCAL/MOL
REMARK 922        TOTAL FREE ENERGY PREDICTED BY IDOCK:   -7.37 KCAL/MOL
REMARK 923 INTER-LIGAND FREE ENERGY PREDICTED BY IDOCK:   -6.29 KCAL/MOL
REMARK 924 INTRA-LIGAND FREE ENERGY PREDICTED BY IDOCK:   -1.08 KCAL/MOL
REMARK 927      BINDING AFFINITY PREDICTED BY RF-SCORE:    0.00 PKD
ROOT
HETATM    1  C   UNL     1      -6.350   8.864  72.004  1.00  0.00    -0.048 C  
HETATM    2  C   UNL     1      -6.381   7.619  71.128  1.00  0.00    -0.035 C  
HETATM    3  C   UNL     1      -5.287   7.650  70.055  1.00  0.00    -0.023 C  
HETATM    4  C   UNL     1      -5.359   6.417  69.155  1.00  0.00    -0.012 C  
HETATM    5  N   UNL     1      -6.723   6.159  68.616  1.00  0.00    -0.058 N  
HETATM    6  C   UNL     1      -7.806   6.174  69.625  1.00  0.00    -0.103 C  
HETATM    7  C   UNL     1      -6.912   6.346  67.240  1.00  0.00    -0.072 C  
HETATM    8  O   UNL     1      -5.951   6.739  66.564  1.00  0.00    -0.027 OA 
HETATM    9  O   UNL     1      -6.944   4.048  70.375  1.00  0.00    -0.033 OA 
HETATM   10  C   UNL     1      -7.748   7.468  70.444  1.00  0.00    -0.091 C  
HETATM   11  C   UNL     1      -7.874   4.982  70.585  1.00  0.00    -0.078 C  
HETATM   12  O   UNL     1      -8.699   4.877  71.479  1.00  0.00    -0.125 OA 
ENDROOT
BRANCH   7  13
HETATM   13  C   UNL     1      -8.227   5.978  66.464  1.00  0.00    -0.107 C  
BRANCH  13  14
HETATM   14  C   UNL     1      -8.285   4.663  65.642  1.00  0.00    -0.115 C  
BRANCH  14  15
HETATM   15  C   UNL     1      -8.827   4.875  64.213  1.00  0.00    -0.104 C  
BRANCH  15  16
HETATM   16  C   UNL     1      -8.483   3.737  63.240  1.00  0.00    -0.091 C  
BRANCH  16  17
HETATM   17  N   UNL     1      -9.715   3.069  62.861  1.00  0.00    -0.092 NA 
HETATM   18  H2  UNL     1     -11.889   2.197  62.152  1.00  0.00     0.000 HD 
HETATM   19  H1  UNL     1     -12.028   1.101  63.579  1.00  0.00     0.000 HD 
HETATM   20  N   UNL     1     -10.003   1.581  64.687  1.00  0.00    -0.332 NA 
HETATM   21  N   UNL     1     -11.537   1.803  63.024  1.00  0.00    -0.324 NA 
HETATM   22  C   UNL     1     -10.364   2.140  63.595  1.00  0.00    -0.126 C  
HETATM   23  H   UNL     1     -10.126   3.324  61.962  1.00  0.00     0.000 HD 
HETATM   24  H1  UNL     1     -10.494   0.879  65.241  1.00  0.00     0.000 HD 
HETATM   25  H2  UNL     1      -9.100   1.878  65.054  1.00  0.00     0.000 HD 
ENDBRANCH  16  17
ENDBRANCH  15  16
ENDBRANCH  14  15
ENDBRANCH  13  14
BRANCH  13  26
HETATM   26  N   UNL     1      -8.730   7.086  65.606  1.00  0.00    -0.298 N  
HETATM   27  H   UNL     1      -8.640   7.040  64.591  1.00  0.00     0.000 HD 
BRANCH  26  28
HETATM   28  S   UNL     1      -9.461   8.436  66.353  1.00  0.00    -0.225 S  
HETATM   29  O   UNL     1      -8.555   8.942  67.350  1.00  0.00    -0.118 OA 
HETATM   30  O   UNL     1     -10.786   7.986  66.730  1.00  0.00    -0.289 OA 
BRANCH  28  31
HETATM   31  C   UNL     1      -9.605   9.586  65.010  1.00  0.00    -0.148 A  
HETATM   32  C   UNL     1     -11.177  12.934  64.046  1.00  0.00    -0.458 C  
HETATM   33  C   UNL     1      -9.013   9.220  63.791  1.00  0.00    -0.080 A  
HETATM   34  C   UNL     1     -12.780  14.362  65.365  1.00  0.00    -0.297 C  
HETATM   35  C   UNL     1      -9.096  10.066  62.690  1.00  0.00    -0.304 A  
HETATM   36  C   UNL     1     -12.165  12.974  65.216  1.00  0.00    -0.513 C  
HETATM   37  C   UNL     1     -11.424  12.542  66.474  1.00  0.00    -0.362 C  
HETATM   38  H   UNL     1     -11.068  10.494  67.096  1.00  0.00     0.000 HD 
HETATM   39  N   UNL     1     -10.940  11.171  66.343  1.00  0.00    -0.233 NA 
HETATM   40  C   UNL     1      -9.768  11.278  62.803  1.00  0.00    -0.289 A  
HETATM   41  C   UNL     1     -10.293  10.809  65.151  1.00  0.00    -0.271 A  
HETATM   42  C   UNL     1     -10.376  11.651  64.016  1.00  0.00    -0.405 A  
ENDBRANCH  28  31
ENDBRANCH  26  28
ENDBRANCH  13  26
ENDBRANCH   7  13
TORSDOF 8
ENDMDL
MODEL      319
REMARK 921   NORMALIZED FREE ENERGY PREDICTED BY IDOCK:   -4.11 KCAL/MOL
REMARK 922        TOTAL FREE ENERGY PREDICTED BY IDOCK:   -7.28 KCAL/MOL
REMARK 923 INTER-LIGAND FREE ENERGY PREDICTED BY IDOCK:   -6.73 KCAL/MOL
REMARK 924 INTRA-LIGAND FREE ENERGY PREDICTED BY IDOCK:   -0.55 KCAL/MOL
REMARK 927      BINDING AFFINITY PREDICTED BY RF-SCORE:    0.00 PKD
ROOT
HETATM    1  C   UNL     1     -10.817  15.645  70.383  1.00  0.00    -0.358 C  
HETATM    2  C   UNL     1     -10.805  15.160  68.940  1.00  0.00    -0.241 C  
HETATM    3  C   UNL     1     -12.001  14.253  68.634  1.00  0.00    -0.348 C  
HETATM    4  C   UNL     1     -11.951  13.737  67.195  1.00  0.00    -0.405 C  
HETATM    5  N   UNL     1     -10.636  13.144  66.827  1.00  0.00    -0.262 N  
HETATM    6  C   UNL     1      -9.460  13.978  67.158  1.00  0.00    -0.241 C  
HETATM    7  C   UNL     1     -10.598  11.759  66.614  1.00  0.00    -0.240 C  
HETATM    8  O   UNL     1     -11.642  11.112  66.772  1.00  0.00    -0.381 OA 
HETATM    9  O   UNL     1     -10.123  15.393  65.318  1.00  0.00    -0.349 OA 
HETATM   10  C   UNL     1      -9.507  14.398  68.631  1.00  0.00    -0.193 C  
HETATM   11  C   UNL     1      -9.229  15.223  66.295  1.00  0.00    -0.315 C  
HETATM   12  O   UNL     1      -8.314  16.012  66.472  1.00  0.00    -0.267 OA 
ENDROOT
BRANCH   7  13
HETATM   13  C   UNL     1      -9.350  10.976  66.070  1.00  0.00    -0.201 C  
BRANCH  13  14
HETATM   14  C   UNL     1      -9.541   9.912  64.957  1.00  0.00    -0.364 C  
BRANCH  14  15
HETATM   15  C   UNL     1      -8.687  10.197  63.705  1.00  0.00    -0.218 C  
BRANCH  15  16
HETATM   16  C   UNL     1      -8.989   9.268  62.519  1.00  0.00    -0.175 C  
BRANCH  16  17
HETATM   17  N   UNL     1      -7.878   8.347  62.364  1.00  0.00    -0.134 NA 
HETATM   18  H2  UNL     1      -6.014   6.853  61.827  1.00  0.00     0.000 HD 
HETATM   19  H1  UNL     1      -6.628   5.538  62.900  1.00  0.00     0.000 HD 
HETATM   20  N   UNL     1      -8.579   6.553  63.748  1.00  0.00    -0.272 NA 
HETATM   21  N   UNL     1      -6.693   6.467  62.484  1.00  0.00    -0.038 NA 
HETATM   22  C   UNL     1      -7.792   7.117  62.914  1.00  0.00    -0.119 C  
HETATM   23  H   UNL     1      -7.093   8.656  61.788  1.00  0.00     0.000 HD 
HETATM   24  H1  UNL     1      -8.515   5.623  64.165  1.00  0.00     0.000 HD 
HETATM   25  H2  UNL     1      -9.384   7.108  64.038  1.00  0.00     0.000 HD 
ENDBRANCH  16  17
ENDBRANCH  15  16
ENDBRANCH  14  15
ENDBRANCH  13  14
BRANCH  13  26
HETATM   26  N   UNL     1      -8.519  10.375  67.150  1.00  0.00    -0.126 N  
HETATM   27  H   UNL     1      -7.527  10.599  67.229  1.00  0.00     0.000 HD 
BRANCH  26  28
HETATM   28  S   UNL     1      -9.258   9.302  68.254  1.00  0.00    -0.130 S  
HETATM   29  O   UNL     1     -10.199   8.490  67.527  1.00  0.00    -0.206 OA 
HETATM   30  O   UNL     1      -9.707  10.138  69.349  1.00  0.00    -0.207 OA 
BRANCH  28  31
HETATM   31  C   UNL     1      -7.890   8.317  68.805  1.00  0.00    -0.115 A  
HETATM   32  C   UNL     1      -6.708   6.134  71.712  1.00  0.00    -0.063 C  
HETATM   33  C   UNL     1      -6.749   8.295  67.988  1.00  0.00    -0.065 A  
HETATM   34  C   UNL     1      -7.821   5.730  73.936  1.00  0.00    -0.099 C  
HETATM   35  C   UNL     1      -5.633   7.554  68.362  1.00  0.00    -0.027 A  
HETATM   36  C   UNL     1      -7.762   6.632  72.706  1.00  0.00    -0.100 C  
HETATM   37  C   UNL     1      -9.101   6.695  71.983  1.00  0.00    -0.139 C  
HETATM   38  H   UNL     1      -9.789   8.329  70.732  1.00  0.00     0.000 HD 
HETATM   39  N   UNL     1      -9.044   7.646  70.876  1.00  0.00    -0.148 NA 
HETATM   40  C   UNL     1      -5.653   6.834  69.551  1.00  0.00    -0.015 A  
HETATM   41  C   UNL     1      -7.936   7.595  70.016  1.00  0.00    -0.114 A  
HETATM   42  C   UNL     1      -6.786   6.857  70.385  1.00  0.00    -0.058 A  
ENDBRANCH  28  31
ENDBRANCH  26  28
ENDBRANCH  13  26
ENDBRANCH   7  13
TORSDOF 8
ENDMDL
MODEL      320
REMARK 921   NORMALIZED FREE ENERGY PREDICTED BY IDOCK:   -4.09 KCAL/MOL
REMARK 922        TOTAL FREE ENERGY PREDICTED BY IDOCK:   -7.26 KCAL/MOL
REMARK 923 INTER-LIGAND FREE ENERGY PREDICTED BY IDOCK:   -5.58 KCAL/MOL
REMARK 924 INTRA-LIGAND FREE ENERGY PREDICTED BY IDOCK:   -1.68 KCAL/MOL
REMARK 927      BINDING AFFINITY PREDICTED BY RF-SCORE:    0.00 PKD
ROOT
HETATM    1  C   UNL     1     -12.160  16.182  69.238  1.00  0.00     0.030 C  
HETATM    2  C   UNL     1     -11.290  15.169  68.508  1.00  0.00    -0.321 C  
HETATM    3  C   UNL     1     -12.085  14.385  67.459  1.00  0.00    -0.327 C  
HETATM    4  C   UNL     1     -11.209  13.341  66.766  1.00  0.00    -0.304 C  
HETATM    5  N   UNL     1     -10.455  12.479  67.717  1.00  0.00    -0.216 N  
HETATM    6  C   UNL     1      -9.717  13.210  68.771  1.00  0.00     0.049 C  
HETATM    7  C   UNL     1     -10.831  11.132  67.795  1.00  0.00    -0.239 C  
HETATM    8  O   UNL     1     -11.780  10.746  67.098  1.00  0.00    -0.312 OA 
HETATM    9  O   UNL     1      -8.165  13.857  67.040  1.00  0.00    -0.154 OA 
HETATM   10  C   UNL     1     -10.656  14.180  69.498  1.00  0.00     0.014 C  
HETATM   11  C   UNL     1      -8.459  13.969  68.337  1.00  0.00    -0.166 C  
HETATM   12  O   UNL     1      -7.771  14.632  69.097  1.00  0.00    -0.135 OA 
ENDROOT
BRANCH   7  13
HETATM   13  C   UNL     1     -10.061  10.037  68.617  1.00  0.00    -0.172 C  
BRANCH  13  14
HETATM   14  C   UNL     1     -10.290   9.929  70.148  1.00  0.00    -0.336 C  
BRANCH  14  15
HETATM   15  C   UNL     1     -11.784   9.949  70.531  1.00  0.00    -0.373 C  
BRANCH  15  16
HETATM   16  C   UNL     1     -12.250   8.700  71.294  1.00  0.00    -0.281 C  
BRANCH  16  17
HETATM   17  N   UNL     1     -11.186   7.714  71.252  1.00  0.00    -0.250 NA 
HETATM   18  H2  UNL     1      -9.361   6.119  70.912  1.00  0.00     0.000 HD 
HETATM   19  H1  UNL     1     -10.194   4.814  71.840  1.00  0.00     0.000 HD 
HETATM   20  N   UNL     1     -12.177   5.927  72.459  1.00  0.00    -0.495 NA 
HETATM   21  N   UNL     1     -10.145   5.758  71.456  1.00  0.00    -0.190 NA 
HETATM   22  C   UNL     1     -11.251   6.465  71.761  1.00  0.00    -0.277 C  
HETATM   23  H   UNL     1     -10.314   7.988  70.800  1.00  0.00     0.000 HD 
HETATM   24  H1  UNL     1     -12.226   4.983  72.843  1.00  0.00     0.000 HD 
HETATM   25  H2  UNL     1     -12.979   6.525  72.660  1.00  0.00     0.000 HD 
ENDBRANCH  16  17
ENDBRANCH  15  16
ENDBRANCH  14  15
ENDBRANCH  13  14
BRANCH  13  26
HETATM   26  N   UNL     1      -8.593  10.041  68.366  1.00  0.00    -0.111 N  
HETATM   27  H   UNL     1      -7.981  10.682  68.871  1.00  0.00     0.000 HD 
BRANCH  26  28
HETATM   28  S   UNL     1      -7.954   8.951  67.217  1.00  0.00    -0.096 S  
HETATM   29  O   UNL     1      -6.747   9.523  66.680  1.00  0.00    -0.070 OA 
HETATM   30  O   UNL     1      -9.064   8.631  66.343  1.00  0.00    -0.151 OA 
BRANCH  28  31
HETATM   31  C   UNL     1      -7.575   7.529  68.208  1.00  0.00    -0.114 A  
HETATM   32  C   UNL     1      -6.196   6.496  71.620  1.00  0.00    -0.042 C  
HETATM   33  C   UNL     1      -7.755   6.271  67.612  1.00  0.00    -0.098 A  
HETATM   34  C   UNL     1      -5.205   7.947  73.426  1.00  0.00    -0.041 C  
HETATM   35  C   UNL     1      -7.466   5.111  68.324  1.00  0.00    -0.075 A  
HETATM   36  C   UNL     1      -5.587   7.862  71.951  1.00  0.00    -0.035 C  
HETATM   37  C   UNL     1      -6.596   8.935  71.563  1.00  0.00    -0.080 C  
HETATM   38  H   UNL     1      -6.871   9.756  69.573  1.00  0.00     0.000 HD 
HETATM   39  N   UNL     1      -6.861   8.899  70.127  1.00  0.00    -0.040 NA 
HETATM   40  C   UNL     1      -6.998   5.205  69.630  1.00  0.00    -0.054 A  
HETATM   41  C   UNL     1      -7.101   7.651  69.531  1.00  0.00    -0.064 A  
HETATM   42  C   UNL     1      -6.802   6.460  70.234  1.00  0.00    -0.054 A  
ENDBRANCH  28  31
ENDBRANCH  26  28
ENDBRANCH  13  26
ENDBRANCH   7  13
TORSDOF 8
ENDMDL
MODEL      321
REMARK 921   NORMALIZED FREE ENERGY PREDICTED BY IDOCK:   -4.09 KCAL/MOL
REMARK 922        TOTAL FREE ENERGY PREDICTED BY IDOCK:   -7.26 KCAL/MOL
REMARK 923 INTER-LIGAND FREE ENERGY PREDICTED BY IDOCK:   -7.00 KCAL/MOL
REMARK 924 INTRA-LIGAND FREE ENERGY PREDICTED BY IDOCK:   -0.26 KCAL/MOL
REMARK 927      BINDING AFFINITY PREDICTED BY RF-SCORE:    0.00 PKD
ROOT
HETATM    1  C   UNL     1      -6.337   5.887  63.312  1.00  0.00    -0.025 C  
HETATM    2  C   UNL     1      -6.672   7.298  63.773  1.00  0.00    -0.052 C  
HETATM    3  C   UNL     1      -5.775   7.748  64.931  1.00  0.00    -0.037 C  
HETATM    4  C   UNL     1      -6.153   9.149  65.413  1.00  0.00    -0.063 C  
HETATM    5  N   UNL     1      -7.608   9.306  65.683  1.00  0.00    -0.093 N  
HETATM    6  C   UNL     1      -8.499   8.833  64.601  1.00  0.00    -0.151 C  
HETATM    7  C   UNL     1      -7.995   9.472  67.020  1.00  0.00    -0.109 C  
HETATM    8  O   UNL     1      -7.116   9.448  67.893  1.00  0.00    -0.079 OA 
HETATM    9  O   UNL     1      -7.807  10.789  63.368  1.00  0.00    -0.004 OA 
HETATM   10  C   UNL     1      -8.141   7.395  64.212  1.00  0.00    -0.055 C  
HETATM   11  C   UNL     1      -8.562   9.689  63.332  1.00  0.00    -0.209 C  
HETATM   12  O   UNL     1      -9.235   9.404  62.354  1.00  0.00    -0.258 OA 
ENDROOT
BRANCH   7  13
HETATM   13  C   UNL     1      -9.456   9.807  67.489  1.00  0.00    -0.147 C  
BRANCH  13  14
HETATM   14  C   UNL     1     -10.364   8.671  68.029  1.00  0.00    -0.277 C  
BRANCH  14  15
HETATM   15  C   UNL     1     -10.071   7.307  67.370  1.00  0.00    -0.266 C  
BRANCH  15  16
HETATM   16  C   UNL     1     -11.021   6.183  67.811  1.00  0.00    -0.303 C  
BRANCH  16  17
HETATM   17  N   UNL     1     -10.362   4.910  67.585  1.00  0.00    -0.077 NA 
HETATM   18  H2  UNL     1      -9.030   2.871  67.341  1.00  0.00     0.000 HD 
HETATM   19  H1  UNL     1      -9.505   2.648  65.614  1.00  0.00     0.000 HD 
HETATM   20  N   UNL     1     -10.923   4.506  65.315  1.00  0.00    -0.875 NA 
HETATM   21  N   UNL     1      -9.534   3.153  66.500  1.00  0.00    -0.104 NA 
HETATM   22  C   UNL     1     -10.323   4.241  66.413  1.00  0.00     0.066 C  
HETATM   23  H   UNL     1      -9.886   4.484  68.381  1.00  0.00     0.000 HD 
HETATM   24  H1  UNL     1     -10.894   4.001  64.429  1.00  0.00     0.000 HD 
HETATM   25  H2  UNL     1     -11.511   5.339  65.326  1.00  0.00     0.000 HD 
ENDBRANCH  16  17
ENDBRANCH  15  16
ENDBRANCH  14  15
ENDBRANCH  13  14
BRANCH  13  26
HETATM   26  N   UNL     1     -10.231  10.585  66.483  1.00  0.00    -0.224 N  
HETATM   27  H   UNL     1     -10.280  10.276  65.512  1.00  0.00     0.000 HD 
BRANCH  26  28
HETATM   28  S   UNL     1     -11.038  12.003  66.986  1.00  0.00    -0.317 S  
HETATM   29  O   UNL     1     -11.754  11.705  68.199  1.00  0.00    -0.396 OA 
HETATM   30  O   UNL     1     -11.748  12.469  65.813  1.00  0.00    -0.384 OA 
BRANCH  28  31
HETATM   31  C   UNL     1      -9.693  13.110  67.321  1.00  0.00    -0.230 A  
HETATM   32  C   UNL     1      -8.914  16.745  68.210  1.00  0.00    -0.228 C  
HETATM   33  C   UNL     1      -8.394  12.593  67.195  1.00  0.00    -0.172 A  
HETATM   34  C   UNL     1     -10.489  18.706  68.358  1.00  0.00    -0.259 C  
HETATM   35  C   UNL     1      -7.290  13.406  67.430  1.00  0.00    -0.124 A  
HETATM   36  C   UNL     1     -10.294  17.288  67.828  1.00  0.00    -0.356 C  
HETATM   37  C   UNL     1     -11.345  16.330  68.371  1.00  0.00    -0.312 C  
HETATM   38  H   UNL     1     -12.011  14.502  67.410  1.00  0.00     0.000 HD 
HETATM   39  N   UNL     1     -11.200  15.009  67.766  1.00  0.00    -0.311 NA 
HETATM   40  C   UNL     1      -7.480  14.735  67.792  1.00  0.00    -0.178 A  
HETATM   41  C   UNL     1      -9.912  14.455  67.687  1.00  0.00    -0.224 A  
HETATM   42  C   UNL     1      -8.776  15.268  67.911  1.00  0.00    -0.164 A  
ENDBRANCH  28  31
ENDBRANCH  26  28
ENDBRANCH  13  26
ENDBRANCH   7  13
TORSDOF 8
ENDMDL
MODEL      322
REMARK 921   NORMALIZED FREE ENERGY PREDICTED BY IDOCK:   -4.09 KCAL/MOL
REMARK 922        TOTAL FREE ENERGY PREDICTED BY IDOCK:   -7.25 KCAL/MOL
REMARK 923 INTER-LIGAND FREE ENERGY PREDICTED BY IDOCK:   -5.78 KCAL/MOL
REMARK 924 INTRA-LIGAND FREE ENERGY PREDICTED BY IDOCK:   -1.46 KCAL/MOL
REMARK 927      BINDING AFFINITY PREDICTED BY RF-SCORE:    0.00 PKD
ROOT
HETATM    1  C   UNL     1      -9.029   2.668  69.416  1.00  0.00    -0.170 C  
HETATM    2  C   UNL     1      -8.907   4.088  68.883  1.00  0.00    -0.149 C  
HETATM    3  C   UNL     1      -7.708   4.824  69.491  1.00  0.00    -0.062 C  
HETATM    4  C   UNL     1      -7.624   6.263  68.981  1.00  0.00    -0.096 C  
HETATM    5  N   UNL     1      -8.910   7.006  69.098  1.00  0.00    -0.135 N  
HETATM    6  C   UNL     1     -10.092   6.296  68.563  1.00  0.00    -0.157 C  
HETATM    7  C   UNL     1      -8.960   8.050  70.031  1.00  0.00    -0.144 C  
HETATM    8  O   UNL     1      -7.953   8.273  70.718  1.00  0.00    -0.090 OA 
HETATM    9  O   UNL     1      -9.212   6.776  66.368  1.00  0.00    -0.160 OA 
HETATM   10  C   UNL     1     -10.185   4.891  69.170  1.00  0.00    -0.186 C  
HETATM   11  C   UNL     1     -10.204   6.186  67.039  1.00  0.00    -0.202 C  
HETATM   12  O   UNL     1     -11.112   5.608  66.465  1.00  0.00    -0.194 OA 
ENDROOT
BRANCH   7  13
HETATM   13  C   UNL     1     -10.165   9.044  70.191  1.00  0.00    -0.197 C  
BRANCH  13  14
HETATM   14  C   UNL     1     -11.271   8.742  71.237  1.00  0.00    -0.352 C  
BRANCH  14  15
HETATM   15  C   UNL     1     -11.985   7.399  70.981  1.00  0.00    -0.337 C  
BRANCH  15  16
HETATM   16  C   UNL     1     -11.723   6.337  72.059  1.00  0.00    -0.322 C  
BRANCH  16  17
HETATM   17  N   UNL     1     -10.334   6.431  72.468  1.00  0.00    -0.188 NA 
HETATM   18  H2  UNL     1      -7.958   6.772  72.947  1.00  0.00     0.000 HD 
HETATM   19  H1  UNL     1      -7.653   5.011  73.199  1.00  0.00     0.000 HD 
HETATM   20  N   UNL     1      -9.814   4.145  72.833  1.00  0.00    -0.132 NA 
HETATM   21  N   UNL     1      -8.264   5.799  72.983  1.00  0.00    -0.118 NA 
HETATM   22  C   UNL     1      -9.526   5.388  72.753  1.00  0.00    -0.145 C  
HETATM   23  H   UNL     1      -9.933   7.366  72.547  1.00  0.00     0.000 HD 
HETATM   24  H1  UNL     1      -9.203   3.356  73.049  1.00  0.00     0.000 HD 
HETATM   25  H2  UNL     1     -10.790   3.908  72.657  1.00  0.00     0.000 HD 
ENDBRANCH  16  17
ENDBRANCH  15  16
ENDBRANCH  14  15
ENDBRANCH  13  14
BRANCH  13  26
HETATM   26  N   UNL     1     -10.826   9.377  68.898  1.00  0.00    -0.383 N  
HETATM   27  H   UNL     1     -11.091   8.640  68.245  1.00  0.00     0.000 HD 
BRANCH  26  28
HETATM   28  S   UNL     1     -11.132  11.016  68.531  1.00  0.00    -0.268 S  
HETATM   29  O   UNL     1     -11.589  11.667  69.731  1.00  0.00    -0.294 OA 
HETATM   30  O   UNL     1     -11.970  10.987  67.349  1.00  0.00    -0.450 OA 
BRANCH  28  31
HETATM   31  C   UNL     1      -9.524  11.614  68.080  1.00  0.00    -0.185 A  
HETATM   32  C   UNL     1      -6.606  10.956  65.700  1.00  0.00     0.043 C  
HETATM   33  C   UNL     1      -9.004  12.678  68.834  1.00  0.00     0.315 A  
HETATM   34  C   UNL     1      -6.281   9.042  64.093  1.00  0.00    -0.072 C  
HETATM   35  C   UNL     1      -7.744  13.191  68.546  1.00  0.00    -0.117 A  
HETATM   36  C   UNL     1      -7.048   9.541  65.315  1.00  0.00    -0.099 C  
HETATM   37  C   UNL     1      -8.551   9.565  65.071  1.00  0.00    -0.167 C  
HETATM   38  H   UNL     1     -10.085   9.421  66.599  1.00  0.00     0.000 HD 
HETATM   39  N   UNL     1      -9.264   9.942  66.289  1.00  0.00    -0.161 NA 
HETATM   40  C   UNL     1      -7.001  12.645  67.506  1.00  0.00    -0.150 A  
HETATM   41  C   UNL     1      -8.789  11.042  67.020  1.00  0.00    -0.143 A  
HETATM   42  C   UNL     1      -7.505  11.571  66.751  1.00  0.00    -0.118 A  
ENDBRANCH  28  31
ENDBRANCH  26  28
ENDBRANCH  13  26
ENDBRANCH   7  13
TORSDOF 8
ENDMDL
MODEL      323
REMARK 921   NORMALIZED FREE ENERGY PREDICTED BY IDOCK:   -4.09 KCAL/MOL
REMARK 922        TOTAL FREE ENERGY PREDICTED BY IDOCK:   -7.25 KCAL/MOL
REMARK 923 INTER-LIGAND FREE ENERGY PREDICTED BY IDOCK:   -5.05 KCAL/MOL
REMARK 924 INTRA-LIGAND FREE ENERGY PREDICTED BY IDOCK:   -2.20 KCAL/MOL
REMARK 927      BINDING AFFINITY PREDICTED BY RF-SCORE:    0.00 PKD
ROOT
HETATM    1  C   UNL     1      -5.898  12.116  67.259  1.00  0.00    -0.146 C  
HETATM    2  C   UNL     1      -6.673  11.035  68.000  1.00  0.00    -0.063 C  
HETATM    3  C   UNL     1      -5.971  10.618  69.296  1.00  0.00    -0.042 C  
HETATM    4  C   UNL     1      -6.737   9.501  70.006  1.00  0.00    -0.070 C  
HETATM    5  N   UNL     1      -7.078   8.360  69.112  1.00  0.00    -0.063 N  
HETATM    6  C   UNL     1      -7.713   8.739  67.831  1.00  0.00    -0.102 C  
HETATM    7  C   UNL     1      -6.422   7.145  69.349  1.00  0.00    -0.036 C  
HETATM    8  O   UNL     1      -5.583   7.099  70.259  1.00  0.00    -0.023 OA 
HETATM    9  O   UNL     1      -9.694   9.229  69.118  1.00  0.00    -0.158 OA 
HETATM   10  C   UNL     1      -6.865   9.795  67.113  1.00  0.00    -0.083 C  
HETATM   11  C   UNL     1      -9.164   9.227  67.893  1.00  0.00    -0.129 C  
HETATM   12  O   UNL     1      -9.799   9.594  66.917  1.00  0.00    -0.178 OA 
ENDROOT
BRANCH   7  13
HETATM   13  C   UNL     1      -6.757   5.795  68.621  1.00  0.00    -0.060 C  
BRANCH  13  14
HETATM   14  C   UNL     1      -6.459   5.650  67.105  1.00  0.00    -0.044 C  
BRANCH  14  15
HETATM   15  C   UNL     1      -7.711   5.855  66.227  1.00  0.00    -0.102 C  
BRANCH  15  16
HETATM   16  C   UNL     1      -7.882   4.797  65.127  1.00  0.00    -0.091 C  
BRANCH  16  17
HETATM   17  N   UNL     1      -7.669   3.486  65.713  1.00  0.00    -0.081 NA 
HETATM   18  H2  UNL     1      -7.194   1.203  66.457  1.00  0.00     0.000 HD 
HETATM   19  H1  UNL     1      -8.811   1.013  67.236  1.00  0.00     0.000 HD 
HETATM   20  N   UNL     1      -9.757   3.123  66.780  1.00  0.00    -0.402 NA 
HETATM   21  N   UNL     1      -8.118   1.550  66.713  1.00  0.00    -0.071 NA 
HETATM   22  C   UNL     1      -8.585   2.776  66.405  1.00  0.00    -0.110 C  
HETATM   23  H   UNL     1      -6.747   3.065  65.592  1.00  0.00     0.000 HD 
HETATM   24  H1  UNL     1     -10.450   2.586  67.303  1.00  0.00     0.000 HD 
HETATM   25  H2  UNL     1     -10.039   4.068  66.521  1.00  0.00     0.000 HD 
ENDBRANCH  16  17
ENDBRANCH  15  16
ENDBRANCH  14  15
ENDBRANCH  13  14
BRANCH  13  26
HETATM   26  N   UNL     1      -8.149   5.325  68.868  1.00  0.00    -0.086 N  
HETATM   27  H   UNL     1      -8.932   5.723  68.349  1.00  0.00     0.000 HD 
BRANCH  26  28
HETATM   28  S   UNL     1      -8.409   4.108  70.037  1.00  0.00    -0.061 S  
HETATM   29  O   UNL     1      -7.215   3.308  70.124  1.00  0.00    -0.040 OA 
HETATM   30  O   UNL     1      -9.672   3.500  69.673  1.00  0.00    -0.164 OA 
BRANCH  28  31
HETATM   31  C   UNL     1      -8.630   5.048  71.525  1.00  0.00    -0.124 A  
HETATM   32  C   UNL     1     -10.940   7.609  73.174  1.00  0.00    -0.411 C  
HETATM   33  C   UNL     1      -7.634   4.932  72.507  1.00  0.00    -0.091 A  
HETATM   34  C   UNL     1     -12.911   8.825  72.181  1.00  0.00    -0.456 C  
HETATM   35  C   UNL     1      -7.733   5.649  73.695  1.00  0.00    -0.101 A  
HETATM   36  C   UNL     1     -11.651   8.018  71.880  1.00  0.00    -0.348 C  
HETATM   37  C   UNL     1     -11.962   6.753  71.092  1.00  0.00    -0.370 C  
HETATM   38  H   UNL     1     -10.587   5.708  69.778  1.00  0.00     0.000 HD 
HETATM   39  N   UNL     1     -10.731   6.058  70.726  1.00  0.00    -0.260 NA 
HETATM   40  C   UNL     1      -8.828   6.480  73.906  1.00  0.00    -0.148 A  
HETATM   41  C   UNL     1      -9.750   5.884  71.716  1.00  0.00    -0.155 A  
HETATM   42  C   UNL     1      -9.828   6.613  72.926  1.00  0.00    -0.179 A  
ENDBRANCH  28  31
ENDBRANCH  26  28
ENDBRANCH  13  26
ENDBRANCH   7  13
TORSDOF 8
ENDMDL
MODEL      324
REMARK 921   NORMALIZED FREE ENERGY PREDICTED BY IDOCK:   -4.08 KCAL/MOL
REMARK 922        TOTAL FREE ENERGY PREDICTED BY IDOCK:   -7.23 KCAL/MOL
REMARK 923 INTER-LIGAND FREE ENERGY PREDICTED BY IDOCK:   -6.00 KCAL/MOL
REMARK 924 INTRA-LIGAND FREE ENERGY PREDICTED BY IDOCK:   -1.24 KCAL/MOL
REMARK 927      BINDING AFFINITY PREDICTED BY RF-SCORE:    0.00 PKD
ROOT
HETATM    1  C   UNL     1      -6.131  12.645  67.241  1.00  0.00    -0.086 C  
HETATM    2  C   UNL     1      -7.250  11.616  67.183  1.00  0.00    -0.145 C  
HETATM    3  C   UNL     1      -7.560  11.031  68.565  1.00  0.00    -0.114 C  
HETATM    4  C   UNL     1      -8.654   9.967  68.484  1.00  0.00    -0.119 C  
HETATM    5  N   UNL     1      -8.399   8.937  67.439  1.00  0.00    -0.108 N  
HETATM    6  C   UNL     1      -8.049   9.475  66.106  1.00  0.00    -0.111 C  
HETATM    7  C   UNL     1      -8.104   7.640  67.879  1.00  0.00    -0.123 C  
HETATM    8  O   UNL     1      -8.044   7.434  69.100  1.00  0.00    -0.117 OA 
HETATM    9  O   UNL     1     -10.369  10.106  65.906  1.00  0.00    -0.229 OA 
HETATM   10  C   UNL     1      -6.889  10.470  66.225  1.00  0.00    -0.127 C  
HETATM   11  C   UNL     1      -9.179  10.125  65.302  1.00  0.00    -0.209 C  
HETATM   12  O   UNL     1      -9.026  10.629  64.201  1.00  0.00    -0.194 OA 
ENDROOT
BRANCH   7  13
HETATM   13  C   UNL     1      -7.960   6.391  66.938  1.00  0.00    -0.109 C  
BRANCH  13  14
HETATM   14  C   UNL     1      -6.620   6.147  66.194  1.00  0.00    -0.048 C  
BRANCH  14  15
HETATM   15  C   UNL     1      -6.740   6.339  64.668  1.00  0.00    -0.038 C  
BRANCH  15  16
HETATM   16  C   UNL     1      -6.150   5.184  63.845  1.00  0.00    -0.022 C  
BRANCH  16  17
HETATM   17  N   UNL     1      -7.058   4.055  63.923  1.00  0.00    -0.049 NA 
HETATM   18  H2  UNL     1      -8.371   1.990  63.980  1.00  0.00     0.000 HD 
HETATM   19  H1  UNL     1      -9.778   2.742  63.135  1.00  0.00     0.000 HD 
HETATM   20  N   UNL     1      -8.971   4.936  62.830  1.00  0.00    -0.247 NA 
HETATM   21  N   UNL     1      -8.840   2.779  63.534  1.00  0.00    -0.088 NA 
HETATM   22  C   UNL     1      -8.300   4.006  63.395  1.00  0.00    -0.093 C  
HETATM   23  H   UNL     1      -6.730   3.226  64.419  1.00  0.00     0.000 HD 
HETATM   24  H1  UNL     1      -9.910   4.899  62.431  1.00  0.00     0.000 HD 
HETATM   25  H2  UNL     1      -8.504   5.840  62.769  1.00  0.00     0.000 HD 
ENDBRANCH  16  17
ENDBRANCH  15  16
ENDBRANCH  14  15
ENDBRANCH  13  14
BRANCH  13  26
HETATM   26  N   UNL     1      -9.069   6.269  65.952  1.00  0.00    -0.297 N  
HETATM   27  H   UNL     1      -8.960   6.621  65.001  1.00  0.00     0.000 HD 
BRANCH  26  28
HETATM   28  S   UNL     1     -10.526   5.528  66.443  1.00  0.00    -0.194 S  
HETATM   29  O   UNL     1     -10.935   4.614  65.410  1.00  0.00    -0.242 OA 
HETATM   30  O   UNL     1     -11.391   6.622  66.836  1.00  0.00    -0.333 OA 
BRANCH  28  31
HETATM   31  C   UNL     1     -10.032   4.636  67.895  1.00  0.00    -0.077 A  
HETATM   32  C   UNL     1     -10.135   4.771  71.714  1.00  0.00    -0.261 C  
HETATM   33  C   UNL     1      -9.279   3.468  67.700  1.00  0.00    -0.229 A  
HETATM   34  C   UNL     1     -10.956   6.629  73.205  1.00  0.00    -0.237 C  
HETATM   35  C   UNL     1      -8.845   2.723  68.792  1.00  0.00    -0.154 A  
HETATM   36  C   UNL     1     -10.499   6.257  71.797  1.00  0.00    -0.249 C  
HETATM   37  C   UNL     1     -11.575   6.539  70.758  1.00  0.00    -0.377 C  
HETATM   38  H   UNL     1     -11.229   6.940  68.653  1.00  0.00     0.000 HD 
HETATM   39  N   UNL     1     -11.073   6.276  69.412  1.00  0.00    -0.379 NA 
HETATM   40  C   UNL     1      -9.164   3.141  70.079  1.00  0.00    -0.221 A  
HETATM   41  C   UNL     1     -10.368   5.082  69.191  1.00  0.00    -0.104 A  
HETATM   42  C   UNL     1      -9.908   4.316  70.288  1.00  0.00    -0.263 A  
ENDBRANCH  28  31
ENDBRANCH  26  28
ENDBRANCH  13  26
ENDBRANCH   7  13
TORSDOF 8
ENDMDL
MODEL      325
REMARK 921   NORMALIZED FREE ENERGY PREDICTED BY IDOCK:   -4.07 KCAL/MOL
REMARK 922        TOTAL FREE ENERGY PREDICTED BY IDOCK:   -7.22 KCAL/MOL
REMARK 923 INTER-LIGAND FREE ENERGY PREDICTED BY IDOCK:   -5.49 KCAL/MOL
REMARK 924 INTRA-LIGAND FREE ENERGY PREDICTED BY IDOCK:   -1.73 KCAL/MOL
REMARK 927      BINDING AFFINITY PREDICTED BY RF-SCORE:    0.00 PKD
ROOT
HETATM    1  C   UNL     1     -12.024  11.441  69.073  1.00  0.00    -0.387 C  
HETATM    2  C   UNL     1     -10.738  10.809  69.588  1.00  0.00    -0.261 C  
HETATM    3  C   UNL     1      -9.495  11.502  69.019  1.00  0.00     0.068 C  
HETATM    4  C   UNL     1      -8.213  10.829  69.509  1.00  0.00     0.050 C  
HETATM    5  N   UNL     1      -8.216   9.351  69.324  1.00  0.00    -0.106 N  
HETATM    6  C   UNL     1      -9.428   8.663  69.821  1.00  0.00    -0.166 C  
HETATM    7  C   UNL     1      -7.332   8.824  68.374  1.00  0.00    -0.086 C  
HETATM    8  O   UNL     1      -6.628   9.613  67.726  1.00  0.00    -0.064 OA 
HETATM    9  O   UNL     1      -8.587   9.083  72.043  1.00  0.00    -0.367 OA 
HETATM   10  C   UNL     1     -10.685   9.315  69.234  1.00  0.00    -0.211 C  
HETATM   11  C   UNL     1      -9.590   8.553  71.340  1.00  0.00    -0.215 C  
HETATM   12  O   UNL     1     -10.551   8.033  71.885  1.00  0.00    -0.221 OA 
ENDROOT
BRANCH   7  13
HETATM   13  C   UNL     1      -7.077   7.291  68.147  1.00  0.00    -0.081 C  
BRANCH  13  14
HETATM   14  C   UNL     1      -5.927   6.587  68.914  1.00  0.00    -0.022 C  
BRANCH  14  15
HETATM   15  C   UNL     1      -6.098   5.055  68.973  1.00  0.00    -0.029 C  
BRANCH  15  16
HETATM   16  C   UNL     1      -7.383   4.597  69.678  1.00  0.00    -0.051 C  
BRANCH  16  17
HETATM   17  N   UNL     1      -7.953   3.496  68.923  1.00  0.00    -0.058 NA 
HETATM   18  H2  UNL     1      -8.652   1.579  67.571  1.00  0.00     0.000 HD 
HETATM   19  H1  UNL     1     -10.051   2.466  66.854  1.00  0.00     0.000 HD 
HETATM   20  N   UNL     1      -9.826   4.555  67.923  1.00  0.00    -0.135 NA 
HETATM   21  N   UNL     1      -9.236   2.409  67.465  1.00  0.00    -0.173 NA 
HETATM   22  C   UNL     1      -9.032   3.572  68.114  1.00  0.00    -0.134 C  
HETATM   23  H   UNL     1      -7.500   2.586  69.011  1.00  0.00     0.000 HD 
HETATM   24  H1  UNL     1     -10.642   4.612  67.312  1.00  0.00     0.000 HD 
HETATM   25  H2  UNL     1      -9.617   5.399  68.455  1.00  0.00     0.000 HD 
ENDBRANCH  16  17
ENDBRANCH  15  16
ENDBRANCH  14  15
ENDBRANCH  13  14
BRANCH  13  26
HETATM   26  N   UNL     1      -6.972   6.921  66.708  1.00  0.00    -0.064 N  
HETATM   27  H   UNL     1      -6.060   6.794  66.269  1.00  0.00     0.000 HD 
BRANCH  26  28
HETATM   28  S   UNL     1      -8.407   6.713  65.807  1.00  0.00    -0.145 S  
HETATM   29  O   UNL     1      -9.521   7.042  66.657  1.00  0.00    -0.158 OA 
HETATM   30  O   UNL     1      -8.297   5.392  65.223  1.00  0.00    -0.129 OA 
BRANCH  28  31
HETATM   31  C   UNL     1      -8.232   7.926  64.523  1.00  0.00    -0.069 A  
HETATM   32  C   UNL     1      -9.501  11.352  63.402  1.00  0.00    -0.292 C  
HETATM   33  C   UNL     1      -7.390   7.600  63.449  1.00  0.00    -0.090 A  
HETATM   34  C   UNL     1     -11.335  12.761  64.404  1.00  0.00    -0.394 C  
HETATM   35  C   UNL     1      -7.214   8.496  62.399  1.00  0.00    -0.098 A  
HETATM   36  C   UNL     1     -10.723  11.365  64.326  1.00  0.00    -0.420 C  
HETATM   37  C   UNL     1     -10.286  10.859  65.694  1.00  0.00    -0.242 C  
HETATM   38  H   UNL     1     -10.107   8.777  66.277  1.00  0.00     0.000 HD 
HETATM   39  N   UNL     1      -9.805   9.483  65.605  1.00  0.00    -0.306 NA 
HETATM   40  C   UNL     1      -7.876   9.718  62.421  1.00  0.00    -0.128 A  
HETATM   41  C   UNL     1      -8.916   9.159  64.569  1.00  0.00    -0.079 A  
HETATM   42  C   UNL     1      -8.732  10.052  63.487  1.00  0.00    -0.229 A  
ENDBRANCH  28  31
ENDBRANCH  26  28
ENDBRANCH  13  26
ENDBRANCH   7  13
TORSDOF 8
ENDMDL
MODEL      326
REMARK 921   NORMALIZED FREE ENERGY PREDICTED BY IDOCK:   -4.07 KCAL/MOL
REMARK 922        TOTAL FREE ENERGY PREDICTED BY IDOCK:   -7.22 KCAL/MOL
REMARK 923 INTER-LIGAND FREE ENERGY PREDICTED BY IDOCK:   -6.03 KCAL/MOL
REMARK 924 INTRA-LIGAND FREE ENERGY PREDICTED BY IDOCK:   -1.19 KCAL/MOL
REMARK 927      BINDING AFFINITY PREDICTED BY RF-SCORE:    0.00 PKD
ROOT
HETATM    1  C   UNL     1     -12.481  12.338  63.821  1.00  0.00    -0.619 C  
HETATM    2  C   UNL     1     -11.181  11.978  64.526  1.00  0.00    -0.390 C  
HETATM    3  C   UNL     1     -10.317  11.037  63.680  1.00  0.00    -0.415 C  
HETATM    4  C   UNL     1      -9.036  10.648  64.419  1.00  0.00    -0.195 C  
HETATM    5  N   UNL     1      -9.279  10.161  65.804  1.00  0.00    -0.167 N  
HETATM    6  C   UNL     1     -10.151  11.027  66.627  1.00  0.00    -0.220 C  
HETATM    7  C   UNL     1      -9.037   8.804  66.056  1.00  0.00    -0.213 C  
HETATM    8  O   UNL     1      -8.668   8.089  65.113  1.00  0.00    -0.104 OA 
HETATM    9  O   UNL     1      -8.286  12.554  66.745  1.00  0.00    -0.139 OA 
HETATM   10  C   UNL     1     -11.460  11.317  65.884  1.00  0.00     0.149 C  
HETATM   11  C   UNL     1      -9.553  12.352  67.113  1.00  0.00    -0.206 C  
HETATM   12  O   UNL     1     -10.168  13.171  67.777  1.00  0.00    -0.223 OA 
ENDROOT
BRANCH   7  13
HETATM   13  C   UNL     1      -9.084   8.139  67.478  1.00  0.00    -0.137 C  
BRANCH  13  14
HETATM   14  C   UNL     1      -8.329   8.806  68.658  1.00  0.00    -0.128 C  
BRANCH  14  15
HETATM   15  C   UNL     1      -7.827   7.786  69.700  1.00  0.00    -0.107 C  
BRANCH  15  16
HETATM   16  C   UNL     1      -6.301   7.615  69.721  1.00  0.00    -0.031 C  
BRANCH  16  17
HETATM   17  N   UNL     1      -5.858   7.608  71.103  1.00  0.00    -0.035 NA 
HETATM   18  H2  UNL     1      -4.892   7.749  73.347  1.00  0.00     0.000 HD 
HETATM   19  H1  UNL     1      -5.215   6.009  73.705  1.00  0.00     0.000 HD 
HETATM   20  N   UNL     1      -6.241   5.341  71.691  1.00  0.00    -0.029 NA 
HETATM   21  N   UNL     1      -5.246   6.826  73.094  1.00  0.00    -0.037 NA 
HETATM   22  C   UNL     1      -5.817   6.527  71.911  1.00  0.00    -0.037 C  
HETATM   23  H   UNL     1      -5.552   8.498  71.498  1.00  0.00     0.000 HD 
HETATM   24  H1  UNL     1      -6.209   4.524  72.301  1.00  0.00     0.000 HD 
HETATM   25  H2  UNL     1      -6.670   5.191  70.778  1.00  0.00     0.000 HD 
ENDBRANCH  16  17
ENDBRANCH  15  16
ENDBRANCH  14  15
ENDBRANCH  13  14
BRANCH  13  26
HETATM   26  N   UNL     1      -8.732   6.692  67.460  1.00  0.00    -0.119 N  
HETATM   27  H   UNL     1      -7.757   6.394  67.423  1.00  0.00     0.000 HD 
BRANCH  26  28
HETATM   28  S   UNL     1      -9.992   5.540  67.503  1.00  0.00    -0.176 S  
HETATM   29  O   UNL     1      -9.528   4.344  66.850  1.00  0.00    -0.151 OA 
HETATM   30  O   UNL     1     -11.159   6.240  67.005  1.00  0.00    -0.362 OA 
BRANCH  28  31
HETATM   31  C   UNL     1     -10.191   5.255  69.242  1.00  0.00    -0.231 A  
HETATM   32  C   UNL     1     -11.668   6.795  72.414  1.00  0.00    -0.255 C  
HETATM   33  C   UNL     1      -9.586   4.105  69.773  1.00  0.00    -0.281 A  
HETATM   34  C   UNL     1     -12.716   9.065  72.725  1.00  0.00    -0.119 C  
HETATM   35  C   UNL     1      -9.689   3.822  71.131  1.00  0.00    -0.245 A  
HETATM   36  C   UNL     1     -11.830   8.202  71.831  1.00  0.00    -0.366 C  
HETATM   37  C   UNL     1     -12.400   8.068  70.425  1.00  0.00     0.452 C  
HETATM   38  H   UNL     1     -11.256   7.664  68.626  1.00  0.00     0.000 HD 
HETATM   39  N   UNL     1     -11.481   7.330  69.564  1.00  0.00     0.039 NA 
HETATM   40  C   UNL     1     -10.397   4.685  71.961  1.00  0.00    -0.234 A  
HETATM   41  C   UNL     1     -10.914   6.146  70.063  1.00  0.00    -0.372 A  
HETATM   42  C   UNL     1     -10.999   5.846  71.443  1.00  0.00    -0.327 A  
ENDBRANCH  28  31
ENDBRANCH  26  28
ENDBRANCH  13  26
ENDBRANCH   7  13
TORSDOF 8
ENDMDL
MODEL      327
REMARK 921   NORMALIZED FREE ENERGY PREDICTED BY IDOCK:   -4.04 KCAL/MOL
REMARK 922        TOTAL FREE ENERGY PREDICTED BY IDOCK:   -7.18 KCAL/MOL
REMARK 923 INTER-LIGAND FREE ENERGY PREDICTED BY IDOCK:   -7.29 KCAL/MOL
REMARK 924 INTRA-LIGAND FREE ENERGY PREDICTED BY IDOCK:    0.11 KCAL/MOL
REMARK 927      BINDING AFFINITY PREDICTED BY RF-SCORE:    0.00 PKD
ROOT
HETATM    1  C   UNL     1      -6.962   5.512  65.272  1.00  0.00    -0.060 C  
HETATM    2  C   UNL     1      -6.859   7.011  65.511  1.00  0.00    -0.052 C  
HETATM    3  C   UNL     1      -5.902   7.341  66.662  1.00  0.00    -0.034 C  
HETATM    4  C   UNL     1      -5.844   8.846  66.920  1.00  0.00    -0.049 C  
HETATM    5  N   UNL     1      -7.188   9.473  67.056  1.00  0.00    -0.086 N  
HETATM    6  C   UNL     1      -8.148   9.132  65.984  1.00  0.00    -0.110 C  
HETATM    7  C   UNL     1      -7.545   9.949  68.325  1.00  0.00    -0.080 C  
HETATM    8  O   UNL     1      -6.743   9.794  69.257  1.00  0.00    -0.051 OA 
HETATM    9  O   UNL     1      -6.850  10.578  64.554  1.00  0.00    -0.051 OA 
HETATM   10  C   UNL     1      -8.240   7.610  65.822  1.00  0.00    -0.133 C  
HETATM   11  C   UNL     1      -7.905   9.763  64.609  1.00  0.00    -0.136 C  
HETATM   12  O   UNL     1      -8.604   9.549  63.631  1.00  0.00    -0.186 OA 
ENDROOT
BRANCH   7  13
HETATM   13  C   UNL     1      -8.845  10.775  68.634  1.00  0.00    -0.152 C  
BRANCH  13  14
HETATM   14  C   UNL     1     -10.046  10.703  67.654  1.00  0.00    -0.208 C  
BRANCH  14  15
HETATM   15  C   UNL     1     -11.408  10.690  68.378  1.00  0.00    -0.348 C  
BRANCH  15  16
HETATM   16  C   UNL     1     -11.315  10.373  69.878  1.00  0.00    -0.302 C  
BRANCH  16  17
HETATM   17  N   UNL     1     -11.898  11.477  70.617  1.00  0.00    -0.455 NA 
HETATM   18  H2  UNL     1     -12.620  13.442  71.886  1.00  0.00     0.000 HD 
HETATM   19  H1  UNL     1     -13.733  12.482  72.933  1.00  0.00     0.000 HD 
HETATM   20  N   UNL     1     -13.400  10.324  72.046  1.00  0.00    -0.490 NA 
HETATM   21  N   UNL     1     -13.052  12.565  72.178  1.00  0.00    -0.388 NA 
HETATM   22  C   UNL     1     -12.799  11.367  71.617  1.00  0.00    -0.391 C  
HETATM   23  H   UNL     1     -11.601  12.419  70.359  1.00  0.00     0.000 HD 
HETATM   24  H1  UNL     1     -14.081  10.240  72.802  1.00  0.00     0.000 HD 
HETATM   25  H2  UNL     1     -13.167   9.454  71.568  1.00  0.00     0.000 HD 
ENDBRANCH  16  17
ENDBRANCH  15  16
ENDBRANCH  14  15
ENDBRANCH  13  14
BRANCH  13  26
HETATM   26  N   UNL     1      -8.572  12.208  68.931  1.00  0.00    -0.360 N  
HETATM   27  H   UNL     1      -8.635  12.563  69.885  1.00  0.00     0.000 HD 
BRANCH  26  28
HETATM   28  S   UNL     1      -8.151  13.247  67.643  1.00  0.00    -0.189 S  
HETATM   29  O   UNL     1      -8.546  12.616  66.411  1.00  0.00    -0.021 OA 
HETATM   30  O   UNL     1      -6.764  13.593  67.875  1.00  0.00    -0.118 OA 
BRANCH  28  31
HETATM   31  C   UNL     1      -9.159  14.673  67.956  1.00  0.00    -0.189 A  
HETATM   32  C   UNL     1      -8.998  18.475  68.317  1.00  0.00    -0.332 C  
HETATM   33  C   UNL     1     -10.515  14.446  68.239  1.00  0.00    -0.245 A  
HETATM   34  C   UNL     1      -6.973  19.973  68.347  1.00  0.00    -0.330 C  
HETATM   35  C   UNL     1     -11.364  15.515  68.507  1.00  0.00    -0.356 A  
HETATM   36  C   UNL     1      -7.478  18.540  68.495  1.00  0.00    -0.318 C  
HETATM   37  C   UNL     1      -6.843  17.605  67.474  1.00  0.00    -0.171 C  
HETATM   38  H   UNL     1      -6.584  15.464  67.707  1.00  0.00     0.000 HD 
HETATM   39  N   UNL     1      -7.263  16.226  67.708  1.00  0.00    -0.127 NA 
HETATM   40  C   UNL     1     -10.862  16.811  68.491  1.00  0.00    -0.345 A  
HETATM   41  C   UNL     1      -8.626  15.979  67.934  1.00  0.00    -0.164 A  
HETATM   42  C   UNL     1      -9.503  17.052  68.220  1.00  0.00    -0.265 A  
ENDBRANCH  28  31
ENDBRANCH  26  28
ENDBRANCH  13  26
ENDBRANCH   7  13
TORSDOF 8
ENDMDL
MODEL      328
REMARK 921   NORMALIZED FREE ENERGY PREDICTED BY IDOCK:   -4.03 KCAL/MOL
REMARK 922        TOTAL FREE ENERGY PREDICTED BY IDOCK:   -7.17 KCAL/MOL
REMARK 923 INTER-LIGAND FREE ENERGY PREDICTED BY IDOCK:   -5.55 KCAL/MOL
REMARK 924 INTRA-LIGAND FREE ENERGY PREDICTED BY IDOCK:   -1.62 KCAL/MOL
REMARK 927      BINDING AFFINITY PREDICTED BY RF-SCORE:    0.00 PKD
ROOT
HETATM    1  C   UNL     1      -5.192  14.902  69.197  1.00  0.00    -0.093 C  
HETATM    2  C   UNL     1      -5.625  13.475  68.892  1.00  0.00    -0.074 C  
HETATM    3  C   UNL     1      -5.902  13.270  67.398  1.00  0.00     0.051 C  
HETATM    4  C   UNL     1      -6.379  11.846  67.114  1.00  0.00    -0.151 C  
HETATM    5  N   UNL     1      -7.495  11.411  67.998  1.00  0.00    -0.095 N  
HETATM    6  C   UNL     1      -7.275  11.643  69.442  1.00  0.00     0.039 C  
HETATM    7  C   UNL     1      -8.750  11.233  67.401  1.00  0.00    -0.139 C  
HETATM    8  O   UNL     1      -8.864  11.474  66.191  1.00  0.00    -0.198 OA 
HETATM    9  O   UNL     1      -5.705   9.812  69.354  1.00  0.00    -0.034 OA 
HETATM   10  C   UNL     1      -6.885  13.105  69.689  1.00  0.00     0.165 C  
HETATM   11  C   UNL     1      -6.260  10.734  70.143  1.00  0.00    -0.136 C  
HETATM   12  O   UNL     1      -5.963  10.832  71.324  1.00  0.00    -0.349 OA 
ENDROOT
BRANCH   7  13
HETATM   13  C   UNL     1     -10.006  10.632  68.129  1.00  0.00    -0.158 C  
BRANCH  13  14
HETATM   14  C   UNL     1     -10.999  11.582  68.848  1.00  0.00    -0.279 C  
BRANCH  14  15
HETATM   15  C   UNL     1     -12.072  12.155  67.900  1.00  0.00    -0.027 C  
BRANCH  15  16
HETATM   16  C   UNL     1     -11.670  13.477  67.228  1.00  0.00    -0.383 C  
BRANCH  16  17
HETATM   17  N   UNL     1     -12.229  13.500  65.889  1.00  0.00    -0.442 NA 
HETATM   18  H2  UNL     1     -13.362  13.356  63.725  1.00  0.00     0.000 HD 
HETATM   19  H1  UNL     1     -11.811  13.270  62.805  1.00  0.00     0.000 HD 
HETATM   20  N   UNL     1     -10.258  13.392  64.574  1.00  0.00    -0.600 NA 
HETATM   21  N   UNL     1     -12.344  13.340  63.673  1.00  0.00    -0.729 NA 
HETATM   22  C   UNL     1     -11.525  13.408  64.741  1.00  0.00    -0.336 C  
HETATM   23  H   UNL     1     -13.242  13.595  65.809  1.00  0.00     0.000 HD 
HETATM   24  H1  UNL     1      -9.726  13.322  63.706  1.00  0.00     0.000 HD 
HETATM   25  H2  UNL     1      -9.701  13.458  65.425  1.00  0.00     0.000 HD 
ENDBRANCH  16  17
ENDBRANCH  15  16
ENDBRANCH  14  15
ENDBRANCH  13  14
BRANCH  13  26
HETATM   26  N   UNL     1      -9.667   9.521  69.061  1.00  0.00    -0.165 N  
HETATM   27  H   UNL     1      -9.230   9.713  69.962  1.00  0.00     0.000 HD 
BRANCH  26  28
HETATM   28  S   UNL     1     -10.024   7.918  68.592  1.00  0.00    -0.196 S  
HETATM   29  O   UNL     1     -10.933   7.970  67.476  1.00  0.00    -0.126 OA 
HETATM   30  O   UNL     1     -10.406   7.244  69.815  1.00  0.00    -0.208 OA 
BRANCH  28  31
HETATM   31  C   UNL     1      -8.442   7.310  68.070  1.00  0.00    -0.123 A  
HETATM   32  C   UNL     1      -6.253   6.832  64.972  1.00  0.00    -0.039 C  
HETATM   33  C   UNL     1      -7.630   6.720  69.051  1.00  0.00    -0.101 A  
HETATM   34  C   UNL     1      -6.836   7.225  62.553  1.00  0.00    -0.068 C  
HETATM   35  C   UNL     1      -6.381   6.209  68.713  1.00  0.00    -0.041 A  
HETATM   36  C   UNL     1      -7.388   7.022  63.961  1.00  0.00    -0.084 C  
HETATM   37  C   UNL     1      -8.232   8.205  64.416  1.00  0.00    -0.101 C  
HETATM   38  H   UNL     1      -9.820   8.136  65.893  1.00  0.00     0.000 HD 
HETATM   39  N   UNL     1      -8.834   7.938  65.720  1.00  0.00    -0.150 NA 
HETATM   40  C   UNL     1      -5.940   6.288  67.397  1.00  0.00    -0.017 A  
HETATM   41  C   UNL     1      -8.017   7.402  66.728  1.00  0.00    -0.115 A  
HETATM   42  C   UNL     1      -6.748   6.867  66.402  1.00  0.00    -0.052 A  
ENDBRANCH  28  31
ENDBRANCH  26  28
ENDBRANCH  13  26
ENDBRANCH   7  13
TORSDOF 8
ENDMDL
MODEL      329
REMARK 921   NORMALIZED FREE ENERGY PREDICTED BY IDOCK:   -3.99 KCAL/MOL
REMARK 922        TOTAL FREE ENERGY PREDICTED BY IDOCK:   -7.10 KCAL/MOL
REMARK 923 INTER-LIGAND FREE ENERGY PREDICTED BY IDOCK:   -5.70 KCAL/MOL
REMARK 924 INTRA-LIGAND FREE ENERGY PREDICTED BY IDOCK:   -1.40 KCAL/MOL
REMARK 927      BINDING AFFINITY PREDICTED BY RF-SCORE:    0.00 PKD
ROOT
HETATM    1  C   UNL     1     -11.773  15.982  69.231  1.00  0.00    -0.302 C  
HETATM    2  C   UNL     1     -10.847  15.190  68.318  1.00  0.00    -0.262 C  
HETATM    3  C   UNL     1     -11.480  14.938  66.945  1.00  0.00    -0.318 C  
HETATM    4  C   UNL     1     -10.559  14.103  66.056  1.00  0.00    -0.297 C  
HETATM    5  N   UNL     1     -10.053  12.871  66.721  1.00  0.00    -0.234 N  
HETATM    6  C   UNL     1      -9.481  13.080  68.070  1.00  0.00    -0.217 C  
HETATM    7  C   UNL     1     -10.524  11.644  66.236  1.00  0.00    -0.246 C  
HETATM    8  O   UNL     1     -11.347  11.656  65.310  1.00  0.00    -0.257 OA 
HETATM    9  O   UNL     1      -7.594  14.093  66.959  1.00  0.00    -0.042 OA 
HETATM   10  C   UNL     1     -10.476  13.842  68.953  1.00  0.00    -0.199 C  
HETATM   11  C   UNL     1      -8.118  13.775  68.144  1.00  0.00    -0.155 C  
HETATM   12  O   UNL     1      -7.543  14.032  69.190  1.00  0.00    -0.080 OA 
ENDROOT
BRANCH   7  13
HETATM   13  C   UNL     1      -9.993  10.240  66.699  1.00  0.00    -0.216 C  
BRANCH  13  14
HETATM   14  C   UNL     1     -10.751   9.466  67.809  1.00  0.00    -0.290 C  
BRANCH  14  15
HETATM   15  C   UNL     1     -10.464   7.951  67.784  1.00  0.00    -0.278 C  
BRANCH  15  16
HETATM   16  C   UNL     1     -10.004   7.380  69.134  1.00  0.00    -0.173 C  
BRANCH  16  17
HETATM   17  N   UNL     1      -9.118   8.343  69.761  1.00  0.00    -0.152 NA 
HETATM   18  H2  UNL     1      -7.460   9.940  70.593  1.00  0.00     0.000 HD 
HETATM   19  H1  UNL     1      -7.499   9.262  72.266  1.00  0.00     0.000 HD 
HETATM   20  N   UNL     1      -9.092   7.546  71.996  1.00  0.00    -0.127 NA 
HETATM   21  N   UNL     1      -7.803   9.280  71.292  1.00  0.00    -0.338 NA 
HETATM   22  C   UNL     1      -8.716   8.319  71.050  1.00  0.00    -0.146 C  
HETATM   23  H   UNL     1      -8.769   9.104  69.178  1.00  0.00     0.000 HD 
HETATM   24  H1  UNL     1      -8.788   7.528  72.970  1.00  0.00     0.000 HD 
HETATM   25  H2  UNL     1      -9.793   6.850  71.742  1.00  0.00     0.000 HD 
ENDBRANCH  16  17
ENDBRANCH  15  16
ENDBRANCH  14  15
ENDBRANCH  13  14
BRANCH  13  26
HETATM   26  N   UNL     1      -8.544  10.245  67.041  1.00  0.00    -0.129 N  
HETATM   27  H   UNL     1      -8.217  10.661  67.914  1.00  0.00     0.000 HD 
BRANCH  26  28
HETATM   28  S   UNL     1      -7.439   9.541  65.947  1.00  0.00    -0.102 S  
HETATM   29  O   UNL     1      -6.315  10.430  65.810  1.00  0.00    -0.105 OA 
HETATM   30  O   UNL     1      -8.232   9.181  64.789  1.00  0.00    -0.131 OA 
BRANCH  28  31
HETATM   31  C   UNL     1      -6.953   8.059  66.793  1.00  0.00    -0.073 A  
HETATM   32  C   UNL     1      -7.545   4.283  66.869  1.00  0.00    -0.081 C  
HETATM   33  C   UNL     1      -6.078   8.203  67.881  1.00  0.00    -0.047 A  
HETATM   34  C   UNL     1      -9.213   2.921  65.562  1.00  0.00    -0.123 C  
HETATM   35  C   UNL     1      -5.664   7.087  68.600  1.00  0.00    -0.018 A  
HETATM   36  C   UNL     1      -8.829   4.320  66.036  1.00  0.00    -0.119 C  
HETATM   37  C   UNL     1      -8.608   5.274  64.870  1.00  0.00    -0.145 C  
HETATM   38  H   UNL     1      -8.822   7.432  64.940  1.00  0.00     0.000 HD 
HETATM   39  N   UNL     1      -8.349   6.627  65.353  1.00  0.00    -0.141 NA 
HETATM   40  C   UNL     1      -6.120   5.826  68.234  1.00  0.00    -0.018 A  
HETATM   41  C   UNL     1      -7.431   6.790  66.402  1.00  0.00    -0.074 A  
HETATM   42  C   UNL     1      -7.006   5.669  67.153  1.00  0.00    -0.065 A  
ENDBRANCH  28  31
ENDBRANCH  26  28
ENDBRANCH  13  26
ENDBRANCH   7  13
TORSDOF 8
ENDMDL
MODEL      330
REMARK 921   NORMALIZED FREE ENERGY PREDICTED BY IDOCK:   -3.99 KCAL/MOL
REMARK 922        TOTAL FREE ENERGY PREDICTED BY IDOCK:   -7.10 KCAL/MOL
REMARK 923 INTER-LIGAND FREE ENERGY PREDICTED BY IDOCK:   -5.45 KCAL/MOL
REMARK 924 INTRA-LIGAND FREE ENERGY PREDICTED BY IDOCK:   -1.65 KCAL/MOL
REMARK 927      BINDING AFFINITY PREDICTED BY RF-SCORE:    0.00 PKD
ROOT
HETATM    1  C   UNL     1     -10.900  16.155  70.383  1.00  0.00    -0.255 C  
HETATM    2  C   UNL     1     -10.697  15.078  69.326  1.00  0.00    -0.250 C  
HETATM    3  C   UNL     1     -11.849  14.068  69.314  1.00  0.00    -0.389 C  
HETATM    4  C   UNL     1     -11.610  12.967  68.281  1.00  0.00    -0.340 C  
HETATM    5  N   UNL     1     -10.262  12.342  68.386  1.00  0.00    -0.225 N  
HETATM    6  C   UNL     1      -9.135  13.298  68.449  1.00  0.00    -0.137 C  
HETATM    7  C   UNL     1     -10.208  11.013  68.825  1.00  0.00    -0.198 C  
HETATM    8  O   UNL     1     -11.269  10.450  69.126  1.00  0.00    -0.233 OA 
HETATM    9  O   UNL     1      -9.530  13.704  66.104  1.00  0.00    -0.241 OA 
HETATM   10  C   UNL     1      -9.376  14.328  69.558  1.00  0.00     0.506 C  
HETATM   11  C   UNL     1      -8.778  14.036  67.155  1.00  0.00    -0.221 C  
HETATM   12  O   UNL     1      -7.888  14.868  67.071  1.00  0.00    -0.201 OA 
ENDROOT
BRANCH   7  13
HETATM   13  C   UNL     1      -8.904  10.137  68.852  1.00  0.00    -0.154 C  
BRANCH  13  14
HETATM   14  C   UNL     1      -7.973  10.192  70.091  1.00  0.00    -0.029 C  
BRANCH  14  15
HETATM   15  C   UNL     1      -8.261   9.069  71.108  1.00  0.00    -0.198 C  
BRANCH  15  16
HETATM   16  C   UNL     1      -8.932   7.830  70.495  1.00  0.00    -0.150 C  
BRANCH  16  17
HETATM   17  N   UNL     1      -7.922   7.062  69.791  1.00  0.00    -0.121 NA 
HETATM   18  H2  UNL     1      -6.252   5.948  68.390  1.00  0.00     0.000 HD 
HETATM   19  H1  UNL     1      -6.856   4.298  68.807  1.00  0.00     0.000 HD 
HETATM   20  N   UNL     1      -8.619   4.846  70.273  1.00  0.00    -0.093 NA 
HETATM   21  N   UNL     1      -6.888   5.316  68.877  1.00  0.00    -0.053 NA 
HETATM   22  C   UNL     1      -7.879   5.716  69.698  1.00  0.00    -0.091 C  
HETATM   23  H   UNL     1      -7.179   7.585  69.325  1.00  0.00     0.000 HD 
HETATM   24  H1  UNL     1      -8.587   3.828  70.203  1.00  0.00     0.000 HD 
HETATM   25  H2  UNL     1      -9.341   5.221  70.887  1.00  0.00     0.000 HD 
ENDBRANCH  16  17
ENDBRANCH  15  16
ENDBRANCH  14  15
ENDBRANCH  13  14
BRANCH  13  26
HETATM   26  N   UNL     1      -8.066  10.295  67.632  1.00  0.00    -0.106 N  
HETATM   27  H   UNL     1      -7.672  11.204  67.386  1.00  0.00     0.000 HD 
BRANCH  26  28
HETATM   28  S   UNL     1      -7.775   8.928  66.652  1.00  0.00    -0.100 S  
HETATM   29  O   UNL     1      -8.826   7.974  66.891  1.00  0.00    -0.125 OA 
HETATM   30  O   UNL     1      -6.393   8.572  66.900  1.00  0.00    -0.054 OA 
BRANCH  28  31
HETATM   31  C   UNL     1      -7.911   9.595  65.013  1.00  0.00    -0.118 A  
HETATM   32  C   UNL     1     -10.262  11.561  62.729  1.00  0.00    -0.014 C  
HETATM   33  C   UNL     1      -6.858   9.325  64.125  1.00  0.00    -0.091 A  
HETATM   34  C   UNL     1     -12.634  12.293  63.161  1.00  0.00    -0.270 C  
HETATM   35  C   UNL     1      -6.900   9.804  62.820  1.00  0.00    -0.110 A  
HETATM   36  C   UNL     1     -11.510  11.355  63.593  1.00  0.00    -0.232 C  
HETATM   37  C   UNL     1     -11.118  11.572  65.049  1.00  0.00    -0.201 C  
HETATM   38  H   UNL     1     -10.209  10.092  66.350  1.00  0.00     0.000 HD 
HETATM   39  N   UNL     1     -10.119  10.591  65.464  1.00  0.00    -0.279 NA 
HETATM   40  C   UNL     1      -7.992  10.556  62.400  1.00  0.00    -0.206 A  
HETATM   41  C   UNL     1      -9.029  10.355  64.611  1.00  0.00    -0.209 A  
HETATM   42  C   UNL     1      -9.059  10.824  63.277  1.00  0.00    -0.260 A  
ENDBRANCH  28  31
ENDBRANCH  26  28
ENDBRANCH  13  26
ENDBRANCH   7  13
TORSDOF 8
ENDMDL
MODEL      331
REMARK 921   NORMALIZED FREE ENERGY PREDICTED BY IDOCK:   -3.98 KCAL/MOL
REMARK 922        TOTAL FREE ENERGY PREDICTED BY IDOCK:   -7.09 KCAL/MOL
REMARK 923 INTER-LIGAND FREE ENERGY PREDICTED BY IDOCK:   -6.20 KCAL/MOL
REMARK 924 INTRA-LIGAND FREE ENERGY PREDICTED BY IDOCK:   -0.89 KCAL/MOL
REMARK 927      BINDING AFFINITY PREDICTED BY RF-SCORE:    0.00 PKD
ROOT
HETATM    1  C   UNL     1     -12.255  13.121  63.337  1.00  0.00    -0.521 C  
HETATM    2  C   UNL     1     -11.776  12.458  64.620  1.00  0.00    -0.426 C  
HETATM    3  C   UNL     1     -12.345  13.146  65.865  1.00  0.00    -0.462 C  
HETATM    4  C   UNL     1     -11.819  12.498  67.145  1.00  0.00    -0.316 C  
HETATM    5  N   UNL     1     -10.338  12.349  67.165  1.00  0.00    -0.219 N  
HETATM    6  C   UNL     1      -9.757  11.732  65.953  1.00  0.00    -0.237 C  
HETATM    7  C   UNL     1      -9.628  13.145  68.074  1.00  0.00    -0.220 C  
HETATM    8  O   UNL     1     -10.264  13.940  68.780  1.00  0.00    -0.233 OA 
HETATM    9  O   UNL     1     -10.675   9.646  66.745  1.00  0.00    -0.180 OA 
HETATM   10  C   UNL     1     -10.241  12.469  64.700  1.00  0.00    -0.315 C  
HETATM   11  C   UNL     1      -9.985  10.229  65.763  1.00  0.00    -0.271 C  
HETATM   12  O   UNL     1      -9.583   9.598  64.798  1.00  0.00    -0.265 OA 
ENDROOT
BRANCH   7  13
HETATM   13  C   UNL     1      -8.087  13.020  68.353  1.00  0.00    -0.131 C  
BRANCH  13  14
HETATM   14  C   UNL     1      -7.084  13.794  67.457  1.00  0.00    -0.172 C  
BRANCH  14  15
HETATM   15  C   UNL     1      -6.601  15.111  68.099  1.00  0.00    -0.132 C  
BRANCH  15  16
HETATM   16  C   UNL     1      -7.481  15.599  69.260  1.00  0.00    -0.216 C  
BRANCH  16  17
HETATM   17  N   UNL     1      -6.702  16.512  70.074  1.00  0.00     0.107 NA 
HETATM   18  H2  UNL     1      -5.623  18.103  71.591  1.00  0.00     0.000 HD 
HETATM   19  H1  UNL     1      -4.708  18.907  70.258  1.00  0.00     0.000 HD 
HETATM   20  N   UNL     1      -5.440  17.640  68.411  1.00  0.00    -0.148 NA 
HETATM   21  N   UNL     1      -5.362  18.207  70.610  1.00  0.00    -0.260 NA 
HETATM   22  C   UNL     1      -5.836  17.439  69.610  1.00  0.00    -0.242 C  
HETATM   23  H   UNL     1      -6.817  16.449  71.086  1.00  0.00     0.000 HD 
HETATM   24  H1  UNL     1      -4.786  18.340  68.059  1.00  0.00     0.000 HD 
HETATM   25  H2  UNL     1      -5.833  17.014  67.708  1.00  0.00     0.000 HD 
ENDBRANCH  16  17
ENDBRANCH  15  16
ENDBRANCH  14  15
ENDBRANCH  13  14
BRANCH  13  26
HETATM   26  N   UNL     1      -7.623  11.610  68.460  1.00  0.00    -0.121 N  
HETATM   27  H   UNL     1      -8.124  10.860  67.983  1.00  0.00     0.000 HD 
BRANCH  26  28
HETATM   28  S   UNL     1      -6.235  11.271  69.395  1.00  0.00    -0.096 S  
HETATM   29  O   UNL     1      -6.206  12.190  70.503  1.00  0.00    -0.213 OA 
HETATM   30  O   UNL     1      -5.141  11.234  68.446  1.00  0.00    -0.040 OA 
BRANCH  28  31
HETATM   31  C   UNL     1      -6.553   9.623  69.969  1.00  0.00    -0.072 A  
HETATM   32  C   UNL     1      -7.807   6.202  68.813  1.00  0.00    -0.101 C  
HETATM   33  C   UNL     1      -6.362   9.377  71.338  1.00  0.00    -0.020 A  
HETATM   34  C   UNL     1      -8.777   5.549  66.582  1.00  0.00    -0.116 C  
HETATM   35  C   UNL     1      -6.604   8.111  71.863  1.00  0.00    -0.060 A  
HETATM   36  C   UNL     1      -8.437   6.710  67.512  1.00  0.00    -0.121 C  
HETATM   37  C   UNL     1      -7.465   7.688  66.868  1.00  0.00    -0.094 C  
HETATM   38  H   UNL     1      -7.267   9.791  67.366  1.00  0.00     0.000 HD 
HETATM   39  N   UNL     1      -7.241   8.841  67.737  1.00  0.00    -0.083 NA 
HETATM   40  C   UNL     1      -7.035   7.090  71.024  1.00  0.00    -0.065 A  
HETATM   41  C   UNL     1      -6.990   8.604  69.098  1.00  0.00    -0.063 A  
HETATM   42  C   UNL     1      -7.241   7.327  69.653  1.00  0.00    -0.079 A  
ENDBRANCH  28  31
ENDBRANCH  26  28
ENDBRANCH  13  26
ENDBRANCH   7  13
TORSDOF 8
ENDMDL
MODEL      332
REMARK 921   NORMALIZED FREE ENERGY PREDICTED BY IDOCK:   -3.96 KCAL/MOL
REMARK 922        TOTAL FREE ENERGY PREDICTED BY IDOCK:   -7.06 KCAL/MOL
REMARK 923 INTER-LIGAND FREE ENERGY PREDICTED BY IDOCK:   -7.48 KCAL/MOL
REMARK 924 INTRA-LIGAND FREE ENERGY PREDICTED BY IDOCK:    0.42 KCAL/MOL
REMARK 927      BINDING AFFINITY PREDICTED BY RF-SCORE:    0.00 PKD
ROOT
HETATM    1  C   UNL     1     -10.935   4.658  72.792  1.00  0.00    -0.238 C  
HETATM    2  C   UNL     1     -10.296   6.004  72.479  1.00  0.00    -0.222 C  
HETATM    3  C   UNL     1     -11.329   7.136  72.468  1.00  0.00    -0.318 C  
HETATM    4  C   UNL     1     -10.681   8.473  72.109  1.00  0.00    -0.356 C  
HETATM    5  N   UNL     1      -9.843   8.410  70.879  1.00  0.00    -0.178 N  
HETATM    6  C   UNL     1      -8.871   7.296  70.843  1.00  0.00    -0.149 C  
HETATM    7  C   UNL     1     -10.311   9.098  69.752  1.00  0.00    -0.215 C  
HETATM    8  O   UNL     1     -11.398   9.688  69.833  1.00  0.00    -0.230 OA 
HETATM    9  O   UNL     1      -7.604   8.532  72.483  1.00  0.00    -0.250 OA 
HETATM   10  C   UNL     1      -9.581   5.966  71.121  1.00  0.00    -0.198 C  
HETATM   11  C   UNL     1      -7.652   7.409  71.763  1.00  0.00    -0.085 C  
HETATM   12  O   UNL     1      -6.786   6.553  71.852  1.00  0.00    -0.060 OA 
ENDROOT
BRANCH   7  13
HETATM   13  C   UNL     1      -9.500   9.281  68.419  1.00  0.00    -0.138 C  
BRANCH  13  14
HETATM   14  C   UNL     1      -7.954   9.150  68.442  1.00  0.00    -0.103 C  
BRANCH  14  15
HETATM   15  C   UNL     1      -7.465   7.757  67.994  1.00  0.00    -0.108 C  
BRANCH  15  16
HETATM   16  C   UNL     1      -7.937   7.353  66.589  1.00  0.00    -0.121 C  
BRANCH  16  17
HETATM   17  N   UNL     1      -8.351   5.962  66.626  1.00  0.00    -0.109 NA 
HETATM   18  H2  UNL     1      -8.834   3.565  66.515  1.00  0.00     0.000 HD 
HETATM   19  H1  UNL     1     -10.613   3.829  66.354  1.00  0.00     0.000 HD 
HETATM   20  N   UNL     1     -10.704   6.184  66.421  1.00  0.00    -0.526 NA 
HETATM   21  N   UNL     1      -9.655   4.168  66.454  1.00  0.00    -0.189 NA 
HETATM   22  C   UNL     1      -9.618   5.514  66.494  1.00  0.00    -0.155 C  
HETATM   23  H   UNL     1      -7.621   5.262  66.764  1.00  0.00     0.000 HD 
HETATM   24  H1  UNL     1     -11.662   5.845  66.321  1.00  0.00     0.000 HD 
HETATM   25  H2  UNL     1     -10.600   7.197  66.469  1.00  0.00     0.000 HD 
ENDBRANCH  16  17
ENDBRANCH  15  16
ENDBRANCH  14  15
ENDBRANCH  13  14
BRANCH  13  26
HETATM   26  N   UNL     1      -9.850  10.528  67.686  1.00  0.00    -0.164 N  
HETATM   27  H   UNL     1     -10.790  10.666  67.314  1.00  0.00     0.000 HD 
BRANCH  26  28
HETATM   28  S   UNL     1      -8.649  11.724  67.479  1.00  0.00    -0.165 S  
HETATM   29  O   UNL     1      -7.652  11.206  66.579  1.00  0.00    -0.143 OA 
HETATM   30  O   UNL     1      -8.284  12.127  68.822  1.00  0.00    -0.073 OA 
BRANCH  28  31
HETATM   31  C   UNL     1      -9.550  13.043  66.708  1.00  0.00    -0.248 A  
HETATM   32  C   UNL     1     -10.058  16.830  66.813  1.00  0.00    -0.295 C  
HETATM   33  C   UNL     1     -10.484  12.686  65.722  1.00  0.00    -0.299 A  
HETATM   34  C   UNL     1      -9.134  18.500  68.458  1.00  0.00    -0.353 C  
HETATM   35  C   UNL     1     -11.236  13.666  65.082  1.00  0.00    -0.318 A  
HETATM   36  C   UNL     1      -9.417  17.025  68.191  1.00  0.00    -0.262 C  
HETATM   37  C   UNL     1      -8.149  16.184  68.244  1.00  0.00    -0.153 C  
HETATM   38  H   UNL     1      -8.049  14.067  68.711  1.00  0.00     0.000 HD 
HETATM   39  N   UNL     1      -8.463  14.766  68.093  1.00  0.00    -0.143 NA 
HETATM   40  C   UNL     1     -11.057  15.001  65.423  1.00  0.00    -0.377 A  
HETATM   41  C   UNL     1      -9.350  14.391  67.072  1.00  0.00    -0.242 A  
HETATM   42  C   UNL     1     -10.133  15.371  66.417  1.00  0.00    -0.292 A  
ENDBRANCH  28  31
ENDBRANCH  26  28
ENDBRANCH  13  26
ENDBRANCH   7  13
TORSDOF 8
ENDMDL
MODEL      333
REMARK 921   NORMALIZED FREE ENERGY PREDICTED BY IDOCK:   -3.94 KCAL/MOL
REMARK 922        TOTAL FREE ENERGY PREDICTED BY IDOCK:   -7.03 KCAL/MOL
REMARK 923 INTER-LIGAND FREE ENERGY PREDICTED BY IDOCK:   -5.73 KCAL/MOL
REMARK 924 INTRA-LIGAND FREE ENERGY PREDICTED BY IDOCK:   -1.30 KCAL/MOL
REMARK 927      BINDING AFFINITY PREDICTED BY RF-SCORE:    0.00 PKD
ROOT
HETATM    1  C   UNL     1     -10.340   4.919  72.770  1.00  0.00    -0.240 C  
HETATM    2  C   UNL     1     -11.071   5.949  71.920  1.00  0.00    -0.325 C  
HETATM    3  C   UNL     1     -10.895   5.679  70.422  1.00  0.00    -0.326 C  
HETATM    4  C   UNL     1     -11.596   6.747  69.581  1.00  0.00    -0.176 C  
HETATM    5  N   UNL     1     -11.251   8.137  69.987  1.00  0.00    -0.153 N  
HETATM    6  C   UNL     1     -11.365   8.411  71.436  1.00  0.00    -0.264 C  
HETATM    7  C   UNL     1     -10.484   8.892  69.090  1.00  0.00    -0.223 C  
HETATM    8  O   UNL     1     -10.115   8.356  68.036  1.00  0.00    -0.182 OA 
HETATM    9  O   UNL     1     -13.756   8.354  71.117  1.00  0.00    -0.167 OA 
HETATM   10  C   UNL     1     -10.574   7.368  72.235  1.00  0.00    -0.270 C  
HETATM   11  C   UNL     1     -12.780   8.509  72.014  1.00  0.00    -0.376 C  
HETATM   12  O   UNL     1     -13.019   8.705  73.195  1.00  0.00    -0.156 OA 
ENDROOT
BRANCH   7  13
HETATM   13  C   UNL     1     -10.153  10.418  69.266  1.00  0.00    -0.230 C  
BRANCH  13  14
HETATM   14  C   UNL     1     -10.336  11.382  68.064  1.00  0.00    -0.204 C  
BRANCH  14  15
HETATM   15  C   UNL     1     -10.348  12.866  68.484  1.00  0.00    -0.239 C  
BRANCH  15  16
HETATM   16  C   UNL     1      -9.493  13.775  67.589  1.00  0.00    -0.217 C  
BRANCH  16  17
HETATM   17  N   UNL     1      -8.900  14.809  68.417  1.00  0.00    -0.175 NA 
HETATM   18  H2  UNL     1      -8.045  16.737  69.659  1.00  0.00     0.000 HD 
HETATM   19  H1  UNL     1      -6.358  16.095  69.691  1.00  0.00     0.000 HD 
HETATM   20  N   UNL     1      -6.651  14.063  68.533  1.00  0.00    -0.089 NA 
HETATM   21  N   UNL     1      -7.343  16.031  69.434  1.00  0.00    -0.228 NA 
HETATM   22  C   UNL     1      -7.597  14.894  68.758  1.00  0.00    -0.135 C  
HETATM   23  H   UNL     1      -9.523  15.535  68.773  1.00  0.00     0.000 HD 
HETATM   24  H1  UNL     1      -5.665  14.127  68.790  1.00  0.00     0.000 HD 
HETATM   25  H2  UNL     1      -6.918  13.220  68.026  1.00  0.00     0.000 HD 
ENDBRANCH  16  17
ENDBRANCH  15  16
ENDBRANCH  14  15
ENDBRANCH  13  14
BRANCH  13  26
HETATM   26  N   UNL     1      -8.808  10.661  69.857  1.00  0.00    -0.277 N  
HETATM   27  H   UNL     1      -8.714  10.986  70.819  1.00  0.00     0.000 HD 
BRANCH  26  28
HETATM   28  S   UNL     1      -7.426  10.387  68.893  1.00  0.00    -0.108 S  
HETATM   29  O   UNL     1      -6.375  11.254  69.358  1.00  0.00    -0.070 OA 
HETATM   30  O   UNL     1      -7.896  10.476  67.525  1.00  0.00    -0.104 OA 
BRANCH  28  31
HETATM   31  C   UNL     1      -7.035   8.695  69.257  1.00  0.00    -0.058 A  
HETATM   32  C   UNL     1      -6.092   6.356  72.129  1.00  0.00    -0.038 C  
HETATM   33  C   UNL     1      -6.964   7.808  68.171  1.00  0.00    -0.079 A  
HETATM   34  C   UNL     1      -5.582   6.930  74.528  1.00  0.00    -0.063 C  
HETATM   35  C   UNL     1      -6.650   6.469  68.378  1.00  0.00    -0.059 A  
HETATM   36  C   UNL     1      -5.715   7.471  73.108  1.00  0.00    -0.044 C  
HETATM   37  C   UNL     1      -6.773   8.561  73.013  1.00  0.00    -0.049 C  
HETATM   38  H   UNL     1      -6.832  10.145  71.531  1.00  0.00     0.000 HD 
HETATM   39  N   UNL     1      -6.804   9.135  71.670  1.00  0.00    -0.285 NA 
HETATM   40  C   UNL     1      -6.408   6.012  69.668  1.00  0.00    -0.037 A  
HETATM   41  C   UNL     1      -6.793   8.256  70.575  1.00  0.00    -0.037 A  
HETATM   42  C   UNL     1      -6.465   6.893  70.764  1.00  0.00    -0.048 A  
ENDBRANCH  28  31
ENDBRANCH  26  28
ENDBRANCH  13  26
ENDBRANCH   7  13
TORSDOF 8
ENDMDL
MODEL      334
REMARK 921   NORMALIZED FREE ENERGY PREDICTED BY IDOCK:   -3.94 KCAL/MOL
REMARK 922        TOTAL FREE ENERGY PREDICTED BY IDOCK:   -7.03 KCAL/MOL
REMARK 923 INTER-LIGAND FREE ENERGY PREDICTED BY IDOCK:   -5.49 KCAL/MOL
REMARK 924 INTRA-LIGAND FREE ENERGY PREDICTED BY IDOCK:   -1.54 KCAL/MOL
REMARK 927      BINDING AFFINITY PREDICTED BY RF-SCORE:    0.00 PKD
ROOT
HETATM    1  C   UNL     1      -5.125  10.978  65.168  1.00  0.00    -0.019 C  
HETATM    2  C   UNL     1      -6.421  10.564  65.851  1.00  0.00    -0.127 C  
HETATM    3  C   UNL     1      -6.667  11.359  67.138  1.00  0.00    -0.121 C  
HETATM    4  C   UNL     1      -7.948  10.901  67.835  1.00  0.00    -0.111 C  
HETATM    5  N   UNL     1      -8.026   9.425  68.015  1.00  0.00    -0.092 N  
HETATM    6  C   UNL     1      -7.744   8.632  66.798  1.00  0.00    -0.093 C  
HETATM    7  C   UNL     1      -7.936   8.935  69.325  1.00  0.00    -0.104 C  
HETATM    8  O   UNL     1      -7.768   9.748  70.245  1.00  0.00    -0.158 OA 
HETATM    9  O   UNL     1      -9.905   9.349  66.000  1.00  0.00    -0.269 OA 
HETATM   10  C   UNL     1      -6.408   9.064  66.183  1.00  0.00    -0.064 C  
HETATM   11  C   UNL     1      -8.817   8.635  65.705  1.00  0.00    -0.187 C  
HETATM   12  O   UNL     1      -8.705   8.046  64.642  1.00  0.00     0.028 OA 
ENDROOT
BRANCH   7  13
HETATM   13  C   UNL     1      -8.152   7.434  69.732  1.00  0.00    -0.127 C  
BRANCH  13  14
HETATM   14  C   UNL     1      -6.943   6.595  70.226  1.00  0.00    -0.066 C  
BRANCH  14  15
HETATM   15  C   UNL     1      -6.293   5.764  69.101  1.00  0.00    -0.040 C  
BRANCH  15  16
HETATM   16  C   UNL     1      -6.244   4.255  69.388  1.00  0.00    -0.028 C  
BRANCH  16  17
HETATM   17  N   UNL     1      -7.350   3.620  68.696  1.00  0.00    -0.053 NA 
HETATM   18  H2  UNL     1      -9.293   2.446  67.780  1.00  0.00     0.000 HD 
HETATM   19  H1  UNL     1      -8.376   1.838  66.349  1.00  0.00     0.000 HD 
HETATM   20  N   UNL     1      -6.254   2.773  66.770  1.00  0.00    -0.024 NA 
HETATM   21  N   UNL     1      -8.443   2.362  67.222  1.00  0.00    -0.089 NA 
HETATM   22  C   UNL     1      -7.262   2.927  67.541  1.00  0.00    -0.053 C  
HETATM   23  H   UNL     1      -8.275   3.705  69.120  1.00  0.00     0.000 HD 
HETATM   24  H1  UNL     1      -6.187   2.249  65.897  1.00  0.00     0.000 HD 
HETATM   25  H2  UNL     1      -5.397   3.237  67.070  1.00  0.00     0.000 HD 
ENDBRANCH  16  17
ENDBRANCH  15  16
ENDBRANCH  14  15
ENDBRANCH  13  14
BRANCH  13  26
HETATM   26  N   UNL     1      -8.874   6.644  68.696  1.00  0.00    -0.123 N  
HETATM   27  H   UNL     1      -8.460   6.492  67.776  1.00  0.00     0.000 HD 
BRANCH  26  28
HETATM   28  S   UNL     1     -10.407   5.997  69.079  1.00  0.00    -0.254 S  
HETATM   29  O   UNL     1     -10.219   4.654  69.561  1.00  0.00    -0.203 OA 
HETATM   30  O   UNL     1     -11.224   6.247  67.909  1.00  0.00    -0.323 OA 
BRANCH  28  31
HETATM   31  C   UNL     1     -10.951   7.054  70.396  1.00  0.00    -0.268 A  
HETATM   32  C   UNL     1     -11.923  10.668  71.173  1.00  0.00    -0.401 C  
HETATM   33  C   UNL     1     -11.047   6.482  71.674  1.00  0.00    -0.302 A  
HETATM   34  C   UNL     1     -11.789  12.694  69.681  1.00  0.00    -0.379 C  
HETATM   35  C   UNL     1     -11.455   7.253  72.758  1.00  0.00    -0.273 A  
HETATM   36  C   UNL     1     -11.312  11.261  69.899  1.00  0.00    -0.329 C  
HETATM   37  C   UNL     1     -11.682  10.355  68.733  1.00  0.00    -0.037 C  
HETATM   38  H   UNL     1     -10.640   8.540  68.157  1.00  0.00     0.000 HD 
HETATM   39  N   UNL     1     -11.121   9.019  68.919  1.00  0.00     0.065 NA 
HETATM   40  C   UNL     1     -11.769   8.594  72.568  1.00  0.00    -0.330 A  
HETATM   41  C   UNL     1     -11.263   8.412  70.177  1.00  0.00    -0.136 A  
HETATM   42  C   UNL     1     -11.665   9.182  71.294  1.00  0.00    -0.396 A  
ENDBRANCH  28  31
ENDBRANCH  26  28
ENDBRANCH  13  26
ENDBRANCH   7  13
TORSDOF 8
ENDMDL
MODEL      335
REMARK 921   NORMALIZED FREE ENERGY PREDICTED BY IDOCK:   -3.93 KCAL/MOL
REMARK 922        TOTAL FREE ENERGY PREDICTED BY IDOCK:   -7.02 KCAL/MOL
REMARK 923 INTER-LIGAND FREE ENERGY PREDICTED BY IDOCK:   -6.65 KCAL/MOL
REMARK 924 INTRA-LIGAND FREE ENERGY PREDICTED BY IDOCK:   -0.36 KCAL/MOL
REMARK 927      BINDING AFFINITY PREDICTED BY RF-SCORE:    0.00 PKD
ROOT
HETATM    1  C   UNL     1     -11.350  13.764  65.616  1.00  0.00    -0.311 C  
HETATM    2  C   UNL     1     -10.425  12.622  66.012  1.00  0.00    -0.288 C  
HETATM    3  C   UNL     1     -10.706  11.354  65.199  1.00  0.00    -0.332 C  
HETATM    4  C   UNL     1      -9.800  10.203  65.639  1.00  0.00    -0.280 C  
HETATM    5  N   UNL     1      -9.796   9.986  67.112  1.00  0.00    -0.177 N  
HETATM    6  C   UNL     1      -9.576  11.204  67.922  1.00  0.00    -0.175 C  
HETATM    7  C   UNL     1     -10.392   8.810  67.586  1.00  0.00    -0.254 C  
HETATM    8  O   UNL     1     -10.909   8.041  66.763  1.00  0.00    -0.214 OA 
HETATM    9  O   UNL     1      -7.276  11.101  67.198  1.00  0.00    -0.105 OA 
HETATM   10  C   UNL     1     -10.565  12.300  67.507  1.00  0.00    -0.242 C  
HETATM   11  C   UNL     1      -8.160  11.789  67.924  1.00  0.00    -0.144 C  
HETATM   12  O   UNL     1      -7.845  12.802  68.527  1.00  0.00    -0.134 OA 
ENDROOT
BRANCH   7  13
HETATM   13  C   UNL     1     -10.349   8.329  69.080  1.00  0.00    -0.217 C  
BRANCH  13  14
HETATM   14  C   UNL     1      -9.553   9.154  70.125  1.00  0.00    -0.235 C  
BRANCH  14  15
HETATM   15  C   UNL     1     -10.257   9.223  71.496  1.00  0.00    -0.338 C  
BRANCH  15  16
HETATM   16  C   UNL     1     -11.704   8.708  71.481  1.00  0.00    -0.305 C  
BRANCH  16  17
HETATM   17  N   UNL     1     -11.677   7.261  71.590  1.00  0.00    -0.271 NA 
HETATM   18  H2  UNL     1     -11.888   4.823  71.657  1.00  0.00     0.000 HD 
HETATM   19  H1  UNL     1     -11.221   4.711  73.331  1.00  0.00     0.000 HD 
HETATM   20  N   UNL     1     -10.805   6.987  73.779  1.00  0.00    -0.507 NA 
HETATM   21  N   UNL     1     -11.504   5.240  72.505  1.00  0.00    -0.192 NA 
HETATM   22  C   UNL     1     -11.303   6.561  72.682  1.00  0.00    -0.222 C  
HETATM   23  H   UNL     1     -11.966   6.727  70.770  1.00  0.00     0.000 HD 
HETATM   24  H1  UNL     1     -10.523   6.458  74.605  1.00  0.00     0.000 HD 
HETATM   25  H2  UNL     1     -10.672   7.996  73.839  1.00  0.00     0.000 HD 
ENDBRANCH  16  17
ENDBRANCH  15  16
ENDBRANCH  14  15
ENDBRANCH  13  14
BRANCH  13  26
HETATM   26  N   UNL     1      -9.964   6.898  69.226  1.00  0.00    -0.157 N  
HETATM   27  H   UNL     1     -10.668   6.162  69.174  1.00  0.00     0.000 HD 
BRANCH  26  28
HETATM   28  S   UNL     1      -8.320   6.513  69.479  1.00  0.00    -0.131 S  
HETATM   29  O   UNL     1      -8.063   6.555  70.895  1.00  0.00    -0.119 OA 
HETATM   30  O   UNL     1      -7.587   7.376  68.576  1.00  0.00    -0.108 OA 
BRANCH  28  31
HETATM   31  C   UNL     1      -8.222   4.844  68.885  1.00  0.00    -0.083 A  
HETATM   32  C   UNL     1      -8.857   2.689  65.792  1.00  0.00    -0.134 C  
HETATM   33  C   UNL     1      -7.832   3.860  69.807  1.00  0.00    -0.051 A  
HETATM   34  C   UNL     1      -9.913   3.345  63.601  1.00  0.00    -0.169 C  
HETATM   35  C   UNL     1      -7.745   2.528  69.416  1.00  0.00    -0.046 A  
HETATM   36  C   UNL     1      -9.720   3.725  65.066  1.00  0.00    -0.183 C  
HETATM   37  C   UNL     1      -9.051   5.085  65.217  1.00  0.00    -0.139 C  
HETATM   38  H   UNL     1      -9.240   6.408  66.927  1.00  0.00     0.000 HD 
HETATM   39  N   UNL     1      -8.977   5.470  66.624  1.00  0.00    -0.116 NA 
HETATM   40  C   UNL     1      -8.045   2.176  68.106  1.00  0.00    -0.067 A  
HETATM   41  C   UNL     1      -8.532   4.512  67.549  1.00  0.00    -0.103 A  
HETATM   42  C   UNL     1      -8.448   3.150  67.174  1.00  0.00    -0.104 A  
ENDBRANCH  28  31
ENDBRANCH  26  28
ENDBRANCH  13  26
ENDBRANCH   7  13
TORSDOF 8
ENDMDL
MODEL      336
REMARK 921   NORMALIZED FREE ENERGY PREDICTED BY IDOCK:   -3.91 KCAL/MOL
REMARK 922        TOTAL FREE ENERGY PREDICTED BY IDOCK:   -6.99 KCAL/MOL
REMARK 923 INTER-LIGAND FREE ENERGY PREDICTED BY IDOCK:   -6.50 KCAL/MOL
REMARK 924 INTRA-LIGAND FREE ENERGY PREDICTED BY IDOCK:   -0.49 KCAL/MOL
REMARK 927      BINDING AFFINITY PREDICTED BY RF-SCORE:    0.00 PKD
ROOT
HETATM    1  C   UNL     1     -13.169  14.120  71.375  1.00  0.00    -0.418 C  
HETATM    2  C   UNL     1     -12.643  13.293  70.211  1.00  0.00    -0.160 C  
HETATM    3  C   UNL     1     -12.434  11.826  70.602  1.00  0.00    -0.364 C  
HETATM    4  C   UNL     1     -11.863  11.018  69.437  1.00  0.00    -0.335 C  
HETATM    5  N   UNL     1     -10.669  11.650  68.810  1.00  0.00    -0.212 N  
HETATM    6  C   UNL     1     -10.828  13.080  68.467  1.00  0.00    -0.258 C  
HETATM    7  C   UNL     1      -9.439  11.003  68.984  1.00  0.00    -0.108 C  
HETATM    8  O   UNL     1      -9.410   9.970  69.667  1.00  0.00    -0.213 OA 
HETATM    9  O   UNL     1     -12.253  12.345  66.663  1.00  0.00    -0.562 OA 
HETATM   10  C   UNL     1     -11.317  13.866  69.689  1.00  0.00    -0.259 C  
HETATM   11  C   UNL     1     -11.729  13.411  67.273  1.00  0.00    -0.380 C  
HETATM   12  O   UNL     1     -11.968  14.547  66.896  1.00  0.00    -0.403 OA 
ENDROOT
BRANCH   7  13
HETATM   13  C   UNL     1      -8.102  11.425  68.275  1.00  0.00    -0.143 C  
BRANCH  13  14
HETATM   14  C   UNL     1      -8.143  12.473  67.131  1.00  0.00    -0.156 C  
BRANCH  14  15
HETATM   15  C   UNL     1      -7.612  13.854  67.565  1.00  0.00    -0.190 C  
BRANCH  15  16
HETATM   16  C   UNL     1      -8.308  15.036  66.874  1.00  0.00    -0.212 C  
BRANCH  16  17
HETATM   17  N   UNL     1      -8.166  16.209  67.717  1.00  0.00    -0.151 NA 
HETATM   18  H2  UNL     1      -8.087  18.053  69.325  1.00  0.00     0.000 HD 
HETATM   19  H1  UNL     1      -8.342  19.307  68.052  1.00  0.00     0.000 HD 
HETATM   20  N   UNL     1      -8.484  17.947  66.133  1.00  0.00    -0.489 NA 
HETATM   21  N   UNL     1      -8.233  18.339  68.357  1.00  0.00    -0.305 NA 
HETATM   22  C   UNL     1      -8.309  17.490  67.314  1.00  0.00    -0.213 C  
HETATM   23  H   UNL     1      -7.939  16.052  68.699  1.00  0.00     0.000 HD 
HETATM   24  H1  UNL     1      -8.592  18.915  65.828  1.00  0.00     0.000 HD 
HETATM   25  H2  UNL     1      -8.520  17.247  65.392  1.00  0.00     0.000 HD 
ENDBRANCH  16  17
ENDBRANCH  15  16
ENDBRANCH  14  15
ENDBRANCH  13  14
BRANCH  13  26
HETATM   26  N   UNL     1      -7.291  10.265  67.814  1.00  0.00    -0.087 N  
HETATM   27  H   UNL     1      -6.551   9.882  68.402  1.00  0.00     0.000 HD 
BRANCH  26  28
HETATM   28  S   UNL     1      -7.624   9.586  66.283  1.00  0.00    -0.098 S  
HETATM   29  O   UNL     1      -7.075  10.459  65.278  1.00  0.00    -0.136 OA 
HETATM   30  O   UNL     1      -9.042   9.292  66.301  1.00  0.00    -0.151 OA 
BRANCH  28  31
HETATM   31  C   UNL     1      -6.719   8.061  66.335  1.00  0.00    -0.058 A  
HETATM   32  C   UNL     1      -5.915   5.093  68.605  1.00  0.00    -0.021 C  
HETATM   33  C   UNL     1      -5.934   7.747  65.215  1.00  0.00    -0.038 A  
HETATM   34  C   UNL     1      -6.515   4.752  71.029  1.00  0.00    -0.027 C  
HETATM   35  C   UNL     1      -5.187   6.574  65.189  1.00  0.00    -0.021 A  
HETATM   36  C   UNL     1      -6.378   5.770  69.900  1.00  0.00    -0.031 C  
HETATM   37  C   UNL     1      -7.692   6.484  69.615  1.00  0.00    -0.103 C  
HETATM   38  H   UNL     1      -7.898   8.457  68.737  1.00  0.00     0.000 HD 
HETATM   39  N   UNL     1      -7.506   7.524  68.607  1.00  0.00    -0.099 NA 
HETATM   40  C   UNL     1      -5.224   5.712  66.279  1.00  0.00    -0.009 A  
HETATM   41  C   UNL     1      -6.772   7.204  67.454  1.00  0.00    -0.068 A  
HETATM   42  C   UNL     1      -5.997   6.021  67.413  1.00  0.00    -0.018 A  
ENDBRANCH  28  31
ENDBRANCH  26  28
ENDBRANCH  13  26
ENDBRANCH   7  13
TORSDOF 8
ENDMDL
MODEL      337
REMARK 921   NORMALIZED FREE ENERGY PREDICTED BY IDOCK:   -3.91 KCAL/MOL
REMARK 922        TOTAL FREE ENERGY PREDICTED BY IDOCK:   -6.98 KCAL/MOL
REMARK 923 INTER-LIGAND FREE ENERGY PREDICTED BY IDOCK:   -6.30 KCAL/MOL
REMARK 924 INTRA-LIGAND FREE ENERGY PREDICTED BY IDOCK:   -0.68 KCAL/MOL
REMARK 927      BINDING AFFINITY PREDICTED BY RF-SCORE:    0.00 PKD
ROOT
HETATM    1  C   UNL     1     -10.412  19.932  68.064  1.00  0.00    -0.490 C  
HETATM    2  C   UNL     1      -9.942  18.544  68.475  1.00  0.00    -0.419 C  
HETATM    3  C   UNL     1      -8.417  18.411  68.392  1.00  0.00    -0.345 C  
HETATM    4  C   UNL     1      -7.963  16.999  68.764  1.00  0.00    -0.248 C  
HETATM    5  N   UNL     1      -8.701  15.931  68.034  1.00  0.00    -0.168 N  
HETATM    6  C   UNL     1     -10.174  16.064  68.057  1.00  0.00    -0.245 C  
HETATM    7  C   UNL     1      -7.981  15.189  67.089  1.00  0.00    -0.215 C  
HETATM    8  O   UNL     1      -6.793  15.482  66.895  1.00  0.00    -0.230 OA 
HETATM    9  O   UNL     1     -10.061  15.374  70.367  1.00  0.00    -0.196 OA 
HETATM   10  C   UNL     1     -10.587  17.465  67.592  1.00  0.00    -0.350 C  
HETATM   11  C   UNL     1     -10.878  15.754  69.382  1.00  0.00    -0.269 C  
HETATM   12  O   UNL     1     -12.084  15.846  69.549  1.00  0.00    -0.329 OA 
ENDROOT
BRANCH   7  13
HETATM   13  C   UNL     1      -8.536  13.928  66.335  1.00  0.00     0.367 C  
BRANCH  13  14
HETATM   14  C   UNL     1     -10.048  13.847  65.994  1.00  0.00    -0.324 C  
BRANCH  14  15
HETATM   15  C   UNL     1     -10.620  12.423  66.149  1.00  0.00    -0.283 C  
BRANCH  15  16
HETATM   16  C   UNL     1     -11.965  12.368  66.890  1.00  0.00    -0.196 C  
BRANCH  16  17
HETATM   17  N   UNL     1     -11.887  11.336  67.907  1.00  0.00    -0.634 NA 
HETATM   18  H2  UNL     1     -11.901   9.432  69.446  1.00  0.00     0.000 HD 
HETATM   19  H1  UNL     1     -12.275  10.465  70.879  1.00  0.00     0.000 HD 
HETATM   20  N   UNL     1     -12.365  12.590  69.864  1.00  0.00    -0.120 NA 
HETATM   21  N   UNL     1     -12.091  10.334  69.884  1.00  0.00    -0.163 NA 
HETATM   22  C   UNL     1     -12.130  11.508  69.224  1.00  0.00    -0.278 C  
HETATM   23  H   UNL     1     -11.625  10.398  67.600  1.00  0.00     0.000 HD 
HETATM   24  H1  UNL     1     -12.549  12.721  70.859  1.00  0.00     0.000 HD 
HETATM   25  H2  UNL     1     -12.369  13.441  69.302  1.00  0.00     0.000 HD 
ENDBRANCH  16  17
ENDBRANCH  15  16
ENDBRANCH  14  15
ENDBRANCH  13  14
BRANCH  13  26
HETATM   26  N   UNL     1      -8.133  12.642  66.968  1.00  0.00    -0.345 N  
HETATM   27  H   UNL     1      -7.908  11.829  66.395  1.00  0.00     0.000 HD 
BRANCH  26  28
HETATM   28  S   UNL     1      -8.052  12.555  68.671  1.00  0.00     0.060 S  
HETATM   29  O   UNL     1      -9.398  12.536  69.183  1.00  0.00     0.345 OA 
HETATM   30  O   UNL     1      -7.137  13.608  69.060  1.00  0.00    -0.110 OA 
BRANCH  28  31
HETATM   31  C   UNL     1      -7.270  10.986  68.938  1.00  0.00    -0.103 A  
HETATM   32  C   UNL     1      -7.542   7.277  68.054  1.00  0.00    -0.115 C  
HETATM   33  C   UNL     1      -6.174  10.960  69.816  1.00  0.00    -0.103 A  
HETATM   34  C   UNL     1      -9.366   6.087  66.788  1.00  0.00    -0.148 C  
HETATM   35  C   UNL     1      -5.518   9.763  70.083  1.00  0.00    -0.041 A  
HETATM   36  C   UNL     1      -8.987   7.353  67.551  1.00  0.00    -0.126 C  
HETATM   37  C   UNL     1      -9.122   8.599  66.687  1.00  0.00    -0.165 C  
HETATM   38  H   UNL     1      -9.473  10.613  67.414  1.00  0.00     0.000 HD 
HETATM   39  N   UNL     1      -8.857   9.802  67.472  1.00  0.00    -0.125 NA 
HETATM   40  C   UNL     1      -5.953   8.591  69.476  1.00  0.00    -0.033 A  
HETATM   41  C   UNL     1      -7.730   9.810  68.309  1.00  0.00    -0.085 A  
HETATM   42  C   UNL     1      -7.057   8.601  68.603  1.00  0.00    -0.068 A  
ENDBRANCH  28  31
ENDBRANCH  26  28
ENDBRANCH  13  26
ENDBRANCH   7  13
TORSDOF 8
ENDMDL
MODEL      338
REMARK 921   NORMALIZED FREE ENERGY PREDICTED BY IDOCK:   -3.90 KCAL/MOL
REMARK 922        TOTAL FREE ENERGY PREDICTED BY IDOCK:   -6.97 KCAL/MOL
REMARK 923 INTER-LIGAND FREE ENERGY PREDICTED BY IDOCK:   -7.07 KCAL/MOL
REMARK 924 INTRA-LIGAND FREE ENERGY PREDICTED BY IDOCK:    0.09 KCAL/MOL
REMARK 927      BINDING AFFINITY PREDICTED BY RF-SCORE:    0.00 PKD
ROOT
HETATM    1  C   UNL     1     -10.880  16.816  68.066  1.00  0.00    -0.341 C  
HETATM    2  C   UNL     1     -10.230  15.514  67.621  1.00  0.00    -0.255 C  
HETATM    3  C   UNL     1     -10.944  14.905  66.409  1.00  0.00    -0.336 C  
HETATM    4  C   UNL     1     -10.308  13.576  66.002  1.00  0.00    -0.303 C  
HETATM    5  N   UNL     1     -10.139  12.630  67.139  1.00  0.00    -0.221 N  
HETATM    6  C   UNL     1      -9.497  13.206  68.340  1.00  0.00    -0.166 C  
HETATM    7  C   UNL     1     -10.939  11.479  67.137  1.00  0.00    -0.286 C  
HETATM    8  O   UNL     1     -11.752  11.331  66.214  1.00  0.00    -0.221 OA 
HETATM    9  O   UNL     1      -7.435  13.160  67.088  1.00  0.00    -0.103 OA 
HETATM   10  C   UNL     1     -10.222  14.488  68.764  1.00  0.00    -0.244 C  
HETATM   11  C   UNL     1      -7.994  13.493  68.253  1.00  0.00    -0.147 C  
HETATM   12  O   UNL     1      -7.344  13.989  69.158  1.00  0.00    -0.110 OA 
ENDROOT
BRANCH   7  13
HETATM   13  C   UNL     1     -10.798  10.294  68.158  1.00  0.00    -0.265 C  
BRANCH  13  14
HETATM   14  C   UNL     1      -9.919  10.478  69.424  1.00  0.00    -0.220 C  
BRANCH  14  15
HETATM   15  C   UNL     1      -9.546   9.138  70.092  1.00  0.00    -0.235 C  
BRANCH  15  16
HETATM   16  C   UNL     1     -10.110   8.970  71.511  1.00  0.00    -0.339 C  
BRANCH  16  17
HETATM   17  N   UNL     1     -11.456   9.511  71.537  1.00  0.00    -0.391 NA 
HETATM   18  H2  UNL     1     -13.656  10.544  71.823  1.00  0.00     0.000 HD 
HETATM   19  H1  UNL     1     -14.535   9.050  71.319  1.00  0.00     0.000 HD 
HETATM   20  N   UNL     1     -12.720   7.613  70.881  1.00  0.00    -0.548 NA 
HETATM   21  N   UNL     1     -13.680   9.574  71.508  1.00  0.00    -0.320 NA 
HETATM   22  C   UNL     1     -12.588   8.818  71.287  1.00  0.00    -0.246 C  
HETATM   23  H   UNL     1     -11.556  10.501  71.763  1.00  0.00     0.000 HD 
HETATM   24  H1  UNL     1     -13.575   7.088  70.692  1.00  0.00     0.000 HD 
HETATM   25  H2  UNL     1     -11.850   7.104  70.724  1.00  0.00     0.000 HD 
ENDBRANCH  16  17
ENDBRANCH  15  16
ENDBRANCH  14  15
ENDBRANCH  13  14
BRANCH  13  26
HETATM   26  N   UNL     1     -10.422   9.006  67.513  1.00  0.00    -0.270 N  
HETATM   27  H   UNL     1     -11.011   8.179  67.620  1.00  0.00     0.000 HD 
BRANCH  26  28
HETATM   28  S   UNL     1      -8.987   8.937  66.591  1.00  0.00    -0.144 S  
HETATM   29  O   UNL     1      -8.037   9.849  67.172  1.00  0.00    -0.115 OA 
HETATM   30  O   UNL     1      -9.413   9.103  65.217  1.00  0.00    -0.221 OA 
BRANCH  28  31
HETATM   31  C   UNL     1      -8.457   7.261  66.830  1.00  0.00    -0.119 A  
HETATM   32  C   UNL     1      -7.381   4.125  64.928  1.00  0.00    -0.072 C  
HETATM   33  C   UNL     1      -8.435   6.781  68.149  1.00  0.00    -0.121 A  
HETATM   34  C   UNL     1      -7.378   3.711  62.442  1.00  0.00    -0.044 C  
HETATM   35  C   UNL     1      -8.043   5.473  68.412  1.00  0.00    -0.099 A  
HETATM   36  C   UNL     1      -7.917   4.587  63.569  1.00  0.00    -0.088 C  
HETATM   37  C   UNL     1      -7.535   6.050  63.384  1.00  0.00    -0.076 C  
HETATM   38  H   UNL     1      -8.621   7.754  64.175  1.00  0.00     0.000 HD 
HETATM   39  N   UNL     1      -8.153   6.879  64.415  1.00  0.00    -0.095 NA 
HETATM   40  C   UNL     1      -7.671   4.642  67.361  1.00  0.00    -0.090 A  
HETATM   41  C   UNL     1      -8.085   6.438  65.746  1.00  0.00    -0.127 A  
HETATM   42  C   UNL     1      -7.700   5.107  66.034  1.00  0.00    -0.091 A  
ENDBRANCH  28  31
ENDBRANCH  26  28
ENDBRANCH  13  26
ENDBRANCH   7  13
TORSDOF 8
ENDMDL
MODEL      339
REMARK 921   NORMALIZED FREE ENERGY PREDICTED BY IDOCK:   -3.90 KCAL/MOL
REMARK 922        TOTAL FREE ENERGY PREDICTED BY IDOCK:   -6.97 KCAL/MOL
REMARK 923 INTER-LIGAND FREE ENERGY PREDICTED BY IDOCK:   -6.34 KCAL/MOL
REMARK 924 INTRA-LIGAND FREE ENERGY PREDICTED BY IDOCK:   -0.62 KCAL/MOL
REMARK 927      BINDING AFFINITY PREDICTED BY RF-SCORE:    0.00 PKD
ROOT
HETATM    1  C   UNL     1      -7.957  13.326  67.523  1.00  0.00    -0.186 C  
HETATM    2  C   UNL     1      -7.791  11.814  67.479  1.00  0.00    -0.148 C  
HETATM    3  C   UNL     1      -8.518  11.195  66.280  1.00  0.00    -0.168 C  
HETATM    4  C   UNL     1      -8.381   9.673  66.275  1.00  0.00    -0.116 C  
HETATM    5  N   UNL     1      -8.730   9.045  67.580  1.00  0.00    -0.120 N  
HETATM    6  C   UNL     1      -8.080   9.655  68.760  1.00  0.00    -0.097 C  
HETATM    7  C   UNL     1      -9.896   8.268  67.623  1.00  0.00    -0.169 C  
HETATM    8  O   UNL     1     -10.578   8.175  66.593  1.00  0.00    -0.272 OA 
HETATM    9  O   UNL     1      -6.043   8.604  68.006  1.00  0.00    -0.049 OA 
HETATM   10  C   UNL     1      -8.319  11.170  68.771  1.00  0.00    -0.136 C  
HETATM   11  C   UNL     1      -6.582   9.388  68.941  1.00  0.00    -0.047 C  
HETATM   12  O   UNL     1      -5.916   9.849  69.855  1.00  0.00    -0.040 OA 
ENDROOT
BRANCH   7  13
HETATM   13  C   UNL     1     -10.345   7.404  68.856  1.00  0.00    -0.206 C  
BRANCH  13  14
HETATM   14  C   UNL     1      -9.757   7.712  70.258  1.00  0.00    -0.179 C  
BRANCH  14  15
HETATM   15  C   UNL     1     -10.763   7.452  71.398  1.00  0.00    -0.239 C  
BRANCH  15  16
HETATM   16  C   UNL     1     -12.232   7.642  70.990  1.00  0.00    -0.236 C  
BRANCH  16  17
HETATM   17  N   UNL     1     -12.567   9.048  71.119  1.00  0.00    -0.458 NA 
HETATM   18  H2  UNL     1     -12.856  11.471  71.311  1.00  0.00     0.000 HD 
HETATM   19  H1  UNL     1     -14.025  11.325  72.679  1.00  0.00     0.000 HD 
HETATM   20  N   UNL     1     -14.120   8.981  72.912  1.00  0.00    -1.110 NA 
HETATM   21  N   UNL     1     -13.401  10.924  71.978  1.00  0.00    -0.398 NA 
HETATM   22  C   UNL     1     -13.392   9.578  72.047  1.00  0.00    -0.452 C  
HETATM   23  H   UNL     1     -12.141   9.692  70.452  1.00  0.00     0.000 HD 
HETATM   24  H1  UNL     1     -14.743   9.382  73.613  1.00  0.00     0.000 HD 
HETATM   25  H2  UNL     1     -14.070   7.963  72.900  1.00  0.00     0.000 HD 
ENDBRANCH  16  17
ENDBRANCH  15  16
ENDBRANCH  14  15
ENDBRANCH  13  14
BRANCH  13  26
HETATM   26  N   UNL     1     -10.233   5.939  68.616  1.00  0.00    -0.174 N  
HETATM   27  H   UNL     1     -11.053   5.336  68.691  1.00  0.00     0.000 HD 
BRANCH  26  28
HETATM   28  S   UNL     1      -8.708   5.287  68.211  1.00  0.00    -0.101 S  
HETATM   29  O   UNL     1      -8.032   6.226  67.354  1.00  0.00    -0.107 OA 
HETATM   30  O   UNL     1      -8.983   3.942  67.749  1.00  0.00    -0.111 OA 
BRANCH  28  31
HETATM   31  C   UNL     1      -7.899   5.198  69.787  1.00  0.00    -0.072 A  
HETATM   32  C   UNL     1      -8.370   3.941  73.366  1.00  0.00    -0.088 C  
HETATM   33  C   UNL     1      -6.650   5.828  69.899  1.00  0.00    -0.046 A  
HETATM   34  C   UNL     1     -10.420   2.931  74.427  1.00  0.00    -0.220 C  
HETATM   35  C   UNL     1      -5.962   5.811  71.108  1.00  0.00    -0.029 A  
HETATM   36  C   UNL     1      -9.886   3.751  73.256  1.00  0.00    -0.170 C  
HETATM   37  C   UNL     1     -10.183   3.090  71.917  1.00  0.00     0.014 C  
HETATM   38  H   UNL     1     -10.366   4.113  70.012  1.00  0.00     0.000 HD 
HETATM   39  N   UNL     1      -9.757   3.947  70.813  1.00  0.00    -0.191 NA 
HETATM   40  C   UNL     1      -6.518   5.165  72.206  1.00  0.00    -0.043 A  
HETATM   41  C   UNL     1      -8.485   4.536  70.887  1.00  0.00    -0.089 A  
HETATM   42  C   UNL     1      -7.774   4.539  72.110  1.00  0.00    -0.090 A  
ENDBRANCH  28  31
ENDBRANCH  26  28
ENDBRANCH  13  26
ENDBRANCH   7  13
TORSDOF 8
ENDMDL
MODEL      340
REMARK 921   NORMALIZED FREE ENERGY PREDICTED BY IDOCK:   -3.86 KCAL/MOL
REMARK 922        TOTAL FREE ENERGY PREDICTED BY IDOCK:   -6.91 KCAL/MOL
REMARK 923 INTER-LIGAND FREE ENERGY PREDICTED BY IDOCK:   -6.40 KCAL/MOL
REMARK 924 INTRA-LIGAND FREE ENERGY PREDICTED BY IDOCK:   -0.51 KCAL/MOL
REMARK 927      BINDING AFFINITY PREDICTED BY RF-SCORE:    0.00 PKD
ROOT
HETATM    1  C   UNL     1      -6.176  18.076  67.760  1.00  0.00    -0.176 C  
HETATM    2  C   UNL     1      -7.135  16.959  68.148  1.00  0.00    -0.166 C  
HETATM    3  C   UNL     1      -6.593  16.121  69.311  1.00  0.00    -0.189 C  
HETATM    4  C   UNL     1      -7.544  14.976  69.659  1.00  0.00    -0.140 C  
HETATM    5  N   UNL     1      -7.954  14.170  68.476  1.00  0.00    -0.142 N  
HETATM    6  C   UNL     1      -8.434  14.958  67.320  1.00  0.00    -0.208 C  
HETATM    7  C   UNL     1      -7.474  12.855  68.402  1.00  0.00    -0.124 C  
HETATM    8  O   UNL     1      -6.720  12.454  69.300  1.00  0.00    -0.104 OA 
HETATM    9  O   UNL     1     -10.434  15.365  68.608  1.00  0.00    -0.227 OA 
HETATM   10  C   UNL     1      -7.409  16.035  66.951  1.00  0.00    -0.236 C  
HETATM   11  C   UNL     1      -9.814  15.611  67.452  1.00  0.00    -0.225 C  
HETATM   12  O   UNL     1     -10.321  16.306  66.586  1.00  0.00    -0.291 OA 
ENDROOT
BRANCH   7  13
HETATM   13  C   UNL     1      -7.916  11.805  67.322  1.00  0.00    -0.161 C  
BRANCH  13  14
HETATM   14  C   UNL     1      -6.914  10.712  66.864  1.00  0.00    -0.100 C  
BRANCH  14  15
HETATM   15  C   UNL     1      -6.541  10.830  65.372  1.00  0.00     0.047 C  
BRANCH  15  16
HETATM   16  C   UNL     1      -6.599   9.500  64.607  1.00  0.00    -0.093 C  
BRANCH  16  17
HETATM   17  N   UNL     1      -6.698   8.419  65.571  1.00  0.00    -0.059 NA 
HETATM   18  H2  UNL     1      -6.586   6.608  67.214  1.00  0.00     0.000 HD 
HETATM   19  H1  UNL     1      -7.801   5.601  66.336  1.00  0.00     0.000 HD 
HETATM   20  N   UNL     1      -8.290   7.013  64.513  1.00  0.00    -0.333 NA 
HETATM   21  N   UNL     1      -7.233   6.443  66.442  1.00  0.00    -0.071 NA 
HETATM   22  C   UNL     1      -7.449   7.306  65.430  1.00  0.00    -0.087 C  
HETATM   23  H   UNL     1      -6.154   8.509  66.429  1.00  0.00     0.000 HD 
HETATM   24  H1  UNL     1      -8.857   6.172  64.406  1.00  0.00     0.000 HD 
HETATM   25  H2  UNL     1      -8.410   7.718  63.786  1.00  0.00     0.000 HD 
ENDBRANCH  16  17
ENDBRANCH  15  16
ENDBRANCH  14  15
ENDBRANCH  13  14
BRANCH  13  26
HETATM   26  N   UNL     1      -8.512  12.428  66.108  1.00  0.00    -0.328 N  
HETATM   27  H   UNL     1      -8.038  13.196  65.632  1.00  0.00     0.000 HD 
BRANCH  26  28
HETATM   28  S   UNL     1     -10.002  11.832  65.526  1.00  0.00    -0.246 S  
HETATM   29  O   UNL     1      -9.767  11.198  64.256  1.00  0.00    -0.239 OA 
HETATM   30  O   UNL     1     -10.920  12.948  65.627  1.00  0.00    -0.268 OA 
BRANCH  28  31
HETATM   31  C   UNL     1     -10.434  10.621  66.749  1.00  0.00    -0.247 A  
HETATM   32  C   UNL     1     -12.100  10.228  70.166  1.00  0.00    -0.279 C  
HETATM   33  C   UNL     1     -10.021   9.300  66.512  1.00  0.00    -0.344 A  
HETATM   34  C   UNL     1     -12.930  12.020  71.732  1.00  0.00    -0.445 C  
HETATM   35  C   UNL     1     -10.312   8.299  67.432  1.00  0.00    -0.350 A  
HETATM   36  C   UNL     1     -12.042  11.716  70.528  1.00  0.00    -0.458 C  
HETATM   37  C   UNL     1     -12.455  12.517  69.301  1.00  0.00     0.350 C  
HETATM   38  H   UNL     1     -11.157  13.066  67.651  1.00  0.00     0.000 HD 
HETATM   39  N   UNL     1     -11.524  12.288  68.199  1.00  0.00    -0.293 NA 
HETATM   40  C   UNL     1     -11.017   8.613  68.589  1.00  0.00     0.114 A  
HETATM   41  C   UNL     1     -11.150  10.965  67.915  1.00  0.00    -0.302 A  
HETATM   42  C   UNL     1     -11.426   9.934  68.844  1.00  0.00     0.022 A  
ENDBRANCH  28  31
ENDBRANCH  26  28
ENDBRANCH  13  26
ENDBRANCH   7  13
TORSDOF 8
ENDMDL
MODEL      341
REMARK 921   NORMALIZED FREE ENERGY PREDICTED BY IDOCK:   -3.85 KCAL/MOL
REMARK 922        TOTAL FREE ENERGY PREDICTED BY IDOCK:   -6.91 KCAL/MOL
REMARK 923 INTER-LIGAND FREE ENERGY PREDICTED BY IDOCK:   -5.05 KCAL/MOL
REMARK 924 INTRA-LIGAND FREE ENERGY PREDICTED BY IDOCK:   -1.85 KCAL/MOL
REMARK 927      BINDING AFFINITY PREDICTED BY RF-SCORE:    0.00 PKD
ROOT
HETATM    1  C   UNL     1      -7.138  11.760  69.022  1.00  0.00    -0.100 C  
HETATM    2  C   UNL     1      -6.913  10.375  69.612  1.00  0.00    -0.127 C  
HETATM    3  C   UNL     1      -5.824   9.604  68.858  1.00  0.00    -0.039 C  
HETATM    4  C   UNL     1      -5.641   8.200  69.432  1.00  0.00    -0.030 C  
HETATM    5  N   UNL     1      -6.920   7.450  69.576  1.00  0.00    -0.056 N  
HETATM    6  C   UNL     1      -8.004   8.191  70.257  1.00  0.00    -0.103 C  
HETATM    7  C   UNL     1      -7.114   6.351  68.729  1.00  0.00    -0.082 C  
HETATM    8  O   UNL     1      -6.234   6.087  67.898  1.00  0.00    -0.026 OA 
HETATM    9  O   UNL     1      -6.766   7.846  72.299  1.00  0.00    -0.057 OA 
HETATM   10  C   UNL     1      -8.212   9.556  69.591  1.00  0.00    -0.143 C  
HETATM   11  C   UNL     1      -7.862   8.393  71.769  1.00  0.00    -0.126 C  
HETATM   12  O   UNL     1      -8.668   9.005  72.451  1.00  0.00    -0.347 OA 
ENDROOT
BRANCH   7  13
HETATM   13  C   UNL     1      -8.319   5.348  68.833  1.00  0.00    -0.100 C  
BRANCH  13  14
HETATM   14  C   UNL     1      -8.085   3.934  69.428  1.00  0.00    -0.062 C  
BRANCH  14  15
HETATM   15  C   UNL     1      -9.399   3.226  69.820  1.00  0.00    -0.229 C  
BRANCH  15  16
HETATM   16  C   UNL     1      -9.295   2.380  71.098  1.00  0.00    -0.140 C  
BRANCH  16  17
HETATM   17  N   UNL     1      -8.862   3.240  72.184  1.00  0.00    -0.089 NA 
HETATM   18  H2  UNL     1      -8.211   4.907  73.854  1.00  0.00     0.000 HD 
HETATM   19  H1  UNL     1      -6.661   4.064  74.237  1.00  0.00     0.000 HD 
HETATM   20  N   UNL     1      -6.806   2.217  72.780  1.00  0.00    -0.022 NA 
HETATM   21  N   UNL     1      -7.540   4.149  73.726  1.00  0.00    -0.079 NA 
HETATM   22  C   UNL     1      -7.699   3.128  72.860  1.00  0.00    -0.056 C  
HETATM   23  H   UNL     1      -9.492   3.995  72.460  1.00  0.00     0.000 HD 
HETATM   24  H1  UNL     1      -5.927   2.133  73.291  1.00  0.00     0.000 HD 
HETATM   25  H2  UNL     1      -6.998   1.472  72.111  1.00  0.00     0.000 HD 
ENDBRANCH  16  17
ENDBRANCH  15  16
ENDBRANCH  14  15
ENDBRANCH  13  14
BRANCH  13  26
HETATM   26  N   UNL     1      -9.068   5.197  67.555  1.00  0.00    -0.113 N  
HETATM   27  H   UNL     1      -8.807   4.476  66.882  1.00  0.00     0.000 HD 
BRANCH  26  28
HETATM   28  S   UNL     1     -10.370   6.254  67.237  1.00  0.00    -0.255 S  
HETATM   29  O   UNL     1     -10.967   6.620  68.495  1.00  0.00    -0.258 OA 
HETATM   30  O   UNL     1     -11.158   5.587  66.220  1.00  0.00    -0.129 OA 
BRANCH  28  31
HETATM   31  C   UNL     1      -9.559   7.654  66.509  1.00  0.00    -0.186 A  
HETATM   32  C   UNL     1      -9.724  11.466  66.279  1.00  0.00    -0.239 C  
HETATM   33  C   UNL     1      -8.487   7.391  65.643  1.00  0.00    -0.137 A  
HETATM   34  C   UNL     1     -11.487  13.026  67.176  1.00  0.00    -0.379 C  
HETATM   35  C   UNL     1      -7.811   8.438  65.026  1.00  0.00    -0.118 A  
HETATM   36  C   UNL     1     -11.156  11.582  66.808  1.00  0.00    -0.361 C  
HETATM   37  C   UNL     1     -11.297  10.646  68.000  1.00  0.00    -0.278 C  
HETATM   38  H   UNL     1     -11.713   8.518  67.899  1.00  0.00     0.000 HD 
HETATM   39  N   UNL     1     -11.081   9.259  67.595  1.00  0.00     0.013 NA 
HETATM   40  C   UNL     1      -8.203   9.749  65.273  1.00  0.00    -0.137 A  
HETATM   41  C   UNL     1      -9.976   8.975  66.776  1.00  0.00    -0.263 A  
HETATM   42  C   UNL     1      -9.283  10.026  66.131  1.00  0.00    -0.205 A  
ENDBRANCH  28  31
ENDBRANCH  26  28
ENDBRANCH  13  26
ENDBRANCH   7  13
TORSDOF 8
ENDMDL
MODEL      342
REMARK 921   NORMALIZED FREE ENERGY PREDICTED BY IDOCK:   -3.85 KCAL/MOL
REMARK 922        TOTAL FREE ENERGY PREDICTED BY IDOCK:   -6.90 KCAL/MOL
REMARK 923 INTER-LIGAND FREE ENERGY PREDICTED BY IDOCK:   -5.71 KCAL/MOL
REMARK 924 INTRA-LIGAND FREE ENERGY PREDICTED BY IDOCK:   -1.19 KCAL/MOL
REMARK 927      BINDING AFFINITY PREDICTED BY RF-SCORE:    0.00 PKD
ROOT
HETATM    1  C   UNL     1     -11.288  16.385  70.713  1.00  0.00    -0.211 C  
HETATM    2  C   UNL     1     -11.037  15.373  69.604  1.00  0.00    -0.280 C  
HETATM    3  C   UNL     1     -12.338  14.724  69.120  1.00  0.00    -0.114 C  
HETATM    4  C   UNL     1     -12.065  13.678  68.039  1.00  0.00    -0.274 C  
HETATM    5  N   UNL     1     -11.010  12.699  68.419  1.00  0.00    -0.244 N  
HETATM    6  C   UNL     1      -9.760  13.298  68.937  1.00  0.00     0.149 C  
HETATM    7  C   UNL     1     -11.417  11.378  68.649  1.00  0.00    -0.296 C  
HETATM    8  O   UNL     1     -12.622  11.110  68.554  1.00  0.00    -0.224 OA 
HETATM    9  O   UNL     1      -9.302  13.965  66.664  1.00  0.00    -0.269 OA 
HETATM   10  C   UNL     1     -10.075  14.273  70.078  1.00  0.00     0.762 C  
HETATM   11  C   UNL     1      -8.855  14.000  67.921  1.00  0.00    -0.185 C  
HETATM   12  O   UNL     1      -7.809  14.557  68.214  1.00  0.00    -0.116 OA 
ENDROOT
BRANCH   7  13
HETATM   13  C   UNL     1     -10.438  10.176  68.904  1.00  0.00    -0.210 C  
BRANCH  13  14
HETATM   14  C   UNL     1      -9.851   9.958  70.324  1.00  0.00    -0.236 C  
BRANCH  14  15
HETATM   15  C   UNL     1      -9.083   8.627  70.456  1.00  0.00    -0.188 C  
BRANCH  15  16
HETATM   16  C   UNL     1      -7.717   8.760  71.146  1.00  0.00    -0.123 C  
BRANCH  16  17
HETATM   17  N   UNL     1      -7.107  10.006  70.721  1.00  0.00    -0.336 NA 
HETATM   18  H2  UNL     1      -6.339  12.201  69.957  1.00  0.00     0.000 HD 
HETATM   19  H1  UNL     1      -5.004  11.500  68.965  1.00  0.00     0.000 HD 
HETATM   20  N   UNL     1      -5.313   9.203  69.393  1.00  0.00    -0.035 NA 
HETATM   21  N   UNL     1      -5.802  11.413  69.596  1.00  0.00    -0.076 NA 
HETATM   22  C   UNL     1      -6.052  10.121  69.888  1.00  0.00    -0.057 C  
HETATM   23  H   UNL     1      -7.511  10.870  71.084  1.00  0.00     0.000 HD 
HETATM   24  H1  UNL     1      -4.515   9.290  68.763  1.00  0.00     0.000 HD 
HETATM   25  H2  UNL     1      -5.554   8.250  69.666  1.00  0.00     0.000 HD 
ENDBRANCH  16  17
ENDBRANCH  15  16
ENDBRANCH  14  15
ENDBRANCH  13  14
BRANCH  13  26
HETATM   26  N   UNL     1      -9.320  10.112  67.923  1.00  0.00    -0.141 N  
HETATM   27  H   UNL     1      -8.743  10.932  67.739  1.00  0.00     0.000 HD 
BRANCH  26  28
HETATM   28  S   UNL     1      -9.022   8.638  67.114  1.00  0.00    -0.134 S  
HETATM   29  O   UNL     1     -10.179   7.797  67.273  1.00  0.00    -0.217 OA 
HETATM   30  O   UNL     1      -7.727   8.200  67.594  1.00  0.00    -0.099 OA 
BRANCH  28  31
HETATM   31  C   UNL     1      -8.863   9.155  65.424  1.00  0.00    -0.196 A  
HETATM   32  C   UNL     1     -10.326  11.567  62.845  1.00  0.00    -0.157 C  
HETATM   33  C   UNL     1      -7.931   8.466  64.631  1.00  0.00    -0.147 A  
HETATM   34  C   UNL     1     -12.325  13.085  63.061  1.00  0.00    -0.015 C  
HETATM   35  C   UNL     1      -7.761   8.807  63.294  1.00  0.00    -0.124 A  
HETATM   36  C   UNL     1     -11.601  11.872  63.638  1.00  0.00    -0.559 C  
HETATM   37  C   UNL     1     -11.213  12.081  65.095  1.00  0.00    -0.315 C  
HETATM   38  H   UNL     1     -10.906  10.513  66.563  1.00  0.00     0.000 HD 
HETATM   39  N   UNL     1     -10.620  10.868  65.650  1.00  0.00    -0.206 NA 
HETATM   40  C   UNL     1      -8.519   9.836  62.746  1.00  0.00    -0.176 A  
HETATM   41  C   UNL     1      -9.644  10.202  64.892  1.00  0.00    -0.306 A  
HETATM   42  C   UNL     1      -9.464  10.527  63.526  1.00  0.00    -0.352 A  
ENDBRANCH  28  31
ENDBRANCH  26  28
ENDBRANCH  13  26
ENDBRANCH   7  13
TORSDOF 8
ENDMDL
MODEL      343
REMARK 921   NORMALIZED FREE ENERGY PREDICTED BY IDOCK:   -3.83 KCAL/MOL
REMARK 922        TOTAL FREE ENERGY PREDICTED BY IDOCK:   -6.88 KCAL/MOL
REMARK 923 INTER-LIGAND FREE ENERGY PREDICTED BY IDOCK:   -4.57 KCAL/MOL
REMARK 924 INTRA-LIGAND FREE ENERGY PREDICTED BY IDOCK:   -2.31 KCAL/MOL
REMARK 927      BINDING AFFINITY PREDICTED BY RF-SCORE:    0.00 PKD
ROOT
HETATM    1  C   UNL     1      -6.268  10.939  68.863  1.00  0.00    -0.041 C  
HETATM    2  C   UNL     1      -6.284   9.546  69.478  1.00  0.00    -0.040 C  
HETATM    3  C   UNL     1      -5.341   8.588  68.744  1.00  0.00    -0.036 C  
HETATM    4  C   UNL     1      -5.401   7.183  69.344  1.00  0.00    -0.015 C  
HETATM    5  N   UNL     1      -6.789   6.665  69.493  1.00  0.00    -0.063 N  
HETATM    6  C   UNL     1      -7.733   7.592  70.155  1.00  0.00    -0.089 C  
HETATM    7  C   UNL     1      -7.166   5.600  68.664  1.00  0.00    -0.078 C  
HETATM    8  O   UNL     1      -6.341   5.175  67.843  1.00  0.00    -0.037 OA 
HETATM    9  O   UNL     1      -6.577   7.079  72.210  1.00  0.00    -0.056 OA 
HETATM   10  C   UNL     1      -7.704   8.960  69.464  1.00  0.00    -0.088 C  
HETATM   11  C   UNL     1      -7.562   7.794  71.664  1.00  0.00    -0.086 C  
HETATM   12  O   UNL     1      -8.255   8.547  72.331  1.00  0.00    -0.266 OA 
ENDROOT
BRANCH   7  13
HETATM   13  C   UNL     1      -8.523   4.819  68.779  1.00  0.00    -0.081 C  
BRANCH  13  14
HETATM   14  C   UNL     1      -8.531   3.383  69.367  1.00  0.00    -0.096 C  
BRANCH  14  15
HETATM   15  C   UNL     1      -7.237   2.603  69.057  1.00  0.00    -0.044 C  
BRANCH  15  16
HETATM   16  C   UNL     1      -7.378   1.588  67.912  1.00  0.00    -0.046 C  
BRANCH  16  17
HETATM   17  N   UNL     1      -7.162   2.281  66.655  1.00  0.00    -0.055 NA 
HETATM   18  H2  UNL     1      -6.662   3.644  64.685  1.00  0.00     0.000 HD 
HETATM   19  H1  UNL     1      -8.324   3.454  64.006  1.00  0.00     0.000 HD 
HETATM   20  N   UNL     1      -9.308   2.093  65.660  1.00  0.00    -0.325 NA 
HETATM   21  N   UNL     1      -7.614   3.281  64.719  1.00  0.00    -0.076 NA 
HETATM   22  C   UNL     1      -8.101   2.510  65.712  1.00  0.00    -0.084 C  
HETATM   23  H   UNL     1      -6.220   2.625  66.468  1.00  0.00     0.000 HD 
HETATM   24  H1  UNL     1     -10.018   2.266  64.947  1.00  0.00     0.000 HD 
HETATM   25  H2  UNL     1      -9.604   1.506  66.440  1.00  0.00     0.000 HD 
ENDBRANCH  16  17
ENDBRANCH  15  16
ENDBRANCH  14  15
ENDBRANCH  13  14
BRANCH  13  26
HETATM   26  N   UNL     1      -9.301   4.805  67.509  1.00  0.00    -0.131 N  
HETATM   27  H   UNL     1      -9.148   4.076  66.813  1.00  0.00     0.000 HD 
BRANCH  26  28
HETATM   28  S   UNL     1     -10.455   6.035  67.240  1.00  0.00    -0.293 S  
HETATM   29  O   UNL     1     -10.946   6.476  68.519  1.00  0.00    -0.278 OA 
HETATM   30  O   UNL     1     -11.366   5.488  66.255  1.00  0.00     0.095 OA 
BRANCH  28  31
HETATM   31  C   UNL     1      -9.485   7.311  66.480  1.00  0.00    -0.163 A  
HETATM   32  C   UNL     1      -9.247  11.105  66.086  1.00  0.00    -0.216 C  
HETATM   33  C   UNL     1      -8.423   6.901  65.657  1.00  0.00    -0.141 A  
HETATM   34  C   UNL     1     -10.861  12.876  66.865  1.00  0.00    -0.278 C  
HETATM   35  C   UNL     1      -7.627   7.845  65.017  1.00  0.00    -0.098 A  
HETATM   36  C   UNL     1     -10.673  11.392  66.567  1.00  0.00    -0.325 C  
HETATM   37  C   UNL     1     -10.940  10.528  67.792  1.00  0.00    -0.313 C  
HETATM   38  H   UNL     1     -11.572   8.452  67.767  1.00  0.00     0.000 HD 
HETATM   39  N   UNL     1     -10.858   9.110  67.452  1.00  0.00    -0.174 NA 
HETATM   40  C   UNL     1      -7.887   9.199  65.198  1.00  0.00    -0.106 A  
HETATM   41  C   UNL     1      -9.769   8.678  66.679  1.00  0.00    -0.247 A  
HETATM   42  C   UNL     1      -8.954   9.623  66.011  1.00  0.00    -0.195 A  
ENDBRANCH  28  31
ENDBRANCH  26  28
ENDBRANCH  13  26
ENDBRANCH   7  13
TORSDOF 8
ENDMDL
MODEL      344
REMARK 921   NORMALIZED FREE ENERGY PREDICTED BY IDOCK:   -3.80 KCAL/MOL
REMARK 922        TOTAL FREE ENERGY PREDICTED BY IDOCK:   -6.82 KCAL/MOL
REMARK 923 INTER-LIGAND FREE ENERGY PREDICTED BY IDOCK:   -6.99 KCAL/MOL
REMARK 924 INTRA-LIGAND FREE ENERGY PREDICTED BY IDOCK:    0.16 KCAL/MOL
REMARK 927      BINDING AFFINITY PREDICTED BY RF-SCORE:    0.00 PKD
ROOT
HETATM    1  C   UNL     1      -5.197  13.882  68.600  1.00  0.00    -0.089 C  
HETATM    2  C   UNL     1      -5.689  12.461  68.364  1.00  0.00    -0.056 C  
HETATM    3  C   UNL     1      -5.544  12.044  66.896  1.00  0.00    -0.066 C  
HETATM    4  C   UNL     1      -6.083  10.633  66.665  1.00  0.00    -0.081 C  
HETATM    5  N   UNL     1      -7.450  10.426  67.218  1.00  0.00    -0.094 N  
HETATM    6  C   UNL     1      -7.630  10.866  68.619  1.00  0.00    -0.114 C  
HETATM    7  C   UNL     1      -8.492  10.250  66.297  1.00  0.00    -0.135 C  
HETATM    8  O   UNL     1      -8.223  10.306  65.089  1.00  0.00    -0.153 OA 
HETATM    9  O   UNL     1      -6.329   8.933  69.246  1.00  0.00    -0.041 OA 
HETATM   10  C   UNL     1      -7.159  12.315  68.783  1.00  0.00    -0.107 C  
HETATM   11  C   UNL     1      -6.975  10.006  69.705  1.00  0.00    -0.107 C  
HETATM   12  O   UNL     1      -7.023  10.265  70.897  1.00  0.00    -0.321 OA 
ENDROOT
BRANCH   7  13
HETATM   13  C   UNL     1      -9.965   9.866  66.682  1.00  0.00    -0.217 C  
BRANCH  13  14
HETATM   14  C   UNL     1     -10.371   8.370  66.750  1.00  0.00    -0.357 C  
BRANCH  14  15
HETATM   15  C   UNL     1      -9.175   7.438  67.036  1.00  0.00    -0.169 C  
BRANCH  15  16
HETATM   16  C   UNL     1      -8.555   6.814  65.777  1.00  0.00    -0.137 C  
BRANCH  16  17
HETATM   17  N   UNL     1      -7.903   5.573  66.153  1.00  0.00    -0.099 NA 
HETATM   18  H2  UNL     1      -7.003   3.349  66.638  1.00  0.00     0.000 HD 
HETATM   19  H1  UNL     1      -6.724   3.731  68.380  1.00  0.00     0.000 HD 
HETATM   20  N   UNL     1      -7.482   5.962  68.456  1.00  0.00    -0.084 NA 
HETATM   21  N   UNL     1      -7.035   3.979  67.440  1.00  0.00    -0.055 NA 
HETATM   22  C   UNL     1      -7.492   5.245  67.397  1.00  0.00    -0.084 C  
HETATM   23  H   UNL     1      -7.742   4.889  65.413  1.00  0.00     0.000 HD 
HETATM   24  H1  UNL     1      -7.172   5.715  69.396  1.00  0.00     0.000 HD 
HETATM   25  H2  UNL     1      -7.833   6.913  68.346  1.00  0.00     0.000 HD 
ENDBRANCH  16  17
ENDBRANCH  15  16
ENDBRANCH  14  15
ENDBRANCH  13  14
BRANCH  13  26
HETATM   26  N   UNL     1     -10.989  10.588  65.876  1.00  0.00     0.109 N  
HETATM   27  H   UNL     1     -11.409  10.151  65.057  1.00  0.00     0.000 HD 
BRANCH  26  28
HETATM   28  S   UNL     1     -11.444  12.164  66.351  1.00  0.00    -0.351 S  
HETATM   29  O   UNL     1     -12.632  12.526  65.622  1.00  0.00    -0.612 OA 
HETATM   30  O   UNL     1     -10.240  12.958  66.228  1.00  0.00    -0.265 OA 
BRANCH  28  31
HETATM   31  C   UNL     1     -11.819  11.951  68.072  1.00  0.00    -0.253 A  
HETATM   32  C   UNL     1     -12.249  13.889  71.339  1.00  0.00    -0.296 C  
HETATM   33  C   UNL     1     -11.987  10.635  68.531  1.00  0.00     0.048 A  
HETATM   34  C   UNL     1     -11.834  16.333  71.790  1.00  0.00    -0.510 C  
HETATM   35  C   UNL     1     -12.270  10.391  69.871  1.00  0.00    -0.215 A  
HETATM   36  C   UNL     1     -11.569  15.168  70.841  1.00  0.00    -0.380 C  
HETATM   37  C   UNL     1     -12.075  15.455  69.434  1.00  0.00    -0.280 C  
HETATM   38  H   UNL     1     -11.312  14.567  67.607  1.00  0.00     0.000 HD 
HETATM   39  N   UNL     1     -11.713  14.371  68.524  1.00  0.00    -0.320 NA 
HETATM   40  C   UNL     1     -12.387  11.458  70.754  1.00  0.00    -0.483 A  
HETATM   41  C   UNL     1     -11.932  13.051  68.949  1.00  0.00    -0.263 A  
HETATM   42  C   UNL     1     -12.209  12.781  70.310  1.00  0.00    -0.351 A  
ENDBRANCH  28  31
ENDBRANCH  26  28
ENDBRANCH  13  26
ENDBRANCH   7  13
TORSDOF 8
ENDMDL
MODEL      345
REMARK 921   NORMALIZED FREE ENERGY PREDICTED BY IDOCK:   -3.79 KCAL/MOL
REMARK 922        TOTAL FREE ENERGY PREDICTED BY IDOCK:   -6.82 KCAL/MOL
REMARK 923 INTER-LIGAND FREE ENERGY PREDICTED BY IDOCK:   -5.33 KCAL/MOL
REMARK 924 INTRA-LIGAND FREE ENERGY PREDICTED BY IDOCK:   -1.48 KCAL/MOL
REMARK 927      BINDING AFFINITY PREDICTED BY RF-SCORE:    0.00 PKD
ROOT
HETATM    1  C   UNL     1      -5.957   7.267  64.308  1.00  0.00    -0.037 C  
HETATM    2  C   UNL     1      -6.499   8.611  64.772  1.00  0.00    -0.065 C  
HETATM    3  C   UNL     1      -5.448   9.412  65.547  1.00  0.00    -0.044 C  
HETATM    4  C   UNL     1      -6.019  10.739  66.046  1.00  0.00    -0.138 C  
HETATM    5  N   UNL     1      -7.314  10.590  66.767  1.00  0.00    -0.109 N  
HETATM    6  C   UNL     1      -8.330   9.778  66.062  1.00  0.00    -0.120 C  
HETATM    7  C   UNL     1      -7.311  10.844  68.145  1.00  0.00    -0.089 C  
HETATM    8  O   UNL     1      -6.236  11.145  68.684  1.00  0.00    -0.043 OA 
HETATM    9  O   UNL     1      -8.583  11.652  64.563  1.00  0.00     0.488 OA 
HETATM   10  C   UNL     1      -7.739   8.423  65.660  1.00  0.00    -0.099 C  
HETATM   11  C   UNL     1      -8.995  10.413  64.836  1.00  0.00    -0.199 C  
HETATM   12  O   UNL     1      -9.831   9.847  64.148  1.00  0.00    -0.173 OA 
ENDROOT
BRANCH   7  13
HETATM   13  C   UNL     1      -8.597  10.891  69.045  1.00  0.00    -0.103 C  
BRANCH  13  14
HETATM   14  C   UNL     1      -8.631  10.085  70.370  1.00  0.00     0.203 C  
BRANCH  14  15
HETATM   15  C   UNL     1      -8.364   8.581  70.162  1.00  0.00    -0.123 C  
BRANCH  15  16
HETATM   16  C   UNL     1      -9.638   7.725  70.084  1.00  0.00    -0.168 C  
BRANCH  16  17
HETATM   17  N   UNL     1      -9.849   7.342  68.700  1.00  0.00    -0.157 NA 
HETATM   18  H2  UNL     1     -10.279   6.961  66.321  1.00  0.00     0.000 HD 
HETATM   19  H1  UNL     1     -11.136   5.401  66.622  1.00  0.00     0.000 HD 
HETATM   20  N   UNL     1     -10.982   5.275  68.971  1.00  0.00     0.174 NA 
HETATM   21  N   UNL     1     -10.636   6.232  66.939  1.00  0.00    -0.283 NA 
HETATM   22  C   UNL     1     -10.510   6.242  68.281  1.00  0.00    -0.228 C  
HETATM   23  H   UNL     1      -9.464   7.956  67.982  1.00  0.00     0.000 HD 
HETATM   24  H1  UNL     1     -11.482   4.443  68.654  1.00  0.00     0.000 HD 
HETATM   25  H2  UNL     1     -10.840   5.344  69.978  1.00  0.00     0.000 HD 
ENDBRANCH  16  17
ENDBRANCH  15  16
ENDBRANCH  14  15
ENDBRANCH  13  14
BRANCH  13  26
HETATM   26  N   UNL     1      -9.850  10.604  68.293  1.00  0.00    -0.158 N  
HETATM   27  H   UNL     1      -9.908   9.800  67.669  1.00  0.00     0.000 HD 
BRANCH  26  28
HETATM   28  S   UNL     1     -11.186  11.647  68.496  1.00  0.00    -0.285 S  
HETATM   29  O   UNL     1     -10.969  12.428  69.686  1.00  0.00    -0.022 OA 
HETATM   30  O   UNL     1     -12.351  10.793  68.384  1.00  0.00    -0.396 OA 
BRANCH  28  31
HETATM   31  C   UNL     1     -11.089  12.679  67.056  1.00  0.00    -0.281 A  
HETATM   32  C   UNL     1      -9.199  15.659  65.588  1.00  0.00    -0.113 C  
HETATM   33  C   UNL     1     -12.030  12.447  66.040  1.00  0.00    -0.419 A  
HETATM   34  C   UNL     1      -7.481  17.136  66.691  1.00  0.00    -0.293 C  
HETATM   35  C   UNL     1     -12.023  13.225  64.887  1.00  0.00    -0.417 A  
HETATM   36  C   UNL     1      -8.596  16.119  66.919  1.00  0.00    -0.253 C  
HETATM   37  C   UNL     1      -8.098  14.887  67.662  1.00  0.00    -0.166 C  
HETATM   38  H   UNL     1      -9.310  13.570  68.888  1.00  0.00     0.000 HD 
HETATM   39  N   UNL     1      -9.204  13.982  67.961  1.00  0.00    -0.194 NA 
HETATM   40  C   UNL     1     -11.077  14.233  64.745  1.00  0.00    -0.398 A  
HETATM   41  C   UNL     1     -10.119  13.696  66.935  1.00  0.00    -0.260 A  
HETATM   42  C   UNL     1     -10.136  14.484  65.760  1.00  0.00    -0.365 A  
ENDBRANCH  28  31
ENDBRANCH  26  28
ENDBRANCH  13  26
ENDBRANCH   7  13
TORSDOF 8
ENDMDL
MODEL      346
REMARK 921   NORMALIZED FREE ENERGY PREDICTED BY IDOCK:   -3.74 KCAL/MOL
REMARK 922        TOTAL FREE ENERGY PREDICTED BY IDOCK:   -6.74 KCAL/MOL
REMARK 923 INTER-LIGAND FREE ENERGY PREDICTED BY IDOCK:   -6.72 KCAL/MOL
REMARK 924 INTRA-LIGAND FREE ENERGY PREDICTED BY IDOCK:   -0.03 KCAL/MOL
REMARK 927      BINDING AFFINITY PREDICTED BY RF-SCORE:    0.00 PKD
ROOT
HETATM    1  C   UNL     1      -8.359   8.168  74.119  1.00  0.00    -0.286 C  
HETATM    2  C   UNL     1      -8.143   7.989  72.623  1.00  0.00    -0.197 C  
HETATM    3  C   UNL     1      -6.748   8.452  72.188  1.00  0.00    -0.090 C  
HETATM    4  C   UNL     1      -6.563   8.308  70.678  1.00  0.00    -0.037 C  
HETATM    5  N   UNL     1      -7.670   8.912  69.887  1.00  0.00    -0.071 N  
HETATM    6  C   UNL     1      -9.030   8.520  70.318  1.00  0.00    -0.149 C  
HETATM    7  C   UNL     1      -7.370  10.057  69.138  1.00  0.00    -0.087 C  
HETATM    8  O   UNL     1      -6.220  10.514  69.200  1.00  0.00    -0.043 OA 
HETATM    9  O   UNL     1      -8.570   6.366  69.333  1.00  0.00    -0.128 OA 
HETATM   10  C   UNL     1      -9.200   8.765  71.822  1.00  0.00    -0.332 C  
HETATM   11  C   UNL     1      -9.474   7.090  69.996  1.00  0.00    -0.161 C  
HETATM   12  O   UNL     1     -10.558   6.627  70.314  1.00  0.00    -0.204 OA 
ENDROOT
BRANCH   7  13
HETATM   13  C   UNL     1      -8.354  10.744  68.126  1.00  0.00    -0.120 C  
BRANCH  13  14
HETATM   14  C   UNL     1      -7.948  12.081  67.453  1.00  0.00    -0.165 C  
BRANCH  14  15
HETATM   15  C   UNL     1      -8.576  13.311  68.140  1.00  0.00    -0.177 C  
BRANCH  15  16
HETATM   16  C   UNL     1      -8.945  14.446  67.172  1.00  0.00    -0.232 C  
BRANCH  16  17
HETATM   17  N   UNL     1      -9.981  15.255  67.787  1.00  0.00    -0.224 NA 
HETATM   18  H2  UNL     1     -11.541  16.827  68.830  1.00  0.00     0.000 HD 
HETATM   19  H1  UNL     1     -12.160  15.595  69.996  1.00  0.00     0.000 HD 
HETATM   20  N   UNL     1     -10.880  13.721  69.359  1.00  0.00    -0.436 NA 
HETATM   21  N   UNL     1     -11.556  15.887  69.227  1.00  0.00    -0.371 NA 
HETATM   22  C   UNL     1     -10.781  14.869  68.804  1.00  0.00    -0.252 C  
HETATM   23  H   UNL     1     -10.117  16.197  67.419  1.00  0.00     0.000 HD 
HETATM   24  H1  UNL     1     -11.484  13.430  70.128  1.00  0.00     0.000 HD 
HETATM   25  H2  UNL     1     -10.270  12.997  68.980  1.00  0.00     0.000 HD 
ENDBRANCH  16  17
ENDBRANCH  15  16
ENDBRANCH  14  15
ENDBRANCH  13  14
BRANCH  13  26
HETATM   26  N   UNL     1      -9.736  10.893  68.661  1.00  0.00    -0.179 N  
HETATM   27  H   UNL     1      -9.893  11.272  69.595  1.00  0.00     0.000 HD 
BRANCH  26  28
HETATM   28  S   UNL     1     -11.052  10.419  67.683  1.00  0.00    -0.213 S  
HETATM   29  O   UNL     1     -12.036  11.469  67.715  1.00  0.00    -0.626 OA 
HETATM   30  O   UNL     1     -11.392   9.084  68.129  1.00  0.00     0.266 OA 
BRANCH  28  31
HETATM   31  C   UNL     1     -10.314  10.316  66.072  1.00  0.00    -0.178 A  
HETATM   32  C   UNL     1      -8.013   8.143  63.929  1.00  0.00    -0.138 C  
HETATM   33  C   UNL     1     -10.543  11.389  65.196  1.00  0.00    -0.352 A  
HETATM   34  C   UNL     1      -6.702   6.097  64.597  1.00  0.00    -0.046 C  
HETATM   35  C   UNL     1      -9.986  11.384  63.921  1.00  0.00    -0.357 A  
HETATM   36  C   UNL     1      -7.449   7.330  65.099  1.00  0.00    -0.087 C  
HETATM   37  C   UNL     1      -8.606   6.958  66.016  1.00  0.00    -0.145 C  
HETATM   38  H   UNL     1      -9.457   8.225  67.559  1.00  0.00     0.000 HD 
HETATM   39  N   UNL     1      -9.234   8.157  66.566  1.00  0.00    -0.176 NA 
HETATM   40  C   UNL     1      -9.202  10.309  63.519  1.00  0.00    -0.321 A  
HETATM   41  C   UNL     1      -9.522   9.214  65.688  1.00  0.00    -0.240 A  
HETATM   42  C   UNL     1      -8.956   9.233  64.391  1.00  0.00    -0.163 A  
ENDBRANCH  28  31
ENDBRANCH  26  28
ENDBRANCH  13  26
ENDBRANCH   7  13
TORSDOF 8
ENDMDL
MODEL      347
REMARK 921   NORMALIZED FREE ENERGY PREDICTED BY IDOCK:   -3.70 KCAL/MOL
REMARK 922        TOTAL FREE ENERGY PREDICTED BY IDOCK:   -6.68 KCAL/MOL
REMARK 923 INTER-LIGAND FREE ENERGY PREDICTED BY IDOCK:   -6.54 KCAL/MOL
REMARK 924 INTRA-LIGAND FREE ENERGY PREDICTED BY IDOCK:   -0.14 KCAL/MOL
REMARK 927      BINDING AFFINITY PREDICTED BY RF-SCORE:    0.00 PKD
ROOT
HETATM    1  C   UNL     1      -8.238   8.617  63.047  1.00  0.00    -0.179 C  
HETATM    2  C   UNL     1      -8.053   8.937  64.523  1.00  0.00    -0.150 C  
HETATM    3  C   UNL     1      -7.685   7.691  65.336  1.00  0.00    -0.104 C  
HETATM    4  C   UNL     1      -7.547   8.020  66.822  1.00  0.00    -0.094 C  
HETATM    5  N   UNL     1      -8.709   8.773  67.369  1.00  0.00    -0.129 N  
HETATM    6  C   UNL     1      -9.117   9.953  66.577  1.00  0.00    -0.152 C  
HETATM    7  C   UNL     1      -9.533   8.101  68.282  1.00  0.00    -0.141 C  
HETATM    8  O   UNL     1      -9.268   6.922  68.555  1.00  0.00    -0.131 OA 
HETATM    9  O   UNL     1      -7.131  11.032  67.421  1.00  0.00    -0.087 OA 
HETATM   10  C   UNL     1      -9.330   9.558  65.111  1.00  0.00    -0.316 C  
HETATM   11  C   UNL     1      -8.197  11.177  66.631  1.00  0.00    -0.158 C  
HETATM   12  O   UNL     1      -8.399  12.207  66.008  1.00  0.00     0.196 OA 
ENDROOT
BRANCH   7  13
HETATM   13  C   UNL     1     -10.707   8.770  69.083  1.00  0.00    -0.131 C  
BRANCH  13  14
HETATM   14  C   UNL     1     -10.507  10.182  69.694  1.00  0.00    -0.282 C  
BRANCH  14  15
HETATM   15  C   UNL     1     -11.809  11.009  69.729  1.00  0.00    -0.421 C  
BRANCH  15  16
HETATM   16  C   UNL     1     -11.764  12.281  68.868  1.00  0.00    -0.328 C  
BRANCH  16  17
HETATM   17  N   UNL     1     -11.883  11.897  67.474  1.00  0.00    -0.597 NA 
HETATM   18  H2  UNL     1     -11.828  11.135  65.149  1.00  0.00     0.000 HD 
HETATM   19  H1  UNL     1     -12.505  12.685  64.519  1.00  0.00     0.000 HD 
HETATM   20  N   UNL     1     -12.777  13.882  66.532  1.00  0.00    -0.420 NA 
HETATM   21  N   UNL     1     -12.187  12.081  65.278  1.00  0.00    -0.400 NA 
HETATM   22  C   UNL     1     -12.304  12.696  66.471  1.00  0.00     0.163 C  
HETATM   23  H   UNL     1     -11.626  10.939  67.231  1.00  0.00     0.000 HD 
HETATM   24  H1  UNL     1     -13.095  14.487  65.773  1.00  0.00     0.000 HD 
HETATM   25  H2  UNL     1     -12.846  14.280  67.468  1.00  0.00     0.000 HD 
ENDBRANCH  16  17
ENDBRANCH  15  16
ENDBRANCH  14  15
ENDBRANCH  13  14
BRANCH  13  26
HETATM   26  N   UNL     1     -11.279   7.885  70.135  1.00  0.00    -0.408 N  
HETATM   27  H   UNL     1     -11.983   7.186  69.899  1.00  0.00     0.000 HD 
BRANCH  26  28
HETATM   28  S   UNL     1     -10.732   8.061  71.742  1.00  0.00    -0.255 S  
HETATM   29  O   UNL     1     -11.804   8.623  72.521  1.00  0.00    -0.361 OA 
HETATM   30  O   UNL     1      -9.465   8.755  71.635  1.00  0.00    -0.244 OA 
BRANCH  28  31
HETATM   31  C   UNL     1     -10.429   6.383  72.230  1.00  0.00    -0.197 A  
HETATM   32  C   UNL     1      -7.642   3.793  72.598  1.00  0.00    -0.064 C  
HETATM   33  C   UNL     1     -11.546   5.609  72.580  1.00  0.00    -0.307 A  
HETATM   34  C   UNL     1      -5.223   3.970  71.916  1.00  0.00     0.000 C  
HETATM   35  C   UNL     1     -11.387   4.280  72.961  1.00  0.00    -0.158 A  
HETATM   36  C   UNL     1      -6.623   4.552  71.743  1.00  0.00    -0.026 C  
HETATM   37  C   UNL     1      -6.680   6.022  72.136  1.00  0.00    -0.068 C  
HETATM   38  H   UNL     1      -8.104   7.480  71.389  1.00  0.00     0.000 HD 
HETATM   39  N   UNL     1      -8.001   6.579  71.858  1.00  0.00    -0.103 NA 
HETATM   40  C   UNL     1     -10.114   3.723  72.996  1.00  0.00    -0.217 A  
HETATM   41  C   UNL     1      -9.127   5.841  72.257  1.00  0.00    -0.142 A  
HETATM   42  C   UNL     1      -8.987   4.485  72.637  1.00  0.00    -0.130 A  
ENDBRANCH  28  31
ENDBRANCH  26  28
ENDBRANCH  13  26
ENDBRANCH   7  13
TORSDOF 8
ENDMDL
MODEL      348
REMARK 921   NORMALIZED FREE ENERGY PREDICTED BY IDOCK:   -3.69 KCAL/MOL
REMARK 922        TOTAL FREE ENERGY PREDICTED BY IDOCK:   -6.67 KCAL/MOL
REMARK 923 INTER-LIGAND FREE ENERGY PREDICTED BY IDOCK:   -5.59 KCAL/MOL
REMARK 924 INTRA-LIGAND FREE ENERGY PREDICTED BY IDOCK:   -1.08 KCAL/MOL
REMARK 927      BINDING AFFINITY PREDICTED BY RF-SCORE:    0.00 PKD
ROOT
HETATM    1  C   UNL     1     -12.157  12.710  63.568  1.00  0.00    -0.648 C  
HETATM    2  C   UNL     1     -11.131  12.358  64.636  1.00  0.00    -0.348 C  
HETATM    3  C   UNL     1     -10.244  11.184  64.209  1.00  0.00    -0.399 C  
HETATM    4  C   UNL     1      -9.250  10.813  65.309  1.00  0.00    -0.204 C  
HETATM    5  N   UNL     1      -9.886  10.632  66.643  1.00  0.00    -0.194 N  
HETATM    6  C   UNL     1     -10.788  11.729  67.058  1.00  0.00    -0.263 C  
HETATM    7  C   UNL     1      -9.920   9.331  67.163  1.00  0.00    -0.216 C  
HETATM    8  O   UNL     1      -9.450   8.412  66.478  1.00  0.00    -0.186 OA 
HETATM    9  O   UNL     1      -8.796  13.043  67.413  1.00  0.00    -0.183 OA 
HETATM   10  C   UNL     1     -11.823  12.006  65.962  1.00  0.00    -0.223 C  
HETATM   11  C   UNL     1     -10.129  13.051  67.464  1.00  0.00    -0.218 C  
HETATM   12  O   UNL     1     -10.753  14.044  67.804  1.00  0.00    -0.240 OA 
ENDROOT
BRANCH   7  13
HETATM   13  C   UNL     1     -10.404   8.963  68.611  1.00  0.00    -0.204 C  
BRANCH  13  14
HETATM   14  C   UNL     1     -10.140   9.950  69.778  1.00  0.00    -0.274 C  
BRANCH  14  15
HETATM   15  C   UNL     1     -10.338   9.304  71.165  1.00  0.00    -0.392 C  
BRANCH  15  16
HETATM   16  C   UNL     1      -9.101   9.381  72.073  1.00  0.00     1.049 C  
BRANCH  16  17
HETATM   17  N   UNL     1      -8.284   8.205  71.834  1.00  0.00    -0.128 NA 
HETATM   18  H2  UNL     1      -6.920   6.177  71.709  1.00  0.00     0.000 HD 
HETATM   19  H1  UNL     1      -5.729   6.926  70.579  1.00  0.00     0.000 HD 
HETATM   20  N   UNL     1      -6.661   9.078  70.339  1.00  0.00    -0.046 NA 
HETATM   21  N   UNL     1      -6.573   6.957  71.152  1.00  0.00    -0.052 NA 
HETATM   22  C   UNL     1      -7.168   8.164  71.076  1.00  0.00    -0.057 C  
HETATM   23  H   UNL     1      -8.578   7.335  72.279  1.00  0.00     0.000 HD 
HETATM   24  H1  UNL     1      -5.817   9.047  69.766  1.00  0.00     0.000 HD 
HETATM   25  H2  UNL     1      -7.170   9.961  70.322  1.00  0.00     0.000 HD 
ENDBRANCH  16  17
ENDBRANCH  15  16
ENDBRANCH  14  15
ENDBRANCH  13  14
BRANCH  13  26
HETATM   26  N   UNL     1      -9.976   7.604  69.045  1.00  0.00    -0.176 N  
HETATM   27  H   UNL     1      -9.013   7.430  69.333  1.00  0.00     0.000 HD 
BRANCH  26  28
HETATM   28  S   UNL     1     -11.127   6.344  69.051  1.00  0.00    -0.332 S  
HETATM   29  O   UNL     1     -11.740   6.290  67.750  1.00  0.00     0.396 OA 
HETATM   30  O   UNL     1     -11.935   6.577  70.231  1.00  0.00    -0.394 OA 
BRANCH  28  31
HETATM   31  C   UNL     1     -10.121   4.907  69.319  1.00  0.00    -0.178 A  
HETATM   32  C   UNL     1      -8.183   2.181  67.470  1.00  0.00    -0.074 C  
HETATM   33  C   UNL     1      -9.943   4.492  70.648  1.00  0.00    -0.273 A  
HETATM   34  C   UNL     1      -8.083   1.718  64.996  1.00  0.00    -0.075 C  
HETATM   35  C   UNL     1      -9.177   3.367  70.935  1.00  0.00    -0.200 A  
HETATM   36  C   UNL     1      -8.846   2.426  66.112  1.00  0.00    -0.128 C  
HETATM   37  C   UNL     1      -8.918   3.930  65.886  1.00  0.00    -0.132 C  
HETATM   38  H   UNL     1     -10.452   5.256  66.657  1.00  0.00     0.000 HD 
HETATM   39  N   UNL     1      -9.743   4.566  66.909  1.00  0.00    -0.190 NA 
HETATM   40  C   UNL     1      -8.587   2.655  69.896  1.00  0.00    -0.109 A  
HETATM   41  C   UNL     1      -9.533   4.202  68.248  1.00  0.00    -0.154 A  
HETATM   42  C   UNL     1      -8.767   3.054  68.559  1.00  0.00    -0.141 A  
ENDBRANCH  28  31
ENDBRANCH  26  28
ENDBRANCH  13  26
ENDBRANCH   7  13
TORSDOF 8
ENDMDL
MODEL      349
REMARK 921   NORMALIZED FREE ENERGY PREDICTED BY IDOCK:   -3.65 KCAL/MOL
REMARK 922        TOTAL FREE ENERGY PREDICTED BY IDOCK:   -6.61 KCAL/MOL
REMARK 923 INTER-LIGAND FREE ENERGY PREDICTED BY IDOCK:   -6.63 KCAL/MOL
REMARK 924 INTRA-LIGAND FREE ENERGY PREDICTED BY IDOCK:    0.02 KCAL/MOL
REMARK 927      BINDING AFFINITY PREDICTED BY RF-SCORE:    0.00 PKD
ROOT
HETATM    1  C   UNL     1     -12.015  16.175  71.124  1.00  0.00    -0.357 C  
HETATM    2  C   UNL     1     -11.481  15.600  69.820  1.00  0.00    -0.346 C  
HETATM    3  C   UNL     1     -12.533  14.751  69.098  1.00  0.00     0.000 C  
HETATM    4  C   UNL     1     -11.968  14.144  67.814  1.00  0.00    -0.354 C  
HETATM    5  N   UNL     1     -10.666  13.448  68.014  1.00  0.00    -0.242 N  
HETATM    6  C   UNL     1      -9.649  14.227  68.753  1.00  0.00    -0.153 C  
HETATM    7  C   UNL     1     -10.661  12.053  67.880  1.00  0.00    -0.210 C  
HETATM    8  O   UNL     1     -11.733  11.483  67.635  1.00  0.00    -0.538 OA 
HETATM    9  O   UNL     1      -9.423  15.561  66.755  1.00  0.00    -0.217 OA 
HETATM   10  C   UNL     1     -10.233  14.741  70.074  1.00  0.00     0.147 C  
HETATM   11  C   UNL     1      -8.999  15.398  68.010  1.00  0.00    -0.171 C  
HETATM   12  O   UNL     1      -8.164  16.138  68.506  1.00  0.00    -0.168 OA 
ENDROOT
BRANCH   7  13
HETATM   13  C   UNL     1      -9.368  11.161  67.899  1.00  0.00    -0.161 C  
BRANCH  13  14
HETATM   14  C   UNL     1      -8.974  10.415  69.201  1.00  0.00    -0.188 C  
BRANCH  14  15
HETATM   15  C   UNL     1     -10.058   9.425  69.674  1.00  0.00    -0.218 C  
BRANCH  15  16
HETATM   16  C   UNL     1     -10.367   9.508  71.177  1.00  0.00    -0.260 C  
BRANCH  16  17
HETATM   17  N   UNL     1     -11.798   9.680  71.342  1.00  0.00    -0.379 NA 
HETATM   18  H2  UNL     1     -14.151  10.146  71.830  1.00  0.00     0.000 HD 
HETATM   19  H1  UNL     1     -14.628   8.411  71.691  1.00  0.00     0.000 HD 
HETATM   20  N   UNL     1     -12.547   7.434  71.174  1.00  0.00    -0.492 NA 
HETATM   21  N   UNL     1     -13.938   9.163  71.664  1.00  0.00    -0.331 NA 
HETATM   22  C   UNL     1     -12.711   8.686  71.378  1.00  0.00    -0.276 C  
HETATM   23  H   UNL     1     -12.145  10.635  71.440  1.00  0.00     0.000 HD 
HETATM   24  H1  UNL     1     -13.236   6.683  71.201  1.00  0.00     0.000 HD 
HETATM   25  H2  UNL     1     -11.593   7.147  70.953  1.00  0.00     0.000 HD 
ENDBRANCH  16  17
ENDBRANCH  15  16
ENDBRANCH  14  15
ENDBRANCH  13  14
BRANCH  13  26
HETATM   26  N   UNL     1      -8.162  11.866  67.383  1.00  0.00    -0.156 N  
HETATM   27  H   UNL     1      -8.194  12.864  67.173  1.00  0.00     0.000 HD 
BRANCH  26  28
HETATM   28  S   UNL     1      -6.726  10.973  67.152  1.00  0.00    -0.106 S  
HETATM   29  O   UNL     1      -6.380  10.350  68.403  1.00  0.00    -0.051 OA 
HETATM   30  O   UNL     1      -5.807  11.895  66.515  1.00  0.00    -0.234 OA 
BRANCH  28  31
HETATM   31  C   UNL     1      -7.222   9.748  65.969  1.00  0.00    -0.101 A  
HETATM   32  C   UNL     1      -8.030   6.028  65.621  1.00  0.00    -0.116 C  
HETATM   33  C   UNL     1      -7.346  10.163  64.634  1.00  0.00    -0.129 A  
HETATM   34  C   UNL     1      -7.803   4.197  67.336  1.00  0.00    -0.091 C  
HETATM   35  C   UNL     1      -7.719   9.255  63.649  1.00  0.00    -0.116 A  
HETATM   36  C   UNL     1      -7.392   5.615  66.950  1.00  0.00    -0.079 C  
HETATM   37  C   UNL     1      -7.801   6.632  68.007  1.00  0.00    -0.113 C  
HETATM   38  H   UNL     1      -6.842   8.546  68.362  1.00  0.00     0.000 HD 
HETATM   39  N   UNL     1      -7.302   7.961  67.664  1.00  0.00    -0.094 NA 
HETATM   40  C   UNL     1      -7.972   7.932  63.994  1.00  0.00    -0.124 A  
HETATM   41  C   UNL     1      -7.472   8.412  66.345  1.00  0.00    -0.083 A  
HETATM   42  C   UNL     1      -7.840   7.501  65.327  1.00  0.00    -0.120 A  
ENDBRANCH  28  31
ENDBRANCH  26  28
ENDBRANCH  13  26
ENDBRANCH   7  13
TORSDOF 8
ENDMDL
MODEL      350
REMARK 921   NORMALIZED FREE ENERGY PREDICTED BY IDOCK:   -3.61 KCAL/MOL
REMARK 922        TOTAL FREE ENERGY PREDICTED BY IDOCK:   -6.54 KCAL/MOL
REMARK 923 INTER-LIGAND FREE ENERGY PREDICTED BY IDOCK:   -5.38 KCAL/MOL
REMARK 924 INTRA-LIGAND FREE ENERGY PREDICTED BY IDOCK:   -1.17 KCAL/MOL
REMARK 927      BINDING AFFINITY PREDICTED BY RF-SCORE:    0.00 PKD
ROOT
HETATM    1  C   UNL     1     -12.072  16.278  72.246  1.00  0.00    -0.567 C  
HETATM    2  C   UNL     1     -11.501  15.851  70.901  1.00  0.00    -0.444 C  
HETATM    3  C   UNL     1     -12.602  15.637  69.856  1.00  0.00    -0.107 C  
HETATM    4  C   UNL     1     -12.018  15.165  68.525  1.00  0.00    -0.214 C  
HETATM    5  N   UNL     1     -11.088  14.010  68.665  1.00  0.00    -0.252 N  
HETATM    6  C   UNL     1     -10.045  14.171  69.701  1.00  0.00     0.448 C  
HETATM    7  C   UNL     1     -11.515  12.781  68.145  1.00  0.00    -0.314 C  
HETATM    8  O   UNL     1     -12.641  12.719  67.632  1.00  0.00     0.099 OA 
HETATM    9  O   UNL     1      -8.989  15.734  68.197  1.00  0.00    -0.177 OA 
HETATM   10  C   UNL     1     -10.685  14.557  71.040  1.00  0.00     0.824 C  
HETATM   11  C   UNL     1      -8.908  15.151  69.394  1.00  0.00    -0.172 C  
HETATM   12  O   UNL     1      -7.997  15.397  70.169  1.00  0.00     0.088 OA 
ENDROOT
BRANCH   7  13
HETATM   13  C   UNL     1     -10.621  11.493  68.056  1.00  0.00    -0.190 C  
BRANCH  13  14
HETATM   14  C   UNL     1     -10.170  10.785  69.362  1.00  0.00    -0.187 C  
BRANCH  14  15
HETATM   15  C   UNL     1      -9.571   9.387  69.107  1.00  0.00    -0.163 C  
BRANCH  15  16
HETATM   16  C   UNL     1      -9.380   8.548  70.380  1.00  0.00    -0.164 C  
BRANCH  16  17
HETATM   17  N   UNL     1     -10.492   7.622  70.491  1.00  0.00    -0.217 NA 
HETATM   18  H2  UNL     1     -12.387   6.075  70.398  1.00  0.00     0.000 HD 
HETATM   19  H1  UNL     1     -13.218   6.851  71.800  1.00  0.00     0.000 HD 
HETATM   20  N   UNL     1     -11.672   8.550  72.329  1.00  0.00    -0.371 NA 
HETATM   21  N   UNL     1     -12.446   6.775  71.138  1.00  0.00    -0.348 NA 
HETATM   22  C   UNL     1     -11.514   7.721  71.368  1.00  0.00    -0.260 C  
HETATM   23  H   UNL     1     -10.503   6.828  69.850  1.00  0.00     0.000 HD 
HETATM   24  H1  UNL     1     -12.445   8.625  72.991  1.00  0.00     0.000 HD 
HETATM   25  H2  UNL     1     -10.923   9.230  72.450  1.00  0.00     0.000 HD 
ENDBRANCH  16  17
ENDBRANCH  15  16
ENDBRANCH  14  15
ENDBRANCH  13  14
BRANCH  13  26
HETATM   26  N   UNL     1      -9.425  11.668  67.186  1.00  0.00    -0.175 N  
HETATM   27  H   UNL     1      -8.619  12.201  67.511  1.00  0.00     0.000 HD 
BRANCH  26  28
HETATM   28  S   UNL     1      -9.430  10.960  65.632  1.00  0.00    -0.226 S  
HETATM   29  O   UNL     1      -9.919   9.611  65.756  1.00  0.00    -0.293 OA 
HETATM   30  O   UNL     1      -8.108  11.213  65.098  1.00  0.00     0.108 OA 
BRANCH  28  31
HETATM   31  C   UNL     1     -10.604  11.962  64.758  1.00  0.00    -0.299 A  
HETATM   32  C   UNL     1     -11.668  15.591  64.203  1.00  0.00    -0.093 C  
HETATM   33  C   UNL     1     -11.580  11.291  64.005  1.00  0.00     0.072 A  
HETATM   34  C   UNL     1     -10.826  17.674  65.343  1.00  0.00     0.104 C  
HETATM   35  C   UNL     1     -12.542  12.010  63.303  1.00  0.00    -0.512 A  
HETATM   36  C   UNL     1     -10.910  16.152  65.410  1.00  0.00    -0.319 C  
HETATM   37  C   UNL     1      -9.530  15.508  65.441  1.00  0.00     0.002 C  
HETATM   38  H   UNL     1      -9.057  13.567  66.289  1.00  0.00     0.000 HD 
HETATM   39  N   UNL     1      -9.640  14.062  65.614  1.00  0.00    -0.134 NA 
HETATM   40  C   UNL     1     -12.530  13.400  63.350  1.00  0.00    -0.229 A  
HETATM   41  C   UNL     1     -10.572  13.371  64.823  1.00  0.00    -0.405 A  
HETATM   42  C   UNL     1     -11.565  14.084  64.111  1.00  0.00    -0.289 A  
ENDBRANCH  28  31
ENDBRANCH  26  28
ENDBRANCH  13  26
ENDBRANCH   7  13
TORSDOF 8
ENDMDL
MODEL      351
REMARK 921   NORMALIZED FREE ENERGY PREDICTED BY IDOCK:   -3.60 KCAL/MOL
REMARK 922        TOTAL FREE ENERGY PREDICTED BY IDOCK:   -6.53 KCAL/MOL
REMARK 923 INTER-LIGAND FREE ENERGY PREDICTED BY IDOCK:   -5.49 KCAL/MOL
REMARK 924 INTRA-LIGAND FREE ENERGY PREDICTED BY IDOCK:   -1.04 KCAL/MOL
REMARK 927      BINDING AFFINITY PREDICTED BY RF-SCORE:    0.00 PKD
ROOT
HETATM    1  C   UNL     1     -11.409   7.624  73.059  1.00  0.00    -0.334 C  
HETATM    2  C   UNL     1     -10.138   7.049  72.450  1.00  0.00    -0.193 C  
HETATM    3  C   UNL     1      -8.882   7.737  72.996  1.00  0.00    -0.247 C  
HETATM    4  C   UNL     1      -7.618   7.180  72.342  1.00  0.00    -0.088 C  
HETATM    5  N   UNL     1      -7.688   7.147  70.855  1.00  0.00    -0.092 N  
HETATM    6  C   UNL     1      -8.915   6.532  70.302  1.00  0.00    -0.155 C  
HETATM    7  C   UNL     1      -6.853   8.029  70.156  1.00  0.00    -0.041 C  
HETATM    8  O   UNL     1      -6.134   8.798  70.809  1.00  0.00    -0.032 OA 
HETATM    9  O   UNL     1      -7.998   4.412  71.000  1.00  0.00    -0.069 OA 
HETATM   10  C   UNL     1     -10.157   7.182  70.920  1.00  0.00    -0.200 C  
HETATM   11  C   UNL     1      -9.041   5.010  70.421  1.00  0.00    -0.129 C  
HETATM   12  O   UNL     1     -10.008   4.376  70.030  1.00  0.00    -0.223 OA 
ENDROOT
BRANCH   7  13
HETATM   13  C   UNL     1      -6.670   8.035  68.596  1.00  0.00    -0.062 C  
BRANCH  13  14
HETATM   14  C   UNL     1      -5.944   9.227  67.918  1.00  0.00    -0.049 C  
BRANCH  14  15
HETATM   15  C   UNL     1      -6.862  10.450  67.717  1.00  0.00    -0.074 C  
BRANCH  15  16
HETATM   16  C   UNL     1      -7.404  11.045  69.025  1.00  0.00    -0.123 C  
BRANCH  16  17
HETATM   17  N   UNL     1      -6.997  12.436  69.100  1.00  0.00    -0.244 NA 
HETATM   18  H2  UNL     1      -6.230  14.756  68.959  1.00  0.00     0.000 HD 
HETATM   19  H1  UNL     1      -5.426  14.695  70.574  1.00  0.00     0.000 HD 
HETATM   20  N   UNL     1      -5.915  12.479  71.211  1.00  0.00    -0.474 NA 
HETATM   21  N   UNL     1      -5.965  14.273  69.817  1.00  0.00    -0.111 NA 
HETATM   22  C   UNL     1      -6.283  12.995  70.101  1.00  0.00    -0.033 C  
HETATM   23  H   UNL     1      -7.274  13.045  68.330  1.00  0.00     0.000 HD 
HETATM   24  H1  UNL     1      -5.375  12.901  71.968  1.00  0.00     0.000 HD 
HETATM   25  H2  UNL     1      -6.200  11.511  71.362  1.00  0.00     0.000 HD 
ENDBRANCH  16  17
ENDBRANCH  15  16
ENDBRANCH  14  15
ENDBRANCH  13  14
BRANCH  13  26
HETATM   26  N   UNL     1      -7.936   7.779  67.856  1.00  0.00    -0.123 N  
HETATM   27  H   UNL     1      -8.746   8.385  67.987  1.00  0.00     0.000 HD 
BRANCH  26  28
HETATM   28  S   UNL     1      -8.007   6.452  66.785  1.00  0.00    -0.110 S  
HETATM   29  O   UNL     1      -9.322   5.873  66.874  1.00  0.00    -0.123 OA 
HETATM   30  O   UNL     1      -6.836   5.657  67.091  1.00  0.00    -0.060 OA 
BRANCH  28  31
HETATM   31  C   UNL     1      -7.780   7.223  65.203  1.00  0.00    -0.113 A  
HETATM   32  C   UNL     1      -8.948  10.180  63.081  1.00  0.00    -0.260 C  
HETATM   33  C   UNL     1      -6.924   6.579  64.296  1.00  0.00    -0.051 A  
HETATM   34  C   UNL     1     -10.768  11.852  63.570  1.00  0.00    -0.504 C  
HETATM   35  C   UNL     1      -6.707   7.118  63.033  1.00  0.00    -0.052 A  
HETATM   36  C   UNL     1     -10.187  10.487  63.927  1.00  0.00    -0.199 C  
HETATM   37  C   UNL     1      -9.789  10.405  65.395  1.00  0.00    -0.283 C  
HETATM   38  H   UNL     1      -9.669   8.588  66.576  1.00  0.00     0.000 HD 
HETATM   39  N   UNL     1      -9.338   9.057  65.732  1.00  0.00    -0.238 NA 
HETATM   40  C   UNL     1      -7.342   8.302  62.673  1.00  0.00    -0.099 A  
HETATM   41  C   UNL     1      -8.436   8.425  64.862  1.00  0.00    -0.122 A  
HETATM   42  C   UNL     1      -8.211   8.952  63.569  1.00  0.00    -0.177 A  
ENDBRANCH  28  31
ENDBRANCH  26  28
ENDBRANCH  13  26
ENDBRANCH   7  13
TORSDOF 8
ENDMDL
MODEL      352
REMARK 921   NORMALIZED FREE ENERGY PREDICTED BY IDOCK:   -3.59 KCAL/MOL
REMARK 922        TOTAL FREE ENERGY PREDICTED BY IDOCK:   -6.51 KCAL/MOL
REMARK 923 INTER-LIGAND FREE ENERGY PREDICTED BY IDOCK:   -5.40 KCAL/MOL
REMARK 924 INTRA-LIGAND FREE ENERGY PREDICTED BY IDOCK:   -1.11 KCAL/MOL
REMARK 927      BINDING AFFINITY PREDICTED BY RF-SCORE:    0.00 PKD
ROOT
HETATM    1  C   UNL     1      -5.128  13.837  67.713  1.00  0.00    -0.011 C  
HETATM    2  C   UNL     1      -6.279  12.843  67.672  1.00  0.00    -0.157 C  
HETATM    3  C   UNL     1      -7.055  12.815  68.993  1.00  0.00    -0.025 C  
HETATM    4  C   UNL     1      -8.180  11.781  68.953  1.00  0.00     0.057 C  
HETATM    5  N   UNL     1      -7.730  10.438  68.491  1.00  0.00    -0.096 N  
HETATM    6  C   UNL     1      -6.936  10.442  67.243  1.00  0.00    -0.086 C  
HETATM    7  C   UNL     1      -7.723   9.406  69.439  1.00  0.00    -0.085 C  
HETATM    8  O   UNL     1      -8.059   9.674  70.601  1.00  0.00    -0.243 OA 
HETATM    9  O   UNL     1      -9.004  10.914  66.094  1.00  0.00    -0.170 OA 
HETATM   10  C   UNL     1      -5.768  11.428  67.362  1.00  0.00    -0.064 C  
HETATM   11  C   UNL     1      -7.692  10.724  65.941  1.00  0.00    -0.118 C  
HETATM   12  O   UNL     1      -7.158  10.781  64.845  1.00  0.00     0.059 OA 
ENDROOT
BRANCH   7  13
HETATM   13  C   UNL     1      -7.433   7.898  69.111  1.00  0.00    -0.093 C  
BRANCH  13  14
HETATM   14  C   UNL     1      -6.115   7.513  68.388  1.00  0.00    -0.035 C  
BRANCH  14  15
HETATM   15  C   UNL     1      -6.324   6.458  67.283  1.00  0.00    -0.037 C  
BRANCH  15  16
HETATM   16  C   UNL     1      -5.816   6.892  65.900  1.00  0.00    -0.035 C  
BRANCH  16  17
HETATM   17  N   UNL     1      -6.542   6.145  64.889  1.00  0.00    -0.038 NA 
HETATM   18  H2  UNL     1      -7.525   4.878  63.040  1.00  0.00     0.000 HD 
HETATM   19  H1  UNL     1      -9.026   5.881  63.019  1.00  0.00     0.000 HD 
HETATM   20  N   UNL     1      -8.562   7.384  64.773  1.00  0.00    -0.357 NA 
HETATM   21  N   UNL     1      -8.106   5.641  63.389  1.00  0.00    -0.108 NA 
HETATM   22  C   UNL     1      -7.759   6.462  64.399  1.00  0.00    -0.108 C  
HETATM   23  H   UNL     1      -6.093   5.308  64.517  1.00  0.00     0.000 HD 
HETATM   24  H1  UNL     1      -9.482   7.624  64.403  1.00  0.00     0.000 HD 
HETATM   25  H2  UNL     1      -8.238   7.961  65.550  1.00  0.00     0.000 HD 
ENDBRANCH  16  17
ENDBRANCH  15  16
ENDBRANCH  14  15
ENDBRANCH  13  14
BRANCH  13  26
HETATM   26  N   UNL     1      -8.561   7.223  68.411  1.00  0.00    -0.124 N  
HETATM   27  H   UNL     1      -8.699   7.347  67.408  1.00  0.00     0.000 HD 
BRANCH  26  28
HETATM   28  S   UNL     1      -9.618   6.237  69.319  1.00  0.00    -0.134 S  
HETATM   29  O   UNL     1      -8.823   5.394  70.172  1.00  0.00    -0.122 OA 
HETATM   30  O   UNL     1     -10.517   5.652  68.346  1.00  0.00    -0.199 OA 
BRANCH  28  31
HETATM   31  C   UNL     1     -10.513   7.424  70.287  1.00  0.00    -0.221 A  
HETATM   32  C   UNL     1     -12.085  10.904  70.115  1.00  0.00    -0.431 C  
HETATM   33  C   UNL     1     -10.742   7.106  71.635  1.00  0.00    -0.236 A  
HETATM   34  C   UNL     1     -11.981  12.591  68.246  1.00  0.00    -0.274 C  
HETATM   35  C   UNL     1     -11.426   7.994  72.458  1.00  0.00    -0.471 A  
HETATM   36  C   UNL     1     -11.357  11.330  68.836  1.00  0.00    -0.340 C  
HETATM   37  C   UNL     1     -11.400  10.164  67.858  1.00  0.00    -0.032 C  
HETATM   38  H   UNL     1     -10.039   8.474  67.839  1.00  0.00     0.000 HD 
HETATM   39  N   UNL     1     -10.701   9.005  68.406  1.00  0.00    -0.149 NA 
HETATM   40  C   UNL     1     -11.883   9.200  71.939  1.00  0.00    -0.439 A  
HETATM   41  C   UNL     1     -10.967   8.641  69.736  1.00  0.00    -0.127 A  
HETATM   42  C   UNL     1     -11.650   9.536  70.592  1.00  0.00    -0.350 A  
ENDBRANCH  28  31
ENDBRANCH  26  28
ENDBRANCH  13  26
ENDBRANCH   7  13
TORSDOF 8
ENDMDL
MODEL      353
REMARK 921   NORMALIZED FREE ENERGY PREDICTED BY IDOCK:   -3.58 KCAL/MOL
REMARK 922        TOTAL FREE ENERGY PREDICTED BY IDOCK:   -6.51 KCAL/MOL
REMARK 923 INTER-LIGAND FREE ENERGY PREDICTED BY IDOCK:   -6.65 KCAL/MOL
REMARK 924 INTRA-LIGAND FREE ENERGY PREDICTED BY IDOCK:    0.14 KCAL/MOL
REMARK 927      BINDING AFFINITY PREDICTED BY RF-SCORE:    0.00 PKD
ROOT
HETATM    1  C   UNL     1      -9.230  13.213  67.681  1.00  0.00    -0.207 C  
HETATM    2  C   UNL     1      -8.828  11.746  67.622  1.00  0.00    -0.162 C  
HETATM    3  C   UNL     1      -9.443  11.035  66.412  1.00  0.00    -0.218 C  
HETATM    4  C   UNL     1      -9.067   9.553  66.390  1.00  0.00    -0.159 C  
HETATM    5  N   UNL     1      -9.317   8.863  67.686  1.00  0.00    -0.136 N  
HETATM    6  C   UNL     1      -8.776   9.554  68.876  1.00  0.00    -0.133 C  
HETATM    7  C   UNL     1     -10.345   7.911  67.714  1.00  0.00    -0.226 C  
HETATM    8  O   UNL     1     -11.000   7.723  66.679  1.00  0.00    -0.011 OA 
HETATM    9  O   UNL     1      -6.595   8.848  68.122  1.00  0.00    -0.059 OA 
HETATM   10  C   UNL     1      -9.251  11.011  68.903  1.00  0.00    -0.139 C  
HETATM   11  C   UNL     1      -7.255   9.526  69.063  1.00  0.00    -0.071 C  
HETATM   12  O   UNL     1      -6.674  10.075  69.985  1.00  0.00    -0.079 OA 
ENDROOT
BRANCH   7  13
HETATM   13  C   UNL     1     -10.656   6.972  68.934  1.00  0.00    -0.215 C  
BRANCH  13  14
HETATM   14  C   UNL     1      -9.979   7.249  70.302  1.00  0.00    -0.188 C  
BRANCH  14  15
HETATM   15  C   UNL     1     -10.958   7.130  71.489  1.00  0.00    -0.261 C  
BRANCH  15  16
HETATM   16  C   UNL     1     -12.427   7.376  71.113  1.00  0.00    -0.308 C  
BRANCH  16  17
HETATM   17  N   UNL     1     -12.655   8.808  71.066  1.00  0.00    -0.489 NA 
HETATM   18  H2  UNL     1     -12.770  11.249  70.918  1.00  0.00     0.000 HD 
HETATM   19  H1  UNL     1     -13.746  11.395  72.429  1.00  0.00     0.000 HD 
HETATM   20  N   UNL     1     -13.949   9.125  73.029  1.00  0.00    -1.110 NA 
HETATM   21  N   UNL     1     -13.250  10.849  71.724  1.00  0.00    -0.438 NA 
HETATM   22  C   UNL     1     -13.312   9.531  71.998  1.00  0.00    -0.452 C  
HETATM   23  H   UNL     1     -12.288   9.313  70.259  1.00  0.00     0.000 HD 
HETATM   24  H1  UNL     1     -14.446   9.672  73.734  1.00  0.00     0.000 HD 
HETATM   25  H2  UNL     1     -13.963   8.115  73.168  1.00  0.00     0.000 HD 
ENDBRANCH  16  17
ENDBRANCH  15  16
ENDBRANCH  14  15
ENDBRANCH  13  14
BRANCH  13  26
HETATM   26  N   UNL     1     -10.492   5.526  68.617  1.00  0.00    -0.189 N  
HETATM   27  H   UNL     1     -11.305   4.941  68.424  1.00  0.00     0.000 HD 
BRANCH  26  28
HETATM   28  S   UNL     1      -8.918   4.867  68.584  1.00  0.00    -0.109 S  
HETATM   29  O   UNL     1      -8.877   3.758  69.501  1.00  0.00    -0.077 OA 
HETATM   30  O   UNL     1      -8.031   5.998  68.764  1.00  0.00    -0.101 OA 
BRANCH  28  31
HETATM   31  C   UNL     1      -8.779   4.289  66.913  1.00  0.00    -0.113 A  
HETATM   32  C   UNL     1      -7.694   5.376  63.413  1.00  0.00    -0.085 C  
HETATM   33  C   UNL     1      -9.259   2.997  66.643  1.00  0.00    -0.152 A  
HETATM   34  C   UNL     1      -6.968   7.656  62.623  1.00  0.00    -0.076 C  
HETATM   35  C   UNL     1      -9.195   2.481  65.352  1.00  0.00    -0.096 A  
HETATM   36  C   UNL     1      -7.683   6.876  63.722  1.00  0.00    -0.118 C  
HETATM   37  C   UNL     1      -7.024   7.073  65.080  1.00  0.00    -0.052 C  
HETATM   38  H   UNL     1      -8.004   6.879  67.006  1.00  0.00     0.000 HD 
HETATM   39  N   UNL     1      -7.790   6.405  66.128  1.00  0.00    -0.099 NA 
HETATM   40  C   UNL     1      -8.652   3.252  64.331  1.00  0.00    -0.093 A  
HETATM   41  C   UNL     1      -8.225   5.091  65.893  1.00  0.00    -0.114 A  
HETATM   42  C   UNL     1      -8.179   4.552  64.585  1.00  0.00    -0.109 A  
ENDBRANCH  28  31
ENDBRANCH  26  28
ENDBRANCH  13  26
ENDBRANCH   7  13
TORSDOF 8
ENDMDL
MODEL      354
REMARK 921   NORMALIZED FREE ENERGY PREDICTED BY IDOCK:   -3.56 KCAL/MOL
REMARK 922        TOTAL FREE ENERGY PREDICTED BY IDOCK:   -6.48 KCAL/MOL
REMARK 923 INTER-LIGAND FREE ENERGY PREDICTED BY IDOCK:   -7.03 KCAL/MOL
REMARK 924 INTRA-LIGAND FREE ENERGY PREDICTED BY IDOCK:    0.55 KCAL/MOL
REMARK 927      BINDING AFFINITY PREDICTED BY RF-SCORE:    0.00 PKD
ROOT
HETATM    1  C   UNL     1     -12.660  15.156  71.418  1.00  0.00    -0.424 C  
HETATM    2  C   UNL     1     -12.431  14.103  70.344  1.00  0.00    -0.424 C  
HETATM    3  C   UNL     1     -12.572  12.682  70.899  1.00  0.00    -0.338 C  
HETATM    4  C   UNL     1     -12.295  11.635  69.820  1.00  0.00    -0.133 C  
HETATM    5  N   UNL     1     -11.022  11.870  69.084  1.00  0.00    -0.224 N  
HETATM    6  C   UNL     1     -10.838  13.249  68.580  1.00  0.00    -0.265 C  
HETATM    7  C   UNL     1      -9.984  10.952  69.294  1.00  0.00    -0.113 C  
HETATM    8  O   UNL     1     -10.174  10.025  70.093  1.00  0.00    -0.262 OA 
HETATM    9  O   UNL     1     -12.508  12.716  66.922  1.00  0.00    -0.301 OA 
HETATM   10  C   UNL     1     -11.037  14.258  69.715  1.00  0.00    -0.175 C  
HETATM   11  C   UNL     1     -11.698  13.670  67.384  1.00  0.00    -0.381 C  
HETATM   12  O   UNL     1     -11.666  14.783  66.884  1.00  0.00    -0.364 OA 
ENDROOT
BRANCH   7  13
HETATM   13  C   UNL     1      -8.631  10.939  68.497  1.00  0.00    -0.152 C  
BRANCH  13  14
HETATM   14  C   UNL     1      -8.449  11.892  67.286  1.00  0.00    -0.172 C  
BRANCH  14  15
HETATM   15  C   UNL     1      -7.027  11.840  66.692  1.00  0.00     0.027 C  
BRANCH  15  16
HETATM   16  C   UNL     1      -5.971  12.573  67.533  1.00  0.00    -0.152 C  
BRANCH  16  17
HETATM   17  N   UNL     1      -5.603  11.724  68.650  1.00  0.00    -0.046 NA 
HETATM   18  H2  UNL     1      -5.088  10.077  70.386  1.00  0.00     0.000 HD 
HETATM   19  H1  UNL     1      -5.660  11.153  71.718  1.00  0.00     0.000 HD 
HETATM   20  N   UNL     1      -6.314  13.051  70.483  1.00  0.00    -0.454 NA 
HETATM   21  N   UNL     1      -5.483  10.951  70.733  1.00  0.00    -0.111 NA 
HETATM   22  C   UNL     1      -5.837  11.991  69.953  1.00  0.00    -0.139 C  
HETATM   23  H   UNL     1      -5.125  10.849  68.432  1.00  0.00     0.000 HD 
HETATM   24  H1  UNL     1      -6.492  13.253  71.468  1.00  0.00     0.000 HD 
HETATM   25  H2  UNL     1      -6.551  13.800  69.832  1.00  0.00     0.000 HD 
ENDBRANCH  16  17
ENDBRANCH  15  16
ENDBRANCH  14  15
ENDBRANCH  13  14
BRANCH  13  26
HETATM   26  N   UNL     1      -8.207   9.573  68.082  1.00  0.00    -0.113 N  
HETATM   27  H   UNL     1      -7.386   9.135  68.498  1.00  0.00     0.000 HD 
BRANCH  26  28
HETATM   28  S   UNL     1      -9.123   8.755  66.896  1.00  0.00    -0.145 S  
HETATM   29  O   UNL     1      -8.275   8.521  65.757  1.00  0.00    -0.111 OA 
HETATM   30  O   UNL     1     -10.339   9.531  66.757  1.00  0.00    -0.246 OA 
BRANCH  28  31
HETATM   31  C   UNL     1      -9.509   7.222  67.701  1.00  0.00    -0.131 A  
HETATM   32  C   UNL     1      -9.294   3.431  67.260  1.00  0.00    -0.237 C  
HETATM   33  C   UNL     1     -10.188   7.299  68.928  1.00  0.00    -0.196 A  
HETATM   34  C   UNL     1      -8.553   2.118  65.241  1.00  0.00    -0.109 C  
HETATM   35  C   UNL     1     -10.535   6.138  69.611  1.00  0.00    -0.312 A  
HETATM   36  C   UNL     1      -9.029   3.475  65.751  1.00  0.00    -0.140 C  
HETATM   37  C   UNL     1      -8.008   4.573  65.483  1.00  0.00    -0.095 C  
HETATM   38  H   UNL     1      -8.447   6.687  65.272  1.00  0.00     0.000 HD 
HETATM   39  N   UNL     1      -8.534   5.875  65.883  1.00  0.00    -0.136 NA 
HETATM   40  C   UNL     1     -10.205   4.900  69.073  1.00  0.00    -0.164 A  
HETATM   41  C   UNL     1      -9.163   5.978  67.134  1.00  0.00    -0.117 A  
HETATM   42  C   UNL     1      -9.535   4.808  67.839  1.00  0.00    -0.181 A  
ENDBRANCH  28  31
ENDBRANCH  26  28
ENDBRANCH  13  26
ENDBRANCH   7  13
TORSDOF 8
ENDMDL
MODEL      355
REMARK 921   NORMALIZED FREE ENERGY PREDICTED BY IDOCK:   -3.55 KCAL/MOL
REMARK 922        TOTAL FREE ENERGY PREDICTED BY IDOCK:   -6.46 KCAL/MOL
REMARK 923 INTER-LIGAND FREE ENERGY PREDICTED BY IDOCK:   -5.60 KCAL/MOL
REMARK 924 INTRA-LIGAND FREE ENERGY PREDICTED BY IDOCK:   -0.86 KCAL/MOL
REMARK 927      BINDING AFFINITY PREDICTED BY RF-SCORE:    0.00 PKD
ROOT
HETATM    1  C   UNL     1     -12.713  14.444  65.401  1.00  0.00    -0.297 C  
HETATM    2  C   UNL     1     -11.962  13.159  65.718  1.00  0.00    -0.473 C  
HETATM    3  C   UNL     1     -12.252  12.665  67.140  1.00  0.00     0.010 C  
HETATM    4  C   UNL     1     -11.455  11.400  67.459  1.00  0.00    -0.260 C  
HETATM    5  N   UNL     1     -10.004  11.522  67.149  1.00  0.00    -0.197 N  
HETATM    6  C   UNL     1      -9.696  12.045  65.800  1.00  0.00    -0.235 C  
HETATM    7  C   UNL     1      -9.119  11.546  68.235  1.00  0.00    -0.185 C  
HETATM    8  O   UNL     1      -9.592  11.494  69.379  1.00  0.00     0.210 OA 
HETATM    9  O   UNL     1     -10.406   9.897  64.960  1.00  0.00    -0.109 OA 
HETATM   10  C   UNL     1     -10.447  13.359  65.558  1.00  0.00    -0.297 C  
HETATM   11  C   UNL     1      -9.950  11.103  64.618  1.00  0.00    -0.292 C  
HETATM   12  O   UNL     1      -9.764  11.413  63.452  1.00  0.00    -0.304 OA 
ENDROOT
BRANCH   7  13
HETATM   13  C   UNL     1      -7.554  11.513  68.110  1.00  0.00    -0.113 C  
BRANCH  13  14
HETATM   14  C   UNL     1      -6.808  12.747  67.538  1.00  0.00    -0.153 C  
BRANCH  14  15
HETATM   15  C   UNL     1      -7.473  14.082  67.929  1.00  0.00    -0.153 C  
BRANCH  15  16
HETATM   16  C   UNL     1      -7.264  14.478  69.398  1.00  0.00    -0.120 C  
BRANCH  16  17
HETATM   17  N   UNL     1      -6.790  15.849  69.442  1.00  0.00    -0.191 NA 
HETATM   18  H2  UNL     1      -5.873  18.096  69.760  1.00  0.00     0.000 HD 
HETATM   19  H1  UNL     1      -7.396  18.903  69.225  1.00  0.00     0.000 HD 
HETATM   20  N   UNL     1      -8.733  17.021  68.746  1.00  0.00    -0.263 NA 
HETATM   21  N   UNL     1      -6.835  18.074  69.423  1.00  0.00    -0.181 NA 
HETATM   22  C   UNL     1      -7.532  16.946  69.180  1.00  0.00    -0.180 C  
HETATM   23  H   UNL     1      -5.812  15.997  69.692  1.00  0.00     0.000 HD 
HETATM   24  H1  UNL     1      -9.293  17.851  68.549  1.00  0.00     0.000 HD 
HETATM   25  H2  UNL     1      -9.194  16.128  68.575  1.00  0.00     0.000 HD 
ENDBRANCH  16  17
ENDBRANCH  15  16
ENDBRANCH  14  15
ENDBRANCH  13  14
BRANCH  13  26
HETATM   26  N   UNL     1      -7.047  10.298  67.412  1.00  0.00    -0.083 N  
HETATM   27  H   UNL     1      -6.806  10.331  66.421  1.00  0.00     0.000 HD 
BRANCH  26  28
HETATM   28  S   UNL     1      -6.877   8.851  68.302  1.00  0.00    -0.066 S  
HETATM   29  O   UNL     1      -6.996   9.169  69.701  1.00  0.00    -0.051 OA 
HETATM   30  O   UNL     1      -5.669   8.235  67.792  1.00  0.00    -0.037 OA 
BRANCH  28  31
HETATM   31  C   UNL     1      -8.277   7.904  67.764  1.00  0.00    -0.129 A  
HETATM   32  C   UNL     1      -9.308   5.133  65.341  1.00  0.00    -0.090 C  
HETATM   33  C   UNL     1      -9.523   8.235  68.320  1.00  0.00    -0.146 A  
HETATM   34  C   UNL     1      -7.932   4.005  63.557  1.00  0.00    -0.087 C  
HETATM   35  C   UNL     1     -10.667   7.544  67.936  1.00  0.00    -0.200 A  
HETATM   36  C   UNL     1      -8.044   5.216  64.478  1.00  0.00    -0.120 C  
HETATM   37  C   UNL     1      -6.845   5.335  65.409  1.00  0.00    -0.060 C  
HETATM   38  H   UNL     1      -6.117   7.171  66.310  1.00  0.00     0.000 HD 
HETATM   39  N   UNL     1      -6.927   6.559  66.202  1.00  0.00    -0.061 NA 
HETATM   40  C   UNL     1     -10.571   6.521  67.000  1.00  0.00    -0.402 A  
HETATM   41  C   UNL     1      -8.153   6.871  66.812  1.00  0.00    -0.109 A  
HETATM   42  C   UNL     1      -9.330   6.187  66.427  1.00  0.00    -0.173 A  
ENDBRANCH  28  31
ENDBRANCH  26  28
ENDBRANCH  13  26
ENDBRANCH   7  13
TORSDOF 8
ENDMDL
MODEL      356
REMARK 921   NORMALIZED FREE ENERGY PREDICTED BY IDOCK:   -3.55 KCAL/MOL
REMARK 922        TOTAL FREE ENERGY PREDICTED BY IDOCK:   -6.46 KCAL/MOL
REMARK 923 INTER-LIGAND FREE ENERGY PREDICTED BY IDOCK:   -6.02 KCAL/MOL
REMARK 924 INTRA-LIGAND FREE ENERGY PREDICTED BY IDOCK:   -0.44 KCAL/MOL
REMARK 927      BINDING AFFINITY PREDICTED BY RF-SCORE:    0.00 PKD
ROOT
HETATM    1  C   UNL     1     -11.884  16.119  71.503  1.00  0.00    -0.528 C  
HETATM    2  C   UNL     1     -11.522  15.549  70.139  1.00  0.00    -0.342 C  
HETATM    3  C   UNL     1     -12.641  14.666  69.575  1.00  0.00    -0.039 C  
HETATM    4  C   UNL     1     -12.245  14.064  68.227  1.00  0.00    -0.160 C  
HETATM    5  N   UNL     1     -10.909  13.406  68.245  1.00  0.00    -0.248 N  
HETATM    6  C   UNL     1      -9.821  14.218  68.830  1.00  0.00    -0.189 C  
HETATM    7  C   UNL     1     -10.884  12.011  68.116  1.00  0.00    -0.221 C  
HETATM    8  O   UNL     1     -11.963  11.409  68.027  1.00  0.00    -0.613 OA 
HETATM    9  O   UNL     1      -9.915  15.542  66.815  1.00  0.00    -0.239 OA 
HETATM   10  C   UNL     1     -10.227  14.726  70.218  1.00  0.00     0.302 C  
HETATM   11  C   UNL     1      -9.314  15.401  67.998  1.00  0.00    -0.196 C  
HETATM   12  O   UNL     1      -8.439  16.167  68.369  1.00  0.00    -0.171 OA 
ENDROOT
BRANCH   7  13
HETATM   13  C   UNL     1      -9.577  11.155  67.957  1.00  0.00    -0.176 C  
BRANCH  13  14
HETATM   14  C   UNL     1      -8.921  10.521  69.212  1.00  0.00    -0.148 C  
BRANCH  14  15
HETATM   15  C   UNL     1      -9.596   9.201  69.637  1.00  0.00    -0.182 C  
BRANCH  15  16
HETATM   16  C   UNL     1      -9.789   9.058  71.154  1.00  0.00    -0.300 C  
BRANCH  16  17
HETATM   17  N   UNL     1     -11.107   8.500  71.399  1.00  0.00    -0.249 NA 
HETATM   18  H2  UNL     1     -13.236   7.328  71.682  1.00  0.00     0.000 HD 
HETATM   19  H1  UNL     1     -14.210   8.777  71.224  1.00  0.00     0.000 HD 
HETATM   20  N   UNL     1     -12.491  10.340  70.825  1.00  0.00    -0.329 NA 
HETATM   21  N   UNL     1     -13.323   8.302  71.391  1.00  0.00    -0.258 NA 
HETATM   22  C   UNL     1     -12.281   9.129  71.178  1.00  0.00    -0.285 C  
HETATM   23  H   UNL     1     -11.149   7.551  71.770  1.00  0.00     0.000 HD 
HETATM   24  H1  UNL     1     -13.379  10.815  70.658  1.00  0.00     0.000 HD 
HETATM   25  H2  UNL     1     -11.657  10.910  70.692  1.00  0.00     0.000 HD 
ENDBRANCH  16  17
ENDBRANCH  15  16
ENDBRANCH  14  15
ENDBRANCH  13  14
BRANCH  13  26
HETATM   26  N   UNL     1      -8.514  11.847  67.176  1.00  0.00    -0.167 N  
HETATM   27  H   UNL     1      -8.741  12.342  66.314  1.00  0.00     0.000 HD 
BRANCH  26  28
HETATM   28  S   UNL     1      -6.908  11.798  67.753  1.00  0.00    -0.100 S  
HETATM   29  O   UNL     1      -6.929  12.088  69.163  1.00  0.00    -0.104 OA 
HETATM   30  O   UNL     1      -6.155  12.638  66.845  1.00  0.00    -0.235 OA 
BRANCH  28  31
HETATM   31  C   UNL     1      -6.455  10.104  67.480  1.00  0.00    -0.066 A  
HETATM   32  C   UNL     1      -6.658   7.295  64.896  1.00  0.00    -0.040 C  
HETATM   33  C   UNL     1      -5.839   9.429  68.545  1.00  0.00    -0.041 A  
HETATM   34  C   UNL     1      -7.875   7.265  62.690  1.00  0.00    -0.133 C  
HETATM   35  C   UNL     1      -5.467   8.095  68.409  1.00  0.00    -0.033 A  
HETATM   36  C   UNL     1      -7.742   7.959  64.043  1.00  0.00    -0.133 C  
HETATM   37  C   UNL     1      -7.388   9.433  63.892  1.00  0.00    -0.105 C  
HETATM   38  H   UNL     1      -7.832  10.996  65.329  1.00  0.00     0.000 HD 
HETATM   39  N   UNL     1      -7.373  10.095  65.193  1.00  0.00    -0.139 NA 
HETATM   40  C   UNL     1      -5.707   7.435  67.209  1.00  0.00    -0.030 A  
HETATM   41  C   UNL     1      -6.710   9.456  66.253  1.00  0.00    -0.075 A  
HETATM   42  C   UNL     1      -6.334   8.097  66.138  1.00  0.00    -0.046 A  
ENDBRANCH  28  31
ENDBRANCH  26  28
ENDBRANCH  13  26
ENDBRANCH   7  13
TORSDOF 8
ENDMDL
MODEL      357
REMARK 921   NORMALIZED FREE ENERGY PREDICTED BY IDOCK:   -3.53 KCAL/MOL
REMARK 922        TOTAL FREE ENERGY PREDICTED BY IDOCK:   -6.42 KCAL/MOL
REMARK 923 INTER-LIGAND FREE ENERGY PREDICTED BY IDOCK:   -5.90 KCAL/MOL
REMARK 924 INTRA-LIGAND FREE ENERGY PREDICTED BY IDOCK:   -0.53 KCAL/MOL
REMARK 927      BINDING AFFINITY PREDICTED BY RF-SCORE:    0.00 PKD
ROOT
HETATM    1  C   UNL     1      -5.357  14.040  67.846  1.00  0.00    -0.075 C  
HETATM    2  C   UNL     1      -5.791  12.586  67.732  1.00  0.00    -0.118 C  
HETATM    3  C   UNL     1      -5.423  11.986  66.371  1.00  0.00     0.442 C  
HETATM    4  C   UNL     1      -5.905  10.540  66.255  1.00  0.00    -0.092 C  
HETATM    5  N   UNL     1      -7.337  10.364  66.624  1.00  0.00    -0.109 N  
HETATM    6  C   UNL     1      -7.730  10.977  67.911  1.00  0.00    -0.104 C  
HETATM    7  C   UNL     1      -8.227  10.036  65.592  1.00  0.00    -0.143 C  
HETATM    8  O   UNL     1      -7.780   9.942  64.440  1.00  0.00    -0.132 OA 
HETATM    9  O   UNL     1      -6.515   9.185  68.976  1.00  0.00    -0.046 OA 
HETATM   10  C   UNL     1      -7.306  12.450  67.947  1.00  0.00    -0.112 C  
HETATM   11  C   UNL     1      -7.235  10.288  69.187  1.00  0.00    -0.083 C  
HETATM   12  O   UNL     1      -7.464  10.699  70.313  1.00  0.00    -0.118 OA 
ENDROOT
BRANCH   7  13
HETATM   13  C   UNL     1      -9.736   9.659  65.803  1.00  0.00    -0.280 C  
BRANCH  13  14
HETATM   14  C   UNL     1     -10.109   8.219  66.244  1.00  0.00    -0.101 C  
BRANCH  14  15
HETATM   15  C   UNL     1      -8.881   7.294  66.367  1.00  0.00    -0.167 C  
BRANCH  15  16
HETATM   16  C   UNL     1      -8.837   6.171  65.320  1.00  0.00     0.042 C  
BRANCH  16  17
HETATM   17  N   UNL     1      -7.532   5.538  65.380  1.00  0.00    -0.072 NA 
HETATM   18  H2  UNL     1      -5.410   4.371  65.731  1.00  0.00     0.000 HD 
HETATM   19  H1  UNL     1      -4.429   5.764  65.133  1.00  0.00     0.000 HD 
HETATM   20  N   UNL     1      -6.140   7.297  64.605  1.00  0.00    -0.037 NA 
HETATM   21  N   UNL     1      -5.319   5.315  65.355  1.00  0.00    -0.012 NA 
HETATM   22  C   UNL     1      -6.356   6.132  65.087  1.00  0.00    -0.038 C  
HETATM   23  H   UNL     1      -7.502   4.560  65.669  1.00  0.00     0.000 HD 
HETATM   24  H1  UNL     1      -5.251   7.746  64.384  1.00  0.00     0.000 HD 
HETATM   25  H2  UNL     1      -6.973   7.855  64.417  1.00  0.00     0.000 HD 
ENDBRANCH  16  17
ENDBRANCH  15  16
ENDBRANCH  14  15
ENDBRANCH  13  14
BRANCH  13  26
HETATM   26  N   UNL     1     -10.601  10.030  64.649  1.00  0.00     0.033 N  
HETATM   27  H   UNL     1     -11.087   9.312  64.111  1.00  0.00     0.000 HD 
BRANCH  26  28
HETATM   28  S   UNL     1     -10.763  11.680  64.242  1.00  0.00    -0.368 S  
HETATM   29  O   UNL     1     -11.934  11.826  63.418  1.00  0.00    -0.474 OA 
HETATM   30  O   UNL     1      -9.462  12.075  63.741  1.00  0.00    -0.108 OA 
BRANCH  28  31
HETATM   31  C   UNL     1     -11.025  12.441  65.824  1.00  0.00    -0.298 A  
HETATM   32  C   UNL     1     -10.779  15.788  67.652  1.00  0.00    -0.310 C  
HETATM   33  C   UNL     1     -11.414  11.600  66.879  1.00  0.00    -0.320 A  
HETATM   34  C   UNL     1      -9.845  17.976  66.819  1.00  0.00    -0.335 C  
HETATM   35  C   UNL     1     -11.625  12.124  68.150  1.00  0.00    -0.397 A  
HETATM   36  C   UNL     1      -9.901  16.467  66.596  1.00  0.00    -0.279 C  
HETATM   37  C   UNL     1     -10.457  16.116  65.223  1.00  0.00    -0.331 C  
HETATM   38  H   UNL     1     -10.046  14.296  64.116  1.00  0.00     0.000 HD 
HETATM   39  N   UNL     1     -10.398  14.675  64.995  1.00  0.00    -0.414 NA 
HETATM   40  C   UNL     1     -11.450  13.485  68.370  1.00  0.00    -0.346 A  
HETATM   41  C   UNL     1     -10.840  13.825  66.022  1.00  0.00    -0.282 A  
HETATM   42  C   UNL     1     -11.049  14.336  67.324  1.00  0.00    -0.315 A  
ENDBRANCH  28  31
ENDBRANCH  26  28
ENDBRANCH  13  26
ENDBRANCH   7  13
TORSDOF 8
ENDMDL
MODEL      358
REMARK 921   NORMALIZED FREE ENERGY PREDICTED BY IDOCK:   -3.50 KCAL/MOL
REMARK 922        TOTAL FREE ENERGY PREDICTED BY IDOCK:   -6.38 KCAL/MOL
REMARK 923 INTER-LIGAND FREE ENERGY PREDICTED BY IDOCK:   -5.68 KCAL/MOL
REMARK 924 INTRA-LIGAND FREE ENERGY PREDICTED BY IDOCK:   -0.70 KCAL/MOL
REMARK 927      BINDING AFFINITY PREDICTED BY RF-SCORE:    0.00 PKD
ROOT
HETATM    1  C   UNL     1     -11.713  16.028  69.720  1.00  0.00    -0.267 C  
HETATM    2  C   UNL     1     -11.276  15.036  68.651  1.00  0.00    -0.289 C  
HETATM    3  C   UNL     1     -12.409  14.081  68.262  1.00  0.00    -0.012 C  
HETATM    4  C   UNL     1     -11.942  13.063  67.221  1.00  0.00    -0.321 C  
HETATM    5  N   UNL     1     -10.677  12.374  67.597  1.00  0.00    -0.216 N  
HETATM    6  C   UNL     1      -9.581  13.271  68.024  1.00  0.00    -0.220 C  
HETATM    7  C   UNL     1     -10.760  11.011  67.910  1.00  0.00    -0.219 C  
HETATM    8  O   UNL     1     -11.875  10.471  67.886  1.00  0.00    -0.400 OA 
HETATM    9  O   UNL     1      -9.371  13.892  65.702  1.00  0.00    -0.001 OA 
HETATM   10  C   UNL     1     -10.070  14.213  69.130  1.00  0.00    -0.023 C  
HETATM   11  C   UNL     1      -8.898  14.101  66.932  1.00  0.00    -0.203 C  
HETATM   12  O   UNL     1      -7.999  14.898  67.148  1.00  0.00    -0.200 OA 
ENDROOT
BRANCH   7  13
HETATM   13  C   UNL     1      -9.523  10.081  68.175  1.00  0.00    -0.138 C  
BRANCH  13  14
HETATM   14  C   UNL     1      -8.749  10.204  69.514  1.00  0.00    -0.189 C  
BRANCH  14  15
HETATM   15  C   UNL     1      -9.309   9.282  70.617  1.00  0.00    -0.329 C  
BRANCH  15  16
HETATM   16  C   UNL     1     -10.667   9.732  71.176  1.00  0.00    -0.214 C  
BRANCH  16  17
HETATM   17  N   UNL     1     -11.657   8.723  70.846  1.00  0.00    -0.282 NA 
HETATM   18  H2  UNL     1     -13.483   7.231  70.188  1.00  0.00     0.000 HD 
HETATM   19  H1  UNL     1     -13.404   6.291  71.727  1.00  0.00     0.000 HD 
HETATM   20  N   UNL     1     -11.641   7.408  72.821  1.00  0.00    -0.546 NA 
HETATM   21  N   UNL     1     -13.087   7.038  71.108  1.00  0.00    -0.284 NA 
HETATM   22  C   UNL     1     -12.077   7.735  71.665  1.00  0.00    -0.304 C  
HETATM   23  H   UNL     1     -12.072   8.764  69.914  1.00  0.00     0.000 HD 
HETATM   24  H1  UNL     1     -11.958   6.662  73.440  1.00  0.00     0.000 HD 
HETATM   25  H2  UNL     1     -10.869   7.973  73.175  1.00  0.00     0.000 HD 
ENDBRANCH  16  17
ENDBRANCH  15  16
ENDBRANCH  14  15
ENDBRANCH  13  14
BRANCH  13  26
HETATM   26  N   UNL     1      -8.533  10.089  67.063  1.00  0.00    -0.125 N  
HETATM   27  H   UNL     1      -8.547  10.830  66.361  1.00  0.00     0.000 HD 
BRANCH  26  28
HETATM   28  S   UNL     1      -7.376   8.837  66.985  1.00  0.00    -0.080 S  
HETATM   29  O   UNL     1      -8.042   7.592  67.264  1.00  0.00    -0.115 OA 
HETATM   30  O   UNL     1      -6.280   9.284  67.821  1.00  0.00    -0.053 OA 
BRANCH  28  31
HETATM   31  C   UNL     1      -6.863   8.895  65.287  1.00  0.00    -0.072 A  
HETATM   32  C   UNL     1      -5.708   6.677  62.396  1.00  0.00    -0.031 C  
HETATM   33  C   UNL     1      -6.754  10.164  64.696  1.00  0.00    -0.120 A  
HETATM   34  C   UNL     1      -5.191   4.211  62.409  1.00  0.00    -0.005 C  
HETATM   35  C   UNL     1      -6.345  10.288  63.373  1.00  0.00    -0.122 A  
HETATM   36  C   UNL     1      -5.388   5.458  63.267  1.00  0.00    -0.013 C  
HETATM   37  C   UNL     1      -6.521   5.284  64.270  1.00  0.00    -0.037 C  
HETATM   38  H   UNL     1      -6.716   6.338  66.156  1.00  0.00     0.000 HD 
HETATM   39  N   UNL     1      -6.616   6.447  65.147  1.00  0.00    -0.038 NA 
HETATM   40  C   UNL     1      -6.048   9.147  62.636  1.00  0.00    -0.094 A  
HETATM   41  C   UNL     1      -6.567   7.722  64.561  1.00  0.00    -0.048 A  
HETATM   42  C   UNL     1      -6.143   7.870  63.219  1.00  0.00    -0.067 A  
ENDBRANCH  28  31
ENDBRANCH  26  28
ENDBRANCH  13  26
ENDBRANCH   7  13
TORSDOF 8
ENDMDL
MODEL      359
REMARK 921   NORMALIZED FREE ENERGY PREDICTED BY IDOCK:   -3.40 KCAL/MOL
REMARK 922        TOTAL FREE ENERGY PREDICTED BY IDOCK:   -6.24 KCAL/MOL
REMARK 923 INTER-LIGAND FREE ENERGY PREDICTED BY IDOCK:   -5.10 KCAL/MOL
REMARK 924 INTRA-LIGAND FREE ENERGY PREDICTED BY IDOCK:   -1.14 KCAL/MOL
REMARK 927      BINDING AFFINITY PREDICTED BY RF-SCORE:    0.00 PKD
ROOT
HETATM    1  C   UNL     1      -5.240  16.513  68.122  1.00  0.00    -0.110 C  
HETATM    2  C   UNL     1      -5.421  15.041  68.466  1.00  0.00    -0.100 C  
HETATM    3  C   UNL     1      -5.321  14.149  67.225  1.00  0.00     0.609 C  
HETATM    4  C   UNL     1      -5.549  12.680  67.579  1.00  0.00    -0.121 C  
HETATM    5  N   UNL     1      -6.779  12.452  68.386  1.00  0.00    -0.063 N  
HETATM    6  C   UNL     1      -6.925  13.335  69.564  1.00  0.00     0.157 C  
HETATM    7  C   UNL     1      -7.834  11.770  67.764  1.00  0.00    -0.135 C  
HETATM    8  O   UNL     1      -7.695  11.427  66.582  1.00  0.00    -0.152 OA 
HETATM    9  O   UNL     1      -5.173  12.027  70.585  1.00  0.00    -0.109 OA 
HETATM   10  C   UNL     1      -6.777  14.802  69.147  1.00  0.00    -0.123 C  
HETATM   11  C   UNL     1      -5.999  13.062  70.753  1.00  0.00     0.019 C  
HETATM   12  O   UNL     1      -5.995  13.727  71.777  1.00  0.00    -0.356 OA 
ENDROOT
BRANCH   7  13
HETATM   13  C   UNL     1      -9.143  11.300  68.493  1.00  0.00    -0.173 C  
BRANCH  13  14
HETATM   14  C   UNL     1     -10.337  12.282  68.629  1.00  0.00    -0.204 C  
BRANCH  14  15
HETATM   15  C   UNL     1     -11.356  12.147  67.479  1.00  0.00    -0.392 C  
BRANCH  15  16
HETATM   16  C   UNL     1     -11.788  13.489  66.867  1.00  0.00    -0.407 C  
BRANCH  16  17
HETATM   17  N   UNL     1     -11.716  14.508  67.897  1.00  0.00    -0.351 NA 
HETATM   18  H2  UNL     1     -11.874  16.203  69.656  1.00  0.00     0.000 HD 
HETATM   19  H1  UNL     1     -10.719  17.316  68.826  1.00  0.00     0.000 HD 
HETATM   20  N   UNL     1     -10.205  16.047  66.908  1.00  0.00    -0.274 NA 
HETATM   21  N   UNL     1     -11.249  16.445  68.887  1.00  0.00    -0.327 NA 
HETATM   22  C   UNL     1     -11.015  15.659  67.818  1.00  0.00    -0.316 C  
HETATM   23  H   UNL     1     -12.240  14.340  68.756  1.00  0.00     0.000 HD 
HETATM   24  H1  UNL     1      -9.675  16.917  66.848  1.00  0.00     0.000 HD 
HETATM   25  H2  UNL     1     -10.069  15.396  66.135  1.00  0.00     0.000 HD 
ENDBRANCH  16  17
ENDBRANCH  15  16
ENDBRANCH  14  15
ENDBRANCH  13  14
BRANCH  13  26
HETATM   26  N   UNL     1      -8.885  10.694  69.829  1.00  0.00    -0.347 N  
HETATM   27  H   UNL     1      -8.332  11.192  70.527  1.00  0.00     0.000 HD 
BRANCH  26  28
HETATM   28  S   UNL     1      -9.534   9.152  70.171  1.00  0.00    -0.225 S  
HETATM   29  O   UNL     1     -10.738   8.992  69.398  1.00  0.00    -0.229 OA 
HETATM   30  O   UNL     1      -9.576   9.073  71.616  1.00  0.00    -0.288 OA 
BRANCH  28  31
HETATM   31  C   UNL     1      -8.268   8.063  69.572  1.00  0.00    -0.122 A  
HETATM   32  C   UNL     1      -6.927   6.444  66.380  1.00  0.00    -0.067 C  
HETATM   33  C   UNL     1      -7.422   7.481  70.529  1.00  0.00    -0.080 A  
HETATM   34  C   UNL     1      -7.895   6.503  64.054  1.00  0.00    -0.108 C  
HETATM   35  C   UNL     1      -6.414   6.607  70.136  1.00  0.00    -0.040 A  
HETATM   36  C   UNL     1      -8.175   6.726  65.538  1.00  0.00    -0.131 C  
HETATM   37  C   UNL     1      -8.624   8.153  65.823  1.00  0.00    -0.154 C  
HETATM   38  H   UNL     1      -9.848   8.786  67.499  1.00  0.00     0.000 HD 
HETATM   39  N   UNL     1      -8.987   8.308  67.228  1.00  0.00    -0.136 NA 
HETATM   40  C   UNL     1      -6.248   6.314  68.787  1.00  0.00    -0.036 A  
HETATM   41  C   UNL     1      -8.119   7.781  68.198  1.00  0.00    -0.123 A  
HETATM   42  C   UNL     1      -7.096   6.881  67.819  1.00  0.00    -0.085 A  
ENDBRANCH  28  31
ENDBRANCH  26  28
ENDBRANCH  13  26
ENDBRANCH   7  13
TORSDOF 8
ENDMDL
MODEL      360
REMARK 921   NORMALIZED FREE ENERGY PREDICTED BY IDOCK:   -3.38 KCAL/MOL
REMARK 922        TOTAL FREE ENERGY PREDICTED BY IDOCK:   -6.21 KCAL/MOL
REMARK 923 INTER-LIGAND FREE ENERGY PREDICTED BY IDOCK:   -6.00 KCAL/MOL
REMARK 924 INTRA-LIGAND FREE ENERGY PREDICTED BY IDOCK:   -0.21 KCAL/MOL
REMARK 927      BINDING AFFINITY PREDICTED BY RF-SCORE:    0.00 PKD
ROOT
HETATM    1  C   UNL     1      -7.943  16.725  66.075  1.00  0.00    -0.110 C  
HETATM    2  C   UNL     1      -8.560  15.828  67.139  1.00  0.00    -0.226 C  
HETATM    3  C   UNL     1      -7.492  15.079  67.943  1.00  0.00    -0.150 C  
HETATM    4  C   UNL     1      -8.127  14.148  68.976  1.00  0.00     0.043 C  
HETATM    5  N   UNL     1      -9.181  13.264  68.404  1.00  0.00    -0.180 N  
HETATM    6  C   UNL     1     -10.197  13.956  67.582  1.00  0.00    -0.242 C  
HETATM    7  C   UNL     1      -8.896  11.894  68.335  1.00  0.00    -0.159 C  
HETATM    8  O   UNL     1      -7.785  11.505  68.721  1.00  0.00    -0.134 OA 
HETATM    9  O   UNL     1     -11.074  14.830  69.653  1.00  0.00    -0.261 OA 
HETATM   10  C   UNL     1      -9.516  14.806  66.504  1.00  0.00    -0.316 C  
HETATM   11  C   UNL     1     -11.218  14.823  68.326  1.00  0.00    -0.286 C  
HETATM   12  O   UNL     1     -12.094  15.467  67.772  1.00  0.00     0.033 OA 
ENDROOT
BRANCH   7  13
HETATM   13  C   UNL     1      -9.929  10.790  67.913  1.00  0.00    -0.174 C  
BRANCH  13  14
HETATM   14  C   UNL     1     -11.117  10.456  68.853  1.00  0.00    -0.296 C  
BRANCH  14  15
HETATM   15  C   UNL     1     -11.255  11.455  70.020  1.00  0.00    -0.160 C  
BRANCH  15  16
HETATM   16  C   UNL     1     -12.700  11.896  70.298  1.00  0.00     0.112 C  
BRANCH  16  17
HETATM   17  N   UNL     1     -12.722  12.642  71.542  1.00  0.00    -0.284 NA 
HETATM   18  H2  UNL     1     -12.806  13.656  73.768  1.00  0.00     0.000 HD 
HETATM   19  H1  UNL     1     -13.808  15.048  73.207  1.00  0.00     0.000 HD 
HETATM   20  N   UNL     1     -14.027  14.523  70.920  1.00  0.00    -0.417 NA 
HETATM   21  N   UNL     1     -13.305  14.175  73.046  1.00  0.00    -0.636 NA 
HETATM   22  C   UNL     1     -13.387  13.798  71.755  1.00  0.00    -0.383 C  
HETATM   23  H   UNL     1     -12.188  12.260  72.324  1.00  0.00     0.000 HD 
HETATM   24  H1  UNL     1     -14.530  15.396  71.081  1.00  0.00     0.000 HD 
HETATM   25  H2  UNL     1     -14.038  14.181  69.959  1.00  0.00     0.000 HD 
ENDBRANCH  16  17
ENDBRANCH  15  16
ENDBRANCH  14  15
ENDBRANCH  13  14
BRANCH  13  26
HETATM   26  N   UNL     1      -9.286   9.510  67.504  1.00  0.00    -0.126 N  
HETATM   27  H   UNL     1      -9.116   9.305  66.519  1.00  0.00     0.000 HD 
BRANCH  26  28
HETATM   28  S   UNL     1      -8.838   8.393  68.715  1.00  0.00    -0.140 S  
HETATM   29  O   UNL     1      -9.814   8.462  69.771  1.00  0.00    -0.182 OA 
HETATM   30  O   UNL     1      -7.443   8.674  68.989  1.00  0.00    -0.085 OA 
BRANCH  28  31
HETATM   31  C   UNL     1      -8.955   6.840  67.866  1.00  0.00    -0.113 A  
HETATM   32  C   UNL     1      -8.217   5.157  64.515  1.00  0.00    -0.133 C  
HETATM   33  C   UNL     1      -9.573   5.783  68.554  1.00  0.00    -0.150 A  
HETATM   34  C   UNL     1      -7.402   6.201  62.371  1.00  0.00    -0.054 C  
HETATM   35  C   UNL     1      -9.712   4.539  67.947  1.00  0.00    -0.195 A  
HETATM   36  C   UNL     1      -8.041   6.462  63.732  1.00  0.00    -0.034 C  
HETATM   37  C   UNL     1      -7.205   7.412  64.580  1.00  0.00    -0.073 C  
HETATM   38  H   UNL     1      -7.956   8.690  66.165  1.00  0.00     0.000 HD 
HETATM   39  N   UNL     1      -7.892   7.728  65.829  1.00  0.00    -0.098 NA 
HETATM   40  C   UNL     1      -9.235   4.347  66.655  1.00  0.00    -0.143 A  
HETATM   41  C   UNL     1      -8.463   6.671  66.555  1.00  0.00    -0.121 A  
HETATM   42  C   UNL     1      -8.624   5.402  65.952  1.00  0.00    -0.131 A  
ENDBRANCH  28  31
ENDBRANCH  26  28
ENDBRANCH  13  26
ENDBRANCH   7  13
TORSDOF 8
ENDMDL
MODEL      361
REMARK 921   NORMALIZED FREE ENERGY PREDICTED BY IDOCK:   -3.28 KCAL/MOL
REMARK 922        TOTAL FREE ENERGY PREDICTED BY IDOCK:   -6.07 KCAL/MOL
REMARK 923 INTER-LIGAND FREE ENERGY PREDICTED BY IDOCK:   -5.73 KCAL/MOL
REMARK 924 INTRA-LIGAND FREE ENERGY PREDICTED BY IDOCK:   -0.34 KCAL/MOL
REMARK 927      BINDING AFFINITY PREDICTED BY RF-SCORE:    0.00 PKD
ROOT
HETATM    1  C   UNL     1      -7.872  10.281  64.045  1.00  0.00    -0.114 C  
HETATM    2  C   UNL     1      -8.029  10.246  65.559  1.00  0.00    -0.151 C  
HETATM    3  C   UNL     1      -6.909  11.016  66.266  1.00  0.00    -0.096 C  
HETATM    4  C   UNL     1      -7.055  10.934  67.785  1.00  0.00    -0.082 C  
HETATM    5  N   UNL     1      -7.238   9.544  68.286  1.00  0.00    -0.076 N  
HETATM    6  C   UNL     1      -8.280   8.761  67.586  1.00  0.00    -0.110 C  
HETATM    7  C   UNL     1      -6.187   8.989  69.029  1.00  0.00    -0.043 C  
HETATM    8  O   UNL     1      -5.166   9.669  69.200  1.00  0.00    -0.036 OA 
HETATM    9  O   UNL     1      -9.891  10.133  68.746  1.00  0.00    -0.162 OA 
HETATM   10  C   UNL     1      -8.042   8.798  66.072  1.00  0.00    -0.112 C  
HETATM   11  C   UNL     1      -9.737   9.139  67.869  1.00  0.00    -0.154 C  
HETATM   12  O   UNL     1     -10.695   8.594  67.343  1.00  0.00    -0.264 OA 
ENDROOT
BRANCH   7  13
HETATM   13  C   UNL     1      -6.253   7.605  69.769  1.00  0.00    -0.030 C  
BRANCH  13  14
HETATM   14  C   UNL     1      -7.362   6.589  69.389  1.00  0.00    -0.092 C  
BRANCH  14  15
HETATM   15  C   UNL     1      -6.877   5.126  69.447  1.00  0.00    -0.053 C  
BRANCH  15  16
HETATM   16  C   UNL     1      -7.945   4.097  69.045  1.00  0.00    -0.067 C  
BRANCH  16  17
HETATM   17  N   UNL     1      -8.508   4.495  67.768  1.00  0.00    -0.102 NA 
HETATM   18  H2  UNL     1      -9.199   5.253  65.545  1.00  0.00     0.000 HD 
HETATM   19  H1  UNL     1     -10.705   6.030  66.167  1.00  0.00     0.000 HD 
HETATM   20  N   UNL     1     -10.520   5.542  68.466  1.00  0.00    -0.185 NA 
HETATM   21  N   UNL     1      -9.839   5.505  66.298  1.00  0.00    -0.159 NA 
HETATM   22  C   UNL     1      -9.653   5.190  67.595  1.00  0.00    -0.140 C  
HETATM   23  H   UNL     1      -7.994   4.228  66.928  1.00  0.00     0.000 HD 
HETATM   24  H1  UNL     1     -11.385   6.067  68.335  1.00  0.00     0.000 HD 
HETATM   25  H2  UNL     1     -10.318   5.260  69.425  1.00  0.00     0.000 HD 
ENDBRANCH  16  17
ENDBRANCH  15  16
ENDBRANCH  14  15
ENDBRANCH  13  14
BRANCH  13  26
HETATM   26  N   UNL     1      -6.227   7.732  71.253  1.00  0.00    -0.035 N  
HETATM   27  H   UNL     1      -5.435   7.380  71.790  1.00  0.00     0.000 HD 
BRANCH  26  28
HETATM   28  S   UNL     1      -7.548   8.478  72.036  1.00  0.00    -0.051 S  
HETATM   29  O   UNL     1      -8.058   9.509  71.171  1.00  0.00    -0.308 OA 
HETATM   30  O   UNL     1      -7.063   8.808  73.361  1.00  0.00    -0.342 OA 
BRANCH  28  31
HETATM   31  C   UNL     1      -8.716   7.149  72.167  1.00  0.00    -0.121 A  
HETATM   32  C   UNL     1     -12.448   6.364  71.923  1.00  0.00    -0.219 C  
HETATM   33  C   UNL     1      -8.213   5.893  72.542  1.00  0.00    -0.116 A  
HETATM   34  C   UNL     1     -14.380   7.955  71.629  1.00  0.00    -0.595 C  
HETATM   35  C   UNL     1      -9.072   4.807  72.677  1.00  0.00    -0.139 A  
HETATM   36  C   UNL     1     -12.911   7.821  72.021  1.00  0.00    -0.265 C  
HETATM   37  C   UNL     1     -12.006   8.664  71.132  1.00  0.00    -0.279 C  
HETATM   38  H   UNL     1     -10.059   9.447  71.685  1.00  0.00     0.000 HD 
HETATM   39  N   UNL     1     -10.623   8.601  71.597  1.00  0.00    -0.276 NA 
HETATM   40  C   UNL     1     -10.431   4.971  72.437  1.00  0.00    -0.275 A  
HETATM   41  C   UNL     1     -10.091   7.342  71.918  1.00  0.00    -0.178 A  
HETATM   42  C   UNL     1     -10.949   6.227  72.072  1.00  0.00    -0.299 A  
ENDBRANCH  28  31
ENDBRANCH  26  28
ENDBRANCH  13  26
ENDBRANCH   7  13
TORSDOF 8
ENDMDL
MODEL      362
REMARK 921   NORMALIZED FREE ENERGY PREDICTED BY IDOCK:   -3.26 KCAL/MOL
REMARK 922        TOTAL FREE ENERGY PREDICTED BY IDOCK:   -6.03 KCAL/MOL
REMARK 923 INTER-LIGAND FREE ENERGY PREDICTED BY IDOCK:   -5.51 KCAL/MOL
REMARK 924 INTRA-LIGAND FREE ENERGY PREDICTED BY IDOCK:   -0.52 KCAL/MOL
REMARK 927      BINDING AFFINITY PREDICTED BY RF-SCORE:    0.00 PKD
ROOT
HETATM    1  C   UNL     1      -5.199  15.988  68.157  1.00  0.00    -0.114 C  
HETATM    2  C   UNL     1      -5.393  14.531  68.554  1.00  0.00    -0.103 C  
HETATM    3  C   UNL     1      -5.339  13.598  67.340  1.00  0.00     0.264 C  
HETATM    4  C   UNL     1      -5.581  12.144  67.748  1.00  0.00    -0.081 C  
HETATM    5  N   UNL     1      -6.793  11.963  68.593  1.00  0.00    -0.080 N  
HETATM    6  C   UNL     1      -6.895  12.886  69.745  1.00  0.00     0.267 C  
HETATM    7  C   UNL     1      -7.874  11.279  68.021  1.00  0.00    -0.115 C  
HETATM    8  O   UNL     1      -7.771  10.895  66.848  1.00  0.00    -0.122 OA 
HETATM    9  O   UNL     1      -5.138  11.584  70.764  1.00  0.00    -0.098 OA 
HETATM   10  C   UNL     1      -6.735  14.337  69.275  1.00  0.00    -0.123 C  
HETATM   11  C   UNL     1      -5.942  12.637  70.919  1.00  0.00     0.224 C  
HETATM   12  O   UNL     1      -5.902  13.335  71.919  1.00  0.00    -0.337 OA 
ENDROOT
BRANCH   7  13
HETATM   13  C   UNL     1      -9.171  10.854  68.798  1.00  0.00    -0.183 C  
BRANCH  13  14
HETATM   14  C   UNL     1     -10.300  11.894  69.026  1.00  0.00    -0.058 C  
BRANCH  14  15
HETATM   15  C   UNL     1     -11.349  11.896  67.895  1.00  0.00    -0.358 C  
BRANCH  15  16
HETATM   16  C   UNL     1     -11.054  12.901  66.771  1.00  0.00    -0.281 C  
BRANCH  16  17
HETATM   17  N   UNL     1     -11.516  12.335  65.517  1.00  0.00    -0.350 NA 
HETATM   18  H2  UNL     1     -12.029  11.301  63.359  1.00  0.00     0.000 HD 
HETATM   19  H1  UNL     1     -13.073  12.677  62.834  1.00  0.00     0.000 HD 
HETATM   20  N   UNL     1     -12.917  14.078  64.723  1.00  0.00    -0.653 NA 
HETATM   21  N   UNL     1     -12.466  12.210  63.509  1.00  0.00    -0.664 NA 
HETATM   22  C   UNL     1     -12.318  12.953  64.624  1.00  0.00    -0.439 C  
HETATM   23  H   UNL     1     -11.207  11.389  65.291  1.00  0.00     0.000 HD 
HETATM   24  H1  UNL     1     -13.523  14.545  64.048  1.00  0.00     0.000 HD 
HETATM   25  H2  UNL     1     -12.767  14.579  65.598  1.00  0.00     0.000 HD 
ENDBRANCH  16  17
ENDBRANCH  15  16
ENDBRANCH  14  15
ENDBRANCH  13  14
BRANCH  13  26
HETATM   26  N   UNL     1      -8.884  10.187  70.098  1.00  0.00    -0.341 N  
HETATM   27  H   UNL     1      -8.151  10.540  70.713  1.00  0.00     0.000 HD 
BRANCH  26  28
HETATM   28  S   UNL     1      -9.805   8.819  70.540  1.00  0.00    -0.201 S  
HETATM   29  O   UNL     1     -10.994   8.798  69.727  1.00  0.00    -0.223 OA 
HETATM   30  O   UNL     1      -9.907   8.883  71.983  1.00  0.00    -0.325 OA 
BRANCH  28  31
HETATM   31  C   UNL     1      -8.733   7.476  70.099  1.00  0.00    -0.142 A  
HETATM   32  C   UNL     1      -6.810   4.525  71.581  1.00  0.00    -0.035 C  
HETATM   33  C   UNL     1      -8.335   7.393  68.755  1.00  0.00    -0.129 A  
HETATM   34  C   UNL     1      -6.508   3.894  74.002  1.00  0.00    -0.042 C  
HETATM   35  C   UNL     1      -7.485   6.374  68.338  1.00  0.00    -0.088 A  
HETATM   36  C   UNL     1      -6.900   5.006  73.033  1.00  0.00    -0.076 C  
HETATM   37  C   UNL     1      -8.320   5.499  73.279  1.00  0.00    -0.117 C  
HETATM   38  H   UNL     1      -9.081   7.469  72.781  1.00  0.00     0.000 HD 
HETATM   39  N   UNL     1      -8.629   6.632  72.411  1.00  0.00    -0.125 NA 
HETATM   40  C   UNL     1      -7.033   5.436  69.259  1.00  0.00    -0.056 A  
HETATM   41  C   UNL     1      -8.288   6.537  71.052  1.00  0.00    -0.126 A  
HETATM   42  C   UNL     1      -7.416   5.515  70.610  1.00  0.00    -0.084 A  
ENDBRANCH  28  31
ENDBRANCH  26  28
ENDBRANCH  13  26
ENDBRANCH   7  13
TORSDOF 8
ENDMDL
MODEL      363
REMARK 921   NORMALIZED FREE ENERGY PREDICTED BY IDOCK:   -3.22 KCAL/MOL
REMARK 922        TOTAL FREE ENERGY PREDICTED BY IDOCK:   -5.97 KCAL/MOL
REMARK 923 INTER-LIGAND FREE ENERGY PREDICTED BY IDOCK:   -4.73 KCAL/MOL
REMARK 924 INTRA-LIGAND FREE ENERGY PREDICTED BY IDOCK:   -1.24 KCAL/MOL
REMARK 927      BINDING AFFINITY PREDICTED BY RF-SCORE:    0.00 PKD
ROOT
HETATM    1  C   UNL     1      -6.071   8.777  72.550  1.00  0.00    -0.065 C  
HETATM    2  C   UNL     1      -6.436   7.504  71.802  1.00  0.00    -0.042 C  
HETATM    3  C   UNL     1      -5.372   7.127  70.765  1.00  0.00    -0.024 C  
HETATM    4  C   UNL     1      -5.774   5.872  69.990  1.00  0.00    -0.016 C  
HETATM    5  N   UNL     1      -7.156   5.936  69.439  1.00  0.00    -0.063 N  
HETATM    6  C   UNL     1      -8.196   6.346  70.408  1.00  0.00    -0.121 C  
HETATM    7  C   UNL     1      -7.284   6.023  68.046  1.00  0.00    -0.080 C  
HETATM    8  O   UNL     1      -6.252   6.070  67.363  1.00  0.00    -0.030 OA 
HETATM    9  O   UNL     1      -7.943   4.157  71.391  1.00  0.00    -0.073 OA 
HETATM   10  C   UNL     1      -7.792   7.655  71.095  1.00  0.00    -0.090 C  
HETATM   11  C   UNL     1      -8.586   5.323  71.479  1.00  0.00    -0.130 C  
HETATM   12  O   UNL     1      -9.410   5.537  72.354  1.00  0.00    -0.144 OA 
ENDROOT
BRANCH   7  13
HETATM   13  C   UNL     1      -8.648   5.943  67.271  1.00  0.00    -0.106 C  
BRANCH  13  14
HETATM   14  C   UNL     1      -8.931   4.730  66.346  1.00  0.00    -0.113 C  
BRANCH  14  15
HETATM   15  C   UNL     1      -9.328   5.147  64.916  1.00  0.00     0.075 C  
BRANCH  15  16
HETATM   16  C   UNL     1      -8.869   4.165  63.828  1.00  0.00    -0.124 C  
BRANCH  16  17
HETATM   17  N   UNL     1      -7.587   3.610  64.222  1.00  0.00    -0.074 NA 
HETATM   18  H2  UNL     1      -5.545   2.615  65.134  1.00  0.00     0.000 HD 
HETATM   19  H1  UNL     1      -4.493   3.927  64.479  1.00  0.00     0.000 HD 
HETATM   20  N   UNL     1      -6.104   5.270  63.403  1.00  0.00    -0.021 NA 
HETATM   21  N   UNL     1      -5.402   3.484  64.619  1.00  0.00    -0.009 NA 
HETATM   22  C   UNL     1      -6.385   4.196  64.037  1.00  0.00    -0.033 C  
HETATM   23  H   UNL     1      -7.595   2.698  64.679  1.00  0.00     0.000 HD 
HETATM   24  H1  UNL     1      -5.195   5.714  63.262  1.00  0.00     0.000 HD 
HETATM   25  H2  UNL     1      -6.897   5.751  62.979  1.00  0.00     0.000 HD 
ENDBRANCH  16  17
ENDBRANCH  15  16
ENDBRANCH  14  15
ENDBRANCH  13  14
BRANCH  13  26
HETATM   26  N   UNL     1      -8.966   7.187  66.516  1.00  0.00    -0.146 N  
HETATM   27  H   UNL     1      -9.048   7.172  65.499  1.00  0.00     0.000 HD 
BRANCH  26  28
HETATM   28  S   UNL     1      -9.192   8.639  67.385  1.00  0.00    -0.138 S  
HETATM   29  O   UNL     1      -7.943   8.985  68.012  1.00  0.00    -0.100 OA 
HETATM   30  O   UNL     1     -10.377   8.418  68.188  1.00  0.00    -0.205 OA 
BRANCH  28  31
HETATM   31  C   UNL     1      -9.578   9.799  66.099  1.00  0.00    -0.227 A  
HETATM   32  C   UNL     1     -10.979  13.305  65.504  1.00  0.00    -0.297 C  
HETATM   33  C   UNL     1      -9.394   9.369  64.776  1.00  0.00    -0.161 A  
HETATM   34  C   UNL     1     -11.983  14.907  67.171  1.00  0.00    -0.136 C  
HETATM   35  C   UNL     1      -9.688  10.219  63.715  1.00  0.00    -0.298 A  
HETATM   36  C   UNL     1     -11.591  13.457  66.901  1.00  0.00    -0.404 C  
HETATM   37  C   UNL     1     -10.580  12.943  67.917  1.00  0.00    -0.222 C  
HETATM   38  H   UNL     1     -10.291  10.867  68.480  1.00  0.00     0.000 HD 
HETATM   39  N   UNL     1     -10.305  11.525  67.700  1.00  0.00    -0.183 NA 
HETATM   40  C   UNL     1     -10.164  11.499  63.972  1.00  0.00    -0.394 A  
HETATM   41  C   UNL     1     -10.061  11.093  66.387  1.00  0.00    -0.226 A  
HETATM   42  C   UNL     1     -10.364  11.939  65.294  1.00  0.00    -0.316 A  
ENDBRANCH  28  31
ENDBRANCH  26  28
ENDBRANCH  13  26
ENDBRANCH   7  13
TORSDOF 8
ENDMDL
MODEL      364
REMARK 921   NORMALIZED FREE ENERGY PREDICTED BY IDOCK:   -2.97 KCAL/MOL
REMARK 922        TOTAL FREE ENERGY PREDICTED BY IDOCK:   -5.60 KCAL/MOL
REMARK 923 INTER-LIGAND FREE ENERGY PREDICTED BY IDOCK:   -5.61 KCAL/MOL
REMARK 924 INTRA-LIGAND FREE ENERGY PREDICTED BY IDOCK:    0.01 KCAL/MOL
REMARK 927      BINDING AFFINITY PREDICTED BY RF-SCORE:    0.00 PKD
ROOT
HETATM    1  C   UNL     1     -14.241  13.620  72.318  1.00  0.00    -0.521 C  
HETATM    2  C   UNL     1     -12.974  13.764  71.487  1.00  0.00    -0.444 C  
HETATM    3  C   UNL     1     -11.983  14.744  72.123  1.00  0.00    -0.350 C  
HETATM    4  C   UNL     1     -10.737  14.914  71.255  1.00  0.00     0.473 C  
HETATM    5  N   UNL     1     -11.048  15.213  69.829  1.00  0.00    -0.264 N  
HETATM    6  C   UNL     1     -12.040  14.311  69.205  1.00  0.00    -0.302 C  
HETATM    7  C   UNL     1     -10.728  16.494  69.361  1.00  0.00    -0.330 C  
HETATM    8  O   UNL     1     -10.238  17.305  70.159  1.00  0.00     0.336 OA 
HETATM    9  O   UNL     1     -10.305  12.634  69.199  1.00  0.00    -0.006 OA 
HETATM   10  C   UNL     1     -13.307  14.242  70.065  1.00  0.00     0.746 C  
HETATM   11  C   UNL     1     -11.578  12.885  68.887  1.00  0.00    -0.315 C  
HETATM   12  O   UNL     1     -12.298  12.031  68.395  1.00  0.00    -0.270 OA 
ENDROOT
BRANCH   7  13
HETATM   13  C   UNL     1     -10.833  16.946  67.861  1.00  0.00    -0.310 C  
BRANCH  13  14
HETATM   14  C   UNL     1      -9.927  16.275  66.796  1.00  0.00    -0.268 C  
BRANCH  14  15
HETATM   15  C   UNL     1     -10.572  15.024  66.164  1.00  0.00    -0.314 C  
BRANCH  15  16
HETATM   16  C   UNL     1      -9.598  13.854  65.963  1.00  0.00    -0.187 C  
BRANCH  16  17
HETATM   17  N   UNL     1      -8.251  14.327  66.224  1.00  0.00     0.179 NA 
HETATM   18  H2  UNL     1      -5.901  14.975  66.441  1.00  0.00     0.000 HD 
HETATM   19  H1  UNL     1      -5.897  14.740  68.231  1.00  0.00     0.000 HD 
HETATM   20  N   UNL     1      -8.128  14.064  68.579  1.00  0.00    -0.142 NA 
HETATM   21  N   UNL     1      -6.356  14.728  67.320  1.00  0.00    -0.261 NA 
HETATM   22  C   UNL     1      -7.643  14.343  67.429  1.00  0.00    -0.172 C  
HETATM   23  H   UNL     1      -7.718  14.677  65.428  1.00  0.00     0.000 HD 
HETATM   24  H1  UNL     1      -7.668  14.076  69.490  1.00  0.00     0.000 HD 
HETATM   25  H2  UNL     1      -9.110  13.791  68.587  1.00  0.00     0.000 HD 
ENDBRANCH  16  17
ENDBRANCH  15  16
ENDBRANCH  14  15
ENDBRANCH  13  14
BRANCH  13  26
HETATM   26  N   UNL     1     -10.742  18.423  67.686  1.00  0.00    -0.409 N  
HETATM   27  H   UNL     1     -11.150  19.054  68.375  1.00  0.00     0.000 HD 
BRANCH  26  28
HETATM   28  S   UNL     1      -9.941  19.038  66.310  1.00  0.00    -0.390 S  
HETATM   29  O   UNL     1     -10.170  20.458  66.256  1.00  0.00    -0.369 OA 
HETATM   30  O   UNL     1     -10.362  18.187  65.216  1.00  0.00    -0.411 OA 
BRANCH  28  31
HETATM   31  C   UNL     1      -8.238  18.703  66.677  1.00  0.00    -0.278 A  
HETATM   32  C   UNL     1      -5.595  19.095  69.410  1.00  0.00    -0.226 C  
HETATM   33  C   UNL     1      -7.464  18.137  65.651  1.00  0.00     0.007 A  
HETATM   34  C   UNL     1      -5.770  20.308  71.611  1.00  0.00    -0.368 C  
HETATM   35  C   UNL     1      -6.117  17.858  65.861  1.00  0.00    -0.257 A  
HETATM   36  C   UNL     1      -6.378  20.130  70.223  1.00  0.00    -0.341 C  
HETATM   37  C   UNL     1      -7.829  19.674  70.294  1.00  0.00     1.018 C  
HETATM   38  H   UNL     1      -9.339  20.011  68.772  1.00  0.00     0.000 HD 
HETATM   39  N   UNL     1      -8.417  19.616  68.958  1.00  0.00    -0.233 NA 
HETATM   40  C   UNL     1      -5.542  18.141  67.094  1.00  0.00    -0.150 A  
HETATM   41  C   UNL     1      -7.677  19.000  67.936  1.00  0.00    -0.266 A  
HETATM   42  C   UNL     1      -6.303  18.719  68.127  1.00  0.00    -0.220 A  
ENDBRANCH  28  31
ENDBRANCH  26  28
ENDBRANCH  13  26
ENDBRANCH   7  13
TORSDOF 8
ENDMDL
MODEL      365
REMARK 921   NORMALIZED FREE ENERGY PREDICTED BY IDOCK:   -2.86 KCAL/MOL
REMARK 922        TOTAL FREE ENERGY PREDICTED BY IDOCK:   -5.44 KCAL/MOL
REMARK 923 INTER-LIGAND FREE ENERGY PREDICTED BY IDOCK:   -4.36 KCAL/MOL
REMARK 924 INTRA-LIGAND FREE ENERGY PREDICTED BY IDOCK:   -1.08 KCAL/MOL
REMARK 927      BINDING AFFINITY PREDICTED BY RF-SCORE:    0.00 PKD
ROOT
HETATM    1  C   UNL     1     -12.771  13.422  70.581  1.00  0.00    -0.246 C  
HETATM    2  C   UNL     1     -11.569  12.564  70.214  1.00  0.00    -0.052 C  
HETATM    3  C   UNL     1     -10.562  13.332  69.351  1.00  0.00     0.190 C  
HETATM    4  C   UNL     1      -9.384  12.444  68.953  1.00  0.00     0.265 C  
HETATM    5  N   UNL     1      -9.799  11.137  68.373  1.00  0.00    -0.179 N  
HETATM    6  C   UNL     1     -10.808  10.397  69.162  1.00  0.00    -0.236 C  
HETATM    7  C   UNL     1      -9.546  10.934  67.010  1.00  0.00    -0.173 C  
HETATM    8  O   UNL     1      -9.024  11.855  66.366  1.00  0.00    -0.202 OA 
HETATM    9  O   UNL     1      -9.034   9.928  70.729  1.00  0.00    -0.056 OA 
HETATM   10  C   UNL     1     -12.011  11.300  69.462  1.00  0.00    -0.421 C  
HETATM   11  C   UNL     1     -10.332   9.756  70.469  1.00  0.00    -0.283 C  
HETATM   12  O   UNL     1     -11.062   9.139  71.228  1.00  0.00    -0.278 OA 
ENDROOT
BRANCH   7  13
HETATM   13  C   UNL     1      -9.766   9.574  66.256  1.00  0.00    -0.245 C  
BRANCH  13  14
HETATM   14  C   UNL     1     -10.707   8.504  66.871  1.00  0.00    -0.156 C  
BRANCH  14  15
HETATM   15  C   UNL     1     -10.121   7.079  66.798  1.00  0.00    -0.270 C  
BRANCH  15  16
HETATM   16  C   UNL     1     -10.743   6.095  67.800  1.00  0.00    -0.303 C  
BRANCH  16  17
HETATM   17  N   UNL     1      -9.872   6.006  68.958  1.00  0.00    -0.142 NA 
HETATM   18  H2  UNL     1      -8.250   5.675  70.760  1.00  0.00     0.000 HD 
HETATM   19  H1  UNL     1      -9.530   5.563  72.028  1.00  0.00     0.000 HD 
HETATM   20  N   UNL     1     -11.463   5.854  70.711  1.00  0.00    -0.150 NA 
HETATM   21  N   UNL     1      -9.225   5.682  71.062  1.00  0.00    -0.151 NA 
HETATM   22  C   UNL     1     -10.276   5.849  70.236  1.00  0.00    -0.218 C  
HETATM   23  H   UNL     1      -8.867   6.068  68.791  1.00  0.00     0.000 HD 
HETATM   24  H1  UNL     1     -11.769   5.735  71.678  1.00  0.00     0.000 HD 
HETATM   25  H2  UNL     1     -12.209   5.996  70.030  1.00  0.00     0.000 HD 
ENDBRANCH  16  17
ENDBRANCH  15  16
ENDBRANCH  14  15
ENDBRANCH  13  14
BRANCH  13  26
HETATM   26  N   UNL     1      -8.493   8.906  65.867  1.00  0.00    -0.129 N  
HETATM   27  H   UNL     1      -7.904   8.461  66.571  1.00  0.00     0.000 HD 
BRANCH  26  28
HETATM   28  S   UNL     1      -8.040   8.898  64.222  1.00  0.00    -0.165 S  
HETATM   29  O   UNL     1      -6.867   9.719  64.076  1.00  0.00    -0.109 OA 
HETATM   30  O   UNL     1      -9.251   9.218  63.495  1.00  0.00    -0.056 OA 
BRANCH  28  31
HETATM   31  C   UNL     1      -7.637   7.193  63.943  1.00  0.00    -0.109 A  
HETATM   32  C   UNL     1      -6.229   4.092  65.680  1.00  0.00    -0.031 C  
HETATM   33  C   UNL     1      -7.803   6.703  62.638  1.00  0.00    -0.104 A  
HETATM   34  C   UNL     1      -5.250   3.887  67.992  1.00  0.00    -0.008 C  
HETATM   35  C   UNL     1      -7.494   5.379  62.342  1.00  0.00    -0.051 A  
HETATM   36  C   UNL     1      -5.637   4.849  66.873  1.00  0.00    -0.013 C  
HETATM   37  C   UNL     1      -6.662   5.876  67.336  1.00  0.00    -0.058 C  
HETATM   38  H   UNL     1      -6.957   7.847  66.479  1.00  0.00     0.000 HD 
HETATM   39  N   UNL     1      -6.933   6.847  66.279  1.00  0.00    -0.067 NA 
HETATM   40  C   UNL     1      -7.022   4.543  63.347  1.00  0.00    -0.044 A  
HETATM   41  C   UNL     1      -7.159   6.364  64.980  1.00  0.00    -0.060 A  
HETATM   42  C   UNL     1      -6.841   5.024  64.656  1.00  0.00    -0.049 A  
ENDBRANCH  28  31
ENDBRANCH  26  28
ENDBRANCH  13  26
ENDBRANCH   7  13
TORSDOF 8
ENDMDL
MODEL      366
REMARK 921   NORMALIZED FREE ENERGY PREDICTED BY IDOCK:   -2.74 KCAL/MOL
REMARK 922        TOTAL FREE ENERGY PREDICTED BY IDOCK:   -5.27 KCAL/MOL
REMARK 923 INTER-LIGAND FREE ENERGY PREDICTED BY IDOCK:   -5.32 KCAL/MOL
REMARK 924 INTRA-LIGAND FREE ENERGY PREDICTED BY IDOCK:    0.05 KCAL/MOL
REMARK 927      BINDING AFFINITY PREDICTED BY RF-SCORE:    0.00 PKD
ROOT
HETATM    1  C   UNL     1     -11.765  14.861  65.072  1.00  0.00    -0.329 C  
HETATM    2  C   UNL     1     -11.462  14.317  66.461  1.00  0.00    -0.368 C  
HETATM    3  C   UNL     1     -10.941  15.410  67.400  1.00  0.00    -0.312 C  
HETATM    4  C   UNL     1     -10.598  14.840  68.777  1.00  0.00    -0.251 C  
HETATM    5  N   UNL     1      -9.727  13.634  68.715  1.00  0.00    -0.104 N  
HETATM    6  C   UNL     1     -10.181  12.583  67.778  1.00  0.00    -0.217 C  
HETATM    7  C   UNL     1      -8.415  13.770  69.187  1.00  0.00     0.395 C  
HETATM    8  O   UNL     1      -8.050  14.881  69.596  1.00  0.00    -0.121 OA 
HETATM    9  O   UNL     1     -11.920  12.102  69.381  1.00  0.00    -0.303 OA 
HETATM   10  C   UNL     1     -10.427  13.184  66.389  1.00  0.00    -0.287 C  
HETATM   11  C   UNL     1     -11.412  11.771  68.192  1.00  0.00    -0.316 C  
HETATM   12  O   UNL     1     -11.908  10.892  67.505  1.00  0.00    -0.524 OA 
ENDROOT
BRANCH   7  13
HETATM   13  C   UNL     1      -7.399  12.583  69.350  1.00  0.00     0.336 C  
BRANCH  13  14
HETATM   14  C   UNL     1      -6.438  12.235  68.182  1.00  0.00    -0.062 C  
BRANCH  14  15
HETATM   15  C   UNL     1      -6.470  13.282  67.049  1.00  0.00     0.647 C  
BRANCH  15  16
HETATM   16  C   UNL     1      -6.099  14.702  67.501  1.00  0.00     0.057 C  
BRANCH  16  17
HETATM   17  N   UNL     1      -6.922  15.647  66.767  1.00  0.00    -0.234 NA 
HETATM   18  H2  UNL     1      -8.176  17.151  65.299  1.00  0.00     0.000 HD 
HETATM   19  H1  UNL     1      -8.025  18.547  66.433  1.00  0.00     0.000 HD 
HETATM   20  N   UNL     1      -6.799  17.548  68.181  1.00  0.00    -0.192 NA 
HETATM   21  N   UNL     1      -7.854  17.576  66.168  1.00  0.00    -0.454 NA 
HETATM   22  C   UNL     1      -7.148  16.931  67.117  1.00  0.00    -0.181 C  
HETATM   23  H   UNL     1      -7.367  15.311  65.913  1.00  0.00     0.000 HD 
HETATM   24  H1  UNL     1      -6.970  18.519  68.446  1.00  0.00     0.000 HD 
HETATM   25  H2  UNL     1      -6.277  16.994  68.859  1.00  0.00     0.000 HD 
ENDBRANCH  16  17
ENDBRANCH  15  16
ENDBRANCH  14  15
ENDBRANCH  13  14
BRANCH  13  26
HETATM   26  N   UNL     1      -8.041  11.322  69.815  1.00  0.00     0.012 N  
HETATM   27  H   UNL     1      -8.671  11.325  70.617  1.00  0.00     0.000 HD 
BRANCH  26  28
HETATM   28  S   UNL     1      -7.701   9.872  68.981  1.00  0.00    -0.096 S  
HETATM   29  O   UNL     1      -6.369   9.455  69.332  1.00  0.00    -0.043 OA 
HETATM   30  O   UNL     1      -8.043  10.142  67.600  1.00  0.00    -0.109 OA 
BRANCH  28  31
HETATM   31  C   UNL     1      -8.897   8.751  69.660  1.00  0.00    -0.141 A  
HETATM   32  C   UNL     1     -10.131   5.140  69.436  1.00  0.00    -0.305 C  
HETATM   33  C   UNL     1      -9.810   9.276  70.588  1.00  0.00    -0.332 A  
HETATM   34  C   UNL     1      -9.439   3.334  67.822  1.00  0.00    -0.217 C  
HETATM   35  C   UNL     1     -10.784   8.460  71.153  1.00  0.00    -0.280 A  
HETATM   36  C   UNL     1      -9.445   4.834  68.101  1.00  0.00    -0.186 C  
HETATM   37  C   UNL     1      -8.035   5.407  68.153  1.00  0.00    -0.095 C  
HETATM   38  H   UNL     1      -7.488   7.466  67.741  1.00  0.00     0.000 HD 
HETATM   39  N   UNL     1      -8.074   6.858  68.314  1.00  0.00    -0.118 NA 
HETATM   40  C   UNL     1     -10.848   7.118  70.795  1.00  0.00    -0.267 A  
HETATM   41  C   UNL     1      -8.941   7.393  69.280  1.00  0.00    -0.136 A  
HETATM   42  C   UNL     1      -9.946   6.581  69.858  1.00  0.00    -0.191 A  
ENDBRANCH  28  31
ENDBRANCH  26  28
ENDBRANCH  13  26
ENDBRANCH   7  13
TORSDOF 8
ENDMDL
MODEL      367
REMARK 921   NORMALIZED FREE ENERGY PREDICTED BY IDOCK:   -2.71 KCAL/MOL
REMARK 922        TOTAL FREE ENERGY PREDICTED BY IDOCK:   -5.23 KCAL/MOL
REMARK 923 INTER-LIGAND FREE ENERGY PREDICTED BY IDOCK:   -6.38 KCAL/MOL
REMARK 924 INTRA-LIGAND FREE ENERGY PREDICTED BY IDOCK:    1.15 KCAL/MOL
REMARK 927      BINDING AFFINITY PREDICTED BY RF-SCORE:    0.00 PKD
ROOT
HETATM    1  C   UNL     1      -7.955   4.421  71.047  1.00  0.00    -0.072 C  
HETATM    2  C   UNL     1      -8.817   5.615  70.665  1.00  0.00    -0.145 C  
HETATM    3  C   UNL     1      -9.916   5.229  69.669  1.00  0.00    -0.302 C  
HETATM    4  C   UNL     1     -10.745   6.447  69.260  1.00  0.00    -0.292 C  
HETATM    5  N   UNL     1      -9.917   7.604  68.823  1.00  0.00    -0.169 N  
HETATM    6  C   UNL     1      -8.816   7.967  69.743  1.00  0.00    -0.141 C  
HETATM    7  C   UNL     1      -9.970   7.951  67.466  1.00  0.00    -0.192 C  
HETATM    8  O   UNL     1     -10.673   7.264  66.712  1.00  0.00    -0.311 OA 
HETATM    9  O   UNL     1     -10.519   8.847  71.208  1.00  0.00    -0.236 OA 
HETATM   10  C   UNL     1      -7.960   6.734  70.054  1.00  0.00    -0.116 C  
HETATM   11  C   UNL     1      -9.209   8.644  71.060  1.00  0.00    -0.203 C  
HETATM   12  O   UNL     1      -8.406   8.973  71.919  1.00  0.00    -0.365 OA 
ENDROOT
BRANCH   7  13
HETATM   13  C   UNL     1      -9.296   9.227  66.846  1.00  0.00    -0.151 C  
BRANCH  13  14
HETATM   14  C   UNL     1      -9.315   9.429  65.308  1.00  0.00    -0.303 C  
BRANCH  14  15
HETATM   15  C   UNL     1      -8.012   8.962  64.627  1.00  0.00    -0.132 C  
BRANCH  15  16
HETATM   16  C   UNL     1      -8.235   8.126  63.358  1.00  0.00    -0.062 C  
BRANCH  16  17
HETATM   17  N   UNL     1      -8.286   6.725  63.734  1.00  0.00    -0.341 NA 
HETATM   18  H2  UNL     1      -8.649   4.376  64.318  1.00  0.00     0.000 HD 
HETATM   19  H1  UNL     1      -7.584   4.469  65.772  1.00  0.00     0.000 HD 
HETATM   20  N   UNL     1      -6.902   6.722  65.661  1.00  0.00    -0.054 NA 
HETATM   21  N   UNL     1      -8.030   4.881  64.953  1.00  0.00    -0.093 NA 
HETATM   22  C   UNL     1      -7.696   6.179  64.818  1.00  0.00    -0.099 C  
HETATM   23  H   UNL     1      -8.815   6.099  63.126  1.00  0.00     0.000 HD 
HETATM   24  H1  UNL     1      -6.456   6.310  66.481  1.00  0.00     0.000 HD 
HETATM   25  H2  UNL     1      -6.685   7.704  65.491  1.00  0.00     0.000 HD 
ENDBRANCH  16  17
ENDBRANCH  15  16
ENDBRANCH  14  15
ENDBRANCH  13  14
BRANCH  13  26
HETATM   26  N   UNL     1      -7.904   9.447  67.327  1.00  0.00    -0.098 N  
HETATM   27  H   UNL     1      -7.322   8.659  67.613  1.00  0.00     0.000 HD 
BRANCH  26  28
HETATM   28  S   UNL     1      -7.300  11.043  67.391  1.00  0.00    -0.110 S  
HETATM   29  O   UNL     1      -6.912  11.428  66.060  1.00  0.00     0.050 OA 
HETATM   30  O   UNL     1      -6.327  11.035  68.464  1.00  0.00    -0.049 OA 
BRANCH  28  31
HETATM   31  C   UNL     1      -8.721  11.969  67.911  1.00  0.00    -0.170 A  
HETATM   32  C   UNL     1      -9.914  15.526  68.643  1.00  0.00    -0.208 C  
HETATM   33  C   UNL     1      -9.868  11.238  68.258  1.00  0.00    -0.201 A  
HETATM   34  C   UNL     1      -8.576  17.661  68.692  1.00  0.00    -0.264 C  
HETATM   35  C   UNL     1     -11.016  11.896  68.687  1.00  0.00    -0.271 A  
HETATM   36  C   UNL     1      -8.511  16.136  68.727  1.00  0.00    -0.236 C  
HETATM   37  C   UNL     1      -7.683  15.576  67.579  1.00  0.00    -0.171 C  
HETATM   38  H   UNL     1      -6.645  13.671  67.577  1.00  0.00     0.000 HD 
HETATM   39  N   UNL     1      -7.550  14.127  67.699  1.00  0.00    -0.165 NA 
HETATM   40  C   UNL     1     -11.022  13.283  68.769  1.00  0.00    -0.294 A  
HETATM   41  C   UNL     1      -8.702  13.378  67.987  1.00  0.00    -0.178 A  
HETATM   42  C   UNL     1      -9.876  14.028  68.436  1.00  0.00    -0.232 A  
ENDBRANCH  28  31
ENDBRANCH  26  28
ENDBRANCH  13  26
ENDBRANCH   7  13
TORSDOF 8
ENDMDL
MODEL      368
REMARK 921   NORMALIZED FREE ENERGY PREDICTED BY IDOCK:   -2.69 KCAL/MOL
REMARK 922        TOTAL FREE ENERGY PREDICTED BY IDOCK:   -5.20 KCAL/MOL
REMARK 923 INTER-LIGAND FREE ENERGY PREDICTED BY IDOCK:   -4.33 KCAL/MOL
REMARK 924 INTRA-LIGAND FREE ENERGY PREDICTED BY IDOCK:   -0.87 KCAL/MOL
REMARK 927      BINDING AFFINITY PREDICTED BY RF-SCORE:    0.00 PKD
ROOT
HETATM    1  C   UNL     1     -10.316  19.934  68.692  1.00  0.00    -0.414 C  
HETATM    2  C   UNL     1      -9.552  18.632  68.886  1.00  0.00    -0.332 C  
HETATM    3  C   UNL     1      -8.167  18.680  68.231  1.00  0.00    -0.349 C  
HETATM    4  C   UNL     1      -7.431  17.351  68.394  1.00  0.00    -0.234 C  
HETATM    5  N   UNL     1      -8.246  16.172  67.991  1.00  0.00    -0.149 N  
HETATM    6  C   UNL     1      -9.607  16.126  68.570  1.00  0.00    -0.215 C  
HETATM    7  C   UNL     1      -7.847  15.483  66.838  1.00  0.00    -0.194 C  
HETATM    8  O   UNL     1      -6.867  15.908  66.210  1.00  0.00     0.259 OA 
HETATM    9  O   UNL     1      -8.546  15.554  70.660  1.00  0.00     1.144 OA 
HETATM   10  C   UNL     1     -10.339  17.447  68.305  1.00  0.00    -0.374 C  
HETATM   11  C   UNL     1      -9.714  15.790  70.061  1.00  0.00     0.048 C  
HETATM   12  O   UNL     1     -10.770  15.743  70.672  1.00  0.00    -0.303 OA 
ENDROOT
BRANCH   7  13
HETATM   13  C   UNL     1      -8.479  14.134  66.342  1.00  0.00     0.466 C  
BRANCH  13  14
HETATM   14  C   UNL     1      -9.847  14.155  65.610  1.00  0.00    -0.278 C  
BRANCH  14  15
HETATM   15  C   UNL     1     -10.933  13.346  66.349  1.00  0.00    -0.297 C  
BRANCH  15  16
HETATM   16  C   UNL     1     -12.242  14.118  66.572  1.00  0.00    -0.433 C  
BRANCH  16  17
HETATM   17  N   UNL     1     -12.747  13.793  67.893  1.00  0.00     0.083 NA 
HETATM   18  H2  UNL     1     -13.713  13.501  70.123  1.00  0.00     0.000 HD 
HETATM   19  H1  UNL     1     -12.215  12.739  70.782  1.00  0.00     0.000 HD 
HETATM   20  N   UNL     1     -10.841  12.770  68.867  1.00  0.00    -0.342 NA 
HETATM   21  N   UNL     1     -12.754  13.166  70.028  1.00  0.00     0.081 NA 
HETATM   22  C   UNL     1     -12.034  13.228  68.891  1.00  0.00    -0.297 C  
HETATM   23  H   UNL     1     -13.726  14.011  68.085  1.00  0.00     0.000 HD 
HETATM   24  H1  UNL     1     -10.302  12.343  69.621  1.00  0.00     0.000 HD 
HETATM   25  H2  UNL     1     -10.361  12.841  67.971  1.00  0.00     0.000 HD 
ENDBRANCH  16  17
ENDBRANCH  15  16
ENDBRANCH  14  15
ENDBRANCH  13  14
BRANCH  13  26
HETATM   26  N   UNL     1      -8.534  13.088  67.401  1.00  0.00    -0.190 N  
HETATM   27  H   UNL     1      -9.426  12.811  67.811  1.00  0.00     0.000 HD 
BRANCH  26  28
HETATM   28  S   UNL     1      -7.077  12.362  67.915  1.00  0.00    -0.125 S  
HETATM   29  O   UNL     1      -6.929  12.605  69.326  1.00  0.00    -0.063 OA 
HETATM   30  O   UNL     1      -6.072  12.832  66.983  1.00  0.00    -0.282 OA 
BRANCH  28  31
HETATM   31  C   UNL     1      -7.379  10.640  67.614  1.00  0.00    -0.090 A  
HETATM   32  C   UNL     1      -9.380   7.648  68.900  1.00  0.00    -0.145 C  
HETATM   33  C   UNL     1      -6.634  10.031  66.592  1.00  0.00    -0.073 A  
HETATM   34  C   UNL     1     -10.830   7.484  70.954  1.00  0.00    -0.252 C  
HETATM   35  C   UNL     1      -6.809   8.680  66.308  1.00  0.00    -0.070 A  
HETATM   36  C   UNL     1      -9.730   8.277  70.252  1.00  0.00    -0.177 C  
HETATM   37  C   UNL     1     -10.140   9.723  70.008  1.00  0.00    -0.257 C  
HETATM   38  H   UNL     1      -8.786  11.405  69.794  1.00  0.00     0.000 HD 
HETATM   39  N   UNL     1      -9.033  10.483  69.434  1.00  0.00    -0.141 NA 
HETATM   40  C   UNL     1      -7.727   7.937  67.040  1.00  0.00    -0.100 A  
HETATM   41  C   UNL     1      -8.317   9.908  68.372  1.00  0.00    -0.107 A  
HETATM   42  C   UNL     1      -8.472   8.533  68.074  1.00  0.00    -0.131 A  
ENDBRANCH  28  31
ENDBRANCH  26  28
ENDBRANCH  13  26
ENDBRANCH   7  13
TORSDOF 8
ENDMDL
MODEL      369
REMARK 921   NORMALIZED FREE ENERGY PREDICTED BY IDOCK:   -2.67 KCAL/MOL
REMARK 922        TOTAL FREE ENERGY PREDICTED BY IDOCK:   -5.17 KCAL/MOL
REMARK 923 INTER-LIGAND FREE ENERGY PREDICTED BY IDOCK:   -5.20 KCAL/MOL
REMARK 924 INTRA-LIGAND FREE ENERGY PREDICTED BY IDOCK:    0.03 KCAL/MOL
REMARK 927      BINDING AFFINITY PREDICTED BY RF-SCORE:    0.00 PKD
ROOT
HETATM    1  C   UNL     1     -12.149  12.822  69.495  1.00  0.00    -0.265 C  
HETATM    2  C   UNL     1     -10.929  12.001  69.101  1.00  0.00    -0.231 C  
HETATM    3  C   UNL     1     -10.462  12.322  67.677  1.00  0.00    -0.230 C  
HETATM    4  C   UNL     1      -9.265  11.458  67.279  1.00  0.00    -0.165 C  
HETATM    5  N   UNL     1      -9.477  10.006  67.530  1.00  0.00    -0.147 N  
HETATM    6  C   UNL     1      -9.976   9.672  68.883  1.00  0.00    -0.178 C  
HETATM    7  C   UNL     1      -9.596   9.174  66.409  1.00  0.00    -0.245 C  
HETATM    8  O   UNL     1      -9.549   9.694  65.285  1.00  0.00    -0.274 OA 
HETATM    9  O   UNL     1      -7.758  10.198  69.677  1.00  0.00    -0.132 OA 
HETATM   10  C   UNL     1     -11.227  10.497  69.203  1.00  0.00    -0.314 C  
HETATM   11  C   UNL     1      -8.982   9.809  70.041  1.00  0.00    -0.222 C  
HETATM   12  O   UNL     1      -9.266   9.590  71.208  1.00  0.00    -0.237 OA 
ENDROOT
BRANCH   7  13
HETATM   13  C   UNL     1      -9.666   7.606  66.465  1.00  0.00    -0.181 C  
BRANCH  13  14
HETATM   14  C   UNL     1     -10.828   6.921  67.233  1.00  0.00    -0.426 C  
BRANCH  14  15
HETATM   15  C   UNL     1     -10.612   5.405  67.416  1.00  0.00    -0.228 C  
BRANCH  15  16
HETATM   16  C   UNL     1     -10.293   4.658  66.112  1.00  0.00    -0.275 C  
BRANCH  16  17
HETATM   17  N   UNL     1      -9.686   3.383  66.450  1.00  0.00    -0.411 NA 
HETATM   18  H2  UNL     1      -8.531   1.370  67.227  1.00  0.00     0.000 HD 
HETATM   19  H1  UNL     1      -8.126   0.834  65.552  1.00  0.00     0.000 HD 
HETATM   20  N   UNL     1      -9.107   2.572  64.297  1.00  0.00    -0.115 NA 
HETATM   21  N   UNL     1      -8.548   1.486  66.214  1.00  0.00    -0.102 NA 
HETATM   22  C   UNL     1      -9.129   2.520  65.575  1.00  0.00    -0.116 C  
HETATM   23  H   UNL     1      -9.681   3.117  67.435  1.00  0.00     0.000 HD 
HETATM   24  H1  UNL     1      -8.685   1.920  63.635  1.00  0.00     0.000 HD 
HETATM   25  H2  UNL     1      -9.575   3.377  63.882  1.00  0.00     0.000 HD 
ENDBRANCH  16  17
ENDBRANCH  15  16
ENDBRANCH  14  15
ENDBRANCH  13  14
BRANCH  13  26
HETATM   26  N   UNL     1      -8.388   6.977  66.899  1.00  0.00    -0.116 N  
HETATM   27  H   UNL     1      -8.260   6.671  67.864  1.00  0.00     0.000 HD 
BRANCH  26  28
HETATM   28  S   UNL     1      -7.140   6.779  65.751  1.00  0.00    -0.074 S  
HETATM   29  O   UNL     1      -6.064   7.669  66.100  1.00  0.00    -0.037 OA 
HETATM   30  O   UNL     1      -7.792   6.889  64.462  1.00  0.00    -0.108 OA 
BRANCH  28  31
HETATM   31  C   UNL     1      -6.651   5.092  66.005  1.00  0.00    -0.048 A  
HETATM   32  C   UNL     1      -6.046   2.494  68.742  1.00  0.00    -0.025 C  
HETATM   33  C   UNL     1      -6.276   4.359  64.868  1.00  0.00    -0.033 A  
HETATM   34  C   UNL     1      -6.077   2.801  71.243  1.00  0.00    -0.014 C  
HETATM   35  C   UNL     1      -5.869   3.034  64.991  1.00  0.00    -0.018 A  
HETATM   36  C   UNL     1      -5.987   3.505  69.892  1.00  0.00    -0.023 C  
HETATM   37  C   UNL     1      -7.116   4.508  69.697  1.00  0.00    -0.050 C  
HETATM   38  H   UNL     1      -7.051   6.256  68.413  1.00  0.00     0.000 HD 
HETATM   39  N   UNL     1      -6.944   5.242  68.447  1.00  0.00    -0.059 NA 
HETATM   40  C   UNL     1      -5.837   2.440  66.247  1.00  0.00    -0.022 A  
HETATM   41  C   UNL     1      -6.626   4.512  67.290  1.00  0.00    -0.047 A  
HETATM   42  C   UNL     1      -6.199   3.167  67.396  1.00  0.00    -0.032 A  
ENDBRANCH  28  31
ENDBRANCH  26  28
ENDBRANCH  13  26
ENDBRANCH   7  13
TORSDOF 8
ENDMDL
MODEL      370
REMARK 921   NORMALIZED FREE ENERGY PREDICTED BY IDOCK:   -2.64 KCAL/MOL
REMARK 922        TOTAL FREE ENERGY PREDICTED BY IDOCK:   -5.12 KCAL/MOL
REMARK 923 INTER-LIGAND FREE ENERGY PREDICTED BY IDOCK:   -6.08 KCAL/MOL
REMARK 924 INTRA-LIGAND FREE ENERGY PREDICTED BY IDOCK:    0.97 KCAL/MOL
REMARK 927      BINDING AFFINITY PREDICTED BY RF-SCORE:    0.00 PKD
ROOT
HETATM    1  C   UNL     1      -5.287   5.148  67.798  1.00  0.00    -0.011 C  
HETATM    2  C   UNL     1      -5.860   6.148  68.792  1.00  0.00    -0.019 C  
HETATM    3  C   UNL     1      -6.418   5.456  70.041  1.00  0.00    -0.031 C  
HETATM    4  C   UNL     1      -7.030   6.469  71.008  1.00  0.00    -0.068 C  
HETATM    5  N   UNL     1      -7.992   7.400  70.357  1.00  0.00    -0.102 N  
HETATM    6  C   UNL     1      -7.496   8.045  69.121  1.00  0.00    -0.095 C  
HETATM    7  C   UNL     1      -9.344   7.265  70.699  1.00  0.00    -0.157 C  
HETATM    8  O   UNL     1      -9.662   6.368  71.492  1.00  0.00    -0.169 OA 
HETATM    9  O   UNL     1      -6.091   9.387  70.552  1.00  0.00    -0.046 OA 
HETATM   10  C   UNL     1      -6.974   6.985  68.144  1.00  0.00    -0.080 C  
HETATM   11  C   UNL     1      -6.431   9.134  69.286  1.00  0.00    -0.045 C  
HETATM   12  O   UNL     1      -5.918   9.729  68.352  1.00  0.00    -0.046 OA 
ENDROOT
BRANCH   7  13
HETATM   13  C   UNL     1     -10.481   8.247  70.242  1.00  0.00    -0.218 C  
BRANCH  13  14
HETATM   14  C   UNL     1     -11.377   7.867  69.033  1.00  0.00     0.522 C  
BRANCH  14  15
HETATM   15  C   UNL     1     -10.923   6.568  68.337  1.00  0.00    -0.358 C  
BRANCH  15  16
HETATM   16  C   UNL     1     -10.651   6.727  66.834  1.00  0.00    -0.304 C  
BRANCH  16  17
HETATM   17  N   UNL     1     -10.934   5.463  66.179  1.00  0.00    -0.767 NA 
HETATM   18  H2  UNL     1     -11.547   3.259  65.310  1.00  0.00     0.000 HD 
HETATM   19  H1  UNL     1      -9.908   2.966  64.613  1.00  0.00     0.000 HD 
HETATM   20  N   UNL     1      -8.824   4.971  65.213  1.00  0.00    -0.151 NA 
HETATM   21  N   UNL     1     -10.584   3.537  65.121  1.00  0.00     0.289 NA 
HETATM   22  C   UNL     1     -10.039   4.707  65.508  1.00  0.00    -0.183 C  
HETATM   23  H   UNL     1     -11.892   5.116  66.231  1.00  0.00     0.000 HD 
HETATM   24  H1  UNL     1      -8.147   4.400  64.706  1.00  0.00     0.000 HD 
HETATM   25  H2  UNL     1      -8.482   5.879  65.529  1.00  0.00     0.000 HD 
ENDBRANCH  16  17
ENDBRANCH  15  16
ENDBRANCH  14  15
ENDBRANCH  13  14
BRANCH  13  26
HETATM   26  N   UNL     1     -10.006   9.645  70.047  1.00  0.00    -0.232 N  
HETATM   27  H   UNL     1      -9.258  10.025  70.628  1.00  0.00     0.000 HD 
BRANCH  26  28
HETATM   28  S   UNL     1     -10.734  10.598  68.832  1.00  0.00    -0.237 S  
HETATM   29  O   UNL     1     -11.725   9.794  68.166  1.00  0.00     0.169 OA 
HETATM   30  O   UNL     1      -9.631  11.166  68.086  1.00  0.00    -0.167 OA 
BRANCH  28  31
HETATM   31  C   UNL     1     -11.515  11.884  69.772  1.00  0.00    -0.229 A  
HETATM   32  C   UNL     1     -11.721  15.686  70.113  1.00  0.00    -0.374 C  
HETATM   33  C   UNL     1     -12.338  11.486  70.837  1.00  0.00    -0.460 A  
HETATM   34  C   UNL     1     -10.375  17.452  68.922  1.00  0.00    -0.340 C  
HETATM   35  C   UNL     1     -12.974  12.440  71.626  1.00  0.00    -0.409 A  
HETATM   36  C   UNL     1     -10.459  15.974  69.294  1.00  0.00    -0.257 C  
HETATM   37  C   UNL     1     -10.479  15.078  68.063  1.00  0.00    -0.242 C  
HETATM   38  H   UNL     1      -9.822  13.012  67.989  1.00  0.00     0.000 HD 
HETATM   39  N   UNL     1     -10.451  13.670  68.450  1.00  0.00    -0.242 NA 
HETATM   40  C   UNL     1     -12.790  13.790  71.352  1.00  0.00    -0.449 A  
HETATM   41  C   UNL     1     -11.313  13.248  69.474  1.00  0.00    -0.170 A  
HETATM   42  C   UNL     1     -11.959  14.202  70.295  1.00  0.00    -0.404 A  
ENDBRANCH  28  31
ENDBRANCH  26  28
ENDBRANCH  13  26
ENDBRANCH   7  13
TORSDOF 8
ENDMDL
MODEL      371
REMARK 921   NORMALIZED FREE ENERGY PREDICTED BY IDOCK:   -2.49 KCAL/MOL
REMARK 922        TOTAL FREE ENERGY PREDICTED BY IDOCK:   -4.90 KCAL/MOL
REMARK 923 INTER-LIGAND FREE ENERGY PREDICTED BY IDOCK:   -4.09 KCAL/MOL
REMARK 924 INTRA-LIGAND FREE ENERGY PREDICTED BY IDOCK:   -0.81 KCAL/MOL
REMARK 927      BINDING AFFINITY PREDICTED BY RF-SCORE:    0.00 PKD
ROOT
HETATM    1  C   UNL     1      -6.914  12.464  68.666  1.00  0.00    -0.091 C  
HETATM    2  C   UNL     1      -6.539  11.034  69.027  1.00  0.00    -0.065 C  
HETATM    3  C   UNL     1      -5.921  10.289  67.838  1.00  0.00    -0.041 C  
HETATM    4  C   UNL     1      -5.591   8.842  68.202  1.00  0.00    -0.035 C  
HETATM    5  N   UNL     1      -6.727   8.120  68.840  1.00  0.00    -0.048 N  
HETATM    6  C   UNL     1      -7.374   8.840  69.959  1.00  0.00    -0.053 C  
HETATM    7  C   UNL     1      -7.326   7.092  68.100  1.00  0.00    -0.097 C  
HETATM    8  O   UNL     1      -6.899   6.864  66.959  1.00  0.00    -0.061 OA 
HETATM    9  O   UNL     1      -5.405   8.312  71.251  1.00  0.00    -0.032 OA 
HETATM   10  C   UNL     1      -7.767  10.255  69.521  1.00  0.00    -0.167 C  
HETATM   11  C   UNL     1      -6.589   8.927  71.272  1.00  0.00    -0.080 C  
HETATM   12  O   UNL     1      -6.992   9.510  72.266  1.00  0.00    -0.056 OA 
ENDROOT
BRANCH   7  13
HETATM   13  C   UNL     1      -8.426   6.119  68.656  1.00  0.00    -0.114 C  
BRANCH  13  14
HETATM   14  C   UNL     1      -8.005   4.745  69.242  1.00  0.00    -0.070 C  
BRANCH  14  15
HETATM   15  C   UNL     1      -6.571   4.752  69.812  1.00  0.00    -0.036 C  
BRANCH  15  16
HETATM   16  C   UNL     1      -5.579   3.891  69.016  1.00  0.00    -0.017 C  
BRANCH  16  17
HETATM   17  N   UNL     1      -6.115   3.684  67.684  1.00  0.00    -0.028 NA 
HETATM   18  H2  UNL     1      -7.100   3.605  65.444  1.00  0.00     0.000 HD 
HETATM   19  H1  UNL     1      -7.889   2.008  65.738  1.00  0.00     0.000 HD 
HETATM   20  N   UNL     1      -7.190   1.585  67.949  1.00  0.00    -0.039 NA 
HETATM   21  N   UNL     1      -7.314   2.799  66.031  1.00  0.00    -0.066 NA 
HETATM   22  C   UNL     1      -6.876   2.638  67.295  1.00  0.00    -0.044 C  
HETATM   23  H   UNL     1      -5.899   4.390  66.980  1.00  0.00     0.000 HD 
HETATM   24  H1  UNL     1      -7.765   0.795  67.655  1.00  0.00     0.000 HD 
HETATM   25  H2  UNL     1      -6.814   1.527  68.895  1.00  0.00     0.000 HD 
ENDBRANCH  16  17
ENDBRANCH  15  16
ENDBRANCH  14  15
ENDBRANCH  13  14
BRANCH  13  26
HETATM   26  N   UNL     1      -9.546   5.893  67.701  1.00  0.00    -0.110 N  
HETATM   27  H   UNL     1      -9.770   4.953  67.375  1.00  0.00     0.000 HD 
BRANCH  26  28
HETATM   28  S   UNL     1     -10.449   7.239  67.164  1.00  0.00    -0.344 S  
HETATM   29  O   UNL     1     -11.650   6.751  66.538  1.00  0.00     0.514 OA 
HETATM   30  O   UNL     1      -9.511   8.048  66.414  1.00  0.00    -0.198 OA 
BRANCH  28  31
HETATM   31  C   UNL     1     -10.840   8.069  68.682  1.00  0.00     0.080 A  
HETATM   32  C   UNL     1     -11.634  11.517  70.130  1.00  0.00    -0.336 C  
HETATM   33  C   UNL     1     -10.835   7.295  69.853  1.00  0.00    -0.264 A  
HETATM   34  C   UNL     1     -11.580  13.760  68.983  1.00  0.00    -0.356 C  
HETATM   35  C   UNL     1     -11.119   7.880  71.082  1.00  0.00    -0.278 A  
HETATM   36  C   UNL     1     -11.126  12.304  68.918  1.00  0.00    -0.291 C  
HETATM   37  C   UNL     1     -11.627  11.609  67.659  1.00  0.00    -0.279 C  
HETATM   38  H   UNL     1     -10.694   9.902  66.698  1.00  0.00     0.000 HD 
HETATM   39  N   UNL     1     -11.089  10.254  67.570  1.00  0.00    -0.292 NA 
HETATM   40  C   UNL     1     -11.411   9.238  71.145  1.00  0.00    -0.412 A  
HETATM   41  C   UNL     1     -11.132   9.449  68.720  1.00  0.00     0.051 A  
HETATM   42  C   UNL     1     -11.408  10.028  69.981  1.00  0.00    -0.334 A  
ENDBRANCH  28  31
ENDBRANCH  26  28
ENDBRANCH  13  26
ENDBRANCH   7  13
TORSDOF 8
ENDMDL
MODEL      372
REMARK 921   NORMALIZED FREE ENERGY PREDICTED BY IDOCK:   -2.29 KCAL/MOL
REMARK 922        TOTAL FREE ENERGY PREDICTED BY IDOCK:   -4.61 KCAL/MOL
REMARK 923 INTER-LIGAND FREE ENERGY PREDICTED BY IDOCK:   -5.06 KCAL/MOL
REMARK 924 INTRA-LIGAND FREE ENERGY PREDICTED BY IDOCK:    0.45 KCAL/MOL
REMARK 927      BINDING AFFINITY PREDICTED BY RF-SCORE:    0.00 PKD
ROOT
HETATM    1  C   UNL     1      -6.999   7.817  73.592  1.00  0.00    -0.112 C  
HETATM    2  C   UNL     1      -6.958   6.508  72.815  1.00  0.00    -0.077 C  
HETATM    3  C   UNL     1      -6.084   6.617  71.561  1.00  0.00    -0.037 C  
HETATM    4  C   UNL     1      -6.089   5.310  70.768  1.00  0.00    -0.022 C  
HETATM    5  N   UNL     1      -7.457   4.786  70.503  1.00  0.00    -0.056 N  
HETATM    6  C   UNL     1      -8.339   4.718  71.689  1.00  0.00    -0.110 C  
HETATM    7  C   UNL     1      -7.905   4.812  69.176  1.00  0.00    -0.071 C  
HETATM    8  O   UNL     1      -7.157   5.291  68.313  1.00  0.00    -0.060 OA 
HETATM    9  O   UNL     1      -7.003   2.839  72.401  1.00  0.00    -0.026 OA 
HETATM   10  C   UNL     1      -8.373   6.075  72.402  1.00  0.00    -0.116 C  
HETATM   11  C   UNL     1      -8.034   3.625  72.718  1.00  0.00    -0.077 C  
HETATM   12  O   UNL     1      -8.665   3.470  73.752  1.00  0.00    -0.088 OA 
ENDROOT
BRANCH   7  13
HETATM   13  C   UNL     1      -9.247   4.166  68.676  1.00  0.00    -0.145 C  
BRANCH  13  14
HETATM   14  C   UNL     1      -9.207   2.809  67.924  1.00  0.00    -0.251 C  
BRANCH  14  15
HETATM   15  C   UNL     1      -8.318   2.849  66.664  1.00  0.00    -0.095 C  
BRANCH  15  16
HETATM   16  C   UNL     1      -9.001   2.305  65.401  1.00  0.00    -0.126 C  
BRANCH  16  17
HETATM   17  N   UNL     1      -8.310   2.835  64.240  1.00  0.00    -0.083 NA 
HETATM   18  H2  UNL     1      -6.912   3.733  62.442  1.00  0.00     0.000 HD 
HETATM   19  H1  UNL     1      -8.163   4.931  61.933  1.00  0.00     0.000 HD 
HETATM   20  N   UNL     1      -9.878   4.442  63.473  1.00  0.00    -0.353 NA 
HETATM   21  N   UNL     1      -7.828   4.174  62.530  1.00  0.00    -0.064 NA 
HETATM   22  C   UNL     1      -8.753   3.836  63.449  1.00  0.00    -0.098 C  
HETATM   23  H   UNL     1      -7.411   2.415  64.001  1.00  0.00     0.000 HD 
HETATM   24  H1  UNL     1     -10.213   5.198  62.876  1.00  0.00     0.000 HD 
HETATM   25  H2  UNL     1     -10.532   4.126  64.188  1.00  0.00     0.000 HD 
ENDBRANCH  16  17
ENDBRANCH  15  16
ENDBRANCH  14  15
ENDBRANCH  13  14
BRANCH  13  26
HETATM   26  N   UNL     1     -10.094   5.107  67.892  1.00  0.00    -0.155 N  
HETATM   27  H   UNL     1     -10.589   4.790  67.058  1.00  0.00     0.000 HD 
BRANCH  26  28
HETATM   28  S   UNL     1     -10.223   6.726  68.417  1.00  0.00    -0.191 S  
HETATM   29  O   UNL     1      -9.338   6.906  69.537  1.00  0.00    -0.148 OA 
HETATM   30  O   UNL     1     -11.645   6.963  68.563  1.00  0.00     0.146 OA 
BRANCH  28  31
HETATM   31  C   UNL     1      -9.631   7.632  67.011  1.00  0.00    -0.175 A  
HETATM   32  C   UNL     1      -9.936  11.002  65.233  1.00  0.00    -0.320 C  
HETATM   33  C   UNL     1      -8.773   6.954  66.130  1.00  0.00    -0.153 A  
HETATM   34  C   UNL     1     -11.492  12.918  65.739  1.00  0.00    -0.376 C  
HETATM   35  C   UNL     1      -8.279   7.597  65.000  1.00  0.00    -0.116 A  
HETATM   36  C   UNL     1     -11.217  11.433  65.955  1.00  0.00    -0.172 C  
HETATM   37  C   UNL     1     -11.063  11.091  67.431  1.00  0.00    -0.305 C  
HETATM   38  H   UNL     1     -11.439   9.152  68.329  1.00  0.00     0.000 HD 
HETATM   39  N   UNL     1     -10.909   9.651  67.614  1.00  0.00    -0.265 NA 
HETATM   40  C   UNL     1      -8.637   8.916  64.748  1.00  0.00    -0.184 A  
HETATM   41  C   UNL     1     -10.010   8.971  66.777  1.00  0.00    -0.263 A  
HETATM   42  C   UNL     1      -9.505   9.603  65.616  1.00  0.00    -0.318 A  
ENDBRANCH  28  31
ENDBRANCH  26  28
ENDBRANCH  13  26
ENDBRANCH   7  13
TORSDOF 8
ENDMDL
MODEL      373
REMARK 921   NORMALIZED FREE ENERGY PREDICTED BY IDOCK:   -2.29 KCAL/MOL
REMARK 922        TOTAL FREE ENERGY PREDICTED BY IDOCK:   -4.61 KCAL/MOL
REMARK 923 INTER-LIGAND FREE ENERGY PREDICTED BY IDOCK:   -3.90 KCAL/MOL
REMARK 924 INTRA-LIGAND FREE ENERGY PREDICTED BY IDOCK:   -0.71 KCAL/MOL
REMARK 927      BINDING AFFINITY PREDICTED BY RF-SCORE:    0.00 PKD
ROOT
HETATM    1  C   UNL     1     -10.651   8.064  66.772  1.00  0.00    -0.225 C  
HETATM    2  C   UNL     1     -10.157   9.260  65.970  1.00  0.00    -0.262 C  
HETATM    3  C   UNL     1      -8.669   9.534  66.214  1.00  0.00    -0.158 C  
HETATM    4  C   UNL     1      -8.198  10.763  65.437  1.00  0.00    -0.077 C  
HETATM    5  N   UNL     1      -9.069  11.954  65.634  1.00  0.00    -0.059 N  
HETATM    6  C   UNL     1     -10.516  11.706  65.453  1.00  0.00    -0.275 C  
HETATM    7  C   UNL     1      -8.527  13.030  66.350  1.00  0.00     0.387 C  
HETATM    8  O   UNL     1      -7.378  12.918  66.799  1.00  0.00     0.186 OA 
HETATM    9  O   UNL     1     -10.054  11.568  63.089  1.00  0.00    -0.363 OA 
HETATM   10  C   UNL     1     -10.961  10.521  66.318  1.00  0.00     0.031 C  
HETATM   11  C   UNL     1     -11.007  11.485  64.019  1.00  0.00    -0.383 C  
HETATM   12  O   UNL     1     -12.169  11.246  63.729  1.00  0.00     0.080 OA 
ENDROOT
BRANCH   7  13
HETATM   13  C   UNL     1      -9.227  14.425  66.527  1.00  0.00    -0.244 C  
BRANCH  13  14
HETATM   14  C   UNL     1      -8.359  15.695  66.726  1.00  0.00    -0.313 C  
BRANCH  14  15
HETATM   15  C   UNL     1      -8.802  16.870  65.830  1.00  0.00    -0.067 C  
BRANCH  15  16
HETATM   16  C   UNL     1     -10.299  17.200  65.930  1.00  0.00    -0.284 C  
BRANCH  16  17
HETATM   17  N   UNL     1     -10.454  18.384  66.754  1.00  0.00    -0.391 NA 
HETATM   18  H2  UNL     1     -10.561  20.516  67.953  1.00  0.00     0.000 HD 
HETATM   19  H1  UNL     1     -10.263  19.744  69.557  1.00  0.00     0.000 HD 
HETATM   20  N   UNL     1     -10.080  17.483  68.917  1.00  0.00    -0.352 NA 
HETATM   21  N   UNL     1     -10.387  19.704  68.545  1.00  0.00    -0.411 NA 
HETATM   22  C   UNL     1     -10.290  18.438  68.093  1.00  0.00    -0.366 C  
HETATM   23  H   UNL     1     -10.710  19.252  66.281  1.00  0.00     0.000 HD 
HETATM   24  H1  UNL     1      -9.956  17.523  69.929  1.00  0.00     0.000 HD 
HETATM   25  H2  UNL     1     -10.029  16.551  68.505  1.00  0.00     0.000 HD 
ENDBRANCH  16  17
ENDBRANCH  15  16
ENDBRANCH  14  15
ENDBRANCH  13  14
BRANCH  13  26
HETATM   26  N   UNL     1     -10.290  14.420  67.570  1.00  0.00    -0.250 N  
HETATM   27  H   UNL     1     -11.263  14.598  67.322  1.00  0.00     0.000 HD 
BRANCH  26  28
HETATM   28  S   UNL     1      -9.848  14.109  69.190  1.00  0.00     0.169 S  
HETATM   29  O   UNL     1     -10.610  14.988  70.038  1.00  0.00    -0.226 OA 
HETATM   30  O   UNL     1      -8.401  14.155  69.201  1.00  0.00     0.014 OA 
BRANCH  28  31
HETATM   31  C   UNL     1     -10.372  12.429  69.414  1.00  0.00     0.465 A  
HETATM   32  C   UNL     1      -9.041   8.866  69.784  1.00  0.00    -0.151 C  
HETATM   33  C   UNL     1     -11.755  12.188  69.423  1.00  0.00    -0.391 A  
HETATM   34  C   UNL     1      -6.671   8.037  69.571  1.00  0.00    -0.038 C  
HETATM   35  C   UNL     1     -12.240  10.894  69.581  1.00  0.00    -0.354 A  
HETATM   36  C   UNL     1      -7.634   9.181  69.267  1.00  0.00    -0.079 C  
HETATM   37  C   UNL     1      -7.180  10.489  69.901  1.00  0.00    -0.130 C  
HETATM   38  H   UNL     1      -7.677  12.480  69.194  1.00  0.00     0.000 HD 
HETATM   39  N   UNL     1      -8.059  11.586  69.506  1.00  0.00     0.427 NA 
HETATM   40  C   UNL     1     -11.348   9.840  69.733  1.00  0.00    -0.201 A  
HETATM   41  C   UNL     1      -9.446  11.376  69.566  1.00  0.00     0.671 A  
HETATM   42  C   UNL     1      -9.959  10.066  69.715  1.00  0.00    -0.276 A  
ENDBRANCH  28  31
ENDBRANCH  26  28
ENDBRANCH  13  26
ENDBRANCH   7  13
TORSDOF 8
ENDMDL
MODEL      374
REMARK 921   NORMALIZED FREE ENERGY PREDICTED BY IDOCK:   -2.27 KCAL/MOL
REMARK 922        TOTAL FREE ENERGY PREDICTED BY IDOCK:   -4.58 KCAL/MOL
REMARK 923 INTER-LIGAND FREE ENERGY PREDICTED BY IDOCK:   -4.70 KCAL/MOL
REMARK 924 INTRA-LIGAND FREE ENERGY PREDICTED BY IDOCK:    0.12 KCAL/MOL
REMARK 927      BINDING AFFINITY PREDICTED BY RF-SCORE:    0.00 PKD
ROOT
HETATM    1  C   UNL     1      -8.375  16.806  65.656  1.00  0.00     0.635 C  
HETATM    2  C   UNL     1      -9.024  15.887  66.681  1.00  0.00    -0.301 C  
HETATM    3  C   UNL     1      -8.001  15.336  67.681  1.00  0.00    -0.177 C  
HETATM    4  C   UNL     1      -8.659  14.380  68.676  1.00  0.00    -0.161 C  
HETATM    5  N   UNL     1      -9.489  13.329  68.024  1.00  0.00    -0.213 N  
HETATM    6  C   UNL     1     -10.451  13.830  67.017  1.00  0.00    -0.274 C  
HETATM    7  C   UNL     1      -9.021  12.011  68.093  1.00  0.00    -0.190 C  
HETATM    8  O   UNL     1      -7.940  11.801  68.661  1.00  0.00    -0.147 OA 
HETATM    9  O   UNL     1     -11.738  14.678  68.874  1.00  0.00    -0.283 OA 
HETATM   10  C   UNL     1      -9.731  14.711  65.990  1.00  0.00    -0.340 C  
HETATM   11  C   UNL     1     -11.677  14.583  67.545  1.00  0.00    -0.386 C  
HETATM   12  O   UNL     1     -12.535  15.070  66.826  1.00  0.00     0.227 OA 
ENDROOT
BRANCH   7  13
HETATM   13  C   UNL     1      -9.826  10.753  67.607  1.00  0.00    -0.171 C  
BRANCH  13  14
HETATM   14  C   UNL     1     -10.798  10.043  68.586  1.00  0.00    -0.265 C  
BRANCH  14  15
HETATM   15  C   UNL     1     -11.103  10.885  69.842  1.00  0.00    -0.311 C  
BRANCH  15  16
HETATM   16  C   UNL     1     -12.296  11.838  69.679  1.00  0.00    -0.079 C  
BRANCH  16  17
HETATM   17  N   UNL     1     -12.881  12.068  70.988  1.00  0.00    -0.251 NA 
HETATM   18  H2  UNL     1     -13.993  12.206  73.164  1.00  0.00     0.000 HD 
HETATM   19  H1  UNL     1     -14.464  13.932  72.927  1.00  0.00     0.000 HD 
HETATM   20  N   UNL     1     -13.546  14.338  70.794  1.00  0.00    -0.327 NA 
HETATM   21  N   UNL     1     -14.019  13.067  72.618  1.00  0.00    -0.571 NA 
HETATM   22  C   UNL     1     -13.470  13.212  71.396  1.00  0.00    -0.028 C  
HETATM   23  H   UNL     1     -12.844  11.298  71.656  1.00  0.00     0.000 HD 
HETATM   24  H1  UNL     1     -13.992  15.202  71.103  1.00  0.00     0.000 HD 
HETATM   25  H2  UNL     1     -13.100  14.377  69.878  1.00  0.00     0.000 HD 
ENDBRANCH  16  17
ENDBRANCH  15  16
ENDBRANCH  14  15
ENDBRANCH  13  14
BRANCH  13  26
HETATM   26  N   UNL     1      -8.966   9.716  66.971  1.00  0.00    -0.134 N  
HETATM   27  H   UNL     1      -8.549   9.877  66.054  1.00  0.00     0.000 HD 
BRANCH  26  28
HETATM   28  S   UNL     1      -8.690   8.254  67.808  1.00  0.00    -0.134 S  
HETATM   29  O   UNL     1      -9.875   7.443  67.696  1.00  0.00    -0.141 OA 
HETATM   30  O   UNL     1      -8.196   8.651  69.110  1.00  0.00    -0.114 OA 
BRANCH  28  31
HETATM   31  C   UNL     1      -7.359   7.530  66.885  1.00  0.00    -0.093 A  
HETATM   32  C   UNL     1      -5.748   4.173  66.020  1.00  0.00    -0.022 C  
HETATM   33  C   UNL     1      -6.480   8.411  66.235  1.00  0.00    -0.054 A  
HETATM   34  C   UNL     1      -6.291   1.884  66.923  1.00  0.00    -0.023 C  
HETATM   35  C   UNL     1      -5.406   7.916  65.503  1.00  0.00    -0.029 A  
HETATM   36  C   UNL     1      -6.439   3.387  67.139  1.00  0.00    -0.037 C  
HETATM   37  C   UNL     1      -7.900   3.813  67.182  1.00  0.00    -0.084 C  
HETATM   38  H   UNL     1      -8.680   5.567  68.195  1.00  0.00     0.000 HD 
HETATM   39  N   UNL     1      -8.014   5.235  67.497  1.00  0.00    -0.100 NA 
HETATM   40  C   UNL     1      -5.208   6.543  65.416  1.00  0.00    -0.018 A  
HETATM   41  C   UNL     1      -7.180   6.132  66.811  1.00  0.00    -0.074 A  
HETATM   42  C   UNL     1      -6.076   5.649  66.071  1.00  0.00    -0.029 A  
ENDBRANCH  28  31
ENDBRANCH  26  28
ENDBRANCH  13  26
ENDBRANCH   7  13
TORSDOF 8
ENDMDL
MODEL      375
REMARK 921   NORMALIZED FREE ENERGY PREDICTED BY IDOCK:   -2.25 KCAL/MOL
REMARK 922        TOTAL FREE ENERGY PREDICTED BY IDOCK:   -4.56 KCAL/MOL
REMARK 923 INTER-LIGAND FREE ENERGY PREDICTED BY IDOCK:   -5.16 KCAL/MOL
REMARK 924 INTRA-LIGAND FREE ENERGY PREDICTED BY IDOCK:    0.60 KCAL/MOL
REMARK 927      BINDING AFFINITY PREDICTED BY RF-SCORE:    0.00 PKD
ROOT
HETATM    1  C   UNL     1      -9.892  12.651  67.837  1.00  0.00    -0.218 C  
HETATM    2  C   UNL     1      -9.272  11.262  67.885  1.00  0.00    -0.157 C  
HETATM    3  C   UNL     1      -9.849  10.342  66.804  1.00  0.00    -0.242 C  
HETATM    4  C   UNL     1      -9.250   8.938  66.893  1.00  0.00    -0.147 C  
HETATM    5  N   UNL     1      -9.303   8.361  68.265  1.00  0.00    -0.135 N  
HETATM    6  C   UNL     1      -8.797   9.249  69.335  1.00  0.00    -0.149 C  
HETATM    7  C   UNL     1     -10.167   7.278  68.469  1.00  0.00    -0.181 C  
HETATM    8  O   UNL     1     -10.853   6.886  67.515  1.00  0.00    -0.266 OA 
HETATM    9  O   UNL     1      -6.588   8.794  68.475  1.00  0.00    -0.057 OA 
HETATM   10  C   UNL     1      -9.489  10.614  69.261  1.00  0.00    -0.152 C  
HETATM   11  C   UNL     1      -7.281   9.464  69.398  1.00  0.00    -0.066 C  
HETATM   12  O   UNL     1      -6.732  10.189  70.212  1.00  0.00    -0.117 OA 
ENDROOT
BRANCH   7  13
HETATM   13  C   UNL     1     -10.246   6.439  69.795  1.00  0.00    -0.186 C  
BRANCH  13  14
HETATM   14  C   UNL     1      -9.439   6.898  71.038  1.00  0.00    -0.163 C  
BRANCH  14  15
HETATM   15  C   UNL     1     -10.289   6.931  72.324  1.00  0.00    -0.219 C  
BRANCH  15  16
HETATM   16  C   UNL     1     -11.755   6.521  72.115  1.00  0.00    -0.311 C  
BRANCH  16  17
HETATM   17  N   UNL     1     -11.970   5.239  72.760  1.00  0.00    -0.361 NA 
HETATM   18  H2  UNL     1     -12.509   3.212  74.022  1.00  0.00     0.000 HD 
HETATM   19  H1  UNL     1     -10.788   2.671  74.082  1.00  0.00     0.000 HD 
HETATM   20  N   UNL     1      -9.747   4.421  72.895  1.00  0.00    -0.135 NA 
HETATM   21  N   UNL     1     -11.519   3.329  73.807  1.00  0.00    -0.083 NA 
HETATM   22  C   UNL     1     -11.004   4.370  73.124  1.00  0.00    -0.247 C  
HETATM   23  H   UNL     1     -12.936   4.973  72.956  1.00  0.00     0.000 HD 
HETATM   24  H1  UNL     1      -9.017   3.764  73.170  1.00  0.00     0.000 HD 
HETATM   25  H2  UNL     1      -9.430   5.232  72.364  1.00  0.00     0.000 HD 
ENDBRANCH  16  17
ENDBRANCH  15  16
ENDBRANCH  14  15
ENDBRANCH  13  14
BRANCH  13  26
HETATM   26  N   UNL     1      -9.993   4.987  69.586  1.00  0.00    -0.222 N  
HETATM   27  H   UNL     1     -10.762   4.317  69.599  1.00  0.00     0.000 HD 
BRANCH  26  28
HETATM   28  S   UNL     1      -8.389   4.463  69.323  1.00  0.00    -0.074 S  
HETATM   29  O   UNL     1      -8.052   3.517  70.355  1.00  0.00    -0.052 OA 
HETATM   30  O   UNL     1      -7.617   5.678  69.165  1.00  0.00    -0.084 OA 
BRANCH  28  31
HETATM   31  C   UNL     1      -8.505   3.646  67.753  1.00  0.00    -0.095 A  
HETATM   32  C   UNL     1      -8.107   4.235  63.997  1.00  0.00    -0.093 C  
HETATM   33  C   UNL     1      -8.942   2.312  67.758  1.00  0.00    -0.192 A  
HETATM   34  C   UNL     1      -7.671   6.396  62.777  1.00  0.00    -0.092 C  
HETATM   35  C   UNL     1      -9.069   1.611  66.563  1.00  0.00    -0.053 A  
HETATM   36  C   UNL     1      -8.137   5.764  64.085  1.00  0.00    -0.120 C  
HETATM   37  C   UNL     1      -7.267   6.186  65.261  1.00  0.00    -0.070 C  
HETATM   38  H   UNL     1      -7.887   6.247  67.340  1.00  0.00     0.000 HD 
HETATM   39  N   UNL     1      -7.799   5.655  66.513  1.00  0.00    -0.100 NA 
HETATM   40  C   UNL     1      -8.759   2.239  65.362  1.00  0.00    -0.119 A  
HETATM   41  C   UNL     1      -8.185   4.306  66.548  1.00  0.00    -0.102 A  
HETATM   42  C   UNL     1      -8.331   3.579  65.342  1.00  0.00    -0.098 A  
ENDBRANCH  28  31
ENDBRANCH  26  28
ENDBRANCH  13  26
ENDBRANCH   7  13
TORSDOF 8
ENDMDL
MODEL      376
REMARK 921   NORMALIZED FREE ENERGY PREDICTED BY IDOCK:   -2.14 KCAL/MOL
REMARK 922        TOTAL FREE ENERGY PREDICTED BY IDOCK:   -4.39 KCAL/MOL
REMARK 923 INTER-LIGAND FREE ENERGY PREDICTED BY IDOCK:   -3.73 KCAL/MOL
REMARK 924 INTRA-LIGAND FREE ENERGY PREDICTED BY IDOCK:   -0.66 KCAL/MOL
REMARK 927      BINDING AFFINITY PREDICTED BY RF-SCORE:    0.00 PKD
ROOT
HETATM    1  C   UNL     1      -5.589  16.201  67.652  1.00  0.00    -0.167 C  
HETATM    2  C   UNL     1      -6.588  15.179  68.175  1.00  0.00    -0.132 C  
HETATM    3  C   UNL     1      -6.084  14.487  69.446  1.00  0.00    -0.106 C  
HETATM    4  C   UNL     1      -7.077  13.432  69.933  1.00  0.00     0.550 C  
HETATM    5  N   UNL     1      -7.507  12.488  68.865  1.00  0.00    -0.045 N  
HETATM    6  C   UNL     1      -7.952  13.130  67.608  1.00  0.00    -0.174 C  
HETATM    7  C   UNL     1      -7.073  11.161  68.973  1.00  0.00    -0.113 C  
HETATM    8  O   UNL     1      -6.340  10.858  69.925  1.00  0.00    -0.099 OA 
HETATM    9  O   UNL     1      -9.945  13.774  68.806  1.00  0.00    -0.203 OA 
HETATM   10  C   UNL     1      -6.886  14.113  67.110  1.00  0.00     0.424 C  
HETATM   11  C   UNL     1      -9.309  13.841  67.635  1.00  0.00    -0.213 C  
HETATM   12  O   UNL     1      -9.785  14.431  66.678  1.00  0.00    -0.257 OA 
ENDROOT
BRANCH   7  13
HETATM   13  C   UNL     1      -7.545   9.990  68.038  1.00  0.00    -0.088 C  
BRANCH  13  14
HETATM   14  C   UNL     1      -6.543   9.365  67.032  1.00  0.00    -0.068 C  
BRANCH  14  15
HETATM   15  C   UNL     1      -5.812  10.423  66.180  1.00  0.00    -0.087 C  
BRANCH  15  16
HETATM   16  C   UNL     1      -5.807  10.118  64.675  1.00  0.00    -0.124 C  
BRANCH  16  17
HETATM   17  N   UNL     1      -6.743   9.039  64.422  1.00  0.00    -0.078 NA 
HETATM   18  H2  UNL     1      -8.098   7.048  63.984  1.00  0.00     0.000 HD 
HETATM   19  H1  UNL     1      -9.147   7.902  62.788  1.00  0.00     0.000 HD 
HETATM   20  N   UNL     1      -8.193  10.056  62.843  1.00  0.00    -0.143 NA 
HETATM   21  N   UNL     1      -8.374   7.875  63.454  1.00  0.00    -0.004 NA 
HETATM   22  C   UNL     1      -7.766   9.074  63.541  1.00  0.00    -0.121 C  
HETATM   23  H   UNL     1      -6.617   8.178  64.956  1.00  0.00     0.000 HD 
HETATM   24  H1  UNL     1      -8.966  10.083  62.177  1.00  0.00     0.000 HD 
HETATM   25  H2  UNL     1      -7.691  10.935  62.968  1.00  0.00     0.000 HD 
ENDBRANCH  16  17
ENDBRANCH  15  16
ENDBRANCH  14  15
ENDBRANCH  13  14
BRANCH  13  26
HETATM   26  N   UNL     1      -8.807  10.295  67.309  1.00  0.00    -0.132 N  
HETATM   27  H   UNL     1      -8.910  11.166  66.788  1.00  0.00     0.000 HD 
BRANCH  26  28
HETATM   28  S   UNL     1     -10.080   9.158  67.360  1.00  0.00    -0.249 S  
HETATM   29  O   UNL     1     -10.390   8.770  66.009  1.00  0.00    -0.052 OA 
HETATM   30  O   UNL     1     -11.094   9.765  68.198  1.00  0.00    -0.215 OA 
BRANCH  28  31
HETATM   31  C   UNL     1      -9.347   7.801  68.238  1.00  0.00    -0.143 A  
HETATM   32  C   UNL     1      -8.660   6.492  71.762  1.00  0.00    -0.124 C  
HETATM   33  C   UNL     1      -8.711   6.814  67.469  1.00  0.00    -0.119 A  
HETATM   34  C   UNL     1      -9.060   7.630  73.974  1.00  0.00    -0.280 C  
HETATM   35  C   UNL     1      -8.103   5.727  68.088  1.00  0.00    -0.104 A  
HETATM   36  C   UNL     1      -8.921   7.827  72.467  1.00  0.00    -0.213 C  
HETATM   37  C   UNL     1     -10.170   8.447  71.857  1.00  0.00    -0.270 C  
HETATM   38  H   UNL     1     -10.242   9.617  70.031  1.00  0.00     0.000 HD 
HETATM   39  N   UNL     1      -9.968   8.722  70.437  1.00  0.00    -0.182 NA 
HETATM   40  C   UNL     1      -8.129   5.623  69.474  1.00  0.00    -0.103 A  
HETATM   41  C   UNL     1      -9.387   7.719  69.645  1.00  0.00    -0.153 A  
HETATM   42  C   UNL     1      -8.753   6.611  70.257  1.00  0.00    -0.147 A  
ENDBRANCH  28  31
ENDBRANCH  26  28
ENDBRANCH  13  26
ENDBRANCH   7  13
TORSDOF 8
ENDMDL
MODEL      377
REMARK 921   NORMALIZED FREE ENERGY PREDICTED BY IDOCK:   -2.01 KCAL/MOL
REMARK 922        TOTAL FREE ENERGY PREDICTED BY IDOCK:   -4.19 KCAL/MOL
REMARK 923 INTER-LIGAND FREE ENERGY PREDICTED BY IDOCK:   -3.04 KCAL/MOL
REMARK 924 INTRA-LIGAND FREE ENERGY PREDICTED BY IDOCK:   -1.16 KCAL/MOL
REMARK 927      BINDING AFFINITY PREDICTED BY RF-SCORE:    0.00 PKD
ROOT
HETATM    1  C   UNL     1     -12.830  13.507  70.003  1.00  0.00     0.170 C  
HETATM    2  C   UNL     1     -11.668  12.563  69.729  1.00  0.00    -0.355 C  
HETATM    3  C   UNL     1     -10.662  13.168  68.745  1.00  0.00    -0.253 C  
HETATM    4  C   UNL     1      -9.524  12.191  68.445  1.00  0.00    -0.179 C  
HETATM    5  N   UNL     1     -10.000  10.833  68.061  1.00  0.00    -0.161 N  
HETATM    6  C   UNL     1     -11.010  10.246  68.968  1.00  0.00    -0.232 C  
HETATM    7  C   UNL     1      -9.792  10.436  66.734  1.00  0.00    -0.195 C  
HETATM    8  O   UNL     1      -9.258  11.240  65.957  1.00  0.00    -0.198 OA 
HETATM    9  O   UNL     1      -9.209   9.931  70.543  1.00  0.00    -0.128 OA 
HETATM   10  C   UNL     1     -12.173  11.224  69.169  1.00  0.00    -0.251 C  
HETATM   11  C   UNL     1     -10.518   9.773  70.340  1.00  0.00    -0.297 C  
HETATM   12  O   UNL     1     -11.247   9.292  71.194  1.00  0.00    -0.284 OA 
ENDROOT
BRANCH   7  13
HETATM   13  C   UNL     1     -10.079   8.994  66.180  1.00  0.00    -0.172 C  
BRANCH  13  14
HETATM   14  C   UNL     1     -11.158   8.115  66.864  1.00  0.00     0.584 C  
BRANCH  14  15
HETATM   15  C   UNL     1     -10.589   6.792  67.418  1.00  0.00    -0.372 C  
BRANCH  15  16
HETATM   16  C   UNL     1     -11.212   6.354  68.752  1.00  0.00    -0.274 C  
BRANCH  16  17
HETATM   17  N   UNL     1     -10.228   5.581  69.486  1.00  0.00    -0.236 NA 
HETATM   18  H2  UNL     1      -8.712   4.049  70.647  1.00  0.00     0.000 HD 
HETATM   19  H1  UNL     1      -8.620   5.093  72.116  1.00  0.00     0.000 HD 
HETATM   20  N   UNL     1     -10.020   6.874  71.465  1.00  0.00    -0.178 NA 
HETATM   21  N   UNL     1      -8.960   4.885  71.177  1.00  0.00    -0.133 NA 
HETATM   22  C   UNL     1      -9.778   5.857  70.729  1.00  0.00    -0.172 C  
HETATM   23  H   UNL     1      -9.842   4.757  69.023  1.00  0.00     0.000 HD 
HETATM   24  H1  UNL     1      -9.680   7.083  72.404  1.00  0.00     0.000 HD 
HETATM   25  H2  UNL     1     -10.639   7.574  71.057  1.00  0.00     0.000 HD 
ENDBRANCH  16  17
ENDBRANCH  15  16
ENDBRANCH  14  15
ENDBRANCH  13  14
BRANCH  13  26
HETATM   26  N   UNL     1      -8.847   8.174  66.014  1.00  0.00    -0.165 N  
HETATM   27  H   UNL     1      -8.489   7.612  66.787  1.00  0.00     0.000 HD 
BRANCH  26  28
HETATM   28  S   UNL     1      -8.045   8.192  64.507  1.00  0.00    -0.114 S  
HETATM   29  O   UNL     1      -7.071   9.252  64.531  1.00  0.00    -0.090 OA 
HETATM   30  O   UNL     1      -9.103   8.194  63.517  1.00  0.00     0.719 OA 
BRANCH  28  31
HETATM   31  C   UNL     1      -7.238   6.613  64.484  1.00  0.00    -0.068 A  
HETATM   32  C   UNL     1      -7.935   2.858  64.329  1.00  0.00    -0.082 C  
HETATM   33  C   UNL     1      -5.840   6.609  64.616  1.00  0.00    -0.031 A  
HETATM   34  C   UNL     1     -10.149   1.660  64.413  1.00  0.00     0.166 C  
HETATM   35  C   UNL     1      -5.140   5.407  64.619  1.00  0.00    -0.009 A  
HETATM   36  C   UNL     1      -9.418   2.970  64.693  1.00  0.00    -0.150 C  
HETATM   37  C   UNL     1     -10.011   4.130  63.905  1.00  0.00    -0.093 C  
HETATM   38  H   UNL     1      -9.914   6.224  64.466  1.00  0.00     0.000 HD 
HETATM   39  N   UNL     1      -9.364   5.387  64.272  1.00  0.00     0.387 NA 
HETATM   40  C   UNL     1      -5.831   4.209  64.488  1.00  0.00    -0.014 A  
HETATM   41  C   UNL     1      -7.963   5.410  64.350  1.00  0.00    -0.117 A  
HETATM   42  C   UNL     1      -7.233   4.198  64.366  1.00  0.00    -0.058 A  
ENDBRANCH  28  31
ENDBRANCH  26  28
ENDBRANCH  13  26
ENDBRANCH   7  13
TORSDOF 8
ENDMDL
MODEL      378
REMARK 921   NORMALIZED FREE ENERGY PREDICTED BY IDOCK:   -1.82 KCAL/MOL
REMARK 922        TOTAL FREE ENERGY PREDICTED BY IDOCK:   -3.92 KCAL/MOL
REMARK 923 INTER-LIGAND FREE ENERGY PREDICTED BY IDOCK:   -6.08 KCAL/MOL
REMARK 924 INTRA-LIGAND FREE ENERGY PREDICTED BY IDOCK:    2.16 KCAL/MOL
REMARK 927      BINDING AFFINITY PREDICTED BY RF-SCORE:    0.00 PKD
ROOT
HETATM    1  C   UNL     1     -13.441  11.430  63.124  1.00  0.00     1.583 C  
HETATM    2  C   UNL     1     -12.351  12.225  63.827  1.00  0.00    -0.637 C  
HETATM    3  C   UNL     1     -11.238  11.318  64.362  1.00  0.00    -0.196 C  
HETATM    4  C   UNL     1     -10.173  12.126  65.104  1.00  0.00    -0.278 C  
HETATM    5  N   UNL     1     -10.740  13.050  66.125  1.00  0.00    -0.271 N  
HETATM    6  C   UNL     1     -11.849  13.903  65.647  1.00  0.00    -0.371 C  
HETATM    7  C   UNL     1     -10.487  12.748  67.470  1.00  0.00    -0.218 C  
HETATM    8  O   UNL     1      -9.840  11.724  67.730  1.00  0.00    -0.175 OA 
HETATM    9  O   UNL     1     -10.180  15.152  64.431  1.00  0.00     0.086 OA 
HETATM   10  C   UNL     1     -12.934  13.042  64.990  1.00  0.00    -0.199 C  
HETATM   11  C   UNL     1     -11.484  15.049  64.698  1.00  0.00    -0.381 C  
HETATM   12  O   UNL     1     -12.301  15.813  64.209  1.00  0.00    -0.465 OA 
ENDROOT
BRANCH   7  13
HETATM   13  C   UNL     1     -10.863  13.679  68.678  1.00  0.00    -0.263 C  
BRANCH  13  14
HETATM   14  C   UNL     1     -11.866  14.843  68.461  1.00  0.00    -0.325 C  
BRANCH  14  15
HETATM   15  C   UNL     1     -11.902  15.830  69.646  1.00  0.00    -0.352 C  
BRANCH  15  16
HETATM   16  C   UNL     1     -13.068  15.595  70.619  1.00  0.00    -0.204 C  
BRANCH  16  17
HETATM   17  N   UNL     1     -12.524  15.420  71.953  1.00  0.00    -0.344 NA 
HETATM   18  H2  UNL     1     -11.558  14.857  74.130  1.00  0.00     0.000 HD 
HETATM   19  H1  UNL     1     -12.842  15.741  75.041  1.00  0.00     0.000 HD 
HETATM   20  N   UNL     1     -14.148  16.557  73.257  1.00  0.00    -0.156 NA 
HETATM   21  N   UNL     1     -12.407  15.422  74.175  1.00  0.00    -0.642 NA 
HETATM   22  C   UNL     1     -13.100  15.842  73.099  1.00  0.00    -0.572 C  
HETATM   23  H   UNL     1     -11.630  14.935  72.032  1.00  0.00     0.000 HD 
HETATM   24  H1  UNL     1     -14.584  16.876  74.123  1.00  0.00     0.000 HD 
HETATM   25  H2  UNL     1     -14.615  16.847  72.398  1.00  0.00     0.000 HD 
ENDBRANCH  16  17
ENDBRANCH  15  16
ENDBRANCH  14  15
ENDBRANCH  13  14
BRANCH  13  26
HETATM   26  N   UNL     1      -9.674  14.217  69.395  1.00  0.00    -0.398 N  
HETATM   27  H   UNL     1      -9.677  14.307  70.411  1.00  0.00     0.000 HD 
BRANCH  26  28
HETATM   28  S   UNL     1      -8.307  14.682  68.485  1.00  0.00    -0.166 S  
HETATM   29  O   UNL     1      -7.954  16.026  68.860  1.00  0.00    -0.184 OA 
HETATM   30  O   UNL     1      -8.645  14.371  67.111  1.00  0.00    -0.202 OA 
BRANCH  28  31
HETATM   31  C   UNL     1      -7.068  13.541  69.044  1.00  0.00    -0.066 A  
HETATM   32  C   UNL     1      -5.316  10.276  68.109  1.00  0.00    -0.034 C  
HETATM   33  C   UNL     1      -6.486  13.795  70.296  1.00  0.00     0.045 A  
HETATM   34  C   UNL     1      -5.810   8.712  66.196  1.00  0.00    -0.047 C  
HETATM   35  C   UNL     1      -5.517  12.937  70.806  1.00  0.00    -0.178 A  
HETATM   36  C   UNL     1      -6.344   9.855  67.054  1.00  0.00    -0.065 C  
HETATM   37  C   UNL     1      -6.690  11.079  66.218  1.00  0.00    -0.103 C  
HETATM   38  H   UNL     1      -8.140  12.606  66.744  1.00  0.00     0.000 HD 
HETATM   39  N   UNL     1      -7.298  12.116  67.047  1.00  0.00    -0.113 NA 
HETATM   40  C   UNL     1      -5.127  11.826  70.067  1.00  0.00    -0.075 A  
HETATM   41  C   UNL     1      -6.690  12.420  68.276  1.00  0.00    -0.070 A  
HETATM   42  C   UNL     1      -5.711  11.554  68.816  1.00  0.00    -0.046 A  
ENDBRANCH  28  31
ENDBRANCH  26  28
ENDBRANCH  13  26
ENDBRANCH   7  13
TORSDOF 8
ENDMDL
MODEL      379
REMARK 921   NORMALIZED FREE ENERGY PREDICTED BY IDOCK:   -1.75 KCAL/MOL
REMARK 922        TOTAL FREE ENERGY PREDICTED BY IDOCK:   -3.82 KCAL/MOL
REMARK 923 INTER-LIGAND FREE ENERGY PREDICTED BY IDOCK:   -2.32 KCAL/MOL
REMARK 924 INTRA-LIGAND FREE ENERGY PREDICTED BY IDOCK:   -1.50 KCAL/MOL
REMARK 927      BINDING AFFINITY PREDICTED BY RF-SCORE:    0.00 PKD
ROOT
HETATM    1  C   UNL     1     -10.606  20.451  66.450  1.00  0.00    -0.044 C  
HETATM    2  C   UNL     1     -10.111  19.349  67.376  1.00  0.00    -0.506 C  
HETATM    3  C   UNL     1      -8.649  19.561  67.782  1.00  0.00    -0.356 C  
HETATM    4  C   UNL     1      -8.152  18.424  68.675  1.00  0.00    -0.297 C  
HETATM    5  N   UNL     1      -8.432  17.072  68.119  1.00  0.00    -0.220 N  
HETATM    6  C   UNL     1      -9.826  16.857  67.672  1.00  0.00    -0.259 C  
HETATM    7  C   UNL     1      -7.331  16.317  67.690  1.00  0.00    -0.140 C  
HETATM    8  O   UNL     1      -6.204  16.825  67.771  1.00  0.00    -0.129 OA 
HETATM    9  O   UNL     1     -10.414  16.780  70.011  1.00  0.00    -0.142 OA 
HETATM   10  C   UNL     1     -10.250  17.972  66.710  1.00  0.00    -0.367 C  
HETATM   11  C   UNL     1     -10.889  16.714  68.766  1.00  0.00    -0.331 C  
HETATM   12  O   UNL     1     -12.079  16.558  68.539  1.00  0.00     0.206 OA 
ENDROOT
BRANCH   7  13
HETATM   13  C   UNL     1      -7.406  14.820  67.223  1.00  0.00    -0.114 C  
BRANCH  13  14
HETATM   14  C   UNL     1      -8.260  14.450  65.981  1.00  0.00     1.627 C  
BRANCH  14  15
HETATM   15  C   UNL     1      -9.333  13.386  66.290  1.00  0.00    -0.137 C  
BRANCH  15  16
HETATM   16  C   UNL     1      -8.932  11.958  65.890  1.00  0.00    -0.009 C  
BRANCH  16  17
HETATM   17  N   UNL     1      -9.199  11.786  64.474  1.00  0.00    -0.409 NA 
HETATM   18  H2  UNL     1      -9.922  11.515  62.151  1.00  0.00     0.000 HD 
HETATM   19  H1  UNL     1      -8.751  10.177  61.837  1.00  0.00     0.000 HD 
HETATM   20  N   UNL     1      -7.696  10.030  63.940  1.00  0.00    -0.144 NA 
HETATM   21  N   UNL     1      -9.179  10.879  62.442  1.00  0.00    -0.286 NA 
HETATM   22  C   UNL     1      -8.633  10.857  63.674  1.00  0.00     0.029 C  
HETATM   23  H   UNL     1      -9.873  12.422  64.046  1.00  0.00     0.000 HD 
HETATM   24  H1  UNL     1      -7.268   9.328  63.335  1.00  0.00     0.000 HD 
HETATM   25  H2  UNL     1      -7.324  10.077  64.888  1.00  0.00     0.000 HD 
ENDBRANCH  16  17
ENDBRANCH  15  16
ENDBRANCH  14  15
ENDBRANCH  13  14
BRANCH  13  26
HETATM   26  N   UNL     1      -7.752  13.879  68.323  1.00  0.00    -0.126 N  
HETATM   27  H   UNL     1      -8.725  13.719  68.584  1.00  0.00     0.000 HD 
BRANCH  26  28
HETATM   28  S   UNL     1      -6.489  13.072  69.141  1.00  0.00    -0.104 S  
HETATM   29  O   UNL     1      -6.385  13.628  70.465  1.00  0.00    -0.077 OA 
HETATM   30  O   UNL     1      -5.360  13.122  68.235  1.00  0.00    -0.074 OA 
BRANCH  28  31
HETATM   31  C   UNL     1      -7.089  11.404  69.220  1.00  0.00    -0.100 A  
HETATM   32  C   UNL     1     -10.266   9.350  69.763  1.00  0.00    -0.238 C  
HETATM   33  C   UNL     1      -6.137  10.378  69.109  1.00  0.00    -0.037 A  
HETATM   34  C   UNL     1     -12.568  10.146  70.410  1.00  0.00    -0.215 C  
HETATM   35  C   UNL     1      -6.531   9.046  69.174  1.00  0.00    -0.043 A  
HETATM   36  C   UNL     1     -11.085  10.502  70.355  1.00  0.00    -0.321 C  
HETATM   37  C   UNL     1     -10.829  11.745  69.514  1.00  0.00     0.008 C  
HETATM   38  H   UNL     1      -9.141  13.092  69.723  1.00  0.00     0.000 HD 
HETATM   39  N   UNL     1      -9.419  12.123  69.568  1.00  0.00     1.058 NA 
HETATM   40  C   UNL     1      -7.874   8.735  69.349  1.00  0.00    -0.095 A  
HETATM   41  C   UNL     1      -8.458  11.114  69.398  1.00  0.00     0.268 A  
HETATM   42  C   UNL     1      -8.837   9.753  69.473  1.00  0.00    -0.202 A  
ENDBRANCH  28  31
ENDBRANCH  26  28
ENDBRANCH  13  26
ENDBRANCH   7  13
TORSDOF 8
ENDMDL
MODEL      380
REMARK 921   NORMALIZED FREE ENERGY PREDICTED BY IDOCK:   -1.57 KCAL/MOL
REMARK 922        TOTAL FREE ENERGY PREDICTED BY IDOCK:   -3.55 KCAL/MOL
REMARK 923 INTER-LIGAND FREE ENERGY PREDICTED BY IDOCK:   -3.49 KCAL/MOL
REMARK 924 INTRA-LIGAND FREE ENERGY PREDICTED BY IDOCK:   -0.06 KCAL/MOL
REMARK 927      BINDING AFFINITY PREDICTED BY RF-SCORE:    0.00 PKD
ROOT
HETATM    1  C   UNL     1      -5.127  13.863  68.658  1.00  0.00    -0.089 C  
HETATM    2  C   UNL     1      -6.181  12.810  68.346  1.00  0.00    -0.073 C  
HETATM    3  C   UNL     1      -7.338  12.847  69.350  1.00  0.00     0.360 C  
HETATM    4  C   UNL     1      -8.366  11.755  69.052  1.00  0.00     0.189 C  
HETATM    5  N   UNL     1      -7.760  10.406  68.883  1.00  0.00    -0.102 N  
HETATM    6  C   UNL     1      -6.608  10.351  67.956  1.00  0.00    -0.061 C  
HETATM    7  C   UNL     1      -8.032   9.455  69.875  1.00  0.00    -0.130 C  
HETATM    8  O   UNL     1      -8.728   9.796  70.841  1.00  0.00    -0.140 OA 
HETATM    9  O   UNL     1      -8.210  10.621  66.172  1.00  0.00    -0.145 OA 
HETATM   10  C   UNL     1      -5.564  11.403  68.347  1.00  0.00    -0.045 C  
HETATM   11  C   UNL     1      -6.914  10.488  66.461  1.00  0.00    -0.115 C  
HETATM   12  O   UNL     1      -6.059  10.485  65.590  1.00  0.00    -0.112 OA 
ENDROOT
BRANCH   7  13
HETATM   13  C   UNL     1      -7.616   7.942  69.797  1.00  0.00    -0.090 C  
BRANCH  13  14
HETATM   14  C   UNL     1      -6.175   7.568  69.361  1.00  0.00    -0.031 C  
BRANCH  14  15
HETATM   15  C   UNL     1      -5.826   6.094  69.651  1.00  0.00    -0.017 C  
BRANCH  15  16
HETATM   16  C   UNL     1      -5.165   5.365  68.471  1.00  0.00    -0.003 C  
BRANCH  16  17
HETATM   17  N   UNL     1      -5.434   3.945  68.600  1.00  0.00    -0.012 NA 
HETATM   18  H2  UNL     1      -5.708   1.551  69.032  1.00  0.00     0.000 HD 
HETATM   19  H1  UNL     1      -5.643   1.125  67.279  1.00  0.00     0.000 HD 
HETATM   20  N   UNL     1      -5.374   3.264  66.327  1.00  0.00    -0.012 NA 
HETATM   21  N   UNL     1      -5.621   1.798  68.046  1.00  0.00    -0.017 NA 
HETATM   22  C   UNL     1      -5.463   3.054  67.585  1.00  0.00    -0.017 C  
HETATM   23  H   UNL     1      -5.618   3.588  69.538  1.00  0.00     0.000 HD 
HETATM   24  H1  UNL     1      -5.396   2.591  65.560  1.00  0.00     0.000 HD 
HETATM   25  H2  UNL     1      -5.267   4.240  66.052  1.00  0.00     0.000 HD 
ENDBRANCH  16  17
ENDBRANCH  15  16
ENDBRANCH  14  15
ENDBRANCH  13  14
BRANCH  13  26
HETATM   26  N   UNL     1      -8.570   7.112  69.011  1.00  0.00    -0.129 N  
HETATM   27  H   UNL     1      -8.413   6.939  68.018  1.00  0.00     0.000 HD 
BRANCH  26  28
HETATM   28  S   UNL     1      -9.931   6.453  69.803  1.00  0.00    -0.170 S  
HETATM   29  O   UNL     1      -9.492   5.887  71.052  1.00  0.00    -0.162 OA 
HETATM   30  O   UNL     1     -10.580   5.621  68.811  1.00  0.00    -0.229 OA 
BRANCH  28  31
HETATM   31  C   UNL     1     -10.935   7.887  70.096  1.00  0.00    -0.233 A  
HETATM   32  C   UNL     1     -12.122  11.136  68.470  1.00  0.00    -0.129 C  
HETATM   33  C   UNL     1     -11.513   8.011  71.369  1.00  0.00    -0.293 A  
HETATM   34  C   UNL     1     -11.424  12.146  66.270  1.00  0.00    -0.433 C  
HETATM   35  C   UNL     1     -12.302   9.115  71.676  1.00  0.00    -0.434 A  
HETATM   36  C   UNL     1     -11.070  11.135  67.357  1.00  0.00    -0.370 C  
HETATM   37  C   UNL     1     -10.968   9.719  66.805  1.00  0.00     0.111 C  
HETATM   38  H   UNL     1      -9.789   8.108  67.656  1.00  0.00     0.000 HD 
HETATM   39  N   UNL     1     -10.524   8.792  67.842  1.00  0.00    -0.231 NA 
HETATM   40  C   UNL     1     -12.516  10.094  70.714  1.00  0.00    -0.417 A  
HETATM   41  C   UNL     1     -11.137   8.867  69.103  1.00  0.00     0.137 A  
HETATM   42  C   UNL     1     -11.933   9.988  69.438  1.00  0.00     0.156 A  
ENDBRANCH  28  31
ENDBRANCH  26  28
ENDBRANCH  13  26
ENDBRANCH   7  13
TORSDOF 8
ENDMDL
MODEL      381
REMARK 921   NORMALIZED FREE ENERGY PREDICTED BY IDOCK:   -1.54 KCAL/MOL
REMARK 922        TOTAL FREE ENERGY PREDICTED BY IDOCK:   -3.51 KCAL/MOL
REMARK 923 INTER-LIGAND FREE ENERGY PREDICTED BY IDOCK:   -4.65 KCAL/MOL
REMARK 924 INTRA-LIGAND FREE ENERGY PREDICTED BY IDOCK:    1.14 KCAL/MOL
REMARK 927      BINDING AFFINITY PREDICTED BY RF-SCORE:    0.00 PKD
ROOT
HETATM    1  C   UNL     1     -11.309  20.207  67.129  1.00  0.00     0.773 C  
HETATM    2  C   UNL     1     -10.759  19.139  68.064  1.00  0.00    -0.318 C  
HETATM    3  C   UNL     1      -9.484  19.604  68.774  1.00  0.00    -0.402 C  
HETATM    4  C   UNL     1      -8.919  18.505  69.674  1.00  0.00     0.810 C  
HETATM    5  N   UNL     1      -8.780  17.192  68.985  1.00  0.00    -0.171 N  
HETATM    6  C   UNL     1      -9.982  16.743  68.250  1.00  0.00    -0.273 C  
HETATM    7  C   UNL     1      -7.478  16.732  68.743  1.00  0.00    -0.231 C  
HETATM    8  O   UNL     1      -6.529  17.451  69.086  1.00  0.00    -0.217 OA 
HETATM    9  O   UNL     1     -10.963  16.293  70.408  1.00  0.00    -0.337 OA 
HETATM   10  C   UNL     1     -10.460  17.843  67.295  1.00  0.00    -0.373 C  
HETATM   11  C   UNL     1     -11.171  16.265  69.090  1.00  0.00    -0.309 C  
HETATM   12  O   UNL     1     -12.231  15.891  68.616  1.00  0.00    -0.139 OA 
ENDROOT
BRANCH   7  13
HETATM   13  C   UNL     1      -7.127  15.312  68.174  1.00  0.00    -0.119 C  
BRANCH  13  14
HETATM   14  C   UNL     1      -7.238  15.051  66.648  1.00  0.00     1.006 C  
BRANCH  14  15
HETATM   15  C   UNL     1      -8.376  15.855  65.986  1.00  0.00     0.135 C  
BRANCH  15  16
HETATM   16  C   UNL     1      -9.713  15.101  65.915  1.00  0.00    -0.350 C  
BRANCH  16  17
HETATM   17  N   UNL     1      -9.496  13.846  65.220  1.00  0.00    -0.407 NA 
HETATM   18  H2  UNL     1      -8.914  11.855  63.921  1.00  0.00     0.000 HD 
HETATM   19  H1  UNL     1     -10.635  11.497  63.510  1.00  0.00     0.000 HD 
HETATM   20  N   UNL     1     -11.719  13.268  64.625  1.00  0.00    -0.347 NA 
HETATM   21  N   UNL     1      -9.913  12.058  63.962  1.00  0.00    -0.308 NA 
HETATM   22  C   UNL     1     -10.451  13.103  64.622  1.00  0.00    -0.392 C  
HETATM   23  H   UNL     1      -8.539  13.495  65.180  1.00  0.00     0.000 HD 
HETATM   24  H1  UNL     1     -12.441  12.706  64.172  1.00  0.00     0.000 HD 
HETATM   25  H2  UNL     1     -12.056  14.073  65.152  1.00  0.00     0.000 HD 
ENDBRANCH  16  17
ENDBRANCH  15  16
ENDBRANCH  14  15
ENDBRANCH  13  14
BRANCH  13  26
HETATM   26  N   UNL     1      -7.824  14.205  68.887  1.00  0.00    -0.258 N  
HETATM   27  H   UNL     1      -8.525  14.407  69.600  1.00  0.00     0.000 HD 
BRANCH  26  28
HETATM   28  S   UNL     1      -7.428  12.594  68.487  1.00  0.00    -0.104 S  
HETATM   29  O   UNL     1      -6.607  12.059  69.541  1.00  0.00    -0.116 OA 
HETATM   30  O   UNL     1      -6.928  12.653  67.129  1.00  0.00    -0.130 OA 
BRANCH  28  31
HETATM   31  C   UNL     1      -9.015  11.800  68.480  1.00  0.00    -0.132 A  
HETATM   32  C   UNL     1     -10.733   8.472  67.718  1.00  0.00    -0.170 C  
HETATM   33  C   UNL     1     -10.127  12.594  68.805  1.00  0.00    -0.057 A  
HETATM   34  C   UNL     1      -9.748   6.382  66.711  1.00  0.00    -0.199 C  
HETATM   35  C   UNL     1     -11.404  12.043  68.808  1.00  0.00    -0.331 A  
HETATM   36  C   UNL     1      -9.563   7.882  66.924  1.00  0.00    -0.263 C  
HETATM   37  C   UNL     1      -8.277   8.194  67.678  1.00  0.00    -0.127 C  
HETATM   38  H   UNL     1      -7.163  10.053  67.568  1.00  0.00     0.000 HD 
HETATM   39  N   UNL     1      -8.072   9.637  67.773  1.00  0.00    -0.112 NA 
HETATM   40  C   UNL     1     -11.574  10.701  68.490  1.00  0.00    -0.279 A  
HETATM   41  C   UNL     1      -9.162  10.436  68.154  1.00  0.00    -0.145 A  
HETATM   42  C   UNL     1     -10.470   9.897  68.152  1.00  0.00    -0.256 A  
ENDBRANCH  28  31
ENDBRANCH  26  28
ENDBRANCH  13  26
ENDBRANCH   7  13
TORSDOF 8
ENDMDL
MODEL      382
REMARK 921   NORMALIZED FREE ENERGY PREDICTED BY IDOCK:   -1.31 KCAL/MOL
REMARK 922        TOTAL FREE ENERGY PREDICTED BY IDOCK:   -3.17 KCAL/MOL
REMARK 923 INTER-LIGAND FREE ENERGY PREDICTED BY IDOCK:   -7.96 KCAL/MOL
REMARK 924 INTRA-LIGAND FREE ENERGY PREDICTED BY IDOCK:    4.80 KCAL/MOL
REMARK 927      BINDING AFFINITY PREDICTED BY RF-SCORE:    0.00 PKD
ROOT
HETATM    1  C   UNL     1     -14.027  13.550  72.334  1.00  0.00    -0.638 C  
HETATM    2  C   UNL     1     -12.823  13.743  71.423  1.00  0.00    -0.449 C  
HETATM    3  C   UNL     1     -11.902  14.860  71.924  1.00  0.00    -0.416 C  
HETATM    4  C   UNL     1     -10.722  15.073  70.975  1.00  0.00     0.134 C  
HETATM    5  N   UNL     1     -11.131  15.223  69.551  1.00  0.00    -0.263 N  
HETATM    6  C   UNL     1     -12.060  14.185  69.056  1.00  0.00    -0.313 C  
HETATM    7  C   UNL     1     -10.961  16.486  68.968  1.00  0.00    -0.306 C  
HETATM    8  O   UNL     1     -10.513  17.402  69.672  1.00  0.00    -0.176 OA 
HETATM    9  O   UNL     1     -10.172  12.682  69.080  1.00  0.00     0.047 OA 
HETATM   10  C   UNL     1     -13.270  14.069  69.989  1.00  0.00     0.623 C  
HETATM   11  C   UNL     1     -11.478  12.787  68.823  1.00  0.00    -0.304 C  
HETATM   12  O   UNL     1     -12.135  11.832  68.440  1.00  0.00    -0.490 OA 
ENDROOT
BRANCH   7  13
HETATM   13  C   UNL     1     -11.184  16.802  67.446  1.00  0.00     0.142 C  
BRANCH  13  14
HETATM   14  C   UNL     1     -10.426  15.973  66.375  1.00  0.00    -0.313 C  
BRANCH  14  15
HETATM   15  C   UNL     1     -11.258  14.793  65.833  1.00  0.00    -0.340 C  
BRANCH  15  16
HETATM   16  C   UNL     1     -11.086  14.548  64.326  1.00  0.00    -0.005 C  
BRANCH  16  17
HETATM   17  N   UNL     1     -10.319  13.330  64.144  1.00  0.00    -0.636 NA 
HETATM   18  H2  UNL     1      -8.982  11.361  63.572  1.00  0.00     0.000 HD 
HETATM   19  H1  UNL     1     -10.116  10.226  64.400  1.00  0.00     0.000 HD 
HETATM   20  N   UNL     1     -11.728  11.744  65.208  1.00  0.00    -0.202 NA 
HETATM   21  N   UNL     1      -9.826  11.160  64.110  1.00  0.00    -0.266 NA 
HETATM   22  C   UNL     1     -10.702  12.094  64.528  1.00  0.00    -0.310 C  
HETATM   23  H   UNL     1      -9.411  13.415  63.685  1.00  0.00     0.000 HD 
HETATM   24  H1  UNL     1     -12.018  10.810  65.498  1.00  0.00     0.000 HD 
HETATM   25  H2  UNL     1     -12.341  12.505  65.499  1.00  0.00     0.000 HD 
ENDBRANCH  16  17
ENDBRANCH  15  16
ENDBRANCH  14  15
ENDBRANCH  13  14
BRANCH  13  26
HETATM   26  N   UNL     1     -11.023  18.245  67.117  1.00  0.00    -0.194 N  
HETATM   27  H   UNL     1     -11.603  18.683  66.400  1.00  0.00     0.000 HD 
BRANCH  26  28
HETATM   28  S   UNL     1      -9.852  19.154  67.963  1.00  0.00    -0.381 S  
HETATM   29  O   UNL     1      -9.926  18.796  69.355  1.00  0.00    -0.208 OA 
HETATM   30  O   UNL     1     -10.067  20.526  67.549  1.00  0.00    -0.401 OA 
BRANCH  28  31
HETATM   31  C   UNL     1      -8.332  18.573  67.257  1.00  0.00    -0.253 A  
HETATM   32  C   UNL     1      -5.520  16.039  67.789  1.00  0.00    -0.160 C  
HETATM   33  C   UNL     1      -7.862  19.241  66.115  1.00  0.00    -0.313 A  
HETATM   34  C   UNL     1      -5.130  14.504  69.749  1.00  0.00    -0.091 C  
HETATM   35  C   UNL     1      -6.671  18.849  65.514  1.00  0.00    -0.292 A  
HETATM   36  C   UNL     1      -5.860  15.749  69.255  1.00  0.00    -0.118 C  
HETATM   37  C   UNL     1      -7.372  15.604  69.368  1.00  0.00    -0.216 C  
HETATM   38  H   UNL     1      -8.791  17.234  69.562  1.00  0.00     0.000 HD 
HETATM   39  N   UNL     1      -8.039  16.847  68.991  1.00  0.00    -0.209 NA 
HETATM   40  C   UNL     1      -5.948  17.788  66.049  1.00  0.00    -0.242 A  
HETATM   41  C   UNL     1      -7.617  17.494  67.819  1.00  0.00    -0.193 A  
HETATM   42  C   UNL     1      -6.402  17.117  67.199  1.00  0.00    -0.207 A  
ENDBRANCH  28  31
ENDBRANCH  26  28
ENDBRANCH  13  26
ENDBRANCH   7  13
TORSDOF 8
ENDMDL
MODEL      383
REMARK 921   NORMALIZED FREE ENERGY PREDICTED BY IDOCK:   -1.27 KCAL/MOL
REMARK 922        TOTAL FREE ENERGY PREDICTED BY IDOCK:   -3.12 KCAL/MOL
REMARK 923 INTER-LIGAND FREE ENERGY PREDICTED BY IDOCK:   -3.89 KCAL/MOL
REMARK 924 INTRA-LIGAND FREE ENERGY PREDICTED BY IDOCK:    0.77 KCAL/MOL
REMARK 927      BINDING AFFINITY PREDICTED BY RF-SCORE:    0.00 PKD
ROOT
HETATM    1  C   UNL     1     -10.335   6.417  70.448  1.00  0.00    -0.251 C  
HETATM    2  C   UNL     1      -9.785   7.356  69.384  1.00  0.00    -0.159 C  
HETATM    3  C   UNL     1      -8.373   7.842  69.727  1.00  0.00    -0.127 C  
HETATM    4  C   UNL     1      -7.853   8.820  68.673  1.00  0.00    -0.103 C  
HETATM    5  N   UNL     1      -8.809   9.919  68.365  1.00  0.00    -0.119 N  
HETATM    6  C   UNL     1     -10.192   9.480  68.079  1.00  0.00    -0.201 C  
HETATM    7  C   UNL     1      -8.449  11.211  68.771  1.00  0.00    -0.134 C  
HETATM    8  O   UNL     1      -7.382  11.358  69.383  1.00  0.00    -0.085 OA 
HETATM    9  O   UNL     1      -9.351   8.679  65.963  1.00  0.00    -0.212 OA 
HETATM   10  C   UNL     1     -10.704   8.575  69.205  1.00  0.00    -0.128 C  
HETATM   11  C   UNL     1     -10.435   8.785  66.735  1.00  0.00    -0.213 C  
HETATM   12  O   UNL     1     -11.520   8.352  66.381  1.00  0.00     1.998 OA 
ENDROOT
BRANCH   7  13
HETATM   13  C   UNL     1      -9.245  12.514  68.403  1.00  0.00    -0.139 C  
BRANCH  13  14
HETATM   14  C   UNL     1     -10.284  13.082  69.404  1.00  0.00     0.548 C  
BRANCH  14  15
HETATM   15  C   UNL     1     -11.200  11.992  69.999  1.00  0.00     0.093 C  
BRANCH  15  16
HETATM   16  C   UNL     1     -12.661  12.432  70.175  1.00  0.00     0.261 C  
BRANCH  16  17
HETATM   17  N   UNL     1     -12.821  12.969  71.514  1.00  0.00    -0.338 NA 
HETATM   18  H2  UNL     1     -13.337  13.742  73.778  1.00  0.00     0.000 HD 
HETATM   19  H1  UNL     1     -12.775  15.424  73.441  1.00  0.00     0.000 HD 
HETATM   20  N   UNL     1     -12.102  15.208  71.192  1.00  0.00    -0.304 NA 
HETATM   21  N   UNL     1     -12.947  14.457  73.164  1.00  0.00    -0.512 NA 
HETATM   22  C   UNL     1     -12.593  14.249  71.881  1.00  0.00    -0.315 C  
HETATM   23  H   UNL     1     -13.132  12.324  72.241  1.00  0.00     0.000 HD 
HETATM   24  H1  UNL     1     -11.930  16.175  71.469  1.00  0.00     0.000 HD 
HETATM   25  H2  UNL     1     -11.847  14.974  70.233  1.00  0.00     0.000 HD 
ENDBRANCH  16  17
ENDBRANCH  15  16
ENDBRANCH  14  15
ENDBRANCH  13  14
BRANCH  13  26
HETATM   26  N   UNL     1      -9.880  12.453  67.057  1.00  0.00    -0.208 N  
HETATM   27  H   UNL     1     -10.108  11.555  66.631  1.00  0.00     0.000 HD 
BRANCH  26  28
HETATM   28  S   UNL     1     -10.220  13.914  66.243  1.00  0.00    -0.304 S  
HETATM   29  O   UNL     1     -11.540  14.344  66.625  1.00  0.00    -0.357 OA 
HETATM   30  O   UNL     1      -9.910  13.652  64.852  1.00  0.00    -0.195 OA 
BRANCH  28  31
HETATM   31  C   UNL     1      -8.997  15.016  66.906  1.00  0.00    -0.251 A  
HETATM   32  C   UNL     1      -8.167  18.724  67.316  1.00  0.00    -0.276 C  
HETATM   33  C   UNL     1      -7.847  14.433  67.462  1.00  0.00    -0.207 A  
HETATM   34  C   UNL     1      -9.377  20.725  66.377  1.00  0.00     0.106 C  
HETATM   35  C   UNL     1      -6.840  15.234  67.990  1.00  0.00    -0.152 A  
HETATM   36  C   UNL     1      -9.176  19.216  66.273  1.00  0.00    -0.335 C  
HETATM   37  C   UNL     1     -10.478  18.454  66.481  1.00  0.00    -0.381 C  
HETATM   38  H   UNL     1     -10.928  16.479  65.703  1.00  0.00     0.000 HD 
HETATM   39  N   UNL     1     -10.277  17.023  66.270  1.00  0.00    -0.323 NA 
HETATM   40  C   UNL     1      -6.980  16.617  67.966  1.00  0.00    -0.156 A  
HETATM   41  C   UNL     1      -9.162  16.416  66.870  1.00  0.00    -0.218 A  
HETATM   42  C   UNL     1      -8.122  17.214  67.402  1.00  0.00    -0.193 A  
ENDBRANCH  28  31
ENDBRANCH  26  28
ENDBRANCH  13  26
ENDBRANCH   7  13
TORSDOF 8
ENDMDL
MODEL      384
REMARK 921   NORMALIZED FREE ENERGY PREDICTED BY IDOCK:   -1.06 KCAL/MOL
REMARK 922        TOTAL FREE ENERGY PREDICTED BY IDOCK:   -2.80 KCAL/MOL
REMARK 923 INTER-LIGAND FREE ENERGY PREDICTED BY IDOCK:   -2.44 KCAL/MOL
REMARK 924 INTRA-LIGAND FREE ENERGY PREDICTED BY IDOCK:   -0.36 KCAL/MOL
REMARK 927      BINDING AFFINITY PREDICTED BY RF-SCORE:    0.00 PKD
ROOT
HETATM    1  C   UNL     1      -6.179  20.662  69.286  1.00  0.00    -0.235 C  
HETATM    2  C   UNL     1      -6.752  19.584  68.378  1.00  0.00    -0.315 C  
HETATM    3  C   UNL     1      -7.936  20.102  67.555  1.00  0.00    -0.352 C  
HETATM    4  C   UNL     1      -8.529  18.996  66.682  1.00  0.00    -0.304 C  
HETATM    5  N   UNL     1      -8.820  17.744  67.433  1.00  0.00    -0.238 N  
HETATM    6  C   UNL     1      -7.709  17.249  68.275  1.00  0.00    -0.234 C  
HETATM    7  C   UNL     1     -10.168  17.403  67.610  1.00  0.00    -0.342 C  
HETATM    8  O   UNL     1     -11.031  18.171  67.161  1.00  0.00    -0.263 OA 
HETATM    9  O   UNL     1      -6.630  16.590  66.220  1.00  0.00    -0.130 OA 
HETATM   10  C   UNL     1      -7.205  18.366  69.197  1.00  0.00    -0.193 C  
HETATM   11  C   UNL     1      -6.511  16.628  67.548  1.00  0.00    -0.156 C  
HETATM   12  O   UNL     1      -5.518  16.203  68.116  1.00  0.00    -0.095 OA 
ENDROOT
BRANCH   7  13
HETATM   13  C   UNL     1     -10.671  16.052  68.233  1.00  0.00    -0.298 C  
BRANCH  13  14
HETATM   14  C   UNL     1     -11.723  15.204  67.470  1.00  0.00    -0.214 C  
BRANCH  14  15
HETATM   15  C   UNL     1     -11.320  14.927  66.007  1.00  0.00    -0.306 C  
BRANCH  15  16
HETATM   16  C   UNL     1     -10.419  13.695  65.831  1.00  0.00    -0.296 C  
BRANCH  16  17
HETATM   17  N   UNL     1     -10.844  12.982  64.640  1.00  0.00    -0.333 NA 
HETATM   18  H2  UNL     1     -11.641  12.030  62.530  1.00  0.00     0.000 HD 
HETATM   19  H1  UNL     1     -12.448  10.637  63.348  1.00  0.00     0.000 HD 
HETATM   20  N   UNL     1     -11.932  11.104  65.599  1.00  0.00     0.559 NA 
HETATM   21  N   UNL     1     -11.901  11.498  63.362  1.00  0.00    -0.230 NA 
HETATM   22  C   UNL     1     -11.568  11.842  64.621  1.00  0.00    -0.250 C  
HETATM   23  H   UNL     1     -10.573  13.377  63.739  1.00  0.00     0.000 HD 
HETATM   24  H1  UNL     1     -12.479  10.243  65.585  1.00  0.00     0.000 HD 
HETATM   25  H2  UNL     1     -11.635  11.420  66.522  1.00  0.00     0.000 HD 
ENDBRANCH  16  17
ENDBRANCH  15  16
ENDBRANCH  14  15
ENDBRANCH  13  14
BRANCH  13  26
HETATM   26  N   UNL     1     -11.121  16.190  69.646  1.00  0.00    -0.328 N  
HETATM   27  H   UNL     1     -11.723  16.964  69.926  1.00  0.00     0.000 HD 
BRANCH  26  28
HETATM   28  S   UNL     1     -10.610  15.028  70.787  1.00  0.00     0.302 S  
HETATM   29  O   UNL     1     -11.616  14.935  71.813  1.00  0.00    -0.368 OA 
HETATM   30  O   UNL     1      -9.252  15.402  71.125  1.00  0.00     1.751 OA 
BRANCH  28  31
HETATM   31  C   UNL     1     -10.572  13.537  69.825  1.00  0.00     0.587 A  
HETATM   32  C   UNL     1      -8.220  11.284  67.825  1.00  0.00    -0.120 C  
HETATM   33  C   UNL     1     -11.797  12.888  69.605  1.00  0.00    -0.387 A  
HETATM   34  C   UNL     1      -5.799  11.658  67.235  1.00  0.00    -0.111 C  
HETATM   35  C   UNL     1     -11.847  11.722  68.850  1.00  0.00    -0.381 A  
HETATM   36  C   UNL     1      -7.092  12.314  67.712  1.00  0.00    -0.114 C  
HETATM   37  C   UNL     1      -6.923  12.980  69.071  1.00  0.00    -0.056 C  
HETATM   38  H   UNL     1      -8.101  14.639  69.825  1.00  0.00     0.000 HD 
HETATM   39  N   UNL     1      -8.141  13.690  69.452  1.00  0.00     0.495 NA 
HETATM   40  C   UNL     1     -10.675  11.200  68.314  1.00  0.00    -0.234 A  
HETATM   41  C   UNL     1      -9.369  13.028  69.292  1.00  0.00     0.899 A  
HETATM   42  C   UNL     1      -9.442  11.846  68.517  1.00  0.00    -0.151 A  
ENDBRANCH  28  31
ENDBRANCH  26  28
ENDBRANCH  13  26
ENDBRANCH   7  13
TORSDOF 8
ENDMDL
MODEL      385
REMARK 921   NORMALIZED FREE ENERGY PREDICTED BY IDOCK:   -0.81 KCAL/MOL
REMARK 922        TOTAL FREE ENERGY PREDICTED BY IDOCK:   -2.44 KCAL/MOL
REMARK 923 INTER-LIGAND FREE ENERGY PREDICTED BY IDOCK:   -3.59 KCAL/MOL
REMARK 924 INTRA-LIGAND FREE ENERGY PREDICTED BY IDOCK:    1.15 KCAL/MOL
REMARK 927      BINDING AFFINITY PREDICTED BY RF-SCORE:    0.00 PKD
ROOT
HETATM    1  C   UNL     1      -9.581  18.206  69.801  1.00  0.00     0.801 C  
HETATM    2  C   UNL     1      -9.186  17.561  68.481  1.00  0.00    -0.278 C  
HETATM    3  C   UNL     1     -10.397  17.343  67.567  1.00  0.00    -0.351 C  
HETATM    4  C   UNL     1      -9.992  16.654  66.264  1.00  0.00    -0.320 C  
HETATM    5  N   UNL     1      -9.170  15.431  66.476  1.00  0.00    -0.268 N  
HETATM    6  C   UNL     1      -8.022  15.601  67.393  1.00  0.00    -0.178 C  
HETATM    7  C   UNL     1      -9.762  14.201  66.157  1.00  0.00    -0.290 C  
HETATM    8  O   UNL     1     -10.932  14.201  65.751  1.00  0.00    -0.293 OA 
HETATM    9  O   UNL     1      -6.967  16.847  65.616  1.00  0.00     0.313 OA 
HETATM   10  C   UNL     1      -8.490  16.212  68.718  1.00  0.00    -0.236 C  
HETATM   11  C   UNL     1      -6.830  16.407  66.869  1.00  0.00    -0.196 C  
HETATM   12  O   UNL     1      -5.829  16.645  67.527  1.00  0.00    -0.127 OA 
ENDROOT
BRANCH   7  13
HETATM   13  C   UNL     1      -9.010  12.823  66.162  1.00  0.00     0.152 C  
BRANCH  13  14
HETATM   14  C   UNL     1      -8.674  12.131  64.814  1.00  0.00     1.223 C  
BRANCH  14  15
HETATM   15  C   UNL     1      -9.774  11.153  64.354  1.00  0.00    -0.312 C  
BRANCH  15  16
HETATM   16  C   UNL     1     -10.793  10.799  65.448  1.00  0.00     0.008 C  
BRANCH  16  17
HETATM   17  N   UNL     1     -11.880  11.758  65.390  1.00  0.00    -0.264 NA 
HETATM   18  H2  UNL     1     -13.804  13.264  65.535  1.00  0.00     0.000 HD 
HETATM   19  H1  UNL     1     -14.204  13.083  63.784  1.00  0.00     0.000 HD 
HETATM   20  N   UNL     1     -12.496  11.608  63.104  1.00  0.00    -0.949 NA 
HETATM   21  N   UNL     1     -13.636  12.878  64.606  1.00  0.00     0.220 NA 
HETATM   22  C   UNL     1     -12.633  12.030  64.303  1.00  0.00    -0.255 C  
HETATM   23  H   UNL     1     -12.094  12.271  66.246  1.00  0.00     0.000 HD 
HETATM   24  H1  UNL     1     -13.065  11.814  62.282  1.00  0.00     0.000 HD 
HETATM   25  H2  UNL     1     -11.710  10.979  62.947  1.00  0.00     0.000 HD 
ENDBRANCH  16  17
ENDBRANCH  15  16
ENDBRANCH  14  15
ENDBRANCH  13  14
BRANCH  13  26
HETATM   26  N   UNL     1      -9.640  11.814  67.058  1.00  0.00    -0.184 N  
HETATM   27  H   UNL     1     -10.420  11.243  66.731  1.00  0.00     0.000 HD 
BRANCH  26  28
HETATM   28  S   UNL     1      -9.034  11.630  68.643  1.00  0.00    -0.021 S  
HETATM   29  O   UNL     1      -9.357  12.819  69.387  1.00  0.00     0.770 OA 
HETATM   30  O   UNL     1      -7.653  11.227  68.474  1.00  0.00    -0.107 OA 
BRANCH  28  31
HETATM   31  C   UNL     1      -9.965  10.249  69.253  1.00  0.00    -0.227 A  
HETATM   32  C   UNL     1     -10.863   6.618  68.465  1.00  0.00    -0.319 C  
HETATM   33  C   UNL     1     -10.734  10.458  70.408  1.00  0.00    -0.186 A  
HETATM   34  C   UNL     1     -10.315   5.268  66.410  1.00  0.00    -0.315 C  
HETATM   35  C   UNL     1     -11.501   9.425  70.937  1.00  0.00    -0.382 A  
HETATM   36  C   UNL     1     -10.413   6.671  67.002  1.00  0.00    -0.369 C  
HETATM   37  C   UNL     1      -9.082   7.407  66.943  1.00  0.00    -0.141 C  
HETATM   38  H   UNL     1      -8.825   9.561  66.898  1.00  0.00     0.000 HD 
HETATM   39  N   UNL     1      -9.230   8.780  67.416  1.00  0.00    -0.135 NA 
HETATM   40  C   UNL     1     -11.500   8.182  70.315  1.00  0.00    -0.066 A  
HETATM   41  C   UNL     1      -9.948   8.997  68.603  1.00  0.00    -0.172 A  
HETATM   42  C   UNL     1     -10.742   7.962  69.150  1.00  0.00    -0.130 A  
ENDBRANCH  28  31
ENDBRANCH  26  28
ENDBRANCH  13  26
ENDBRANCH   7  13
TORSDOF 8
ENDMDL
MODEL      386
REMARK 921   NORMALIZED FREE ENERGY PREDICTED BY IDOCK:   -0.76 KCAL/MOL
REMARK 922        TOTAL FREE ENERGY PREDICTED BY IDOCK:   -2.37 KCAL/MOL
REMARK 923 INTER-LIGAND FREE ENERGY PREDICTED BY IDOCK:   -4.10 KCAL/MOL
REMARK 924 INTRA-LIGAND FREE ENERGY PREDICTED BY IDOCK:    1.74 KCAL/MOL
REMARK 927      BINDING AFFINITY PREDICTED BY RF-SCORE:    0.00 PKD
ROOT
HETATM    1  C   UNL     1     -11.969  16.280  72.434  1.00  0.00    -0.630 C  
HETATM    2  C   UNL     1     -11.392  15.527  71.244  1.00  0.00    -0.449 C  
HETATM    3  C   UNL     1      -9.916  15.870  71.014  1.00  0.00     1.517 C  
HETATM    4  C   UNL     1      -9.363  15.141  69.790  1.00  0.00    -0.005 C  
HETATM    5  N   UNL     1     -10.213  15.296  68.577  1.00  0.00    -0.220 N  
HETATM    6  C   UNL     1     -11.652  15.018  68.784  1.00  0.00    -0.335 C  
HETATM    7  C   UNL     1      -9.691  16.059  67.524  1.00  0.00    -0.228 C  
HETATM    8  O   UNL     1      -8.577  16.580  67.673  1.00  0.00    -0.179 OA 
HETATM    9  O   UNL     1     -11.040  12.687  68.909  1.00  0.00    -0.247 OA 
HETATM   10  C   UNL     1     -12.184  15.837  69.965  1.00  0.00    -0.309 C  
HETATM   11  C   UNL     1     -12.054  13.552  68.976  1.00  0.00    -0.291 C  
HETATM   12  O   UNL     1     -13.200  13.184  69.180  1.00  0.00     1.606 OA 
ENDROOT
BRANCH   7  13
HETATM   13  C   UNL     1     -10.364  16.207  66.113  1.00  0.00    -0.339 C  
BRANCH  13  14
HETATM   14  C   UNL     1     -10.137  15.110  65.040  1.00  0.00    -0.269 C  
BRANCH  14  15
HETATM   15  C   UNL     1     -10.255  13.682  65.610  1.00  0.00    -0.316 C  
BRANCH  15  16
HETATM   16  C   UNL     1      -8.903  13.001  65.874  1.00  0.00     0.619 C  
BRANCH  16  17
HETATM   17  N   UNL     1      -8.983  11.627  65.413  1.00  0.00    -0.405 NA 
HETATM   18  H2  UNL     1      -8.899   9.258  64.802  1.00  0.00     0.000 HD 
HETATM   19  H1  UNL     1      -9.151   9.599  63.047  1.00  0.00     0.000 HD 
HETATM   20  N   UNL     1      -9.320  11.949  63.086  1.00  0.00    -0.665 NA 
HETATM   21  N   UNL     1      -9.045   9.895  64.018  1.00  0.00    -0.248 NA 
HETATM   22  C   UNL     1      -9.124  11.235  64.128  1.00  0.00     0.035 C  
HETATM   23  H   UNL     1      -8.929  10.894  66.120  1.00  0.00     0.000 HD 
HETATM   24  H1  UNL     1      -9.426  11.653  62.115  1.00  0.00     0.000 HD 
HETATM   25  H2  UNL     1      -9.379  12.954  63.247  1.00  0.00     0.000 HD 
ENDBRANCH  16  17
ENDBRANCH  15  16
ENDBRANCH  14  15
ENDBRANCH  13  14
BRANCH  13  26
HETATM   26  N   UNL     1     -10.116  17.533  65.481  1.00  0.00     0.037 N  
HETATM   27  H   UNL     1     -10.058  17.623  64.467  1.00  0.00     0.000 HD 
BRANCH  26  28
HETATM   28  S   UNL     1      -9.932  18.900  66.488  1.00  0.00    -0.407 S  
HETATM   29  O   UNL     1     -10.448  18.569  67.791  1.00  0.00    -0.389 OA 
HETATM   30  O   UNL     1     -10.496  20.001  65.735  1.00  0.00    -0.477 OA 
BRANCH  28  31
HETATM   31  C   UNL     1      -8.170  19.092  66.554  1.00  0.00    -0.306 A  
HETATM   32  C   UNL     1      -5.289  19.792  68.966  1.00  0.00    -0.221 C  
HETATM   33  C   UNL     1      -7.476  19.041  65.335  1.00  0.00     0.254 A  
HETATM   34  C   UNL     1      -5.389  20.403  71.409  1.00  0.00    -0.318 C  
HETATM   35  C   UNL     1      -6.094  19.196  65.307  1.00  0.00    -0.297 A  
HETATM   36  C   UNL     1      -6.173  20.314  70.103  1.00  0.00    -0.349 C  
HETATM   37  C   UNL     1      -7.378  19.391  70.225  1.00  0.00     0.677 C  
HETATM   38  H   UNL     1      -9.185  19.500  69.028  1.00  0.00     0.000 HD 
HETATM   39  N   UNL     1      -8.169  19.410  68.997  1.00  0.00    -0.308 NA 
HETATM   40  C   UNL     1      -5.402  19.401  66.495  1.00  0.00    -0.165 A  
HETATM   41  C   UNL     1      -7.491  19.299  67.773  1.00  0.00    -0.257 A  
HETATM   42  C   UNL     1      -6.086  19.466  67.723  1.00  0.00    -0.220 A  
ENDBRANCH  28  31
ENDBRANCH  26  28
ENDBRANCH  13  26
ENDBRANCH   7  13
TORSDOF 8
ENDMDL
MODEL      387
REMARK 921   NORMALIZED FREE ENERGY PREDICTED BY IDOCK:   -0.64 KCAL/MOL
REMARK 922        TOTAL FREE ENERGY PREDICTED BY IDOCK:   -2.19 KCAL/MOL
REMARK 923 INTER-LIGAND FREE ENERGY PREDICTED BY IDOCK:   -3.29 KCAL/MOL
REMARK 924 INTRA-LIGAND FREE ENERGY PREDICTED BY IDOCK:    1.10 KCAL/MOL
REMARK 927      BINDING AFFINITY PREDICTED BY RF-SCORE:    0.00 PKD
ROOT
HETATM    1  C   UNL     1      -5.156  14.271  69.541  1.00  0.00    -0.090 C  
HETATM    2  C   UNL     1      -6.037  13.142  69.025  1.00  0.00    -0.089 C  
HETATM    3  C   UNL     1      -7.369  13.068  69.779  1.00  0.00     0.807 C  
HETATM    4  C   UNL     1      -8.223  11.902  69.280  1.00  0.00     0.519 C  
HETATM    5  N   UNL     1      -7.486  10.610  69.233  1.00  0.00    -0.119 N  
HETATM    6  C   UNL     1      -6.173  10.664  68.554  1.00  0.00    -0.049 C  
HETATM    7  C   UNL     1      -7.869   9.622  70.150  1.00  0.00    -0.174 C  
HETATM    8  O   UNL     1      -8.769   9.889  70.958  1.00  0.00     0.062 OA 
HETATM    9  O   UNL     1      -7.406  10.836  66.487  1.00  0.00    -0.125 OA 
HETATM   10  C   UNL     1      -5.317  11.790  69.146  1.00  0.00    -0.047 C  
HETATM   11  C   UNL     1      -6.187  10.803  67.028  1.00  0.00    -0.070 C  
HETATM   12  O   UNL     1      -5.179  10.884  66.344  1.00  0.00    -0.066 OA 
ENDROOT
BRANCH   7  13
HETATM   13  C   UNL     1      -7.323   8.149  70.154  1.00  0.00    -0.060 C  
BRANCH  13  14
HETATM   14  C   UNL     1      -5.871   7.873  69.679  1.00  0.00    -0.023 C  
BRANCH  14  15
HETATM   15  C   UNL     1      -5.211   6.698  70.430  1.00  0.00    -0.018 C  
BRANCH  15  16
HETATM   16  C   UNL     1      -5.869   6.370  71.779  1.00  0.00    -0.036 C  
BRANCH  16  17
HETATM   17  N   UNL     1      -6.052   7.608  72.514  1.00  0.00    -0.040 NA 
HETATM   18  H2  UNL     1      -6.095   9.756  73.685  1.00  0.00     0.000 HD 
HETATM   19  H1  UNL     1      -6.946   9.070  75.122  1.00  0.00     0.000 HD 
HETATM   20  N   UNL     1      -7.178   6.823  74.449  1.00  0.00    -0.094 NA 
HETATM   21  N   UNL     1      -6.525   8.985  74.196  1.00  0.00    -0.339 NA 
HETATM   22  C   UNL     1      -6.610   7.721  73.738  1.00  0.00    -0.089 C  
HETATM   23  H   UNL     1      -5.731   8.467  72.067  1.00  0.00     0.000 HD 
HETATM   24  H1  UNL     1      -7.599   6.908  75.375  1.00  0.00     0.000 HD 
HETATM   25  H2  UNL     1      -7.215   5.892  74.035  1.00  0.00     0.000 HD 
ENDBRANCH  16  17
ENDBRANCH  15  16
ENDBRANCH  14  15
ENDBRANCH  13  14
BRANCH  13  26
HETATM   26  N   UNL     1      -8.228   7.186  69.468  1.00  0.00    -0.130 N  
HETATM   27  H   UNL     1      -7.972   6.785  68.566  1.00  0.00     0.000 HD 
BRANCH  26  28
HETATM   28  S   UNL     1      -9.701   6.766  70.221  1.00  0.00    -0.171 S  
HETATM   29  O   UNL     1      -9.437   6.510  71.612  1.00  0.00    -0.157 OA 
HETATM   30  O   UNL     1     -10.272   5.732  69.383  1.00  0.00    -0.191 OA 
BRANCH  28  31
HETATM   31  C   UNL     1     -10.661   8.247  70.038  1.00  0.00    -0.235 A  
HETATM   32  C   UNL     1     -11.610  10.947  67.505  1.00  0.00    -0.102 C  
HETATM   33  C   UNL     1     -11.311   8.732  71.185  1.00  0.00    -0.345 A  
HETATM   34  C   UNL     1     -10.737  11.294  65.167  1.00  0.00    -0.312 C  
HETATM   35  C   UNL     1     -12.071   9.895  71.121  1.00  0.00    -0.466 A  
HETATM   36  C   UNL     1     -10.493  10.615  66.511  1.00  0.00    -0.285 C  
HETATM   37  C   UNL     1     -10.416   9.100  66.377  1.00  0.00    -0.071 C  
HETATM   38  H   UNL     1      -9.359   7.760  67.718  1.00  0.00     0.000 HD 
HETATM   39  N   UNL     1     -10.075   8.485  67.657  1.00  0.00    -0.198 NA 
HETATM   40  C   UNL     1     -12.185  10.575  69.914  1.00  0.00    -0.289 A  
HETATM   41  C   UNL     1     -10.761   8.920  68.803  1.00  0.00    -0.090 A  
HETATM   42  C   UNL     1     -11.529  10.107  68.761  1.00  0.00    -0.110 A  
ENDBRANCH  28  31
ENDBRANCH  26  28
ENDBRANCH  13  26
ENDBRANCH   7  13
TORSDOF 8
ENDMDL
MODEL      388
REMARK 921   NORMALIZED FREE ENERGY PREDICTED BY IDOCK:   -0.60 KCAL/MOL
REMARK 922        TOTAL FREE ENERGY PREDICTED BY IDOCK:   -2.12 KCAL/MOL
REMARK 923 INTER-LIGAND FREE ENERGY PREDICTED BY IDOCK:   -2.11 KCAL/MOL
REMARK 924 INTRA-LIGAND FREE ENERGY PREDICTED BY IDOCK:   -0.01 KCAL/MOL
REMARK 927      BINDING AFFINITY PREDICTED BY RF-SCORE:    0.00 PKD
ROOT
HETATM    1  C   UNL     1     -14.128  15.912  71.863  1.00  0.00    -0.030 C  
HETATM    2  C   UNL     1     -13.064  14.873  71.540  1.00  0.00    -0.434 C  
HETATM    3  C   UNL     1     -11.675  15.504  71.396  1.00  0.00    -0.470 C  
HETATM    4  C   UNL     1     -10.626  14.456  71.027  1.00  0.00     1.400 C  
HETATM    5  N   UNL     1     -11.023  13.606  69.871  1.00  0.00     0.146 N  
HETATM    6  C   UNL     1     -12.380  13.024  69.961  1.00  0.00    -0.152 C  
HETATM    7  C   UNL     1     -10.303  13.771  68.680  1.00  0.00    -0.224 C  
HETATM    8  O   UNL     1      -9.407  14.626  68.649  1.00  0.00    -0.199 OA 
HETATM    9  O   UNL     1     -11.479  11.539  71.636  1.00  0.00     1.590 OA 
HETATM   10  C   UNL     1     -13.409  14.124  70.244  1.00  0.00     0.411 C  
HETATM   11  C   UNL     1     -12.580  11.886  70.967  1.00  0.00    -0.283 C  
HETATM   12  O   UNL     1     -13.651  11.333  71.162  1.00  0.00     0.236 OA 
ENDROOT
BRANCH   7  13
HETATM   13  C   UNL     1     -10.466  12.865  67.407  1.00  0.00    -0.233 C  
BRANCH  13  14
HETATM   14  C   UNL     1     -11.882  12.616  66.824  1.00  0.00    -0.440 C  
BRANCH  14  15
HETATM   15  C   UNL     1     -12.305  13.691  65.801  1.00  0.00    -0.524 C  
BRANCH  15  16
HETATM   16  C   UNL     1     -11.180  14.123  64.849  1.00  0.00    -0.373 C  
BRANCH  16  17
HETATM   17  N   UNL     1     -10.500  12.933  64.371  1.00  0.00    -0.384 NA 
HETATM   18  H2  UNL     1      -9.119  11.081  63.563  1.00  0.00     0.000 HD 
HETATM   19  H1  UNL     1     -10.353  10.556  62.354  1.00  0.00     0.000 HD 
HETATM   20  N   UNL     1     -12.048  12.144  62.756  1.00  0.00    -0.238 NA 
HETATM   21  N   UNL     1     -10.023  11.172  63.098  1.00  0.00    -0.351 NA 
HETATM   22  C   UNL     1     -10.937  12.119  63.387  1.00  0.00    -0.412 C  
HETATM   23  H   UNL     1      -9.615  12.691  64.819  1.00  0.00     0.000 HD 
HETATM   24  H1  UNL     1     -12.378  11.528  62.012  1.00  0.00     0.000 HD 
HETATM   25  H2  UNL     1     -12.695  12.881  63.035  1.00  0.00     0.000 HD 
ENDBRANCH  16  17
ENDBRANCH  15  16
ENDBRANCH  14  15
ENDBRANCH  13  14
BRANCH  13  26
HETATM   26  N   UNL     1      -9.776  11.551  67.530  1.00  0.00    -0.178 N  
HETATM   27  H   UNL     1     -10.281  10.681  67.361  1.00  0.00     0.000 HD 
BRANCH  26  28
HETATM   28  S   UNL     1      -8.124  11.529  67.960  1.00  0.00    -0.144 S  
HETATM   29  O   UNL     1      -8.034  11.348  69.385  1.00  0.00     0.062 OA 
HETATM   30  O   UNL     1      -7.556  12.705  67.335  1.00  0.00    -0.144 OA 
BRANCH  28  31
HETATM   31  C   UNL     1      -7.529  10.086  67.117  1.00  0.00    -0.091 A  
HETATM   32  C   UNL     1      -6.379   6.490  67.712  1.00  0.00    -0.043 C  
HETATM   33  C   UNL     1      -7.311  10.199  65.735  1.00  0.00    -0.128 A  
HETATM   34  C   UNL     1      -6.019   5.290  69.899  1.00  0.00    -0.018 C  
HETATM   35  C   UNL     1      -6.833   9.113  65.009  1.00  0.00    -0.080 A  
HETATM   36  C   UNL     1      -6.178   6.649  69.223  1.00  0.00    -0.030 C  
HETATM   37  C   UNL     1      -7.366   7.424  69.777  1.00  0.00    -0.083 C  
HETATM   38  H   UNL     1      -7.584   9.582  69.774  1.00  0.00     0.000 HD 
HETATM   39  N   UNL     1      -7.430   8.759  69.191  1.00  0.00    -0.075 NA 
HETATM   40  C   UNL     1      -6.573   7.913  65.660  1.00  0.00    -0.042 A  
HETATM   41  C   UNL     1      -7.272   8.879  67.801  1.00  0.00    -0.084 A  
HETATM   42  C   UNL     1      -6.776   7.789  67.047  1.00  0.00    -0.068 A  
ENDBRANCH  28  31
ENDBRANCH  26  28
ENDBRANCH  13  26
ENDBRANCH   7  13
TORSDOF 8
ENDMDL
MODEL      389
REMARK 921   NORMALIZED FREE ENERGY PREDICTED BY IDOCK:   -0.54 KCAL/MOL
REMARK 922        TOTAL FREE ENERGY PREDICTED BY IDOCK:   -2.04 KCAL/MOL
REMARK 923 INTER-LIGAND FREE ENERGY PREDICTED BY IDOCK:   -0.79 KCAL/MOL
REMARK 924 INTRA-LIGAND FREE ENERGY PREDICTED BY IDOCK:   -1.25 KCAL/MOL
REMARK 927      BINDING AFFINITY PREDICTED BY RF-SCORE:    0.00 PKD
ROOT
HETATM    1  C   UNL     1      -7.792  11.876  64.829  1.00  0.00     2.374 C  
HETATM    2  C   UNL     1      -7.943  10.403  65.184  1.00  0.00    -0.134 C  
HETATM    3  C   UNL     1      -9.415   9.977  65.235  1.00  0.00    -0.323 C  
HETATM    4  C   UNL     1      -9.552   8.509  65.637  1.00  0.00     0.112 C  
HETATM    5  N   UNL     1      -8.780   8.157  66.861  1.00  0.00    -0.126 N  
HETATM    6  C   UNL     1      -7.369   8.601  66.858  1.00  0.00    -0.079 C  
HETATM    7  C   UNL     1      -9.516   7.845  68.012  1.00  0.00    -0.149 C  
HETATM    8  O   UNL     1     -10.752   7.907  67.953  1.00  0.00    -0.177 OA 
HETATM    9  O   UNL     1      -6.966   6.843  65.255  1.00  0.00    -0.050 OA 
HETATM   10  C   UNL     1      -7.286  10.098  66.539  1.00  0.00    -0.108 C  
HETATM   11  C   UNL     1      -6.406   7.844  65.938  1.00  0.00    -0.042 C  
HETATM   12  O   UNL     1      -5.223   8.119  65.819  1.00  0.00    -0.027 OA 
ENDROOT
BRANCH   7  13
HETATM   13  C   UNL     1      -8.893   7.302  69.347  1.00  0.00    -0.137 C  
BRANCH  13  14
HETATM   14  C   UNL     1      -9.664   6.237  70.172  1.00  0.00    -0.187 C  
BRANCH  14  15
HETATM   15  C   UNL     1      -8.749   5.441  71.125  1.00  0.00    -0.135 C  
BRANCH  15  16
HETATM   16  C   UNL     1      -7.783   4.485  70.410  1.00  0.00    -0.053 C  
BRANCH  16  17
HETATM   17  N   UNL     1      -8.536   3.712  69.439  1.00  0.00    -0.063 NA 
HETATM   18  H2  UNL     1      -9.738   2.183  67.953  1.00  0.00     0.000 HD 
HETATM   19  H1  UNL     1      -9.119   2.987  66.460  1.00  0.00     0.000 HD 
HETATM   20  N   UNL     1      -7.797   4.693  67.409  1.00  0.00    -0.090 NA 
HETATM   21  N   UNL     1      -9.185   2.895  67.474  1.00  0.00    -0.187 NA 
HETATM   22  C   UNL     1      -8.449   3.835  68.097  1.00  0.00    -0.093 C  
HETATM   23  H   UNL     1      -9.188   3.016  69.802  1.00  0.00     0.000 HD 
HETATM   24  H1  UNL     1      -7.731   4.785  66.394  1.00  0.00     0.000 HD 
HETATM   25  H2  UNL     1      -7.271   5.380  67.947  1.00  0.00     0.000 HD 
ENDBRANCH  16  17
ENDBRANCH  15  16
ENDBRANCH  14  15
ENDBRANCH  13  14
BRANCH  13  26
HETATM   26  N   UNL     1      -8.460   8.383  70.274  1.00  0.00    -0.122 N  
HETATM   27  H   UNL     1      -9.148   8.958  70.761  1.00  0.00     0.000 HD 
BRANCH  26  28
HETATM   28  S   UNL     1      -6.789   8.643  70.508  1.00  0.00    -0.046 S  
HETATM   29  O   UNL     1      -6.072   7.836  69.556  1.00  0.00    -0.032 OA 
HETATM   30  O   UNL     1      -6.574   8.462  71.929  1.00  0.00    -0.061 OA 
BRANCH  28  31
HETATM   31  C   UNL     1      -6.610  10.364  70.114  1.00  0.00    -0.146 A  
HETATM   32  C   UNL     1      -8.468  13.326  68.569  1.00  0.00    -0.067 C  
HETATM   33  C   UNL     1      -5.360  10.950  70.369  1.00  0.00    -0.084 A  
HETATM   34  C   UNL     1     -10.714  13.357  67.428  1.00  0.00    -0.269 C  
HETATM   35  C   UNL     1      -5.142  12.292  70.074  1.00  0.00    -0.082 A  
HETATM   36  C   UNL     1      -9.557  12.481  67.900  1.00  0.00    -0.206 C  
HETATM   37  C   UNL     1     -10.013  11.424  68.896  1.00  0.00    -0.131 C  
HETATM   38  H   UNL     1      -9.035   9.522  69.263  1.00  0.00     0.000 HD 
HETATM   39  N   UNL     1      -8.909  10.535  69.246  1.00  0.00    -0.153 NA 
HETATM   40  C   UNL     1      -6.170  13.051  69.527  1.00  0.00    -0.117 A  
HETATM   41  C   UNL     1      -7.669  11.113  69.560  1.00  0.00     0.117 A  
HETATM   42  C   UNL     1      -7.424  12.473  69.257  1.00  0.00     0.290 A  
ENDBRANCH  28  31
ENDBRANCH  26  28
ENDBRANCH  13  26
ENDBRANCH   7  13
TORSDOF 8
ENDMDL
MODEL      390
REMARK 921   NORMALIZED FREE ENERGY PREDICTED BY IDOCK:   -0.48 KCAL/MOL
REMARK 922        TOTAL FREE ENERGY PREDICTED BY IDOCK:   -1.95 KCAL/MOL
REMARK 923 INTER-LIGAND FREE ENERGY PREDICTED BY IDOCK:   -2.46 KCAL/MOL
REMARK 924 INTRA-LIGAND FREE ENERGY PREDICTED BY IDOCK:    0.51 KCAL/MOL
REMARK 927      BINDING AFFINITY PREDICTED BY RF-SCORE:    0.00 PKD
ROOT
HETATM    1  C   UNL     1      -5.565  16.244  67.676  1.00  0.00    -0.167 C  
HETATM    2  C   UNL     1      -6.449  15.187  68.322  1.00  0.00    -0.117 C  
HETATM    3  C   UNL     1      -5.742  14.487  69.488  1.00  0.00    -0.095 C  
HETATM    4  C   UNL     1      -6.624  13.398  70.097  1.00  0.00     0.204 C  
HETATM    5  N   UNL     1      -7.188  12.462  69.086  1.00  0.00    -0.004 N  
HETATM    6  C   UNL     1      -7.833  13.112  67.925  1.00  0.00    -0.151 C  
HETATM    7  C   UNL     1      -6.711  11.144  69.100  1.00  0.00    -0.092 C  
HETATM    8  O   UNL     1      -5.835  10.846  69.923  1.00  0.00    -0.056 OA 
HETATM    9  O   UNL     1      -9.637  13.682  69.424  1.00  0.00     0.427 OA 
HETATM   10  C   UNL     1      -6.880  14.132  67.292  1.00  0.00     0.165 C  
HETATM   11  C   UNL     1      -9.187  13.786  68.171  1.00  0.00    -0.199 C  
HETATM   12  O   UNL     1      -9.817  14.379  67.310  1.00  0.00    -0.240 OA 
ENDROOT
BRANCH   7  13
HETATM   13  C   UNL     1      -7.291   9.978  68.223  1.00  0.00    -0.078 C  
BRANCH  13  14
HETATM   14  C   UNL     1      -6.715   8.545  68.381  1.00  0.00    -0.064 C  
BRANCH  14  15
HETATM   15  C   UNL     1      -6.273   7.927  67.039  1.00  0.00    -0.054 C  
BRANCH  15  16
HETATM   16  C   UNL     1      -6.056   6.407  67.093  1.00  0.00    -0.025 C  
BRANCH  16  17
HETATM   17  N   UNL     1      -6.400   5.941  68.424  1.00  0.00    -0.042 NA 
HETATM   18  H2  UNL     1      -6.719   5.226  70.743  1.00  0.00     0.000 HD 
HETATM   19  H1  UNL     1      -7.571   3.709  70.264  1.00  0.00     0.000 HD 
HETATM   20  N   UNL     1      -7.542   3.924  67.917  1.00  0.00    -0.067 NA 
HETATM   21  N   UNL     1      -7.096   4.585  70.045  1.00  0.00    -0.048 NA 
HETATM   22  C   UNL     1      -7.030   4.782  68.714  1.00  0.00    -0.052 C  
HETATM   23  H   UNL     1      -6.144   6.541  69.208  1.00  0.00     0.000 HD 
HETATM   24  H1  UNL     1      -8.017   3.048  68.136  1.00  0.00     0.000 HD 
HETATM   25  H2  UNL     1      -7.463   4.144  66.924  1.00  0.00     0.000 HD 
ENDBRANCH  16  17
ENDBRANCH  15  16
ENDBRANCH  14  15
ENDBRANCH  13  14
BRANCH  13  26
HETATM   26  N   UNL     1      -7.336  10.303  66.770  1.00  0.00    -0.103 N  
HETATM   27  H   UNL     1      -6.505  10.645  66.288  1.00  0.00     0.000 HD 
BRANCH  26  28
HETATM   28  S   UNL     1      -8.806  10.092  65.927  1.00  0.00    -0.150 S  
HETATM   29  O   UNL     1      -8.517   9.431  64.682  1.00  0.00    -0.146 OA 
HETATM   30  O   UNL     1      -9.435  11.396  65.934  1.00  0.00    -0.216 OA 
BRANCH  28  31
HETATM   31  C   UNL     1      -9.712   9.010  67.003  1.00  0.00    -0.189 A  
HETATM   32  C   UNL     1     -11.748   8.966  70.237  1.00  0.00     0.030 C  
HETATM   33  C   UNL     1      -9.710   7.643  66.683  1.00  0.00    -0.283 A  
HETATM   34  C   UNL     1     -12.130  10.832  71.887  1.00  0.00     0.416 C  
HETATM   35  C   UNL     1     -10.388   6.734  67.487  1.00  0.00    -0.267 A  
HETATM   36  C   UNL     1     -11.266  10.333  70.732  1.00  0.00    -0.373 C  
HETATM   37  C   UNL     1     -11.285  11.295  69.552  1.00  0.00    -0.272 C  
HETATM   38  H   UNL     1      -9.723  11.500  68.059  1.00  0.00     0.000 HD 
HETATM   39  N   UNL     1     -10.367  10.848  68.507  1.00  0.00    -0.178 NA 
HETATM   40  C   UNL     1     -11.071   7.186  68.610  1.00  0.00    -0.005 A  
HETATM   41  C   UNL     1     -10.397   9.494  68.137  1.00  0.00    -0.208 A  
HETATM   42  C   UNL     1     -11.072   8.552  68.948  1.00  0.00     0.236 A  
ENDBRANCH  28  31
ENDBRANCH  26  28
ENDBRANCH  13  26
ENDBRANCH   7  13
TORSDOF 8
ENDMDL
MODEL      391
REMARK 921   NORMALIZED FREE ENERGY PREDICTED BY IDOCK:   -0.37 KCAL/MOL
REMARK 922        TOTAL FREE ENERGY PREDICTED BY IDOCK:   -1.79 KCAL/MOL
REMARK 923 INTER-LIGAND FREE ENERGY PREDICTED BY IDOCK:   -2.58 KCAL/MOL
REMARK 924 INTRA-LIGAND FREE ENERGY PREDICTED BY IDOCK:    0.79 KCAL/MOL
REMARK 927      BINDING AFFINITY PREDICTED BY RF-SCORE:    0.00 PKD
ROOT
HETATM    1  C   UNL     1     -14.133  15.927  71.860  1.00  0.00    -0.030 C  
HETATM    2  C   UNL     1     -13.107  14.836  71.591  1.00  0.00    -0.418 C  
HETATM    3  C   UNL     1     -11.677  15.388  71.586  1.00  0.00    -0.483 C  
HETATM    4  C   UNL     1     -10.661  14.290  71.270  1.00  0.00     1.910 C  
HETATM    5  N   UNL     1     -11.006  13.500  70.056  1.00  0.00     0.289 N  
HETATM    6  C   UNL     1     -12.396  12.997  70.012  1.00  0.00    -0.152 C  
HETATM    7  C   UNL     1     -10.178  13.657  68.936  1.00  0.00    -0.077 C  
HETATM    8  O   UNL     1      -9.236  14.458  69.010  1.00  0.00    -0.134 OA 
HETATM    9  O   UNL     1     -11.728  11.412  71.704  1.00  0.00     0.743 OA 
HETATM   10  C   UNL     1     -13.382  14.148  70.245  1.00  0.00     0.411 C  
HETATM   11  C   UNL     1     -12.747  11.844  70.958  1.00  0.00    -0.258 C  
HETATM   12  O   UNL     1     -13.860  11.350  71.043  1.00  0.00     0.938 OA 
ENDROOT
BRANCH   7  13
HETATM   13  C   UNL     1     -10.283  12.801  67.623  1.00  0.00    -0.219 C  
BRANCH  13  14
HETATM   14  C   UNL     1     -11.666  12.608  66.946  1.00  0.00    -0.453 C  
BRANCH  14  15
HETATM   15  C   UNL     1     -12.065  13.800  66.051  1.00  0.00    -0.470 C  
BRANCH  15  16
HETATM   16  C   UNL     1     -10.908  14.367  65.214  1.00  0.00    -0.361 C  
BRANCH  16  17
HETATM   17  N   UNL     1     -10.223  13.262  64.570  1.00  0.00    -0.592 NA 
HETATM   18  H2  UNL     1      -8.833  11.545  63.515  1.00  0.00     0.000 HD 
HETATM   19  H1  UNL     1     -10.015  11.264  62.181  1.00  0.00     0.000 HD 
HETATM   20  N   UNL     1     -11.704  12.797  62.775  1.00  0.00    -0.550 NA 
HETATM   21  N   UNL     1      -9.712  11.735  63.034  1.00  0.00    -0.341 NA 
HETATM   22  C   UNL     1     -10.624  12.639  63.441  1.00  0.00    -0.123 C  
HETATM   23  H   UNL     1      -9.365  12.926  65.007  1.00  0.00     0.000 HD 
HETATM   24  H1  UNL     1     -12.007  12.326  61.922  1.00  0.00     0.000 HD 
HETATM   25  H2  UNL     1     -12.353  13.490  63.147  1.00  0.00     0.000 HD 
ENDBRANCH  16  17
ENDBRANCH  15  16
ENDBRANCH  14  15
ENDBRANCH  13  14
BRANCH  13  26
HETATM   26  N   UNL     1      -9.633  11.466  67.740  1.00  0.00    -0.169 N  
HETATM   27  H   UNL     1      -9.174  11.186  68.607  1.00  0.00     0.000 HD 
BRANCH  26  28
HETATM   28  S   UNL     1      -9.672  10.414  66.397  1.00  0.00    -0.210 S  
HETATM   29  O   UNL     1      -8.447  10.583  65.659  1.00  0.00    -0.165 OA 
HETATM   30  O   UNL     1     -10.949  10.661  65.760  1.00  0.00    -0.023 OA 
BRANCH  28  31
HETATM   31  C   UNL     1      -9.713   8.814  67.163  1.00  0.00    -0.191 A  
HETATM   32  C   UNL     1      -8.671   5.175  66.634  1.00  0.00    -0.109 C  
HETATM   33  C   UNL     1     -10.392   8.711  68.388  1.00  0.00    -0.239 A  
HETATM   34  C   UNL     1      -7.661   4.105  64.589  1.00  0.00    -0.077 C  
HETATM   35  C   UNL     1     -10.476   7.486  69.042  1.00  0.00    -0.216 A  
HETATM   36  C   UNL     1      -8.423   5.312  65.128  1.00  0.00    -0.149 C  
HETATM   37  C   UNL     1      -7.667   6.613  64.891  1.00  0.00    -0.109 C  
HETATM   38  H   UNL     1      -8.559   8.584  64.728  1.00  0.00     0.000 HD 
HETATM   39  N   UNL     1      -8.466   7.758  65.319  1.00  0.00    -0.120 NA 
HETATM   40  C   UNL     1      -9.882   6.364  68.476  1.00  0.00    -0.145 A  
HETATM   41  C   UNL     1      -9.102   7.690  66.569  1.00  0.00    -0.167 A  
HETATM   42  C   UNL     1      -9.208   6.451  67.244  1.00  0.00    -0.122 A  
ENDBRANCH  28  31
ENDBRANCH  26  28
ENDBRANCH  13  26
ENDBRANCH   7  13
TORSDOF 8
ENDMDL
MODEL      392
REMARK 921   NORMALIZED FREE ENERGY PREDICTED BY IDOCK:   -0.02 KCAL/MOL
REMARK 922        TOTAL FREE ENERGY PREDICTED BY IDOCK:   -1.28 KCAL/MOL
REMARK 923 INTER-LIGAND FREE ENERGY PREDICTED BY IDOCK:   -0.62 KCAL/MOL
REMARK 924 INTRA-LIGAND FREE ENERGY PREDICTED BY IDOCK:   -0.66 KCAL/MOL
REMARK 927      BINDING AFFINITY PREDICTED BY RF-SCORE:    0.00 PKD
ROOT
HETATM    1  C   UNL     1      -7.821  11.787  64.805  1.00  0.00     2.005 C  
HETATM    2  C   UNL     1      -7.974  10.304  65.109  1.00  0.00    -0.147 C  
HETATM    3  C   UNL     1      -9.441   9.863  65.075  1.00  0.00    -0.343 C  
HETATM    4  C   UNL     1      -9.583   8.382  65.427  1.00  0.00     0.484 C  
HETATM    5  N   UNL     1      -8.870   8.002  66.677  1.00  0.00    -0.138 N  
HETATM    6  C   UNL     1      -7.465   8.459  66.758  1.00  0.00    -0.083 C  
HETATM    7  C   UNL     1      -9.659   7.650  67.780  1.00  0.00    -0.144 C  
HETATM    8  O   UNL     1     -10.891   7.703  67.662  1.00  0.00    -0.197 OA 
HETATM    9  O   UNL     1      -6.964   6.751  65.127  1.00  0.00    -0.052 OA 
HETATM   10  C   UNL     1      -7.382   9.965  66.486  1.00  0.00    -0.099 C  
HETATM   11  C   UNL     1      -6.450   7.737  65.865  1.00  0.00    -0.042 C  
HETATM   12  O   UNL     1      -5.265   8.027  65.814  1.00  0.00    -0.028 OA 
ENDROOT
BRANCH   7  13
HETATM   13  C   UNL     1      -9.098   7.073  69.129  1.00  0.00    -0.136 C  
BRANCH  13  14
HETATM   14  C   UNL     1      -9.873   5.944  69.858  1.00  0.00    -0.223 C  
BRANCH  14  15
HETATM   15  C   UNL     1     -11.399   6.041  69.658  1.00  0.00    -0.328 C  
BRANCH  15  16
HETATM   16  C   UNL     1     -12.096   7.010  70.625  1.00  0.00    -0.284 C  
BRANCH  16  17
HETATM   17  N   UNL     1     -11.815   6.584  71.984  1.00  0.00    -0.322 NA 
HETATM   18  H2  UNL     1     -11.599   5.754  74.276  1.00  0.00     0.000 HD 
HETATM   19  H1  UNL     1     -10.831   7.280  74.863  1.00  0.00     0.000 HD 
HETATM   20  N   UNL     1     -10.789   8.533  72.867  1.00  0.00     0.005 NA 
HETATM   21  N   UNL     1     -11.246   6.701  74.132  1.00  0.00     0.716 NA 
HETATM   22  C   UNL     1     -11.266   7.349  72.951  1.00  0.00    -0.319 C  
HETATM   23  H   UNL     1     -12.052   5.622  72.229  1.00  0.00     0.000 HD 
HETATM   24  H1  UNL     1     -10.375   9.112  73.598  1.00  0.00     0.000 HD 
HETATM   25  H2  UNL     1     -10.829   8.957  71.941  1.00  0.00     0.000 HD 
ENDBRANCH  16  17
ENDBRANCH  15  16
ENDBRANCH  14  15
ENDBRANCH  13  14
BRANCH  13  26
HETATM   26  N   UNL     1      -8.767   8.129  70.126  1.00  0.00    -0.129 N  
HETATM   27  H   UNL     1      -9.508   8.630  70.617  1.00  0.00     0.000 HD 
BRANCH  26  28
HETATM   28  S   UNL     1      -7.126   8.486  70.430  1.00  0.00    -0.042 S  
HETATM   29  O   UNL     1      -6.325   7.751  69.487  1.00  0.00    -0.033 OA 
HETATM   30  O   UNL     1      -6.953   8.280  71.854  1.00  0.00    -0.072 OA 
BRANCH  28  31
HETATM   31  C   UNL     1      -7.041  10.224  70.087  1.00  0.00    -0.148 A  
HETATM   32  C   UNL     1      -9.077  13.134  68.672  1.00  0.00     0.038 C  
HETATM   33  C   UNL     1      -5.817  10.865  70.334  1.00  0.00    -0.128 A  
HETATM   34  C   UNL     1     -11.346  13.087  67.578  1.00  0.00    -0.346 C  
HETATM   35  C   UNL     1      -5.672  12.224  70.077  1.00  0.00    -0.141 A  
HETATM   36  C   UNL     1     -10.137  12.257  67.999  1.00  0.00    -0.206 C  
HETATM   37  C   UNL     1     -10.519  11.148  68.971  1.00  0.00    -0.206 C  
HETATM   38  H   UNL     1      -9.440   9.288  69.259  1.00  0.00     0.000 HD 
HETATM   39  N   UNL     1      -9.365  10.306  69.271  1.00  0.00    -0.203 NA 
HETATM   40  C   UNL     1      -6.748  12.946  69.575  1.00  0.00     0.031 A  
HETATM   41  C   UNL     1      -8.148  10.935  69.578  1.00  0.00     0.101 A  
HETATM   42  C   UNL     1      -7.977  12.315  69.312  1.00  0.00     0.536 A  
ENDBRANCH  28  31
ENDBRANCH  26  28
ENDBRANCH  13  26
ENDBRANCH   7  13
TORSDOF 8
ENDMDL
MODEL      393
REMARK 921   NORMALIZED FREE ENERGY PREDICTED BY IDOCK:    0.07 KCAL/MOL
REMARK 922        TOTAL FREE ENERGY PREDICTED BY IDOCK:   -1.14 KCAL/MOL
REMARK 923 INTER-LIGAND FREE ENERGY PREDICTED BY IDOCK:   -1.67 KCAL/MOL
REMARK 924 INTRA-LIGAND FREE ENERGY PREDICTED BY IDOCK:    0.52 KCAL/MOL
REMARK 927      BINDING AFFINITY PREDICTED BY RF-SCORE:    0.00 PKD
ROOT
HETATM    1  C   UNL     1      -5.182  10.126  62.504  1.00  0.00    -0.098 C  
HETATM    2  C   UNL     1      -6.451   9.623  63.176  1.00  0.00    -0.108 C  
HETATM    3  C   UNL     1      -7.709  10.061  62.419  1.00  0.00    -0.140 C  
HETATM    4  C   UNL     1      -8.977   9.588  63.131  1.00  0.00    -0.194 C  
HETATM    5  N   UNL     1      -8.999   9.925  64.581  1.00  0.00    -0.204 N  
HETATM    6  C   UNL     1      -7.776   9.557  65.326  1.00  0.00    -0.111 C  
HETATM    7  C   UNL     1      -9.930  10.886  64.999  1.00  0.00    -0.298 C  
HETATM    8  O   UNL     1     -10.652  11.415  64.143  1.00  0.00    -0.318 OA 
HETATM    9  O   UNL     1      -8.515   7.268  65.134  1.00  0.00    -0.115 OA 
HETATM   10  C   UNL     1      -6.538  10.128  64.625  1.00  0.00    -0.125 C  
HETATM   11  C   UNL     1      -7.550   8.066  65.595  1.00  0.00    -0.084 C  
HETATM   12  O   UNL     1      -6.572   7.622  66.176  1.00  0.00    -0.048 OA 
ENDROOT
BRANCH   7  13
HETATM   13  C   UNL     1     -10.212  11.259  66.498  1.00  0.00    -0.228 C  
BRANCH  13  14
HETATM   14  C   UNL     1     -11.668  11.550  66.951  1.00  0.00    -0.038 C  
BRANCH  14  15
HETATM   15  C   UNL     1     -11.922  13.047  67.221  1.00  0.00    -0.379 C  
BRANCH  15  16
HETATM   16  C   UNL     1     -11.292  13.985  66.180  1.00  0.00    -0.321 C  
BRANCH  16  17
HETATM   17  N   UNL     1     -10.379  14.882  66.863  1.00  0.00    -0.261 NA 
HETATM   18  H2  UNL     1      -8.759  16.173  68.167  1.00  0.00     0.000 HD 
HETATM   19  H1  UNL     1      -9.894  17.558  68.395  1.00  0.00     0.000 HD 
HETATM   20  N   UNL     1     -11.777  16.766  67.219  1.00  0.00     0.762 NA 
HETATM   21  N   UNL     1      -9.658  16.634  68.031  1.00  0.00    -0.223 NA 
HETATM   22  C   UNL     1     -10.690  16.104  67.346  1.00  0.00    -0.291 C  
HETATM   23  H   UNL     1      -9.419  14.562  66.990  1.00  0.00     0.000 HD 
HETATM   24  H1  UNL     1     -12.013  17.689  67.584  1.00  0.00     0.000 HD 
HETATM   25  H2  UNL     1     -12.511  16.307  66.680  1.00  0.00     0.000 HD 
ENDBRANCH  16  17
ENDBRANCH  15  16
ENDBRANCH  14  15
ENDBRANCH  13  14
BRANCH  13  26
HETATM   26  N   UNL     1      -9.340  12.355  67.003  1.00  0.00    -0.198 N  
HETATM   27  H   UNL     1      -9.161  13.182  66.433  1.00  0.00     0.000 HD 
BRANCH  26  28
HETATM   28  S   UNL     1      -8.647  12.203  68.556  1.00  0.00    -0.017 S  
HETATM   29  O   UNL     1      -8.456  13.525  69.093  1.00  0.00     0.248 OA 
HETATM   30  O   UNL     1      -7.516  11.315  68.378  1.00  0.00    -0.095 OA 
BRANCH  28  31
HETATM   31  C   UNL     1      -9.912  11.347  69.458  1.00  0.00     0.408 A  
HETATM   32  C   UNL     1     -11.522   7.908  69.894  1.00  0.00     0.132 C  
HETATM   33  C   UNL     1     -10.714  12.116  70.317  1.00  0.00     1.585 A  
HETATM   34  C   UNL     1     -11.109   5.796  68.583  1.00  0.00    -0.061 C  
HETATM   35  C   UNL     1     -11.734  11.516  71.048  1.00  0.00     0.349 A  
HETATM   36  C   UNL     1     -10.945   7.313  68.605  1.00  0.00    -0.033 C  
HETATM   37  C   UNL     1      -9.483   7.727  68.507  1.00  0.00    -0.148 C  
HETATM   38  H   UNL     1      -8.751   9.618  67.733  1.00  0.00     0.000 HD 
HETATM   39  N   UNL     1      -9.364   9.180  68.422  1.00  0.00    -0.135 NA 
HETATM   40  C   UNL     1     -11.955  10.149  70.924  1.00  0.00    -0.461 A  
HETATM   41  C   UNL     1     -10.116   9.959  69.316  1.00  0.00    -0.203 A  
HETATM   42  C   UNL     1     -11.166   9.369  70.059  1.00  0.00    -0.217 A  
ENDBRANCH  28  31
ENDBRANCH  26  28
ENDBRANCH  13  26
ENDBRANCH   7  13
TORSDOF 8
ENDMDL
MODEL      394
REMARK 921   NORMALIZED FREE ENERGY PREDICTED BY IDOCK:    0.45 KCAL/MOL
REMARK 922        TOTAL FREE ENERGY PREDICTED BY IDOCK:   -0.59 KCAL/MOL
REMARK 923 INTER-LIGAND FREE ENERGY PREDICTED BY IDOCK:   -1.83 KCAL/MOL
REMARK 924 INTRA-LIGAND FREE ENERGY PREDICTED BY IDOCK:    1.24 KCAL/MOL
REMARK 927      BINDING AFFINITY PREDICTED BY RF-SCORE:    0.00 PKD
ROOT
HETATM    1  C   UNL     1      -7.806   8.262  64.536  1.00  0.00    -0.130 C  
HETATM    2  C   UNL     1      -8.960   9.120  65.034  1.00  0.00    -0.221 C  
HETATM    3  C   UNL     1      -9.774   9.709  63.877  1.00  0.00     0.426 C  
HETATM    4  C   UNL     1     -10.901  10.604  64.391  1.00  0.00     0.299 C  
HETATM    5  N   UNL     1     -10.444  11.617  65.382  1.00  0.00    -0.265 N  
HETATM    6  C   UNL     1      -9.615  11.082  66.484  1.00  0.00    -0.195 C  
HETATM    7  C   UNL     1     -10.468  12.959  64.981  1.00  0.00    -0.318 C  
HETATM    8  O   UNL     1     -10.836  13.220  63.827  1.00  0.00    -0.259 OA 
HETATM    9  O   UNL     1     -11.647  10.122  67.361  1.00  0.00    -0.093 OA 
HETATM   10  C   UNL     1      -8.446  10.266  65.919  1.00  0.00    -0.154 C  
HETATM   11  C   UNL     1     -10.332  10.247  67.550  1.00  0.00    -0.229 C  
HETATM   12  O   UNL     1      -9.767   9.726  68.498  1.00  0.00    -0.150 OA 
ENDROOT
BRANCH   7  13
HETATM   13  C   UNL     1     -10.176  14.178  65.927  1.00  0.00    -0.319 C  
BRANCH  13  14
HETATM   14  C   UNL     1     -10.751  15.575  65.573  1.00  0.00    -0.395 C  
BRANCH  14  15
HETATM   15  C   UNL     1      -9.809  16.398  64.671  1.00  0.00     1.954 C  
BRANCH  15  16
HETATM   16  C   UNL     1      -9.017  17.481  65.419  1.00  0.00     1.358 C  
BRANCH  16  17
HETATM   17  N   UNL     1      -9.944  18.251  66.228  1.00  0.00    -0.439 NA 
HETATM   18  H2  UNL     1     -11.707  19.376  67.500  1.00  0.00     0.000 HD 
HETATM   19  H1  UNL     1     -11.111  21.023  67.063  1.00  0.00     0.000 HD 
HETATM   20  N   UNL     1      -9.248  20.465  65.732  1.00  0.00    -0.525 NA 
HETATM   21  N   UNL     1     -11.057  20.004  67.028  1.00  0.00    -0.017 NA 
HETATM   22  C   UNL     1     -10.015  19.599  66.275  1.00  0.00    -0.466 C  
HETATM   23  H   UNL     1     -10.599  17.729  66.811  1.00  0.00     0.000 HD 
HETATM   24  H1  UNL     1      -9.301  21.483  65.768  1.00  0.00     0.000 HD 
HETATM   25  H2  UNL     1      -8.475  20.085  65.186  1.00  0.00     0.000 HD 
ENDBRANCH  16  17
ENDBRANCH  15  16
ENDBRANCH  14  15
ENDBRANCH  13  14
BRANCH  13  26
HETATM   26  N   UNL     1      -8.731  14.337  66.248  1.00  0.00    -0.409 N  
HETATM   27  H   UNL     1      -8.047  14.487  65.506  1.00  0.00     0.000 HD 
BRANCH  26  28
HETATM   28  S   UNL     1      -8.240  14.265  67.882  1.00  0.00    -0.172 S  
HETATM   29  O   UNL     1      -6.827  14.539  67.937  1.00  0.00    -0.131 OA 
HETATM   30  O   UNL     1      -8.761  13.008  68.377  1.00  0.00    -0.172 OA 
BRANCH  28  31
HETATM   31  C   UNL     1      -9.154  15.596  68.616  1.00  0.00    -0.205 A  
HETATM   32  C   UNL     1     -12.370  16.364  70.533  1.00  0.00     0.802 C  
HETATM   33  C   UNL     1      -8.636  16.891  68.455  1.00  0.00    -0.251 A  
HETATM   34  C   UNL     1     -14.281  14.819  71.092  1.00  0.00    -0.298 C  
HETATM   35  C   UNL     1      -9.306  17.985  68.993  1.00  0.00    -0.083 A  
HETATM   36  C   UNL     1     -13.055  15.033  70.208  1.00  0.00    -0.124 C  
HETATM   37  C   UNL     1     -12.030  13.920  70.380  1.00  0.00    -0.323 C  
HETATM   38  H   UNL     1     -10.566  13.307  68.901  1.00  0.00     0.000 HD 
HETATM   39  N   UNL     1     -10.921  14.093  69.446  1.00  0.00    -0.218 NA 
HETATM   40  C   UNL     1     -10.491  17.790  69.692  1.00  0.00     0.421 A  
HETATM   41  C   UNL     1     -10.355  15.372  69.321  1.00  0.00    -0.253 A  
HETATM   42  C   UNL     1     -11.027  16.499  69.850  1.00  0.00    -0.273 A  
ENDBRANCH  28  31
ENDBRANCH  26  28
ENDBRANCH  13  26
ENDBRANCH   7  13
TORSDOF 8
ENDMDL
MODEL      395
REMARK 921   NORMALIZED FREE ENERGY PREDICTED BY IDOCK:    1.61 KCAL/MOL
REMARK 922        TOTAL FREE ENERGY PREDICTED BY IDOCK:    1.12 KCAL/MOL
REMARK 923 INTER-LIGAND FREE ENERGY PREDICTED BY IDOCK:   -2.02 KCAL/MOL
REMARK 924 INTRA-LIGAND FREE ENERGY PREDICTED BY IDOCK:    3.14 KCAL/MOL
REMARK 927      BINDING AFFINITY PREDICTED BY RF-SCORE:    0.00 PKD
ROOT
HETATM    1  C   UNL     1      -5.128  13.747  68.908  1.00  0.00    -0.072 C  
HETATM    2  C   UNL     1      -6.302  12.848  68.547  1.00  0.00    -0.079 C  
HETATM    3  C   UNL     1      -7.446  12.972  69.558  1.00  0.00     0.589 C  
HETATM    4  C   UNL     1      -8.599  12.031  69.208  1.00  0.00     0.733 C  
HETATM    5  N   UNL     1      -8.162  10.629  68.963  1.00  0.00    -0.147 N  
HETATM    6  C   UNL     1      -7.025  10.484  68.028  1.00  0.00    -0.074 C  
HETATM    7  C   UNL     1      -8.548   9.665  69.904  1.00  0.00    -0.203 C  
HETATM    8  O   UNL     1      -9.198  10.037  70.891  1.00  0.00     0.150 OA 
HETATM    9  O   UNL     1      -8.581  11.043  66.270  1.00  0.00    -0.159 OA 
HETATM   10  C   UNL     1      -5.861  11.378  68.468  1.00  0.00    -0.042 C  
HETATM   11  C   UNL     1      -7.311  10.738  66.544  1.00  0.00    -0.139 C  
HETATM   12  O   UNL     1      -6.462  10.678  65.669  1.00  0.00    -0.126 OA 
ENDROOT
BRANCH   7  13
HETATM   13  C   UNL     1      -8.320   8.120  69.743  1.00  0.00    -0.124 C  
BRANCH  13  14
HETATM   14  C   UNL     1      -7.201   7.608  68.797  1.00  0.00    -0.082 C  
BRANCH  14  15
HETATM   15  C   UNL     1      -6.649   6.230  69.214  1.00  0.00    -0.044 C  
BRANCH  15  16
HETATM   16  C   UNL     1      -7.004   5.094  68.242  1.00  0.00    -0.061 C  
BRANCH  16  17
HETATM   17  N   UNL     1      -7.136   5.655  66.910  1.00  0.00    -0.069 NA 
HETATM   18  H2  UNL     1      -7.222   6.826  64.762  1.00  0.00     0.000 HD 
HETATM   19  H1  UNL     1      -8.946   6.377  64.472  1.00  0.00     0.000 HD 
HETATM   20  N   UNL     1      -9.394   5.119  66.414  1.00  0.00    -0.139 NA 
HETATM   21  N   UNL     1      -8.092   6.367  65.031  1.00  0.00    -0.134 NA 
HETATM   22  C   UNL     1      -8.266   5.669  66.170  1.00  0.00    -0.110 C  
HETATM   23  H   UNL     1      -6.303   6.076  66.497  1.00  0.00     0.000 HD 
HETATM   24  H1  UNL     1     -10.248   5.130  65.856  1.00  0.00     0.000 HD 
HETATM   25  H2  UNL     1      -9.449   4.599  67.290  1.00  0.00     0.000 HD 
ENDBRANCH  16  17
ENDBRANCH  15  16
ENDBRANCH  14  15
ENDBRANCH  13  14
BRANCH  13  26
HETATM   26  N   UNL     1      -9.570   7.372  69.432  1.00  0.00    -0.155 N  
HETATM   27  H   UNL     1      -9.561   6.597  68.769  1.00  0.00     0.000 HD 
BRANCH  26  28
HETATM   28  S   UNL     1     -11.018   7.835  70.209  1.00  0.00    -0.226 S  
HETATM   29  O   UNL     1     -10.742   7.996  71.612  1.00  0.00    -0.221 OA 
HETATM   30  O   UNL     1     -12.008   6.877  69.763  1.00  0.00    -0.105 OA 
BRANCH  28  31
HETATM   31  C   UNL     1     -11.365   9.408  69.465  1.00  0.00     0.057 A  
HETATM   32  C   UNL     1     -12.840  12.854  70.216  1.00  0.00     0.209 C  
HETATM   33  C   UNL     1     -11.090   9.541  68.095  1.00  0.00    -0.052 A  
HETATM   34  C   UNL     1     -13.990  13.655  72.310  1.00  0.00    -0.661 C  
HETATM   35  C   UNL     1     -11.348  10.741  67.440  1.00  0.00    -0.239 A  
HETATM   36  C   UNL     1     -13.536  12.434  71.515  1.00  0.00     0.206 C  
HETATM   37  C   UNL     1     -12.571  11.565  72.309  1.00  0.00     0.761 C  
HETATM   38  H   UNL     1     -12.249   9.438  72.021  1.00  0.00     0.000 HD 
HETATM   39  N   UNL     1     -12.239  10.352  71.566  1.00  0.00    -0.355 NA 
HETATM   40  C   UNL     1     -11.879  11.810  68.152  1.00  0.00    -0.324 A  
HETATM   41  C   UNL     1     -11.904  10.479  70.209  1.00  0.00    -0.331 A  
HETATM   42  C   UNL     1     -12.170  11.687  69.523  1.00  0.00    -0.257 A  
ENDBRANCH  28  31
ENDBRANCH  26  28
ENDBRANCH  13  26
ENDBRANCH   7  13
TORSDOF 8
ENDMDL
MODEL      396
REMARK 921   NORMALIZED FREE ENERGY PREDICTED BY IDOCK:    2.24 KCAL/MOL
REMARK 922        TOTAL FREE ENERGY PREDICTED BY IDOCK:    2.03 KCAL/MOL
REMARK 923 INTER-LIGAND FREE ENERGY PREDICTED BY IDOCK:   -0.35 KCAL/MOL
REMARK 924 INTRA-LIGAND FREE ENERGY PREDICTED BY IDOCK:    2.39 KCAL/MOL
REMARK 927      BINDING AFFINITY PREDICTED BY RF-SCORE:    0.00 PKD
ROOT
HETATM    1  C   UNL     1     -11.751   5.285  67.705  1.00  0.00     3.529 C  
HETATM    2  C   UNL     1     -11.014   6.402  68.431  1.00  0.00    -0.390 C  
HETATM    3  C   UNL     1     -11.934   7.158  69.396  1.00  0.00     0.619 C  
HETATM    4  C   UNL     1     -11.192   8.304  70.083  1.00  0.00    -0.132 C  
HETATM    5  N   UNL     1     -10.460   9.187  69.133  1.00  0.00    -0.216 N  
HETATM    6  C   UNL     1      -9.603   8.478  68.157  1.00  0.00    -0.143 C  
HETATM    7  C   UNL     1     -10.946  10.491  68.969  1.00  0.00    -0.243 C  
HETATM    8  O   UNL     1     -11.963  10.821  69.595  1.00  0.00    -0.300 OA 
HETATM    9  O   UNL     1      -8.104   8.048  69.999  1.00  0.00    -0.111 OA 
HETATM   10  C   UNL     1     -10.411   7.398  67.429  1.00  0.00    -0.366 C  
HETATM   11  C   UNL     1      -8.312   7.854  68.695  1.00  0.00    -0.128 C  
HETATM   12  O   UNL     1      -7.526   7.221  68.007  1.00  0.00    -0.097 OA 
ENDROOT
BRANCH   7  13
HETATM   13  C   UNL     1     -10.226  11.612  68.138  1.00  0.00    -0.197 C  
BRANCH  13  14
HETATM   14  C   UNL     1      -8.899  11.285  67.404  1.00  0.00    -0.145 C  
BRANCH  14  15
HETATM   15  C   UNL     1      -8.122  12.548  66.981  1.00  0.00    -0.105 C  
BRANCH  15  16
HETATM   16  C   UNL     1      -8.680  13.235  65.726  1.00  0.00     1.137 C  
BRANCH  16  17
HETATM   17  N   UNL     1      -8.866  12.228  64.697  1.00  0.00     0.419 NA 
HETATM   18  H2  UNL     1      -9.011  10.688  62.800  1.00  0.00     0.000 HD 
HETATM   19  H1  UNL     1     -10.791  10.462  62.990  1.00  0.00     0.000 HD 
HETATM   20  N   UNL     1     -11.202  11.844  64.855  1.00  0.00    -0.308 NA 
HETATM   21  N   UNL     1      -9.899  10.872  63.267  1.00  0.00    -0.339 NA 
HETATM   22  C   UNL     1     -10.047  11.686  64.330  1.00  0.00    -0.279 C  
HETATM   23  H   UNL     1      -8.032  11.903  64.208  1.00  0.00     0.000 HD 
HETATM   24  H1  UNL     1     -12.095  11.434  64.578  1.00  0.00     0.000 HD 
HETATM   25  H2  UNL     1     -11.236  12.466  65.662  1.00  0.00     0.000 HD 
ENDBRANCH  16  17
ENDBRANCH  15  16
ENDBRANCH  14  15
ENDBRANCH  13  14
BRANCH  13  26
HETATM   26  N   UNL     1     -10.036  12.877  68.901  1.00  0.00    -0.427 N  
HETATM   27  H   UNL     1      -9.204  13.018  69.473  1.00  0.00     0.000 HD 
BRANCH  26  28
HETATM   28  S   UNL     1     -11.237  14.086  68.799  1.00  0.00    -0.287 S  
HETATM   29  O   UNL     1     -12.079  13.786  67.670  1.00  0.00    -0.363 OA 
HETATM   30  O   UNL     1     -10.516  15.340  68.861  1.00  0.00    -0.225 OA 
BRANCH  28  31
HETATM   31  C   UNL     1     -12.134  13.863  70.313  1.00  0.00    -0.353 A  
HETATM   32  C   UNL     1     -12.967  15.588  73.621  1.00  0.00    -0.640 C  
HETATM   33  C   UNL     1     -12.767  12.624  70.503  1.00  0.00    -0.066 A  
HETATM   34  C   UNL     1     -12.075  17.759  74.536  1.00  0.00     0.782 C  
HETATM   35  C   UNL     1     -13.478  12.373  71.672  1.00  0.00    -0.123 A  
HETATM   36  C   UNL     1     -11.862  16.643  73.517  1.00  0.00    -0.226 C  
HETATM   37  C   UNL     1     -11.847  17.172  72.090  1.00  0.00     1.145 C  
HETATM   38  H   UNL     1     -10.849  16.241  70.403  1.00  0.00     0.000 HD 
HETATM   39  N   UNL     1     -11.534  16.103  71.146  1.00  0.00    -0.417 NA 
HETATM   40  C   UNL     1     -13.562  13.356  72.650  1.00  0.00    -0.543 A  
HETATM   41  C   UNL     1     -12.204  14.877  71.291  1.00  0.00    -0.325 A  
HETATM   42  C   UNL     1     -12.923  14.598  72.477  1.00  0.00    -0.492 A  
ENDBRANCH  28  31
ENDBRANCH  26  28
ENDBRANCH  13  26
ENDBRANCH   7  13
TORSDOF 8
ENDMDL
MODEL      397
REMARK 921   NORMALIZED FREE ENERGY PREDICTED BY IDOCK:    2.86 KCAL/MOL
REMARK 922        TOTAL FREE ENERGY PREDICTED BY IDOCK:    2.95 KCAL/MOL
REMARK 923 INTER-LIGAND FREE ENERGY PREDICTED BY IDOCK:   -4.16 KCAL/MOL
REMARK 924 INTRA-LIGAND FREE ENERGY PREDICTED BY IDOCK:    7.10 KCAL/MOL
REMARK 927      BINDING AFFINITY PREDICTED BY RF-SCORE:    0.00 PKD
ROOT
HETATM    1  C   UNL     1     -10.482  19.859  66.716  1.00  0.00    -0.575 C  
HETATM    2  C   UNL     1     -10.156  18.859  67.817  1.00  0.00    -0.430 C  
HETATM    3  C   UNL     1      -8.746  19.070  68.379  1.00  0.00    -0.381 C  
HETATM    4  C   UNL     1      -8.416  18.031  69.451  1.00  0.00     0.480 C  
HETATM    5  N   UNL     1      -8.690  16.633  69.020  1.00  0.00    -0.231 N  
HETATM    6  C   UNL     1     -10.027  16.412  68.427  1.00  0.00    -0.238 C  
HETATM    7  C   UNL     1      -7.582  15.797  68.823  1.00  0.00    -0.173 C  
HETATM    8  O   UNL     1      -6.450  16.274  68.988  1.00  0.00    -0.142 OA 
HETATM    9  O   UNL     1     -10.901  16.631  70.666  1.00  0.00    -0.091 OA 
HETATM   10  C   UNL     1     -10.278  17.418  67.299  1.00  0.00    -0.324 C  
HETATM   11  C   UNL     1     -11.222  16.434  69.386  1.00  0.00    -0.267 C  
HETATM   12  O   UNL     1     -12.381  16.291  69.030  1.00  0.00     0.104 OA 
ENDROOT
BRANCH   7  13
HETATM   13  C   UNL     1      -7.669  14.258  68.523  1.00  0.00    -0.137 C  
BRANCH  13  14
HETATM   14  C   UNL     1      -7.159  13.716  67.161  1.00  0.00     0.246 C  
BRANCH  14  15
HETATM   15  C   UNL     1      -8.269  13.645  66.092  1.00  0.00     1.392 C  
BRANCH  15  16
HETATM   16  C   UNL     1      -9.507  14.493  66.420  1.00  0.00    -0.291 C  
BRANCH  16  17
HETATM   17  N   UNL     1     -10.263  14.693  65.198  1.00  0.00    -0.394 NA 
HETATM   18  H2  UNL     1     -11.382  15.262  63.097  1.00  0.00     0.000 HD 
HETATM   19  H1  UNL     1     -13.023  14.894  63.754  1.00  0.00     0.000 HD 
HETATM   20  N   UNL     1     -12.466  14.230  65.946  1.00  0.00    -0.423 NA 
HETATM   21  N   UNL     1     -12.008  14.962  63.844  1.00  0.00    -0.354 NA 
HETATM   22  C   UNL     1     -11.605  14.603  65.079  1.00  0.00    -0.385 C  
HETATM   23  H   UNL     1      -9.734  14.922  64.355  1.00  0.00     0.000 HD 
HETATM   24  H1  UNL     1     -13.480  14.162  65.857  1.00  0.00     0.000 HD 
HETATM   25  H2  UNL     1     -12.087  13.963  66.855  1.00  0.00     0.000 HD 
ENDBRANCH  16  17
ENDBRANCH  15  16
ENDBRANCH  14  15
ENDBRANCH  13  14
BRANCH  13  26
HETATM   26  N   UNL     1      -9.022  13.687  68.773  1.00  0.00    -0.378 N  
HETATM   27  H   UNL     1      -9.769  14.269  69.152  1.00  0.00     0.000 HD 
BRANCH  26  28
HETATM   28  S   UNL     1      -9.298  12.041  68.414  1.00  0.00    -0.136 S  
HETATM   29  O   UNL     1      -9.130  11.858  66.996  1.00  0.00    -0.179 OA 
HETATM   30  O   UNL     1     -10.560  11.723  69.048  1.00  0.00    -0.204 OA 
BRANCH  28  31
HETATM   31  C   UNL     1      -7.990  11.232  69.298  1.00  0.00     0.086 A  
HETATM   32  C   UNL     1      -6.904   7.824  70.647  1.00  0.00    -0.042 C  
HETATM   33  C   UNL     1      -6.944  12.040  69.771  1.00  0.00     0.270 A  
HETATM   34  C   UNL     1      -8.192   5.659  70.683  1.00  0.00    -0.118 C  
HETATM   35  C   UNL     1      -5.891  11.477  70.484  1.00  0.00    -0.129 A  
HETATM   36  C   UNL     1      -8.287   7.174  70.531  1.00  0.00    -0.131 C  
HETATM   37  C   UNL     1      -8.885   7.574  69.189  1.00  0.00    -0.136 C  
HETATM   38  H   UNL     1      -9.934   9.427  68.771  1.00  0.00     0.000 HD 
HETATM   39  N   UNL     1      -9.063   9.021  69.115  1.00  0.00    -0.139 NA 
HETATM   40  C   UNL     1      -5.878  10.108  70.724  1.00  0.00    -0.094 A  
HETATM   41  C   UNL     1      -8.001   9.840  69.530  1.00  0.00    -0.137 A  
HETATM   42  C   UNL     1      -6.926   9.288  70.266  1.00  0.00    -0.076 A  
ENDBRANCH  28  31
ENDBRANCH  26  28
ENDBRANCH  13  26
ENDBRANCH   7  13
TORSDOF 8
ENDMDL
MODEL      398
REMARK 921   NORMALIZED FREE ENERGY PREDICTED BY IDOCK:    3.24 KCAL/MOL
REMARK 922        TOTAL FREE ENERGY PREDICTED BY IDOCK:    3.50 KCAL/MOL
REMARK 923 INTER-LIGAND FREE ENERGY PREDICTED BY IDOCK:    3.51 KCAL/MOL
REMARK 924 INTRA-LIGAND FREE ENERGY PREDICTED BY IDOCK:   -0.01 KCAL/MOL
REMARK 927      BINDING AFFINITY PREDICTED BY RF-SCORE:    0.00 PKD
ROOT
HETATM    1  C   UNL     1     -10.373  14.459  71.847  1.00  0.00     3.600 C  
HETATM    2  C   UNL     1     -10.514  14.035  70.392  1.00  0.00     1.263 C  
HETATM    3  C   UNL     1      -9.174  14.088  69.651  1.00  0.00     0.982 C  
HETATM    4  C   UNL     1      -9.339  13.703  68.181  1.00  0.00    -0.212 C  
HETATM    5  N   UNL     1     -10.435  14.444  67.497  1.00  0.00    -0.252 N  
HETATM    6  C   UNL     1     -11.727  14.451  68.216  1.00  0.00    -0.341 C  
HETATM    7  C   UNL     1     -10.062  15.374  66.517  1.00  0.00    -0.271 C  
HETATM    8  O   UNL     1      -8.855  15.546  66.299  1.00  0.00    -0.306 OA 
HETATM    9  O   UNL     1     -11.942  12.137  67.564  1.00  0.00    -0.544 OA 
HETATM   10  C   UNL     1     -11.527  14.927  69.659  1.00  0.00    -0.325 C  
HETATM   11  C   UNL     1     -12.518  13.138  68.233  1.00  0.00     0.451 C  
HETATM   12  O   UNL     1     -13.585  12.996  68.809  1.00  0.00     3.555 OA 
ENDROOT
BRANCH   7  13
HETATM   13  C   UNL     1     -11.069  16.134  65.582  1.00  0.00    -0.023 C  
BRANCH  13  14
HETATM   14  C   UNL     1     -11.321  15.610  64.144  1.00  0.00    -0.033 C  
BRANCH  14  15
HETATM   15  C   UNL     1     -10.960  14.119  63.979  1.00  0.00     0.286 C  
BRANCH  15  16
HETATM   16  C   UNL     1     -11.990  13.156  64.587  1.00  0.00    -0.388 C  
BRANCH  16  17
HETATM   17  N   UNL     1     -11.299  11.952  65.010  1.00  0.00    -0.302 NA 
HETATM   18  H2  UNL     1     -10.041  10.070  65.942  1.00  0.00     0.000 HD 
HETATM   19  H1  UNL     1      -9.384   9.581  64.334  1.00  0.00     0.000 HD 
HETATM   20  N   UNL     1     -10.384  11.208  62.951  1.00  0.00    -0.739 NA 
HETATM   21  N   UNL     1      -9.948  10.185  64.933  1.00  0.00    -0.329 NA 
HETATM   22  C   UNL     1     -10.553  11.153  64.217  1.00  0.00    -0.357 C  
HETATM   23  H   UNL     1     -11.384  11.686  65.992  1.00  0.00     0.000 HD 
HETATM   24  H1  UNL     1      -9.820  10.604  62.352  1.00  0.00     0.000 HD 
HETATM   25  H2  UNL     1     -10.880  11.960  62.474  1.00  0.00     0.000 HD 
ENDBRANCH  16  17
ENDBRANCH  15  16
ENDBRANCH  14  15
ENDBRANCH  13  14
BRANCH  13  26
HETATM   26  N   UNL     1     -10.805  17.598  65.504  1.00  0.00    -0.131 N  
HETATM   27  H   UNL     1     -10.726  18.064  64.600  1.00  0.00     0.000 HD 
BRANCH  26  28
HETATM   28  S   UNL     1     -10.638  18.481  66.955  1.00  0.00    -0.333 S  
HETATM   29  O   UNL     1     -11.319  17.760  67.999  1.00  0.00     0.097 OA 
HETATM   30  O   UNL     1     -11.035  19.833  66.622  1.00  0.00    -0.417 OA 
BRANCH  28  31
HETATM   31  C   UNL     1      -8.885  18.446  67.225  1.00  0.00    -0.259 A  
HETATM   32  C   UNL     1      -5.579  19.754  65.822  1.00  0.00    -0.179 C  
HETATM   33  C   UNL     1      -8.417  17.637  68.272  1.00  0.00    -0.271 A  
HETATM   34  C   UNL     1      -5.169  21.055  63.704  1.00  0.00    -0.246 C  
HETATM   35  C   UNL     1      -7.054  17.550  68.535  1.00  0.00    -0.226 A  
HETATM   36  C   UNL     1      -6.151  20.167  64.462  1.00  0.00    -0.326 C  
HETATM   37  C   UNL     1      -7.481  20.866  64.702  1.00  0.00     0.811 C  
HETATM   38  H   UNL     1      -9.395  19.885  64.992  1.00  0.00     0.000 HD 
HETATM   39  N   UNL     1      -8.435  19.958  65.332  1.00  0.00    -0.046 NA 
HETATM   40  C   UNL     1      -6.156  18.270  67.755  1.00  0.00    -0.180 A  
HETATM   41  C   UNL     1      -7.995  19.186  66.419  1.00  0.00    -0.294 A  
HETATM   42  C   UNL     1      -6.612  19.076  66.695  1.00  0.00    -0.205 A  
ENDBRANCH  28  31
ENDBRANCH  26  28
ENDBRANCH  13  26
ENDBRANCH   7  13
TORSDOF 8
ENDMDL
MODEL      399
REMARK 921   NORMALIZED FREE ENERGY PREDICTED BY IDOCK:    4.16 KCAL/MOL
REMARK 922        TOTAL FREE ENERGY PREDICTED BY IDOCK:    4.86 KCAL/MOL
REMARK 923 INTER-LIGAND FREE ENERGY PREDICTED BY IDOCK:    4.32 KCAL/MOL
REMARK 924 INTRA-LIGAND FREE ENERGY PREDICTED BY IDOCK:    0.54 KCAL/MOL
REMARK 927      BINDING AFFINITY PREDICTED BY RF-SCORE:    0.00 PKD
ROOT
HETATM    1  C   UNL     1     -11.408   9.791  66.822  1.00  0.00     0.898 C  
HETATM    2  C   UNL     1     -10.599  10.828  66.057  1.00  0.00    -0.224 C  
HETATM    3  C   UNL     1      -9.092  10.564  66.158  1.00  0.00    -0.184 C  
HETATM    4  C   UNL     1      -8.291  11.638  65.423  1.00  0.00     0.564 C  
HETATM    5  N   UNL     1      -8.686  13.025  65.794  1.00  0.00     0.776 N  
HETATM    6  C   UNL     1     -10.140  13.293  65.752  1.00  0.00    -0.286 C  
HETATM    7  C   UNL     1      -7.756  13.781  66.520  1.00  0.00     1.267 C  
HETATM    8  O   UNL     1      -6.683  13.247  66.835  1.00  0.00     0.072 OA 
HETATM    9  O   UNL     1      -9.937  13.249  63.348  1.00  0.00     0.564 OA 
HETATM   10  C   UNL     1     -10.895  12.243  66.576  1.00  0.00    -0.297 C  
HETATM   11  C   UNL     1     -10.787  13.395  64.367  1.00  0.00    -0.406 C  
HETATM   12  O   UNL     1     -11.979  13.588  64.187  1.00  0.00    -0.414 OA 
ENDROOT
BRANCH   7  13
HETATM   13  C   UNL     1      -7.922  15.304  66.867  1.00  0.00    -0.159 C  
BRANCH  13  14
HETATM   14  C   UNL     1      -6.788  16.298  66.503  1.00  0.00     0.189 C  
BRANCH  14  15
HETATM   15  C   UNL     1      -7.311  17.577  65.818  1.00  0.00    -0.021 C  
BRANCH  15  16
HETATM   16  C   UNL     1      -8.841  17.641  65.700  1.00  0.00     0.609 C  
BRANCH  16  17
HETATM   17  N   UNL     1      -9.351  18.456  66.787  1.00  0.00    -0.287 NA 
HETATM   18  H2  UNL     1     -10.419  19.641  68.643  1.00  0.00     0.000 HD 
HETATM   19  H1  UNL     1     -10.210  21.256  67.864  1.00  0.00     0.000 HD 
HETATM   20  N   UNL     1      -9.123  20.631  65.869  1.00  0.00    -0.316 NA 
HETATM   21  N   UNL     1     -10.104  20.241  67.881  1.00  0.00    -0.381 NA 
HETATM   22  C   UNL     1      -9.492  19.798  66.765  1.00  0.00    -0.382 C  
HETATM   23  H   UNL     1      -9.628  17.972  67.642  1.00  0.00     0.000 HD 
HETATM   24  H1  UNL     1      -9.229  21.646  65.852  1.00  0.00     0.000 HD 
HETATM   25  H2  UNL     1      -8.657  20.226  65.057  1.00  0.00     0.000 HD 
ENDBRANCH  16  17
ENDBRANCH  15  16
ENDBRANCH  14  15
ENDBRANCH  13  14
BRANCH  13  26
HETATM   26  N   UNL     1      -8.313  15.543  68.284  1.00  0.00    -0.144 N  
HETATM   27  H   UNL     1      -8.850  16.370  68.543  1.00  0.00     0.000 HD 
BRANCH  26  28
HETATM   28  S   UNL     1      -7.844  14.406  69.468  1.00  0.00     0.287 S  
HETATM   29  O   UNL     1      -7.519  15.122  70.674  1.00  0.00     0.509 OA 
HETATM   30  O   UNL     1      -6.850  13.574  68.820  1.00  0.00    -0.097 OA 
BRANCH  28  31
HETATM   31  C   UNL     1      -9.326  13.457  69.696  1.00  0.00     1.642 A  
HETATM   32  C   UNL     1     -13.023  13.789  70.609  1.00  0.00    -0.176 C  
HETATM   33  C   UNL     1      -9.216  12.063  69.575  1.00  0.00     1.306 A  
HETATM   34  C   UNL     1     -14.280  15.832  71.381  1.00  0.00     0.084 C  
HETATM   35  C   UNL     1     -10.333  11.254  69.753  1.00  0.00     0.324 A  
HETATM   36  C   UNL     1     -12.903  15.202  71.190  1.00  0.00    -0.469 C  
HETATM   37  C   UNL     1     -12.026  16.024  70.256  1.00  0.00    -0.206 C  
HETATM   38  H   UNL     1      -9.856  16.051  70.251  1.00  0.00     0.000 HD 
HETATM   39  N   UNL     1     -10.683  15.457  70.178  1.00  0.00    -0.303 NA 
HETATM   40  C   UNL     1     -11.561  11.834  70.050  1.00  0.00    -0.318 A  
HETATM   41  C   UNL     1     -10.561  14.070  69.997  1.00  0.00     0.551 A  
HETATM   42  C   UNL     1     -11.683  13.229  70.185  1.00  0.00    -0.254 A  
ENDBRANCH  28  31
ENDBRANCH  26  28
ENDBRANCH  13  26
ENDBRANCH   7  13
TORSDOF 8
ENDMDL
MODEL      400
REMARK 921   NORMALIZED FREE ENERGY PREDICTED BY IDOCK:    5.24 KCAL/MOL
REMARK 922        TOTAL FREE ENERGY PREDICTED BY IDOCK:    6.45 KCAL/MOL
REMARK 923 INTER-LIGAND FREE ENERGY PREDICTED BY IDOCK:    7.18 KCAL/MOL
REMARK 924 INTRA-LIGAND FREE ENERGY PREDICTED BY IDOCK:   -0.74 KCAL/MOL
REMARK 927      BINDING AFFINITY PREDICTED BY RF-SCORE:    0.00 PKD
ROOT
HETATM    1  C   UNL     1     -10.548   9.584  66.943  1.00  0.00    -0.241 C  
HETATM    2  C   UNL     1     -10.628  10.712  65.924  1.00  0.00    -0.178 C  
HETATM    3  C   UNL     1      -9.253  11.329  65.646  1.00  0.00    -0.231 C  
HETATM    4  C   UNL     1      -9.356  12.489  64.656  1.00  0.00     0.530 C  
HETATM    5  N   UNL     1     -10.399  13.486  65.023  1.00  0.00    -0.360 N  
HETATM    6  C   UNL     1     -11.725  12.913  65.344  1.00  0.00    -0.375 C  
HETATM    7  C   UNL     1      -9.958  14.752  65.428  1.00  0.00    -0.334 C  
HETATM    8  O   UNL     1      -8.738  14.958  65.487  1.00  0.00     0.814 OA 
HETATM    9  O   UNL     1     -11.962  12.497  62.979  1.00  0.00    -0.343 OA 
HETATM   10  C   UNL     1     -11.583  11.815  66.405  1.00  0.00    -0.237 C  
HETATM   11  C   UNL     1     -12.546  12.366  64.172  1.00  0.00    -0.403 C  
HETATM   12  O   UNL     1     -13.643  11.844  64.296  1.00  0.00    -0.425 OA 
ENDROOT
BRANCH   7  13
HETATM   13  C   UNL     1     -10.900  15.978  65.702  1.00  0.00    -0.266 C  
BRANCH  13  14
HETATM   14  C   UNL     1     -10.806  17.232  64.793  1.00  0.00     0.562 C  
BRANCH  14  15
HETATM   15  C   UNL     1     -10.790  18.551  65.593  1.00  0.00     0.023 C  
BRANCH  15  16
HETATM   16  C   UNL     1      -9.418  18.906  66.185  1.00  0.00    -0.215 C  
BRANCH  16  17
HETATM   17  N   UNL     1      -9.607  19.923  67.203  1.00  0.00    -0.355 NA 
HETATM   18  H2  UNL     1      -9.680  21.746  68.835  1.00  0.00     0.000 HD 
HETATM   19  H1  UNL     1     -10.235  20.664  70.169  1.00  0.00     0.000 HD 
HETATM   20  N   UNL     1     -10.347  18.603  69.030  1.00  0.00    -0.455 NA 
HETATM   21  N   UNL     1      -9.951  20.834  69.204  1.00  0.00     0.589 NA 
HETATM   22  C   UNL     1      -9.982  19.698  68.480  1.00  0.00    -0.443 C  
HETATM   23  H   UNL     1      -9.442  20.893  66.930  1.00  0.00     0.000 HD 
HETATM   24  H1  UNL     1     -10.630  18.433  69.996  1.00  0.00     0.000 HD 
HETATM   25  H2  UNL     1     -10.356  17.786  68.420  1.00  0.00     0.000 HD 
ENDBRANCH  16  17
ENDBRANCH  15  16
ENDBRANCH  14  15
ENDBRANCH  13  14
BRANCH  13  26
HETATM   26  N   UNL     1     -10.877  16.430  67.121  1.00  0.00    -0.232 N  
HETATM   27  H   UNL     1     -10.132  17.038  67.461  1.00  0.00     0.000 HD 
BRANCH  26  28
HETATM   28  S   UNL     1     -12.122  15.912  68.168  1.00  0.00     0.647 S  
HETATM   29  O   UNL     1     -12.706  14.718  67.614  1.00  0.00     0.467 OA 
HETATM   30  O   UNL     1     -12.938  17.087  68.395  1.00  0.00     2.612 OA 
BRANCH  28  31
HETATM   31  C   UNL     1     -11.236  15.530  69.657  1.00  0.00    -0.300 A  
HETATM   32  C   UNL     1      -7.704  15.177  71.073  1.00  0.00     2.151 C  
HETATM   33  C   UNL     1     -11.999  15.156  70.775  1.00  0.00    -0.376 A  
HETATM   34  C   UNL     1      -5.499  15.284  69.858  1.00  0.00    -0.112 C  
HETATM   35  C   UNL     1     -11.373  14.830  71.973  1.00  0.00     0.106 A  
HETATM   36  C   UNL     1      -7.007  15.103  69.711  1.00  0.00    -0.174 C  
HETATM   37  C   UNL     1      -7.621  16.165  68.808  1.00  0.00    -0.193 C  
HETATM   38  H   UNL     1      -9.454  15.952  67.667  1.00  0.00     0.000 HD 
HETATM   39  N   UNL     1      -9.043  15.904  68.599  1.00  0.00    -0.196 NA 
HETATM   40  C   UNL     1      -9.986  14.879  72.059  1.00  0.00     3.387 A  
HETATM   41  C   UNL     1      -9.828  15.587  69.719  1.00  0.00    -0.262 A  
HETATM   42  C   UNL     1      -9.210  15.241  70.944  1.00  0.00     2.000 A  
ENDBRANCH  28  31
ENDBRANCH  26  28
ENDBRANCH  13  26
ENDBRANCH   7  13
TORSDOF 8
ENDMDL
MODEL      401
REMARK 921   NORMALIZED FREE ENERGY PREDICTED BY IDOCK:    5.92 KCAL/MOL
REMARK 922        TOTAL FREE ENERGY PREDICTED BY IDOCK:    7.44 KCAL/MOL
REMARK 923 INTER-LIGAND FREE ENERGY PREDICTED BY IDOCK:    7.34 KCAL/MOL
REMARK 924 INTRA-LIGAND FREE ENERGY PREDICTED BY IDOCK:    0.10 KCAL/MOL
REMARK 927      BINDING AFFINITY PREDICTED BY RF-SCORE:    0.00 PKD
ROOT
HETATM    1  C   UNL     1     -13.946  13.356  65.699  1.00  0.00     3.670 C  
HETATM    2  C   UNL     1     -12.520  13.663  66.131  1.00  0.00    -0.449 C  
HETATM    3  C   UNL     1     -12.159  12.963  67.445  1.00  0.00    -0.258 C  
HETATM    4  C   UNL     1     -10.739  13.316  67.889  1.00  0.00    -0.239 C  
HETATM    5  N   UNL     1     -10.471  14.781  67.895  1.00  0.00    -0.244 N  
HETATM    6  C   UNL     1     -10.857  15.490  66.655  1.00  0.00    -0.285 C  
HETATM    7  C   UNL     1     -10.294  15.393  69.142  1.00  0.00    -0.240 C  
HETATM    8  O   UNL     1     -10.400  14.694  70.160  1.00  0.00     0.087 OA 
HETATM    9  O   UNL     1      -8.945  14.439  65.625  1.00  0.00     0.337 OA 
HETATM   10  C   UNL     1     -12.314  15.176  66.297  1.00  0.00     0.560 C  
HETATM   11  C   UNL     1      -9.981  15.254  65.420  1.00  0.00    -0.329 C  
HETATM   12  O   UNL     1     -10.198  15.755  64.328  1.00  0.00     0.336 OA 
ENDROOT
BRANCH   7  13
HETATM   13  C   UNL     1      -9.851  16.886  69.347  1.00  0.00    -0.064 C  
BRANCH  13  14
HETATM   14  C   UNL     1     -10.842  17.896  69.985  1.00  0.00     1.445 C  
BRANCH  14  15
HETATM   15  C   UNL     1     -10.444  18.299  71.419  1.00  0.00     3.211 C  
BRANCH  15  16
HETATM   16  C   UNL     1     -11.265  17.601  72.515  1.00  0.00     2.170 C  
BRANCH  16  17
HETATM   17  N   UNL     1     -12.183  16.674  71.879  1.00  0.00    -0.364 NA 
HETATM   18  H2  UNL     1     -13.897  15.334  70.758  1.00  0.00     0.000 HD 
HETATM   19  H1  UNL     1     -13.820  14.019  71.993  1.00  0.00     0.000 HD 
HETATM   20  N   UNL     1     -12.162  14.879  73.431  1.00  0.00    -0.365 NA 
HETATM   21  N   UNL     1     -13.524  14.918  71.612  1.00  0.00    -0.365 NA 
HETATM   22  C   UNL     1     -12.575  15.484  72.383  1.00  0.00    -0.400 C  
HETATM   23  H   UNL     1     -12.566  16.945  70.973  1.00  0.00     0.000 HD 
HETATM   24  H1  UNL     1     -12.458  13.980  73.812  1.00  0.00     0.000 HD 
HETATM   25  H2  UNL     1     -11.436  15.362  73.960  1.00  0.00     0.000 HD 
ENDBRANCH  16  17
ENDBRANCH  15  16
ENDBRANCH  14  15
ENDBRANCH  13  14
BRANCH  13  26
HETATM   26  N   UNL     1      -9.285  17.504  68.116  1.00  0.00    -0.269 N  
HETATM   27  H   UNL     1      -9.844  18.143  67.551  1.00  0.00     0.000 HD 
BRANCH  26  28
HETATM   28  S   UNL     1      -7.682  17.123  67.670  1.00  0.00    -0.174 S  
HETATM   29  O   UNL     1      -7.318  17.955  66.552  1.00  0.00    -0.207 OA 
HETATM   30  O   UNL     1      -7.657  15.680  67.546  1.00  0.00    -0.143 OA 
BRANCH  28  31
HETATM   31  C   UNL     1      -6.760  17.593  69.111  1.00  0.00    -0.243 A  
HETATM   32  C   UNL     1      -5.135  16.166  72.263  1.00  0.00     0.785 C  
HETATM   33  C   UNL     1      -6.526  18.964  69.300  1.00  0.00    -0.311 A  
HETATM   34  C   UNL     1      -5.226  13.813  73.158  1.00  0.00    -0.181 C  
HETATM   35  C   UNL     1      -5.822  19.408  70.415  1.00  0.00    -0.251 A  
HETATM   36  C   UNL     1      -5.866  14.821  72.208  1.00  0.00     0.372 C  
HETATM   37  C   UNL     1      -5.849  14.333  70.766  1.00  0.00    -0.199 C  
HETATM   38  H   UNL     1      -7.237  14.932  69.209  1.00  0.00     0.000 HD 
HETATM   39  N   UNL     1      -6.562  15.266  69.898  1.00  0.00    -0.172 NA 
HETATM   40  C   UNL     1      -5.349  18.485  71.341  1.00  0.00    -0.196 A  
HETATM   41  C   UNL     1      -6.292  16.637  70.037  1.00  0.00     0.002 A  
HETATM   42  C   UNL     1      -5.587  17.109  71.169  1.00  0.00     0.310 A  
ENDBRANCH  28  31
ENDBRANCH  26  28
ENDBRANCH  13  26
ENDBRANCH   7  13
TORSDOF 8
ENDMDL
MODEL      402
REMARK 921   NORMALIZED FREE ENERGY PREDICTED BY IDOCK:   11.83 KCAL/MOL
REMARK 922        TOTAL FREE ENERGY PREDICTED BY IDOCK:   16.12 KCAL/MOL
REMARK 923 INTER-LIGAND FREE ENERGY PREDICTED BY IDOCK:    7.04 KCAL/MOL
REMARK 924 INTRA-LIGAND FREE ENERGY PREDICTED BY IDOCK:    9.08 KCAL/MOL
REMARK 927      BINDING AFFINITY PREDICTED BY RF-SCORE:    0.00 PKD
ROOT
HETATM    1  C   UNL     1     -11.491  10.179  66.605  1.00  0.00     1.030 C  
HETATM    2  C   UNL     1     -10.884  11.476  66.090  1.00  0.00    -0.330 C  
HETATM    3  C   UNL     1      -9.353  11.423  66.076  1.00  0.00    -0.235 C  
HETATM    4  C   UNL     1      -8.757  12.747  65.599  1.00  0.00     1.018 C  
HETATM    5  N   UNL     1      -9.311  13.933  66.310  1.00  0.00    -0.209 N  
HETATM    6  C   UNL     1     -10.788  13.983  66.381  1.00  0.00    -0.299 C  
HETATM    7  C   UNL     1      -8.447  14.625  67.168  1.00  0.00    -0.221 C  
HETATM    8  O   UNL     1      -7.293  14.197  67.309  1.00  0.00    -0.161 OA 
HETATM    9  O   UNL     1     -10.743  14.540  64.033  1.00  0.00     0.270 OA 
HETATM   10  C   UNL     1     -11.335  12.668  66.947  1.00  0.00    -0.373 C  
HETATM   11  C   UNL     1     -11.534  14.312  65.083  1.00  0.00    -0.351 C  
HETATM   12  O   UNL     1     -12.750  14.363  64.993  1.00  0.00    -0.587 OA 
ENDROOT
BRANCH   7  13
HETATM   13  C   UNL     1      -8.796  15.980  67.881  1.00  0.00    -0.180 C  
BRANCH  13  14
HETATM   14  C   UNL     1      -8.289  17.315  67.273  1.00  0.00    -0.216 C  
BRANCH  14  15
HETATM   15  C   UNL     1      -9.413  18.132  66.604  1.00  0.00    -0.303 C  
BRANCH  15  16
HETATM   16  C   UNL     1     -10.646  17.301  66.218  1.00  0.00    -0.184 C  
BRANCH  16  17
HETATM   17  N   UNL     1     -11.583  17.328  67.326  1.00  0.00     0.785 NA 
HETATM   18  H2  UNL     1     -13.031  17.606  69.280  1.00  0.00     0.000 HD 
HETATM   19  H1  UNL     1     -12.983  15.849  69.691  1.00  0.00     0.000 HD 
HETATM   20  N   UNL     1     -11.605  15.041  67.958  1.00  0.00    -0.337 NA 
HETATM   21  N   UNL     1     -12.724  16.648  69.111  1.00  0.00     1.530 NA 
HETATM   22  C   UNL     1     -11.926  16.271  68.093  1.00  0.00     0.459 C  
HETATM   23  H   UNL     1     -12.021  18.224  67.544  1.00  0.00     0.000 HD 
HETATM   24  H1  UNL     1     -11.864  14.242  68.538  1.00  0.00     0.000 HD 
HETATM   25  H2  UNL     1     -11.007  14.828  67.160  1.00  0.00     0.000 HD 
ENDBRANCH  16  17
ENDBRANCH  15  16
ENDBRANCH  14  15
ENDBRANCH  13  14
BRANCH  13  26
HETATM   26  N   UNL     1      -8.473  15.979  69.334  1.00  0.00    -0.215 N  
HETATM   27  H   UNL     1      -8.441  16.852  69.861  1.00  0.00     0.000 HD 
BRANCH  26  28
HETATM   28  S   UNL     1      -8.156  14.488  70.103  1.00  0.00     1.230 S  
HETATM   29  O   UNL     1      -7.663  14.763  71.428  1.00  0.00     2.058 OA 
HETATM   30  O   UNL     1      -7.346  13.743  69.161  1.00  0.00    -0.082 OA 
BRANCH  28  31
HETATM   31  C   UNL     1      -9.766  13.750  70.186  1.00  0.00     2.318 A  
HETATM   32  C   UNL     1     -13.204  14.157  71.807  1.00  0.00    -0.450 C  
HETATM   33  C   UNL     1      -9.954  12.547  69.486  1.00  0.00     1.044 A  
HETATM   34  C   UNL     1     -13.935  15.810  73.562  1.00  0.00     0.571 C  
HETATM   35  C   UNL     1     -11.187  11.904  69.516  1.00  0.00    -0.237 A  
HETATM   36  C   UNL     1     -12.742  15.142  72.884  1.00  0.00    -0.522 C  
HETATM   37  C   UNL     1     -11.819  16.160  72.228  1.00  0.00    -0.536 C  
HETATM   38  H   UNL     1      -9.701  15.887  71.842  1.00  0.00     0.000 HD 
HETATM   39  N   UNL     1     -10.633  15.505  71.682  1.00  0.00     0.375 NA 
HETATM   40  C   UNL     1     -12.234  12.459  70.241  1.00  0.00    -0.345 A  
HETATM   41  C   UNL     1     -10.813  14.333  70.930  1.00  0.00     1.004 A  
HETATM   42  C   UNL     1     -12.056  13.658  70.956  1.00  0.00    -0.273 A  
ENDBRANCH  28  31
ENDBRANCH  26  28
ENDBRANCH  13  26
ENDBRANCH   7  13
TORSDOF 8
ENDMDL
MODEL      403
REMARK 921   NORMALIZED FREE ENERGY PREDICTED BY IDOCK:   14.28 KCAL/MOL
REMARK 922        TOTAL FREE ENERGY PREDICTED BY IDOCK:   19.71 KCAL/MOL
REMARK 923 INTER-LIGAND FREE ENERGY PREDICTED BY IDOCK:   10.31 KCAL/MOL
REMARK 924 INTRA-LIGAND FREE ENERGY PREDICTED BY IDOCK:    9.40 KCAL/MOL
REMARK 927      BINDING AFFINITY PREDICTED BY RF-SCORE:    0.00 PKD
ROOT
HETATM    1  C   UNL     1      -9.277   9.292  69.800  1.00  0.00    -0.191 C  
HETATM    2  C   UNL     1      -8.810  10.037  68.558  1.00  0.00    -0.120 C  
HETATM    3  C   UNL     1      -7.665  11.006  68.871  1.00  0.00    -0.140 C  
HETATM    4  C   UNL     1      -7.237  11.779  67.623  1.00  0.00    -0.111 C  
HETATM    5  N   UNL     1      -8.377  12.408  66.900  1.00  0.00    -0.156 N  
HETATM    6  C   UNL     1      -9.518  11.506  66.629  1.00  0.00    -0.193 C  
HETATM    7  C   UNL     1      -8.453  13.807  66.921  1.00  0.00    -0.059 C  
HETATM    8  O   UNL     1      -7.594  14.432  67.559  1.00  0.00    -0.169 OA 
HETATM    9  O   UNL     1      -8.121  10.471  64.956  1.00  0.00    -0.152 OA 
HETATM   10  C   UNL     1      -9.969  10.821  67.924  1.00  0.00    -0.196 C  
HETATM   11  C   UNL     1      -9.317  10.440  65.547  1.00  0.00    -0.197 C  
HETATM   12  O   UNL     1     -10.164   9.616  65.240  1.00  0.00    -0.137 OA 
ENDROOT
BRANCH   7  13
HETATM   13  C   UNL     1      -9.483  14.656  66.094  1.00  0.00    -0.276 C  
BRANCH  13  14
HETATM   14  C   UNL     1      -8.998  15.442  64.847  1.00  0.00     2.894 C  
BRANCH  14  15
HETATM   15  C   UNL     1      -8.148  16.676  65.212  1.00  0.00     2.593 C  
BRANCH  15  16
HETATM   16  C   UNL     1      -7.812  16.784  66.707  1.00  0.00    -0.246 C  
BRANCH  16  17
HETATM   17  N   UNL     1      -7.591  18.181  67.028  1.00  0.00    -0.210 NA 
HETATM   18  H2  UNL     1      -6.998  20.453  67.721  1.00  0.00     0.000 HD 
HETATM   19  H1  UNL     1      -8.712  20.902  68.068  1.00  0.00     0.000 HD 
HETATM   20  N   UNL     1      -9.804  18.890  67.508  1.00  0.00    -0.316 NA 
HETATM   21  N   UNL     1      -7.996  20.242  67.765  1.00  0.00    -0.267 NA 
HETATM   22  C   UNL     1      -8.539  19.055  67.430  1.00  0.00    -0.278 C  
HETATM   23  H   UNL     1      -6.638  18.534  66.944  1.00  0.00     0.000 HD 
HETATM   24  H1  UNL     1     -10.521  19.551  67.811  1.00  0.00     0.000 HD 
HETATM   25  H2  UNL     1     -10.146  17.971  67.228  1.00  0.00     0.000 HD 
ENDBRANCH  16  17
ENDBRANCH  15  16
ENDBRANCH  14  15
ENDBRANCH  13  14
BRANCH  13  26
HETATM   26  N   UNL     1     -10.295  15.577  66.937  1.00  0.00    -0.284 N  
HETATM   27  H   UNL     1     -10.075  16.572  66.981  1.00  0.00     0.000 HD 
BRANCH  26  28
HETATM   28  S   UNL     1     -11.602  14.935  67.830  1.00  0.00    -0.306 S  
HETATM   29  O   UNL     1     -11.727  13.539  67.500  1.00  0.00    -0.324 OA 
HETATM   30  O   UNL     1     -12.704  15.844  67.592  1.00  0.00     1.550 OA 
BRANCH  28  31
HETATM   31  C   UNL     1     -11.051  15.125  69.505  1.00  0.00    -0.277 A  
HETATM   32  C   UNL     1      -7.899  15.209  71.666  1.00  0.00     4.060 C  
HETATM   33  C   UNL     1     -12.042  15.243  70.493  1.00  0.00    -0.395 A  
HETATM   34  C   UNL     1      -5.514  14.750  70.996  1.00  0.00    -0.137 C  
HETATM   35  C   UNL     1     -11.686  15.383  71.830  1.00  0.00    -0.511 A  
HETATM   36  C   UNL     1      -6.982  14.586  70.610  1.00  0.00     0.485 C  
HETATM   37  C   UNL     1      -7.293  15.238  69.270  1.00  0.00    -0.191 C  
HETATM   38  H   UNL     1      -8.901  14.673  67.927  1.00  0.00     0.000 HD 
HETATM   39  N   UNL     1      -8.674  14.974  68.876  1.00  0.00    -0.189 NA 
HETATM   40  C   UNL     1     -10.342  15.406  72.184  1.00  0.00     1.975 A  
HETATM   41  C   UNL     1      -9.681  15.145  69.839  1.00  0.00    -0.007 A  
HETATM   42  C   UNL     1      -9.339  15.277  71.206  1.00  0.00     2.787 A  
ENDBRANCH  28  31
ENDBRANCH  26  28
ENDBRANCH  13  26
ENDBRANCH   7  13
TORSDOF 8
ENDMDL
MODEL      404
REMARK 921   NORMALIZED FREE ENERGY PREDICTED BY IDOCK:   17.29 KCAL/MOL
REMARK 922        TOTAL FREE ENERGY PREDICTED BY IDOCK:   24.13 KCAL/MOL
REMARK 923 INTER-LIGAND FREE ENERGY PREDICTED BY IDOCK:   18.39 KCAL/MOL
REMARK 924 INTRA-LIGAND FREE ENERGY PREDICTED BY IDOCK:    5.75 KCAL/MOL
REMARK 927      BINDING AFFINITY PREDICTED BY RF-SCORE:    0.00 PKD
ROOT
HETATM    1  C   UNL     1     -13.948  13.397  65.803  1.00  0.00     3.983 C  
HETATM    2  C   UNL     1     -12.539  13.770  66.243  1.00  0.00    -0.372 C  
HETATM    3  C   UNL     1     -12.162  13.105  67.571  1.00  0.00    -0.169 C  
HETATM    4  C   UNL     1     -10.764  13.524  68.023  1.00  0.00    -0.251 C  
HETATM    5  N   UNL     1     -10.557  14.999  68.009  1.00  0.00    -0.246 N  
HETATM    6  C   UNL     1     -10.959  15.673  66.755  1.00  0.00    -0.230 C  
HETATM    7  C   UNL     1     -10.418  15.636  69.249  1.00  0.00    -0.247 C  
HETATM    8  O   UNL     1     -10.504  14.948  70.276  1.00  0.00    -0.089 OA 
HETATM    9  O   UNL     1      -8.995  14.687  65.759  1.00  0.00     0.101 OA 
HETATM   10  C   UNL     1     -12.398  15.293  66.389  1.00  0.00     0.771 C  
HETATM   11  C   UNL     1     -10.062  15.456  65.532  1.00  0.00    -0.373 C  
HETATM   12  O   UNL     1     -10.289  15.932  64.431  1.00  0.00    -0.066 OA 
ENDROOT
BRANCH   7  13
HETATM   13  C   UNL     1     -10.039  17.149  69.436  1.00  0.00    -0.116 C  
BRANCH  13  14
HETATM   14  C   UNL     1     -11.003  18.087  70.209  1.00  0.00     2.130 C  
BRANCH  14  15
HETATM   15  C   UNL     1     -11.183  19.457  69.523  1.00  0.00     2.868 C  
BRANCH  15  16
HETATM   16  C   UNL     1     -10.674  20.644  70.355  1.00  0.00     2.038 C  
BRANCH  16  17
HETATM   17  N   UNL     1      -9.965  20.124  71.510  1.00  0.00     1.287 NA 
HETATM   18  H2  UNL     1      -8.984  19.341  73.611  1.00  0.00     0.000 HD 
HETATM   19  H1  UNL     1      -7.336  19.941  73.182  1.00  0.00     0.000 HD 
HETATM   20  N   UNL     1      -7.755  20.858  71.052  1.00  0.00     1.803 NA 
HETATM   21  N   UNL     1      -8.327  19.802  72.981  1.00  0.00     3.261 NA 
HETATM   22  C   UNL     1      -8.654  20.307  71.776  1.00  0.00     2.323 C  
HETATM   23  H   UNL     1     -10.504  19.573  72.178  1.00  0.00     0.000 HD 
HETATM   24  H1  UNL     1      -6.764  20.997  71.253  1.00  0.00     0.000 HD 
HETATM   25  H2  UNL     1      -8.073  21.208  70.148  1.00  0.00     0.000 HD 
ENDBRANCH  16  17
ENDBRANCH  15  16
ENDBRANCH  14  15
ENDBRANCH  13  14
BRANCH  13  26
HETATM   26  N   UNL     1      -9.660  17.820  68.161  1.00  0.00    -0.291 N  
HETATM   27  H   UNL     1     -10.336  18.390  67.653  1.00  0.00     0.000 HD 
BRANCH  26  28
HETATM   28  S   UNL     1      -8.072  17.617  67.568  1.00  0.00    -0.213 S  
HETATM   29  O   UNL     1      -7.925  18.437  66.393  1.00  0.00    -0.255 OA 
HETATM   30  O   UNL     1      -7.879  16.184  67.489  1.00  0.00    -0.133 OA 
BRANCH  28  31
HETATM   31  C   UNL     1      -7.083  18.258  68.894  1.00  0.00    -0.274 A  
HETATM   32  C   UNL     1      -5.198  17.205  72.048  1.00  0.00     0.864 C  
HETATM   33  C   UNL     1      -6.898  19.649  68.938  1.00  0.00    -0.377 A  
HETATM   34  C   UNL     1      -5.127  14.947  73.164  1.00  0.00    -0.003 C  
HETATM   35  C   UNL     1      -6.145  20.225  69.955  1.00  0.00    -0.381 A  
HETATM   36  C   UNL     1      -5.870  15.834  72.169  1.00  0.00     1.164 C  
HETATM   37  C   UNL     1      -5.924  15.211  70.781  1.00  0.00     0.025 C  
HETATM   38  H   UNL     1      -7.433  15.603  69.272  1.00  0.00     0.000 HD 
HETATM   39  N   UNL     1      -6.731  16.027  69.879  1.00  0.00    -0.111 NA 
HETATM   40  C   UNL     1      -5.574  19.415  70.930  1.00  0.00    -0.238 A  
HETATM   41  C   UNL     1      -6.514  17.415  69.871  1.00  0.00     0.053 A  
HETATM   42  C   UNL     1      -5.761  18.020  70.904  1.00  0.00     0.150 A  
ENDBRANCH  28  31
ENDBRANCH  26  28
ENDBRANCH  13  26
ENDBRANCH   7  13
TORSDOF 8
ENDMDL
MODEL      405
REMARK 921   NORMALIZED FREE ENERGY PREDICTED BY IDOCK:   20.17 KCAL/MOL
REMARK 922        TOTAL FREE ENERGY PREDICTED BY IDOCK:   28.35 KCAL/MOL
REMARK 923 INTER-LIGAND FREE ENERGY PREDICTED BY IDOCK:    5.20 KCAL/MOL
REMARK 924 INTRA-LIGAND FREE ENERGY PREDICTED BY IDOCK:   23.15 KCAL/MOL
REMARK 927      BINDING AFFINITY PREDICTED BY RF-SCORE:    0.00 PKD
ROOT
HETATM    1  C   UNL     1      -6.900  10.680  65.574  1.00  0.00    -0.052 C  
HETATM    2  C   UNL     1      -6.916   9.164  65.710  1.00  0.00    -0.085 C  
HETATM    3  C   UNL     1      -7.766   8.503  64.620  1.00  0.00    -0.116 C  
HETATM    4  C   UNL     1      -7.809   6.985  64.796  1.00  0.00    -0.126 C  
HETATM    5  N   UNL     1      -8.167   6.561  66.178  1.00  0.00    -0.117 N  
HETATM    6  C   UNL     1      -7.394   7.222  67.253  1.00  0.00    -0.098 C  
HETATM    7  C   UNL     1      -9.412   5.944  66.355  1.00  0.00    -0.155 C  
HETATM    8  O   UNL     1     -10.148   5.814  65.367  1.00  0.00     0.424 OA 
HETATM    9  O   UNL     1      -5.532   5.849  66.567  1.00  0.00    -0.012 OA 
HETATM   10  C   UNL     1      -7.453   8.745  67.087  1.00  0.00    -0.088 C  
HETATM   11  C   UNL     1      -5.931   6.797  67.416  1.00  0.00    -0.021 C  
HETATM   12  O   UNL     1      -5.173   7.277  68.245  1.00  0.00    -0.019 OA 
ENDROOT
BRANCH   7  13
HETATM   13  C   UNL     1      -9.900   5.291  67.697  1.00  0.00    -0.155 C  
BRANCH  13  14
HETATM   14  C   UNL     1     -11.370   4.808  67.821  1.00  0.00     3.099 C  
BRANCH  14  15
HETATM   15  C   UNL     1     -12.163   5.576  68.898  1.00  0.00     5.618 C  
BRANCH  15  16
HETATM   16  C   UNL     1     -11.296   6.481  69.786  1.00  0.00    -0.393 C  
BRANCH  16  17
HETATM   17  N   UNL     1     -12.173   7.309  70.592  1.00  0.00    -0.558 NA 
HETATM   18  H2  UNL     1     -13.454   8.904  71.936  1.00  0.00     0.000 HD 
HETATM   19  H1  UNL     1     -13.945   7.651  73.139  1.00  0.00     0.000 HD 
HETATM   20  N   UNL     1     -12.890   5.749  72.230  1.00  0.00     0.029 NA 
HETATM   21  N   UNL     1     -13.457   7.949  72.293  1.00  0.00    -0.095 NA 
HETATM   22  C   UNL     1     -12.818   6.915  71.711  1.00  0.00    -0.304 C  
HETATM   23  H   UNL     1     -12.314   8.273  70.288  1.00  0.00     0.000 HD 
HETATM   24  H1  UNL     1     -13.378   5.451  73.075  1.00  0.00     0.000 HD 
HETATM   25  H2  UNL     1     -12.391   5.014  71.729  1.00  0.00     0.000 HD 
ENDBRANCH  16  17
ENDBRANCH  15  16
ENDBRANCH  14  15
ENDBRANCH  13  14
BRANCH  13  26
HETATM   26  N   UNL     1      -9.577   6.109  68.899  1.00  0.00    -0.128 N  
HETATM   27  H   UNL     1     -10.320   6.537  69.452  1.00  0.00     0.000 HD 
BRANCH  26  28
HETATM   28  S   UNL     1      -7.939   6.319  69.333  1.00  0.00    -0.110 S  
HETATM   29  O   UNL     1      -7.126   5.949  68.205  1.00  0.00    -0.073 OA 
HETATM   30  O   UNL     1      -7.793   5.628  70.598  1.00  0.00    -0.095 OA 
BRANCH  28  31
HETATM   31  C   UNL     1      -7.839   8.067  69.618  1.00  0.00    -0.104 A  
HETATM   32  C   UNL     1      -9.499  11.385  68.697  1.00  0.00    -0.168 C  
HETATM   33  C   UNL     1      -6.775   8.524  70.410  1.00  0.00    -0.037 A  
HETATM   34  C   UNL     1     -11.337  11.821  67.030  1.00  0.00    -0.387 C  
HETATM   35  C   UNL     1      -6.624   9.883  70.666  1.00  0.00    -0.104 A  
HETATM   36  C   UNL     1     -10.269  10.834  67.493  1.00  0.00    -0.231 C  
HETATM   37  C   UNL     1     -10.869   9.492  67.890  1.00  0.00    -0.180 C  
HETATM   38  H   UNL     1      -9.837   7.583  67.860  1.00  0.00     0.000 HD 
HETATM   39  N   UNL     1      -9.817   8.536  68.225  1.00  0.00    -0.163 NA 
HETATM   40  C   UNL     1      -7.536  10.787  70.134  1.00  0.00     0.497 A  
HETATM   41  C   UNL     1      -8.777   8.964  69.066  1.00  0.00    -0.136 A  
HETATM   42  C   UNL     1      -8.601  10.343  69.329  1.00  0.00    -0.159 A  
ENDBRANCH  28  31
ENDBRANCH  26  28
ENDBRANCH  13  26
ENDBRANCH   7  13
TORSDOF 8
ENDMDL
MODEL      406
REMARK 921   NORMALIZED FREE ENERGY PREDICTED BY IDOCK:   24.30 KCAL/MOL
REMARK 922        TOTAL FREE ENERGY PREDICTED BY IDOCK:   34.42 KCAL/MOL
REMARK 923 INTER-LIGAND FREE ENERGY PREDICTED BY IDOCK:   25.49 KCAL/MOL
REMARK 924 INTRA-LIGAND FREE ENERGY PREDICTED BY IDOCK:    8.93 KCAL/MOL
REMARK 927      BINDING AFFINITY PREDICTED BY RF-SCORE:    0.00 PKD
ROOT
HETATM    1  C   UNL     1     -11.410   8.996  68.580  1.00  0.00     0.515 C  
HETATM    2  C   UNL     1     -11.657  10.448  68.195  1.00  0.00    -0.056 C  
HETATM    3  C   UNL     1     -11.304  10.717  66.728  1.00  0.00     0.181 C  
HETATM    4  C   UNL     1     -11.514  12.188  66.368  1.00  0.00    -0.370 C  
HETATM    5  N   UNL     1     -10.867  13.127  67.325  1.00  0.00    -0.254 N  
HETATM    6  C   UNL     1     -11.152  12.859  68.752  1.00  0.00    -0.263 C  
HETATM    7  C   UNL     1      -9.772  13.864  66.855  1.00  0.00    -0.268 C  
HETATM    8  O   UNL     1      -9.391  13.671  65.692  1.00  0.00     0.030 OA 
HETATM    9  O   UNL     1     -13.366  13.719  68.327  1.00  0.00     2.497 OA 
HETATM   10  C   UNL     1     -10.842  11.396  69.087  1.00  0.00    -0.260 C  
HETATM   11  C   UNL     1     -12.560  13.195  69.252  1.00  0.00     0.448 C  
HETATM   12  O   UNL     1     -12.937  13.003  70.397  1.00  0.00     0.079 OA 
ENDROOT
BRANCH   7  13
HETATM   13  C   UNL     1      -9.059  15.010  67.657  1.00  0.00    -0.182 C  
BRANCH  13  14
HETATM   14  C   UNL     1      -9.852  15.795  68.735  1.00  0.00    -0.214 C  
BRANCH  14  15
HETATM   15  C   UNL     1     -10.151  14.950  69.990  1.00  0.00     0.091 C  
BRANCH  15  16
HETATM   16  C   UNL     1      -9.522  13.549  69.964  1.00  0.00     2.612 C  
BRANCH  16  17
HETATM   17  N   UNL     1      -8.079  13.694  69.943  1.00  0.00     0.767 NA 
HETATM   18  H2  UNL     1      -5.680  14.114  69.690  1.00  0.00     0.000 HD 
HETATM   19  H1  UNL     1      -5.251  12.373  69.902  1.00  0.00     0.000 HD 
HETATM   20  N   UNL     1      -7.392  11.440  70.219  1.00  0.00     0.025 NA 
HETATM   21  N   UNL     1      -5.926  13.137  69.849  1.00  0.00    -0.130 NA 
HETATM   22  C   UNL     1      -7.185  12.685  70.014  1.00  0.00     1.175 C  
HETATM   23  H   UNL     1      -7.707  14.642  69.868  1.00  0.00     0.000 HD 
HETATM   24  H1  UNL     1      -6.717  10.677  70.273  1.00  0.00     0.000 HD 
HETATM   25  H2  UNL     1      -8.368  11.172  70.346  1.00  0.00     0.000 HD 
ENDBRANCH  16  17
ENDBRANCH  15  16
ENDBRANCH  14  15
ENDBRANCH  13  14
BRANCH  13  26
HETATM   26  N   UNL     1      -8.365  15.995  66.780  1.00  0.00    -0.242 N  
HETATM   27  H   UNL     1      -7.510  15.740  66.287  1.00  0.00     0.000 HD 
BRANCH  26  28
HETATM   28  S   UNL     1      -9.030  17.559  66.617  1.00  0.00    -0.268 S  
HETATM   29  O   UNL     1     -10.345  17.430  66.048  1.00  0.00    -0.395 OA 
HETATM   30  O   UNL     1      -8.011  18.333  65.938  1.00  0.00    -0.499 OA 
BRANCH  28  31
HETATM   31  C   UNL     1      -9.138  18.106  68.301  1.00  0.00    -0.300 A  
HETATM   32  C   UNL     1      -7.458  17.750  71.716  1.00  0.00     8.563 C  
HETATM   33  C   UNL     1     -10.224  18.932  68.635  1.00  0.00    -0.371 A  
HETATM   34  C   UNL     1      -5.577  16.217  72.396  1.00  0.00     1.275 C  
HETATM   35  C   UNL     1     -10.382  19.390  69.939  1.00  0.00     0.663 A  
HETATM   36  C   UNL     1      -6.656  16.496  71.354  1.00  0.00     3.039 C  
HETATM   37  C   UNL     1      -6.066  16.698  69.965  1.00  0.00    -0.148 C  
HETATM   38  H   UNL     1      -7.095  16.347  68.087  1.00  0.00     0.000 HD 
HETATM   39  N   UNL     1      -7.125  16.854  68.972  1.00  0.00    -0.225 NA 
HETATM   40  C   UNL     1      -9.457  19.026  70.911  1.00  0.00     3.058 A  
HETATM   41  C   UNL     1      -8.187  17.723  69.270  1.00  0.00     0.247 A  
HETATM   42  C   UNL     1      -8.371  18.190  70.593  1.00  0.00     4.671 A  
ENDBRANCH  28  31
ENDBRANCH  26  28
ENDBRANCH  13  26
ENDBRANCH   7  13
TORSDOF 8
ENDMDL
MODEL      407
REMARK 921   NORMALIZED FREE ENERGY PREDICTED BY IDOCK:   29.33 KCAL/MOL
REMARK 922        TOTAL FREE ENERGY PREDICTED BY IDOCK:   41.80 KCAL/MOL
REMARK 923 INTER-LIGAND FREE ENERGY PREDICTED BY IDOCK:   29.88 KCAL/MOL
REMARK 924 INTRA-LIGAND FREE ENERGY PREDICTED BY IDOCK:   11.92 KCAL/MOL
REMARK 927      BINDING AFFINITY PREDICTED BY RF-SCORE:    0.00 PKD
ROOT
HETATM    1  C   UNL     1      -8.682   9.158  65.485  1.00  0.00    -0.210 C  
HETATM    2  C   UNL     1      -9.338  10.511  65.725  1.00  0.00    -0.229 C  
HETATM    3  C   UNL     1      -8.959  11.528  64.643  1.00  0.00     0.243 C  
HETATM    4  C   UNL     1      -9.587  12.893  64.923  1.00  0.00     0.245 C  
HETATM    5  N   UNL     1      -9.355  13.376  66.312  1.00  0.00    -0.180 N  
HETATM    6  C   UNL     1      -9.666  12.395  67.374  1.00  0.00    -0.193 C  
HETATM    7  C   UNL     1      -8.509  14.483  66.470  1.00  0.00     0.165 C  
HETATM    8  O   UNL     1      -7.986  14.970  65.458  1.00  0.00     2.568 OA 
HETATM    9  O   UNL     1     -11.992  12.805  66.877  1.00  0.00    -0.398 OA 
HETATM   10  C   UNL     1      -8.943  11.072  67.100  1.00  0.00    -0.145 C  
HETATM   11  C   UNL     1     -11.147  12.106  67.638  1.00  0.00    -0.268 C  
HETATM   12  O   UNL     1     -11.545  11.303  68.467  1.00  0.00    -0.274 OA 
ENDROOT
BRANCH   7  13
HETATM   13  C   UNL     1      -8.266  15.231  67.829  1.00  0.00    -0.147 C  
BRANCH  13  14
HETATM   14  C   UNL     1      -8.056  16.768  67.827  1.00  0.00    -0.186 C  
BRANCH  14  15
HETATM   15  C   UNL     1      -8.051  17.373  69.246  1.00  0.00     0.154 C  
BRANCH  15  16
HETATM   16  C   UNL     1      -9.388  18.007  69.660  1.00  0.00     0.763 C  
BRANCH  16  17
HETATM   17  N   UNL     1      -9.846  18.859  68.578  1.00  0.00    -0.379 NA 
HETATM   18  H2  UNL     1     -10.480  20.506  66.881  1.00  0.00     0.000 HD 
HETATM   19  H1  UNL     1     -12.188  19.926  66.813  1.00  0.00     0.000 HD 
HETATM   20  N   UNL     1     -12.111  18.179  68.393  1.00  0.00     2.248 NA 
HETATM   21  N   UNL     1     -11.236  19.887  67.177  1.00  0.00    -0.009 NA 
HETATM   22  C   UNL     1     -11.106  18.912  68.097  1.00  0.00     0.402 C  
HETATM   23  H   UNL     1      -9.155  19.472  68.144  1.00  0.00     0.000 HD 
HETATM   24  H1  UNL     1     -13.064  18.218  68.030  1.00  0.00     0.000 HD 
HETATM   25  H2  UNL     1     -11.937  17.455  69.090  1.00  0.00     0.000 HD 
ENDBRANCH  16  17
ENDBRANCH  15  16
ENDBRANCH  14  15
ENDBRANCH  13  14
BRANCH  13  26
HETATM   26  N   UNL     1      -7.188  14.616  68.652  1.00  0.00    -0.114 N  
HETATM   27  H   UNL     1      -6.238  14.537  68.289  1.00  0.00     0.000 HD 
BRANCH  26  28
HETATM   28  S   UNL     1      -7.573  14.045  70.215  1.00  0.00     1.561 S  
HETATM   29  O   UNL     1      -6.384  14.118  71.023  1.00  0.00    -0.125 OA 
HETATM   30  O   UNL     1      -8.235  12.775  70.000  1.00  0.00     2.193 OA 
BRANCH  28  31
HETATM   31  C   UNL     1      -8.770  15.231  70.771  1.00  0.00     2.090 A  
HETATM   32  C   UNL     1     -12.512  15.688  71.401  1.00  0.00    -0.500 C  
HETATM   33  C   UNL     1      -8.301  16.520  71.067  1.00  0.00     5.399 A  
HETATM   34  C   UNL     1     -14.404  14.108  70.879  1.00  0.00     0.645 C  
HETATM   35  C   UNL     1      -9.183  17.506  71.497  1.00  0.00     9.113 A  
HETATM   36  C   UNL     1     -12.947  14.460  70.595  1.00  0.00    -0.348 C  
HETATM   37  C   UNL     1     -12.008  13.312  70.940  1.00  0.00    -0.000 C  
HETATM   38  H   UNL     1     -10.057  12.962  70.056  1.00  0.00     0.000 HD 
HETATM   39  N   UNL     1     -10.636  13.636  70.558  1.00  0.00     1.588 NA 
HETATM   40  C   UNL     1     -10.534  17.206  71.633  1.00  0.00     3.186 A  
HETATM   41  C   UNL     1     -10.135  14.902  70.901  1.00  0.00     1.057 A  
HETATM   42  C   UNL     1     -11.019  15.921  71.329  1.00  0.00    -0.039 A  
ENDBRANCH  28  31
ENDBRANCH  26  28
ENDBRANCH  13  26
ENDBRANCH   7  13
TORSDOF 8
ENDMDL
MODEL      408
REMARK 921   NORMALIZED FREE ENERGY PREDICTED BY IDOCK:   30.58 KCAL/MOL
REMARK 922        TOTAL FREE ENERGY PREDICTED BY IDOCK:   43.63 KCAL/MOL
REMARK 923 INTER-LIGAND FREE ENERGY PREDICTED BY IDOCK:   14.13 KCAL/MOL
REMARK 924 INTRA-LIGAND FREE ENERGY PREDICTED BY IDOCK:   29.50 KCAL/MOL
REMARK 927      BINDING AFFINITY PREDICTED BY RF-SCORE:    0.00 PKD
ROOT
HETATM    1  C   UNL     1     -14.295  14.050  66.636  1.00  0.00     9.548 C  
HETATM    2  C   UNL     1     -12.804  14.321  66.784  1.00  0.00     0.627 C  
HETATM    3  C   UNL     1     -12.281  13.898  68.160  1.00  0.00    -0.185 C  
HETATM    4  C   UNL     1     -10.794  14.217  68.310  1.00  0.00    -0.246 C  
HETATM    5  N   UNL     1     -10.452  15.619  67.941  1.00  0.00    -0.260 N  
HETATM    6  C   UNL     1     -10.987  16.069  66.637  1.00  0.00    -0.092 C  
HETATM    7  C   UNL     1     -10.052  16.472  68.977  1.00  0.00    -0.279 C  
HETATM    8  O   UNL     1     -10.035  16.026  70.132  1.00  0.00    -0.091 OA 
HETATM    9  O   UNL     1      -9.315  14.656  65.621  1.00  0.00    -0.169 OA 
HETATM   10  C   UNL     1     -12.496  15.810  66.567  1.00  0.00     1.910 C  
HETATM   11  C   UNL     1     -10.326  15.493  65.380  1.00  0.00    -0.394 C  
HETATM   12  O   UNL     1     -10.683  15.759  64.243  1.00  0.00    -0.225 OA 
ENDROOT
BRANCH   7  13
HETATM   13  C   UNL     1      -9.505  17.930  68.770  1.00  0.00    -0.259 C  
BRANCH  13  14
HETATM   14  C   UNL     1      -9.554  18.939  69.948  1.00  0.00     0.747 C  
BRANCH  14  15
HETATM   15  C   UNL     1      -9.971  20.356  69.504  1.00  0.00     0.269 C  
BRANCH  15  16
HETATM   16  C   UNL     1      -8.798  21.339  69.371  1.00  0.00     3.706 C  
BRANCH  16  17
HETATM   17  N   UNL     1      -7.559  20.582  69.400  1.00  0.00     0.600 NA 
HETATM   18  H2  UNL     1      -5.457  19.372  69.722  1.00  0.00     0.000 HD 
HETATM   19  H1  UNL     1      -4.740  20.007  68.191  1.00  0.00     0.000 HD 
HETATM   20  N   UNL     1      -6.518  21.342  67.409  1.00  0.00    -0.567 NA 
HETATM   21  N   UNL     1      -5.497  19.934  68.872  1.00  0.00    -0.202 NA 
HETATM   22  C   UNL     1      -6.557  20.678  68.500  1.00  0.00    -0.195 C  
HETATM   23  H   UNL     1      -7.435  19.921  70.167  1.00  0.00     0.000 HD 
HETATM   24  H1  UNL     1      -5.760  21.415  66.728  1.00  0.00     0.000 HD 
HETATM   25  H2  UNL     1      -7.359  21.874  67.187  1.00  0.00     0.000 HD 
ENDBRANCH  16  17
ENDBRANCH  15  16
ENDBRANCH  14  15
ENDBRANCH  13  14
BRANCH  13  26
HETATM   26  N   UNL     1     -10.061  18.599  67.561  1.00  0.00    -0.342 N  
HETATM   27  H   UNL     1     -10.550  19.490  67.639  1.00  0.00     0.000 HD 
BRANCH  26  28
HETATM   28  S   UNL     1      -9.865  17.844  66.042  1.00  0.00    -0.090 S  
HETATM   29  O   UNL     1     -10.309  18.762  65.025  1.00  0.00     0.239 OA 
HETATM   30  O   UNL     1     -10.495  16.547  66.181  1.00  0.00    -0.318 OA 
BRANCH  28  31
HETATM   31  C   UNL     1      -8.108  17.623  65.948  1.00  0.00    -0.010 A  
HETATM   32  C   UNL     1      -5.244  15.505  67.334  1.00  0.00     0.113 C  
HETATM   33  C   UNL     1      -7.393  18.528  65.147  1.00  0.00     0.824 A  
HETATM   34  C   UNL     1      -5.308  13.760  69.150  1.00  0.00    -0.077 C  
HETATM   35  C   UNL     1      -6.010  18.424  65.035  1.00  0.00    -0.184 A  
HETATM   36  C   UNL     1      -6.039  14.939  68.515  1.00  0.00    -0.093 C  
HETATM   37  C   UNL     1      -7.420  14.545  68.008  1.00  0.00    -0.137 C  
HETATM   38  H   UNL     1      -9.109  15.884  67.762  1.00  0.00     0.000 HD 
HETATM   39  N   UNL     1      -8.137  15.713  67.504  1.00  0.00    -0.149 NA 
HETATM   40  C   UNL     1      -5.339  17.418  65.720  1.00  0.00     0.106 A  
HETATM   41  C   UNL     1      -7.450  16.594  66.654  1.00  0.00    -0.276 A  
HETATM   42  C   UNL     1      -6.042  16.512  66.536  1.00  0.00     0.284 A  
ENDBRANCH  28  31
ENDBRANCH  26  28
ENDBRANCH  13  26
ENDBRANCH   7  13
TORSDOF 8
ENDMDL
MODEL      409
REMARK 921   NORMALIZED FREE ENERGY PREDICTED BY IDOCK:   30.96 KCAL/MOL
REMARK 922        TOTAL FREE ENERGY PREDICTED BY IDOCK:   44.19 KCAL/MOL
REMARK 923 INTER-LIGAND FREE ENERGY PREDICTED BY IDOCK:   35.40 KCAL/MOL
REMARK 924 INTRA-LIGAND FREE ENERGY PREDICTED BY IDOCK:    8.79 KCAL/MOL
REMARK 927      BINDING AFFINITY PREDICTED BY RF-SCORE:    0.00 PKD
ROOT
HETATM    1  C   UNL     1     -11.849  10.040  66.883  1.00  0.00     2.677 C  
HETATM    2  C   UNL     1     -11.168  11.309  66.391  1.00  0.00    -0.190 C  
HETATM    3  C   UNL     1      -9.902  11.001  65.583  1.00  0.00    -0.287 C  
HETATM    4  C   UNL     1      -9.205  12.285  65.135  1.00  0.00     0.373 C  
HETATM    5  N   UNL     1      -8.989  13.256  66.242  1.00  0.00     0.027 N  
HETATM    6  C   UNL     1     -10.184  13.535  67.069  1.00  0.00    -0.249 C  
HETATM    7  C   UNL     1      -7.667  13.477  66.651  1.00  0.00     0.863 C  
HETATM    8  O   UNL     1      -6.766  12.835  66.093  1.00  0.00     1.378 OA 
HETATM    9  O   UNL     1     -11.018  14.798  65.190  1.00  0.00    -0.344 OA 
HETATM   10  C   UNL     1     -10.798  12.223  67.570  1.00  0.00    -0.271 C  
HETATM   11  C   UNL     1     -11.286  14.386  66.431  1.00  0.00    -0.350 C  
HETATM   12  O   UNL     1     -12.334  14.671  66.989  1.00  0.00    -0.225 OA 
ENDROOT
BRANCH   7  13
HETATM   13  C   UNL     1      -7.226  14.571  67.687  1.00  0.00    -0.187 C  
BRANCH  13  14
HETATM   14  C   UNL     1      -6.489  15.842  67.189  1.00  0.00    -0.041 C  
BRANCH  14  15
HETATM   15  C   UNL     1      -7.334  17.123  67.345  1.00  0.00    -0.176 C  
BRANCH  15  16
HETATM   16  C   UNL     1      -8.850  16.884  67.271  1.00  0.00    -0.195 C  
BRANCH  16  17
HETATM   17  N   UNL     1      -9.365  16.781  68.624  1.00  0.00    -0.245 NA 
HETATM   18  H2  UNL     1     -10.303  16.343  70.842  1.00  0.00     0.000 HD 
HETATM   19  H1  UNL     1     -11.149  17.936  70.909  1.00  0.00     0.000 HD 
HETATM   20  N   UNL     1     -10.511  18.848  68.831  1.00  0.00    -0.413 NA 
HETATM   21  N   UNL     1     -10.556  17.248  70.444  1.00  0.00     0.571 NA 
HETATM   22  C   UNL     1     -10.150  17.691  69.239  1.00  0.00    -0.147 C  
HETATM   23  H   UNL     1      -9.111  15.948  69.157  1.00  0.00     0.000 HD 
HETATM   24  H1  UNL     1     -11.104  19.536  69.296  1.00  0.00     0.000 HD 
HETATM   25  H2  UNL     1     -10.157  19.121  67.915  1.00  0.00     0.000 HD 
ENDBRANCH  16  17
ENDBRANCH  15  16
ENDBRANCH  14  15
ENDBRANCH  13  14
BRANCH  13  26
HETATM   26  N   UNL     1      -6.464  14.013  68.839  1.00  0.00    -0.091 N  
HETATM   27  H   UNL     1      -5.715  14.551  69.276  1.00  0.00     0.000 HD 
BRANCH  26  28
HETATM   28  S   UNL     1      -6.867  12.457  69.414  1.00  0.00     0.094 S  
HETATM   29  O   UNL     1      -6.030  12.168  70.549  1.00  0.00    -0.207 OA 
HETATM   30  O   UNL     1      -6.834  11.603  68.245  1.00  0.00    -0.061 OA 
BRANCH  28  31
HETATM   31  C   UNL     1      -8.552  12.663  69.928  1.00  0.00     2.920 A  
HETATM   32  C   UNL     1     -10.894  15.090  71.727  1.00  0.00     0.395 C  
HETATM   33  C   UNL     1      -9.427  11.592  69.689  1.00  0.00     1.032 A  
HETATM   34  C   UNL     1     -10.329  17.237  72.917  1.00  0.00     6.275 C  
HETATM   35  C   UNL     1     -10.761  11.676  70.076  1.00  0.00     0.597 A  
HETATM   36  C   UNL     1      -9.778  15.929  72.357  1.00  0.00     6.314 C  
HETATM   37  C   UNL     1      -8.712  16.169  71.297  1.00  0.00     5.434 C  
HETATM   38  H   UNL     1      -7.117  14.795  70.770  1.00  0.00     0.000 HD 
HETATM   39  N   UNL     1      -8.128  14.905  70.858  1.00  0.00     1.818 NA 
HETATM   40  C   UNL     1     -11.223  12.829  70.700  1.00  0.00     1.378 A  
HETATM   41  C   UNL     1      -8.997  13.843  70.559  1.00  0.00     3.861 A  
HETATM   42  C   UNL     1     -10.354  13.906  70.955  1.00  0.00     3.077 A  
ENDBRANCH  28  31
ENDBRANCH  26  28
ENDBRANCH  13  26
ENDBRANCH   7  13
TORSDOF 8
ENDMDL
MODEL      410
REMARK 921   NORMALIZED FREE ENERGY PREDICTED BY IDOCK:   33.60 KCAL/MOL
REMARK 922        TOTAL FREE ENERGY PREDICTED BY IDOCK:   48.07 KCAL/MOL
REMARK 923 INTER-LIGAND FREE ENERGY PREDICTED BY IDOCK:   12.51 KCAL/MOL
REMARK 924 INTRA-LIGAND FREE ENERGY PREDICTED BY IDOCK:   35.55 KCAL/MOL
REMARK 927      BINDING AFFINITY PREDICTED BY RF-SCORE:    0.00 PKD
ROOT
HETATM    1  C   UNL     1      -8.460  11.656  69.773  1.00  0.00     1.536 C  
HETATM    2  C   UNL     1      -8.168  12.329  68.440  1.00  0.00    -0.146 C  
HETATM    3  C   UNL     1      -6.746  12.899  68.388  1.00  0.00    -0.092 C  
HETATM    4  C   UNL     1      -6.482  13.610  67.061  1.00  0.00     0.908 C  
HETATM    5  N   UNL     1      -7.538  14.596  66.701  1.00  0.00     0.560 N  
HETATM    6  C   UNL     1      -8.924  14.087  66.790  1.00  0.00    -0.197 C  
HETATM    7  C   UNL     1      -7.183  15.951  66.728  1.00  0.00    -0.047 C  
HETATM    8  O   UNL     1      -6.032  16.249  67.075  1.00  0.00    -0.290 OA 
HETATM    9  O   UNL     1      -8.441  12.826  64.790  1.00  0.00     2.318 OA 
HETATM   10  C   UNL     1      -9.170  13.462  68.168  1.00  0.00    -0.215 C  
HETATM   11  C   UNL     1      -9.370  13.096  65.710  1.00  0.00     0.165 C  
HETATM   12  O   UNL     1     -10.475  12.579  65.677  1.00  0.00    -0.262 OA 
ENDROOT
BRANCH   7  13
HETATM   13  C   UNL     1      -8.104  17.124  66.233  1.00  0.00    -0.290 C  
BRANCH  13  14
HETATM   14  C   UNL     1      -7.559  18.577  66.239  1.00  0.00    -0.286 C  
BRANCH  14  15
HETATM   15  C   UNL     1      -7.359  19.135  67.663  1.00  0.00    -0.253 C  
BRANCH  15  16
HETATM   16  C   UNL     1      -8.418  18.666  68.672  1.00  0.00    -0.306 C  
BRANCH  16  17
HETATM   17  N   UNL     1      -9.576  19.534  68.558  1.00  0.00    -0.379 NA 
HETATM   18  H2  UNL     1     -11.651  20.832  68.558  1.00  0.00     0.000 HD 
HETATM   19  H1  UNL     1     -11.676  20.981  66.759  1.00  0.00     0.000 HD 
HETATM   20  N   UNL     1      -9.709  19.806  66.205  1.00  0.00    -0.417 NA 
HETATM   21  N   UNL     1     -11.260  20.656  67.632  1.00  0.00     1.416 NA 
HETATM   22  C   UNL     1     -10.127  19.964  67.403  1.00  0.00    -0.430 C  
HETATM   23  H   UNL     1     -10.012  19.845  69.427  1.00  0.00     0.000 HD 
HETATM   24  H1  UNL     1     -10.125  20.131  65.331  1.00  0.00     0.000 HD 
HETATM   25  H2  UNL     1      -8.840  19.281  66.108  1.00  0.00     0.000 HD 
ENDBRANCH  16  17
ENDBRANCH  15  16
ENDBRANCH  14  15
ENDBRANCH  13  14
BRANCH  13  26
HETATM   26  N   UNL     1      -9.446  17.128  66.879  1.00  0.00    -0.250 N  
HETATM   27  H   UNL     1      -9.930  18.006  67.066  1.00  0.00     0.000 HD 
BRANCH  26  28
HETATM   28  S   UNL     1     -10.158  15.635  67.300  1.00  0.00    -0.260 S  
HETATM   29  O   UNL     1      -9.319  14.579  66.797  1.00  0.00    -0.238 OA 
HETATM   30  O   UNL     1     -11.537  15.740  66.870  1.00  0.00     0.048 OA 
BRANCH  28  31
HETATM   31  C   UNL     1     -10.105  15.671  69.073  1.00  0.00    -0.227 A  
HETATM   32  C   UNL     1      -7.726  15.287  72.040  1.00  0.00     5.217 C  
HETATM   33  C   UNL     1     -11.326  15.845  69.745  1.00  0.00    -0.347 A  
HETATM   34  C   UNL     1      -5.301  14.603  72.039  1.00  0.00    -0.090 C  
HETATM   35  C   UNL     1     -11.364  15.872  71.135  1.00  0.00    -0.435 A  
HETATM   36  C   UNL     1      -6.601  14.624  71.239  1.00  0.00     0.631 C  
HETATM   37  C   UNL     1      -6.447  15.379  69.926  1.00  0.00    -0.155 C  
HETATM   38  H   UNL     1      -7.639  15.069  68.139  1.00  0.00     0.000 HD 
HETATM   39  N   UNL     1      -7.672  15.291  69.135  1.00  0.00    -0.183 NA 
HETATM   40  C   UNL     1     -10.185  15.726  71.857  1.00  0.00     2.377 A  
HETATM   41  C   UNL     1      -8.896  15.521  69.783  1.00  0.00    -0.015 A  
HETATM   42  C   UNL     1      -8.957  15.540  71.197  1.00  0.00     3.145 A  
ENDBRANCH  28  31
ENDBRANCH  26  28
ENDBRANCH  13  26
ENDBRANCH   7  13
TORSDOF 8
ENDMDL
MODEL      411
REMARK 921   NORMALIZED FREE ENERGY PREDICTED BY IDOCK:   85.43 KCAL/MOL
REMARK 922        TOTAL FREE ENERGY PREDICTED BY IDOCK:  124.13 KCAL/MOL
REMARK 923 INTER-LIGAND FREE ENERGY PREDICTED BY IDOCK:   46.41 KCAL/MOL
REMARK 924 INTRA-LIGAND FREE ENERGY PREDICTED BY IDOCK:   77.72 KCAL/MOL
REMARK 927      BINDING AFFINITY PREDICTED BY RF-SCORE:    0.00 PKD
ROOT
HETATM    1  C   UNL     1      -8.664   9.162  65.445  1.00  0.00    -0.217 C  
HETATM    2  C   UNL     1      -9.182  10.574  65.214  1.00  0.00    -0.238 C  
HETATM    3  C   UNL     1      -8.722  11.136  63.864  1.00  0.00     0.168 C  
HETATM    4  C   UNL     1      -9.211  12.570  63.666  1.00  0.00     1.238 C  
HETATM    5  N   UNL     1      -8.913  13.460  64.822  1.00  0.00     1.857 N  
HETATM    6  C   UNL     1      -9.302  12.920  66.142  1.00  0.00    -0.092 C  
HETATM    7  C   UNL     1      -7.962  14.470  64.621  1.00  0.00    10.776 C  
HETATM    8  O   UNL     1      -7.408  14.544  63.515  1.00  0.00    17.329 OA 
HETATM    9  O   UNL     1     -11.584  13.365  65.495  1.00  0.00    -0.313 OA 
HETATM   10  C   UNL     1      -8.715  11.517  66.334  1.00  0.00    -0.179 C  
HETATM   11  C   UNL     1     -10.800  12.878  66.460  1.00  0.00    -0.271 C  
HETATM   12  O   UNL     1     -11.262  12.436  67.500  1.00  0.00    -0.260 OA 
ENDROOT
BRANCH   7  13
HETATM   13  C   UNL     1      -7.627  15.598  65.661  1.00  0.00     3.538 C  
BRANCH  13  14
HETATM   14  C   UNL     1      -7.205  17.002  65.155  1.00  0.00     3.024 C  
BRANCH  14  15
HETATM   15  C   UNL     1      -6.856  17.972  66.303  1.00  0.00    -0.291 C  
BRANCH  15  16
HETATM   16  C   UNL     1      -7.580  17.664  67.622  1.00  0.00    -0.204 C  
BRANCH  16  17
HETATM   17  N   UNL     1      -8.986  17.448  67.334  1.00  0.00    -0.229 NA 
HETATM   18  H2  UNL     1     -11.394  17.061  67.127  1.00  0.00     0.000 HD 
HETATM   19  H1  UNL     1     -11.193  15.919  65.743  1.00  0.00     0.000 HD 
HETATM   20  N   UNL     1      -8.848  15.942  65.506  1.00  0.00    -0.114 NA 
HETATM   21  N   UNL     1     -10.821  16.548  66.455  1.00  0.00    -0.130 NA 
HETATM   22  C   UNL     1      -9.477  16.615  66.392  1.00  0.00    -0.280 C  
HETATM   23  H   UNL     1      -9.661  17.971  67.893  1.00  0.00     0.000 HD 
HETATM   24  H1  UNL     1      -9.219  15.312  64.794  1.00  0.00     0.000 HD 
HETATM   25  H2  UNL     1      -7.834  16.049  65.511  1.00  0.00     0.000 HD 
ENDBRANCH  16  17
ENDBRANCH  15  16
ENDBRANCH  14  15
ENDBRANCH  13  14
BRANCH  13  26
HETATM   26  N   UNL     1      -6.653  15.166  66.702  1.00  0.00     0.832 N  
HETATM   27  H   UNL     1      -5.758  14.756  66.437  1.00  0.00     0.000 HD 
BRANCH  26  28
HETATM   28  S   UNL     1      -7.064  15.371  68.346  1.00  0.00    -0.116 S  
HETATM   29  O   UNL     1      -5.844  15.469  69.104  1.00  0.00    -0.103 OA 
HETATM   30  O   UNL     1      -8.019  14.320  68.631  1.00  0.00    -0.136 OA 
BRANCH  28  31
HETATM   31  C   UNL     1      -7.911  16.930  68.338  1.00  0.00    -0.229 A  
HETATM   32  C   UNL     1     -11.381  18.492  68.693  1.00  0.00     1.674 C  
HETATM   33  C   UNL     1      -7.143  18.072  68.059  1.00  0.00    -0.220 A  
HETATM   34  C   UNL     1     -13.616  17.345  68.884  1.00  0.00     9.599 C  
HETATM   35  C   UNL     1      -7.741  19.327  68.023  1.00  0.00    -0.323 A  
HETATM   36  C   UNL     1     -12.152  17.185  68.484  1.00  0.00     1.900 C  
HETATM   37  C   UNL     1     -11.459  16.095  69.291  1.00  0.00    -0.304 C  
HETATM   38  H   UNL     1      -9.729  14.952  68.652  1.00  0.00     0.000 HD 
HETATM   39  N   UNL     1     -10.093  15.891  68.815  1.00  0.00    -0.213 NA 
HETATM   40  C   UNL     1      -9.105  19.446  68.266  1.00  0.00    -0.397 A  
HETATM   41  C   UNL     1      -9.296  17.024  68.588  1.00  0.00    -0.270 A  
HETATM   42  C   UNL     1      -9.888  18.308  68.536  1.00  0.00    -0.400 A  
ENDBRANCH  28  31
ENDBRANCH  26  28
ENDBRANCH  13  26
ENDBRANCH   7  13
TORSDOF 8
ENDMDL
