MODEL        1
REMARK 921   NORMALIZED FREE ENERGY PREDICTED BY IDOCK:   -6.29 KCAL/MOL
REMARK 922        TOTAL FREE ENERGY PREDICTED BY IDOCK:  -17.49 KCAL/MOL
REMARK 923 INTER-LIGAND FREE ENERGY PREDICTED BY IDOCK:  -13.65 KCAL/MOL
REMARK 924 INTRA-LIGAND FREE ENERGY PREDICTED BY IDOCK:   -3.84 KCAL/MOL
REMARK 927      BINDING AFFINITY PREDICTED BY RF-SCORE:    0.00 PKD
ROOT
HETATM    1  C   UNL     1     -13.178  15.887  73.364  1.00  0.00    -0.668 C  
HETATM    2  C   UNL     1     -14.162  15.419  72.305  1.00  0.00    -0.639 C  
ENDROOT
BRANCH   2   3
HETATM    3  C   UNL     1     -14.064  13.910  72.081  1.00  0.00    -0.630 C  
BRANCH   3   4
HETATM    4  C   UNL     1     -12.745  13.534  71.407  1.00  0.00    -0.423 C  
BRANCH   4   5
HETATM    5  C   UNL     1     -12.646  12.022  71.199  1.00  0.00    -0.372 C  
BRANCH   5   6
HETATM    6  C   UNL     1     -11.790  11.687  69.978  1.00  0.00    -0.435 C  
BRANCH   6   7
HETATM    7  C   UNL     1     -11.348  10.224  69.996  1.00  0.00    -0.370 C  
BRANCH   7   8
HETATM    8  C   UNL     1     -11.850   9.517  71.255  1.00  0.00    -0.450 C  
BRANCH   8   9
HETATM    9  C   UNL     1     -10.729   8.732  71.938  1.00  0.00    -0.429 C  
BRANCH   9  10
HETATM   10  C   UNL     1     -11.069   7.240  71.997  1.00  0.00    -0.277 C  
BRANCH  10  11
HETATM   11  C   UNL     1     -11.908   6.781  70.808  1.00  0.00    -0.446 C  
BRANCH  11  12
HETATM   12  C   UNL     1     -11.073   6.315  69.638  1.00  0.00    -0.412 C  
HETATM   13  O   UNL     1     -11.384   6.418  68.460  1.00  0.00    -0.303 OA 
BRANCH  12  14
HETATM   14  O   UNL     1      -9.910   5.785  70.106  1.00  0.00    -0.169 OA 
BRANCH  14  15
HETATM   15  C   UNL     1      -8.723   6.120  69.373  1.00  0.00    -0.123 C  
BRANCH  15  16
HETATM   16  N   UNL     1      -8.120   7.369  69.811  1.00  0.00    -0.125 N  
HETATM   17  C   UNL     1      -7.338   7.269  70.960  1.00  0.00    -0.074 C  
HETATM   18  C   UNL     1      -7.154   8.543  71.738  1.00  0.00    -0.106 C  
HETATM   19  O   UNL     1      -6.912   6.204  71.400  1.00  0.00    -0.071 OA 
HETATM   20  C   UNL     1      -6.798   9.713  70.857  1.00  0.00    -0.054 C  
HETATM   21  C   UNL     1      -7.622   9.757  69.602  1.00  0.00    -0.120 A  
HETATM   22  C   UNL     1      -7.718  10.975  68.911  1.00  0.00    -0.140 A  
HETATM   23  C   UNL     1      -8.380  11.053  67.686  1.00  0.00    -0.117 A  
HETATM   24  C   UNL     1      -8.924   9.902  67.128  1.00  0.00    -0.138 A  
HETATM   25  C   UNL     1      -8.839   8.689  67.824  1.00  0.00    -0.137 A  
HETATM   26  C   UNL     1      -8.212   8.595  69.078  1.00  0.00    -0.122 A  
BRANCH  24  27
HETATM   27  O   UNL     1      -9.592   9.847  65.934  1.00  0.00    -0.201 OA 
BRANCH  27  28
HETATM   28  C   UNL     1      -9.360  10.926  65.026  1.00  0.00    -0.226 C  
BRANCH  28  29
HETATM   29  C   UNL     1     -10.403  10.865  63.907  1.00  0.00    -0.397 C  
BRANCH  29  30
HETATM   30  C   UNL     1     -11.465  11.966  64.050  1.00  0.00    -0.480 C  
BRANCH  30  31
HETATM   31  C   UNL     1     -11.763  12.341  65.516  1.00  0.00    -0.377 C  
BRANCH  31  32
HETATM   32  N   UNL     1     -12.299  13.698  65.675  1.00  0.00    -0.451 NA 
HETATM   33  C   UNL     1     -12.252  14.192  67.066  1.00  0.00    -0.339 C  
HETATM   34  C   UNL     1     -10.839  14.586  67.538  1.00  0.00    -0.289 C  
HETATM   35  N   UNL     1     -10.358  15.704  66.710  1.00  0.00    -0.281 NA 
HETATM   36  C   UNL     1     -10.320  15.372  65.272  1.00  0.00    -0.390 C  
HETATM   37  C   UNL     1     -11.636  14.685  64.789  1.00  0.00    -0.418 C  
BRANCH  35  38
HETATM   38  C   UNL     1      -9.878  16.876  67.287  1.00  0.00    -0.265 A  
HETATM   39  C   UNL     1      -8.582  17.086  67.834  1.00  0.00    -0.207 A  
HETATM   40 CL   UNL     1      -7.430  15.785  67.998  1.00  0.00    -0.128 Cl 
HETATM   41  C   UNL     1      -8.211  18.348  68.360  1.00  0.00    -0.312 A  
HETATM   42  C   UNL     1      -9.120  19.406  68.406  1.00  0.00    -0.410 A  
HETATM   43 CL   UNL     1      -6.624  18.684  68.982  1.00  0.00    -0.274 Cl 
HETATM   44  C   UNL     1     -10.393  19.228  67.899  1.00  0.00    -0.518 A  
HETATM   45  C   UNL     1     -10.744  17.999  67.333  1.00  0.00    -0.334 A  
ENDBRANCH  35  38
ENDBRANCH  31  32
ENDBRANCH  30  31
ENDBRANCH  29  30
ENDBRANCH  28  29
ENDBRANCH  27  28
ENDBRANCH  24  27
ENDBRANCH  15  16
ENDBRANCH  14  15
ENDBRANCH  12  14
ENDBRANCH  11  12
ENDBRANCH  10  11
ENDBRANCH   9  10
ENDBRANCH   8   9
ENDBRANCH   7   8
ENDBRANCH   6   7
ENDBRANCH   5   6
ENDBRANCH   4   5
ENDBRANCH   3   4
ENDBRANCH   2   3
TORSDOF 20
ENDMDL
MODEL        2
REMARK 921   NORMALIZED FREE ENERGY PREDICTED BY IDOCK:   -5.95 KCAL/MOL
REMARK 922        TOTAL FREE ENERGY PREDICTED BY IDOCK:  -16.75 KCAL/MOL
REMARK 923 INTER-LIGAND FREE ENERGY PREDICTED BY IDOCK:  -12.07 KCAL/MOL
REMARK 924 INTRA-LIGAND FREE ENERGY PREDICTED BY IDOCK:   -4.67 KCAL/MOL
REMARK 927      BINDING AFFINITY PREDICTED BY RF-SCORE:    0.00 PKD
ROOT
HETATM    1  C   UNL     1     -13.617   9.223  71.556  1.00  0.00    -0.412 C  
HETATM    2  C   UNL     1     -12.455   8.363  72.026  1.00  0.00    -0.407 C  
ENDROOT
BRANCH   2   3
HETATM    3  C   UNL     1     -12.278   7.133  71.137  1.00  0.00    -0.405 C  
BRANCH   3   4
HETATM    4  C   UNL     1     -10.971   6.405  71.449  1.00  0.00    -0.316 C  
BRANCH   4   5
HETATM    5  C   UNL     1     -10.290   5.925  70.167  1.00  0.00    -0.305 C  
BRANCH   5   6
HETATM    6  C   UNL     1     -11.041   6.409  68.928  1.00  0.00    -0.420 C  
BRANCH   6   7
HETATM    7  C   UNL     1     -10.333   5.971  67.645  1.00  0.00    -0.258 C  
BRANCH   7   8
HETATM    8  C   UNL     1      -9.877   7.182  66.832  1.00  0.00    -0.271 C  
BRANCH   8   9
HETATM    9  C   UNL     1      -8.413   7.051  66.411  1.00  0.00    -0.130 C  
BRANCH   9  10
HETATM   10  C   UNL     1      -8.106   7.962  65.220  1.00  0.00    -0.135 C  
BRANCH  10  11
HETATM   11  C   UNL     1      -8.924   9.251  65.239  1.00  0.00    -0.260 C  
BRANCH  11  12
HETATM   12  C   UNL     1      -8.978   9.939  63.895  1.00  0.00    -0.248 C  
HETATM   13  O   UNL     1      -8.558   9.476  62.845  1.00  0.00    -0.185 OA 
BRANCH  12  14
HETATM   14  O   UNL     1      -9.590  11.146  64.039  1.00  0.00    -0.231 OA 
BRANCH  14  15
HETATM   15  C   UNL     1     -11.008  11.114  64.250  1.00  0.00    -0.205 C  
BRANCH  15  16
HETATM   16  N   UNL     1     -11.478  12.191  65.109  1.00  0.00    -0.332 N  
HETATM   17  C   UNL     1     -12.018  13.284  64.433  1.00  0.00    -0.406 C  
HETATM   18  C   UNL     1     -12.008  14.586  65.185  1.00  0.00    -0.369 C  
HETATM   19  O   UNL     1     -12.377  13.245  63.259  1.00  0.00    -0.721 OA 
HETATM   20  C   UNL     1     -12.500  14.440  66.603  1.00  0.00    -0.097 C  
HETATM   21  C   UNL     1     -11.941  13.222  67.281  1.00  0.00    -0.393 A  
HETATM   22  C   UNL     1     -11.950  13.177  68.683  1.00  0.00    -0.319 A  
HETATM   23  C   UNL     1     -11.543  12.032  69.366  1.00  0.00    -0.393 A  
HETATM   24  C   UNL     1     -11.154  10.909  68.647  1.00  0.00    -0.252 A  
HETATM   25  C   UNL     1     -11.132  10.958  67.246  1.00  0.00    -0.350 A  
HETATM   26  C   UNL     1     -11.499  12.115  66.538  1.00  0.00    -0.369 A  
BRANCH  24  27
HETATM   27  O   UNL     1     -10.737   9.726  69.197  1.00  0.00    -0.212 OA 
BRANCH  27  28
HETATM   28  C   UNL     1      -9.707   9.813  70.184  1.00  0.00    -0.248 C  
BRANCH  28  29
HETATM   29  C   UNL     1      -8.416   9.230  69.606  1.00  0.00    -0.140 C  
BRANCH  29  30
HETATM   30  C   UNL     1      -7.676  10.239  68.715  1.00  0.00    -0.096 C  
BRANCH  30  31
HETATM   31  C   UNL     1      -7.377  11.575  69.425  1.00  0.00     0.053 C  
BRANCH  31  32
HETATM   32  N   UNL     1      -6.569  12.498  68.617  1.00  0.00    -0.077 NA 
HETATM   33  C   UNL     1      -7.223  12.906  67.357  1.00  0.00    -0.126 C  
HETATM   34  C   UNL     1      -8.369  13.918  67.551  1.00  0.00    -0.196 C  
HETATM   35  N   UNL     1      -7.815  15.157  68.122  1.00  0.00    -0.121 NA 
HETATM   36  C   UNL     1      -7.135  14.933  69.413  1.00  0.00    -0.175 C  
HETATM   37  C   UNL     1      -6.164  13.711  69.366  1.00  0.00    -0.109 C  
BRANCH  35  38
HETATM   38  C   UNL     1      -8.054  16.395  67.533  1.00  0.00    -0.148 A  
HETATM   39  C   UNL     1      -9.196  17.221  67.723  1.00  0.00    -0.239 A  
HETATM   40 CL   UNL     1     -10.578  16.684  68.643  1.00  0.00    -0.315 Cl 
HETATM   41  C   UNL     1      -9.294  18.482  67.085  1.00  0.00    -0.277 A  
HETATM   42  C   UNL     1      -8.301  18.929  66.212  1.00  0.00    -0.274 A  
HETATM   43 CL   UNL     1     -10.632  19.562  67.328  1.00  0.00    -0.587 Cl 
HETATM   44  C   UNL     1      -7.188  18.140  65.992  1.00  0.00    -0.305 A  
HETATM   45  C   UNL     1      -7.065  16.919  66.661  1.00  0.00    -0.289 A  
ENDBRANCH  35  38
ENDBRANCH  31  32
ENDBRANCH  30  31
ENDBRANCH  29  30
ENDBRANCH  28  29
ENDBRANCH  27  28
ENDBRANCH  24  27
ENDBRANCH  15  16
ENDBRANCH  14  15
ENDBRANCH  12  14
ENDBRANCH  11  12
ENDBRANCH  10  11
ENDBRANCH   9  10
ENDBRANCH   8   9
ENDBRANCH   7   8
ENDBRANCH   6   7
ENDBRANCH   5   6
ENDBRANCH   4   5
ENDBRANCH   3   4
ENDBRANCH   2   3
TORSDOF 20
ENDMDL
MODEL        3
REMARK 921   NORMALIZED FREE ENERGY PREDICTED BY IDOCK:   -5.91 KCAL/MOL
REMARK 922        TOTAL FREE ENERGY PREDICTED BY IDOCK:  -16.67 KCAL/MOL
REMARK 923 INTER-LIGAND FREE ENERGY PREDICTED BY IDOCK:  -11.53 KCAL/MOL
REMARK 924 INTRA-LIGAND FREE ENERGY PREDICTED BY IDOCK:   -5.14 KCAL/MOL
REMARK 927      BINDING AFFINITY PREDICTED BY RF-SCORE:    0.00 PKD
ROOT
HETATM    1  C   UNL     1     -10.705   9.533  68.029  1.00  0.00    -0.266 C  
HETATM    2  C   UNL     1      -9.424  10.064  68.650  1.00  0.00    -0.156 C  
ENDROOT
BRANCH   2   3
HETATM    3  C   UNL     1      -9.295   9.635  70.111  1.00  0.00    -0.294 C  
BRANCH   3   4
HETATM    4  C   UNL     1      -8.274   8.510  70.272  1.00  0.00    -0.115 C  
BRANCH   4   5
HETATM    5  C   UNL     1      -8.205   8.033  71.723  1.00  0.00    -0.151 C  
BRANCH   5   6
HETATM    6  C   UNL     1      -9.294   8.688  72.572  1.00  0.00    -0.230 C  
BRANCH   6   7
HETATM    7  C   UNL     1     -10.240   7.643  73.162  1.00  0.00    -0.401 C  
BRANCH   7   8
HETATM    8  C   UNL     1     -11.395   7.348  72.205  1.00  0.00    -0.323 C  
BRANCH   8   9
HETATM    9  C   UNL     1     -11.147   6.065  71.411  1.00  0.00    -0.336 C  
BRANCH   9  10
HETATM   10  C   UNL     1     -11.307   6.316  69.909  1.00  0.00    -0.504 C  
BRANCH  10  11
HETATM   11  C   UNL     1     -10.254   5.591  69.076  1.00  0.00    -0.298 C  
BRANCH  11  12
HETATM   12  C   UNL     1     -10.531   5.644  67.592  1.00  0.00    -0.219 C  
HETATM   13  O   UNL     1     -11.248   6.462  67.035  1.00  0.00    -0.373 OA 
BRANCH  12  14
HETATM   14  O   UNL     1      -9.835   4.652  66.975  1.00  0.00    -0.183 OA 
BRANCH  14  15
HETATM   15  C   UNL     1      -8.860   5.069  66.009  1.00  0.00    -0.130 C  
BRANCH  15  16
HETATM   16  N   UNL     1      -7.841   5.941  66.572  1.00  0.00    -0.100 N  
HETATM   17  C   UNL     1      -6.886   5.295  67.355  1.00  0.00    -0.060 C  
HETATM   18  C   UNL     1      -6.176   6.156  68.362  1.00  0.00    -0.028 C  
HETATM   19  O   UNL     1      -6.698   4.081  67.330  1.00  0.00    -0.045 OA 
HETATM   20  C   UNL     1      -5.703   7.463  67.776  1.00  0.00    -0.030 C  
HETATM   21  C   UNL     1      -6.736   8.102  66.895  1.00  0.00    -0.065 A  
HETATM   22  C   UNL     1      -6.630   9.477  66.633  1.00  0.00    -0.068 A  
HETATM   23  C   UNL     1      -7.496  10.106  65.739  1.00  0.00    -0.131 A  
HETATM   24  C   UNL     1      -8.457   9.353  65.076  1.00  0.00    -0.159 A  
HETATM   25  C   UNL     1      -8.572   7.984  65.346  1.00  0.00    -0.138 A  
HETATM   26  C   UNL     1      -7.737   7.337  66.273  1.00  0.00    -0.097 A  
BRANCH  24  27
HETATM   27  O   UNL     1      -9.361   9.850  64.174  1.00  0.00    -0.266 OA 
BRANCH  27  28
HETATM   28  C   UNL     1     -10.363  10.726  64.697  1.00  0.00    -0.324 C  
BRANCH  28  29
HETATM   29  C   UNL     1     -11.020  11.476  63.537  1.00  0.00    -0.453 C  
BRANCH  29  30
HETATM   30  C   UNL     1     -11.319  12.940  63.893  1.00  0.00    -0.489 C  
BRANCH  30  31
HETATM   31  C   UNL     1     -10.323  13.537  64.908  1.00  0.00    -0.377 C  
BRANCH  31  32
HETATM   32  N   UNL     1     -10.946  14.462  65.864  1.00  0.00    -0.306 NA 
HETATM   33  C   UNL     1     -12.290  14.037  66.306  1.00  0.00    -0.448 C  
HETATM   34  C   UNL     1     -12.272  12.861  67.302  1.00  0.00    -0.055 C  
HETATM   35  N   UNL     1     -11.573  13.288  68.526  1.00  0.00    -0.310 NA 
HETATM   36  C   UNL     1     -10.189  13.731  68.266  1.00  0.00    -0.245 C  
HETATM   37  C   UNL     1     -10.101  14.712  67.055  1.00  0.00    -0.249 C  
BRANCH  35  38
HETATM   38  C   UNL     1     -12.158  13.140  69.781  1.00  0.00    -0.270 A  
HETATM   39  C   UNL     1     -12.617  14.183  70.633  1.00  0.00    -0.351 A  
HETATM   40 CL   UNL     1     -12.346  15.866  70.257  1.00  0.00    -0.319 Cl 
HETATM   41  C   UNL     1     -13.229  13.888  71.876  1.00  0.00    -0.397 A  
HETATM   42  C   UNL     1     -13.353  12.573  72.326  1.00  0.00    -0.475 A  
HETATM   43 CL   UNL     1     -13.867  15.113  72.929  1.00  0.00    -0.490 Cl 
HETATM   44  C   UNL     1     -12.899  11.539  71.529  1.00  0.00    -0.485 A  
HETATM   45  C   UNL     1     -12.342  11.825  70.279  1.00  0.00    -0.320 A  
ENDBRANCH  35  38
ENDBRANCH  31  32
ENDBRANCH  30  31
ENDBRANCH  29  30
ENDBRANCH  28  29
ENDBRANCH  27  28
ENDBRANCH  24  27
ENDBRANCH  15  16
ENDBRANCH  14  15
ENDBRANCH  12  14
ENDBRANCH  11  12
ENDBRANCH  10  11
ENDBRANCH   9  10
ENDBRANCH   8   9
ENDBRANCH   7   8
ENDBRANCH   6   7
ENDBRANCH   5   6
ENDBRANCH   4   5
ENDBRANCH   3   4
ENDBRANCH   2   3
TORSDOF 20
ENDMDL
MODEL        4
REMARK 921   NORMALIZED FREE ENERGY PREDICTED BY IDOCK:   -5.90 KCAL/MOL
REMARK 922        TOTAL FREE ENERGY PREDICTED BY IDOCK:  -16.64 KCAL/MOL
REMARK 923 INTER-LIGAND FREE ENERGY PREDICTED BY IDOCK:  -13.11 KCAL/MOL
REMARK 924 INTRA-LIGAND FREE ENERGY PREDICTED BY IDOCK:   -3.53 KCAL/MOL
REMARK 927      BINDING AFFINITY PREDICTED BY RF-SCORE:    0.00 PKD
ROOT
HETATM    1  C   UNL     1      -7.157  10.155  62.512  1.00  0.00    -0.141 C  
HETATM    2  C   UNL     1      -8.652   9.942  62.685  1.00  0.00    -0.194 C  
ENDROOT
BRANCH   2   3
HETATM    3  C   UNL     1      -9.404  11.272  62.714  1.00  0.00    -0.362 C  
BRANCH   3   4
HETATM    4  C   UNL     1     -10.569  11.231  63.701  1.00  0.00    -0.453 C  
BRANCH   4   5
HETATM    5  C   UNL     1     -11.624  12.281  63.352  1.00  0.00    -0.530 C  
BRANCH   5   6
HETATM    6  C   UNL     1     -12.612  12.475  64.502  1.00  0.00    -0.503 C  
BRANCH   6   7
HETATM    7  C   UNL     1     -11.999  13.314  65.623  1.00  0.00    -0.455 C  
BRANCH   7   8
HETATM    8  C   UNL     1     -11.991  14.797  65.255  1.00  0.00    -0.240 C  
BRANCH   8   9
HETATM    9  C   UNL     1     -10.565  15.332  65.125  1.00  0.00    -0.453 C  
BRANCH   9  10
HETATM   10  C   UNL     1      -9.889  15.417  66.496  1.00  0.00    -0.288 C  
BRANCH  10  11
HETATM   11  C   UNL     1     -10.729  16.178  67.519  1.00  0.00    -0.304 C  
BRANCH  11  12
HETATM   12  C   UNL     1     -10.012  16.395  68.831  1.00  0.00    -0.257 C  
HETATM   13  O   UNL     1      -8.853  16.765  68.952  1.00  0.00    -0.258 OA 
BRANCH  12  14
HETATM   14  O   UNL     1     -10.870  16.137  69.854  1.00  0.00    -0.313 OA 
BRANCH  14  15
HETATM   15  C   UNL     1     -12.138  15.574  69.488  1.00  0.00    -0.302 C  
BRANCH  15  16
HETATM   16  N   UNL     1     -12.494  14.412  70.288  1.00  0.00    -0.349 N  
HETATM   17  C   UNL     1     -13.455  14.650  71.269  1.00  0.00    -0.386 C  
HETATM   18  C   UNL     1     -13.459  13.689  72.426  1.00  0.00    -0.685 C  
HETATM   19  O   UNL     1     -14.185  15.637  71.277  1.00  0.00    -0.540 OA 
HETATM   20  C   UNL     1     -13.381  12.249  71.984  1.00  0.00    -0.491 C  
HETATM   21  C   UNL     1     -12.375  12.041  70.888  1.00  0.00    -0.384 A  
HETATM   22  C   UNL     1     -11.883  10.744  70.674  1.00  0.00    -0.460 A  
HETATM   23  C   UNL     1     -11.030  10.469  69.606  1.00  0.00    -0.333 A  
HETATM   24  C   UNL     1     -10.688  11.487  68.724  1.00  0.00    -0.211 A  
HETATM   25  C   UNL     1     -11.169  12.784  68.945  1.00  0.00    -0.332 A  
HETATM   26  C   UNL     1     -11.997  13.093  70.038  1.00  0.00    -0.321 A  
BRANCH  24  27
HETATM   27  O   UNL     1      -9.865  11.345  67.639  1.00  0.00    -0.173 OA 
BRANCH  27  28
HETATM   28  C   UNL     1      -8.690  10.552  67.832  1.00  0.00    -0.126 C  
BRANCH  28  29
HETATM   29  C   UNL     1      -7.976  10.388  66.489  1.00  0.00    -0.123 C  
BRANCH  29  30
HETATM   30  C   UNL     1      -7.817   8.911  66.098  1.00  0.00    -0.102 C  
BRANCH  30  31
HETATM   31  C   UNL     1      -9.159   8.158  65.997  1.00  0.00    -0.167 C  
BRANCH  31  32
HETATM   32  N   UNL     1      -9.098   6.784  66.511  1.00  0.00    -0.147 NA 
HETATM   33  C   UNL     1      -8.235   6.636  67.701  1.00  0.00    -0.122 C  
HETATM   34  C   UNL     1      -8.857   7.200  68.993  1.00  0.00    -0.131 C  
HETATM   35  N   UNL     1     -10.080   6.440  69.301  1.00  0.00    -0.165 NA 
HETATM   36  C   UNL     1     -11.075   6.498  68.212  1.00  0.00    -0.243 C  
HETATM   37  C   UNL     1     -10.437   6.225  66.813  1.00  0.00    -0.244 C  
BRANCH  35  38
HETATM   38  C   UNL     1     -10.276   5.861  70.551  1.00  0.00    -0.211 A  
HETATM   39  C   UNL     1      -9.995   4.516  70.920  1.00  0.00    -0.193 A  
HETATM   40 CL   UNL     1      -9.491   3.326  69.747  1.00  0.00    -0.234 Cl 
HETATM   41  C   UNL     1     -10.210   4.066  72.246  1.00  0.00    -0.157 A  
HETATM   42  C   UNL     1     -10.752   4.911  73.215  1.00  0.00    -0.316 A  
HETATM   43 CL   UNL     1      -9.826   2.456  72.771  1.00  0.00    -0.174 Cl 
HETATM   44  C   UNL     1     -11.053   6.218  72.883  1.00  0.00    -0.268 A  
HETATM   45  C   UNL     1     -10.793   6.678  71.590  1.00  0.00    -0.269 A  
ENDBRANCH  35  38
ENDBRANCH  31  32
ENDBRANCH  30  31
ENDBRANCH  29  30
ENDBRANCH  28  29
ENDBRANCH  27  28
ENDBRANCH  24  27
ENDBRANCH  15  16
ENDBRANCH  14  15
ENDBRANCH  12  14
ENDBRANCH  11  12
ENDBRANCH  10  11
ENDBRANCH   9  10
ENDBRANCH   8   9
ENDBRANCH   7   8
ENDBRANCH   6   7
ENDBRANCH   5   6
ENDBRANCH   4   5
ENDBRANCH   3   4
ENDBRANCH   2   3
TORSDOF 20
ENDMDL
MODEL        5
REMARK 921   NORMALIZED FREE ENERGY PREDICTED BY IDOCK:   -5.84 KCAL/MOL
REMARK 922        TOTAL FREE ENERGY PREDICTED BY IDOCK:  -16.51 KCAL/MOL
REMARK 923 INTER-LIGAND FREE ENERGY PREDICTED BY IDOCK:  -13.21 KCAL/MOL
REMARK 924 INTRA-LIGAND FREE ENERGY PREDICTED BY IDOCK:   -3.29 KCAL/MOL
REMARK 927      BINDING AFFINITY PREDICTED BY RF-SCORE:    0.00 PKD
ROOT
HETATM    1  C   UNL     1     -10.333  19.921  68.271  1.00  0.00    -0.526 C  
HETATM    2  C   UNL     1      -9.912  19.872  66.811  1.00  0.00    -0.569 C  
ENDROOT
BRANCH   2   3
HETATM    3  C   UNL     1      -8.395  19.980  66.665  1.00  0.00    -0.363 C  
BRANCH   3   4
HETATM    4  C   UNL     1      -7.777  18.637  66.277  1.00  0.00    -0.290 C  
BRANCH   4   5
HETATM    5  C   UNL     1      -7.572  17.750  67.505  1.00  0.00    -0.214 C  
BRANCH   5   6
HETATM    6  C   UNL     1      -8.481  16.522  67.458  1.00  0.00    -0.189 C  
BRANCH   6   7
HETATM    7  C   UNL     1      -9.089  16.337  66.067  1.00  0.00    -0.332 C  
BRANCH   7   8
HETATM    8  C   UNL     1     -10.565  15.954  66.163  1.00  0.00    -0.310 C  
BRANCH   8   9
HETATM    9  C   UNL     1     -11.161  15.680  64.782  1.00  0.00    -0.426 C  
BRANCH   9  10
HETATM   10  C   UNL     1     -11.696  14.248  64.695  1.00  0.00    -0.439 C  
BRANCH  10  11
HETATM   11  C   UNL     1     -10.621  13.242  64.291  1.00  0.00    -0.402 C  
BRANCH  11  12
HETATM   12  C   UNL     1     -11.165  11.851  64.063  1.00  0.00    -0.396 C  
HETATM   13  O   UNL     1     -12.202  11.584  63.473  1.00  0.00    -0.333 OA 
BRANCH  12  14
HETATM   14  O   UNL     1     -10.304  10.944  64.599  1.00  0.00    -0.319 OA 
BRANCH  14  15
HETATM   15  C   UNL     1     -10.280  10.866  66.031  1.00  0.00    -0.254 C  
BRANCH  15  16
HETATM   16  N   UNL     1      -8.951  10.602  66.562  1.00  0.00    -0.153 N  
HETATM   17  C   UNL     1      -8.164  11.736  66.757  1.00  0.00    -0.147 C  
HETATM   18  C   UNL     1      -6.678  11.504  66.771  1.00  0.00    -0.121 C  
HETATM   19  O   UNL     1      -8.617  12.876  66.798  1.00  0.00    -0.168 OA 
HETATM   20  C   UNL     1      -6.283  10.330  67.631  1.00  0.00    -0.057 C  
HETATM   21  C   UNL     1      -7.186   9.147  67.435  1.00  0.00    -0.080 A  
HETATM   22  C   UNL     1      -6.716   7.880  67.816  1.00  0.00    -0.068 A  
HETATM   23  C   UNL     1      -7.545   6.761  67.757  1.00  0.00    -0.107 A  
HETATM   24  C   UNL     1      -8.864   6.909  67.345  1.00  0.00    -0.118 A  
HETATM   25  C   UNL     1      -9.330   8.170  66.953  1.00  0.00    -0.219 A  
HETATM   26  C   UNL     1      -8.501   9.304  66.965  1.00  0.00    -0.124 A  
BRANCH  24  27
HETATM   27  O   UNL     1      -9.777   5.892  67.248  1.00  0.00    -0.117 OA 
BRANCH  27  28
HETATM   28  C   UNL     1     -10.216   5.313  68.480  1.00  0.00    -0.144 C  
BRANCH  28  29
HETATM   29  C   UNL     1     -11.217   6.261  69.144  1.00  0.00    -0.439 C  
BRANCH  29  30
HETATM   30  C   UNL     1     -10.932   6.441  70.643  1.00  0.00    -0.355 C  
BRANCH  30  31
HETATM   31  C   UNL     1     -12.159   6.922  71.444  1.00  0.00    -0.364 C  
BRANCH  31  32
HETATM   32  N   UNL     1     -11.914   8.153  72.206  1.00  0.00    -0.358 NA 
HETATM   33  C   UNL     1     -10.806   8.969  71.669  1.00  0.00    -0.366 C  
HETATM   34  C   UNL     1     -11.163   9.723  70.373  1.00  0.00    -0.300 C  
HETATM   35  N   UNL     1     -12.246  10.677  70.663  1.00  0.00    -0.332 NA 
HETATM   36  C   UNL     1     -13.456  10.018  71.195  1.00  0.00    -0.230 C  
HETATM   37  C   UNL     1     -13.123   9.001  72.332  1.00  0.00    -0.423 C  
BRANCH  35  38
HETATM   38  C   UNL     1     -12.135  12.022  70.325  1.00  0.00    -0.312 A  
HETATM   39  C   UNL     1     -12.630  13.129  71.069  1.00  0.00    -0.312 A  
HETATM   40 CL   UNL     1     -13.624  12.916  72.487  1.00  0.00    -0.602 Cl 
HETATM   41  C   UNL     1     -12.413  14.457  70.625  1.00  0.00    -0.350 A  
HETATM   42  C   UNL     1     -11.756  14.718  69.422  1.00  0.00    -0.358 A  
HETATM   43 CL   UNL     1     -12.936  15.850  71.521  1.00  0.00    -0.458 Cl 
HETATM   44  C   UNL     1     -11.280  13.662  68.667  1.00  0.00    -0.308 A  
HETATM   45  C   UNL     1     -11.447  12.354  69.129  1.00  0.00    -0.358 A  
ENDBRANCH  35  38
ENDBRANCH  31  32
ENDBRANCH  30  31
ENDBRANCH  29  30
ENDBRANCH  28  29
ENDBRANCH  27  28
ENDBRANCH  24  27
ENDBRANCH  15  16
ENDBRANCH  14  15
ENDBRANCH  12  14
ENDBRANCH  11  12
ENDBRANCH  10  11
ENDBRANCH   9  10
ENDBRANCH   8   9
ENDBRANCH   7   8
ENDBRANCH   6   7
ENDBRANCH   5   6
ENDBRANCH   4   5
ENDBRANCH   3   4
ENDBRANCH   2   3
TORSDOF 20
ENDMDL
MODEL        6
REMARK 921   NORMALIZED FREE ENERGY PREDICTED BY IDOCK:   -5.82 KCAL/MOL
REMARK 922        TOTAL FREE ENERGY PREDICTED BY IDOCK:  -16.46 KCAL/MOL
REMARK 923 INTER-LIGAND FREE ENERGY PREDICTED BY IDOCK:  -13.14 KCAL/MOL
REMARK 924 INTRA-LIGAND FREE ENERGY PREDICTED BY IDOCK:   -3.32 KCAL/MOL
REMARK 927      BINDING AFFINITY PREDICTED BY RF-SCORE:    0.00 PKD
ROOT
HETATM    1  C   UNL     1      -6.823   4.095  69.193  1.00  0.00    -0.046 C  
HETATM    2  C   UNL     1      -8.317   4.218  69.441  1.00  0.00    -0.078 C  
ENDROOT
BRANCH   2   3
HETATM    3  C   UNL     1      -8.604   4.882  70.788  1.00  0.00    -0.127 C  
BRANCH   3   4
HETATM    4  C   UNL     1     -10.106   4.978  71.051  1.00  0.00    -0.297 C  
BRANCH   4   5
HETATM    5  C   UNL     1     -10.807   5.776  69.952  1.00  0.00    -0.417 C  
BRANCH   5   6
HETATM    6  C   UNL     1     -11.865   6.711  70.537  1.00  0.00    -0.430 C  
BRANCH   6   7
HETATM    7  C   UNL     1     -11.708   6.846  72.051  1.00  0.00    -0.336 C  
BRANCH   7   8
HETATM    8  C   UNL     1     -11.126   8.209  72.421  1.00  0.00    -0.437 C  
BRANCH   8   9
HETATM    9  C   UNL     1      -9.723   8.073  73.015  1.00  0.00    -0.348 C  
BRANCH   9  10
HETATM   10  C   UNL     1      -8.655   8.404  71.969  1.00  0.00    -0.254 C  
BRANCH  10  11
HETATM   11  C   UNL     1      -9.206   9.228  70.807  1.00  0.00    -0.316 C  
BRANCH  11  12
HETATM   12  C   UNL     1      -8.648   8.810  69.467  1.00  0.00    -0.130 C  
HETATM   13  O   UNL     1      -7.823   7.927  69.288  1.00  0.00    -0.110 OA 
BRANCH  12  14
HETATM   14  O   UNL     1      -9.229   9.559  68.491  1.00  0.00    -0.130 OA 
BRANCH  14  15
HETATM   15  C   UNL     1     -10.050   8.849  67.554  1.00  0.00    -0.227 C  
BRANCH  15  16
HETATM   16  N   UNL     1      -9.525   8.887  66.197  1.00  0.00    -0.234 N  
HETATM   17  C   UNL     1      -8.767   7.776  65.833  1.00  0.00    -0.149 C  
HETATM   18  C   UNL     1      -7.789   7.992  64.711  1.00  0.00    -0.131 C  
HETATM   19  O   UNL     1      -8.789   6.711  66.444  1.00  0.00    -0.134 OA 
HETATM   20  C   UNL     1      -8.399   8.726  63.544  1.00  0.00    -0.147 C  
HETATM   21  C   UNL     1      -9.252   9.883  63.977  1.00  0.00    -0.302 A  
HETATM   22  C   UNL     1      -9.528  10.894  63.043  1.00  0.00    -0.369 A  
HETATM   23  C   UNL     1     -10.399  11.937  63.353  1.00  0.00    -0.481 A  
HETATM   24  C   UNL     1     -11.027  11.958  64.592  1.00  0.00    -0.316 A  
HETATM   25  C   UNL     1     -10.743  10.956  65.529  1.00  0.00    -0.182 A  
HETATM   26  C   UNL     1      -9.837   9.918  65.254  1.00  0.00    -0.303 A  
BRANCH  24  27
HETATM   27  O   UNL     1     -11.903  12.923  65.015  1.00  0.00    -0.333 OA 
BRANCH  27  28
HETATM   28  C   UNL     1     -12.045  14.066  64.168  1.00  0.00    -0.422 C  
BRANCH  28  29
HETATM   29  C   UNL     1     -11.569  15.306  64.927  1.00  0.00    -0.289 C  
BRANCH  29  30
HETATM   30  C   UNL     1     -10.159  15.121  65.507  1.00  0.00    -0.402 C  
BRANCH  30  31
HETATM   31  C   UNL     1      -9.659  16.345  66.300  1.00  0.00    -0.311 C  
BRANCH  31  32
HETATM   32  N   UNL     1      -9.326  16.041  67.697  1.00  0.00    -0.213 NA 
HETATM   33  C   UNL     1     -10.264  16.635  68.671  1.00  0.00    -0.284 C  
HETATM   34  C   UNL     1     -11.628  15.921  68.734  1.00  0.00    -0.386 C  
HETATM   35  N   UNL     1     -11.416  14.537  69.190  1.00  0.00    -0.276 NA 
HETATM   36  C   UNL     1     -10.507  13.780  68.307  1.00  0.00    -0.248 C  
HETATM   37  C   UNL     1      -9.216  14.586  67.957  1.00  0.00    -0.190 C  
BRANCH  35  38
HETATM   38  C   UNL     1     -12.127  14.013  70.266  1.00  0.00    -0.355 A  
HETATM   39  C   UNL     1     -12.396  12.640  70.520  1.00  0.00    -0.268 A  
HETATM   40 CL   UNL     1     -11.982  11.392  69.372  1.00  0.00    -0.397 Cl 
HETATM   41  C   UNL     1     -13.105  12.241  71.680  1.00  0.00    -0.306 A  
HETATM   42  C   UNL     1     -13.605  13.183  72.580  1.00  0.00    -0.595 A  
HETATM   43 CL   UNL     1     -13.409  10.578  72.077  1.00  0.00    -0.506 Cl 
HETATM   44  C   UNL     1     -13.376  14.527  72.351  1.00  0.00    -0.526 A  
HETATM   45  C   UNL     1     -12.632  14.919  71.234  1.00  0.00    -0.402 A  
ENDBRANCH  35  38
ENDBRANCH  31  32
ENDBRANCH  30  31
ENDBRANCH  29  30
ENDBRANCH  28  29
ENDBRANCH  27  28
ENDBRANCH  24  27
ENDBRANCH  15  16
ENDBRANCH  14  15
ENDBRANCH  12  14
ENDBRANCH  11  12
ENDBRANCH  10  11
ENDBRANCH   9  10
ENDBRANCH   8   9
ENDBRANCH   7   8
ENDBRANCH   6   7
ENDBRANCH   5   6
ENDBRANCH   4   5
ENDBRANCH   3   4
ENDBRANCH   2   3
TORSDOF 20
ENDMDL
MODEL        7
REMARK 921   NORMALIZED FREE ENERGY PREDICTED BY IDOCK:   -5.76 KCAL/MOL
REMARK 922        TOTAL FREE ENERGY PREDICTED BY IDOCK:  -16.34 KCAL/MOL
REMARK 923 INTER-LIGAND FREE ENERGY PREDICTED BY IDOCK:  -12.85 KCAL/MOL
REMARK 924 INTRA-LIGAND FREE ENERGY PREDICTED BY IDOCK:   -3.49 KCAL/MOL
REMARK 927      BINDING AFFINITY PREDICTED BY RF-SCORE:    0.00 PKD
ROOT
HETATM    1  C   UNL     1      -8.474   8.212  73.378  1.00  0.00    -0.303 C  
HETATM    2  C   UNL     1      -9.207   7.065  74.054  1.00  0.00    -0.261 C  
ENDROOT
BRANCH   2   3
HETATM    3  C   UNL     1     -10.642   6.944  73.542  1.00  0.00    -0.378 C  
BRANCH   3   4
HETATM    4  C   UNL     1     -10.997   8.097  72.605  1.00  0.00    -0.440 C  
BRANCH   4   5
HETATM    5  C   UNL     1     -12.064   7.676  71.594  1.00  0.00    -0.336 C  
BRANCH   5   6
HETATM    6  C   UNL     1     -12.947   8.859  71.198  1.00  0.00    -0.160 C  
BRANCH   6   7
HETATM    7  C   UNL     1     -12.383  10.175  71.733  1.00  0.00    -0.401 C  
BRANCH   7   8
HETATM    8  C   UNL     1     -13.475  11.240  71.825  1.00  0.00    -0.223 C  
BRANCH   8   9
HETATM    9  C   UNL     1     -12.898  12.646  71.650  1.00  0.00    -0.367 C  
BRANCH   9  10
HETATM   10  C   UNL     1     -13.703  13.668  72.457  1.00  0.00    -0.663 C  
BRANCH  10  11
HETATM   11  C   UNL     1     -13.919  14.976  71.700  1.00  0.00    -0.594 C  
BRANCH  11  12
HETATM   12  C   UNL     1     -12.629  15.696  71.380  1.00  0.00    -0.457 C  
HETATM   13  O   UNL     1     -11.958  16.334  72.177  1.00  0.00    -0.504 OA 
BRANCH  12  14
HETATM   14  O   UNL     1     -12.325  15.498  70.069  1.00  0.00    -0.369 OA 
BRANCH  14  15
HETATM   15  C   UNL     1     -10.952  15.696  69.702  1.00  0.00    -0.288 C  
BRANCH  15  16
HETATM   16  N   UNL     1     -10.798  16.412  68.445  1.00  0.00    -0.327 N  
HETATM   17  C   UNL     1     -10.297  17.707  68.568  1.00  0.00    -0.370 C  
HETATM   18  C   UNL     1     -10.622  18.642  67.437  1.00  0.00    -0.490 C  
HETATM   19  O   UNL     1      -9.728  18.121  69.575  1.00  0.00     0.080 OA 
HETATM   20  C   UNL     1     -10.382  18.020  66.084  1.00  0.00    -0.368 C  
HETATM   21  C   UNL     1     -10.884  16.608  66.006  1.00  0.00    -0.041 A  
HETATM   22  C   UNL     1     -11.125  16.055  64.739  1.00  0.00    -0.378 A  
HETATM   23  C   UNL     1     -11.491  14.717  64.598  1.00  0.00    -0.381 A  
HETATM   24  C   UNL     1     -11.585  13.912  65.726  1.00  0.00    -0.338 A  
HETATM   25  C   UNL     1     -11.357  14.466  66.993  1.00  0.00    -0.357 A  
HETATM   26  C   UNL     1     -11.028  15.822  67.162  1.00  0.00    -0.244 A  
BRANCH  24  27
HETATM   27  O   UNL     1     -11.930  12.586  65.721  1.00  0.00    -0.425 OA 
BRANCH  27  28
HETATM   28  C   UNL     1     -11.697  11.875  64.503  1.00  0.00    -0.248 C  
BRANCH  28  29
HETATM   29  C   UNL     1     -10.297  11.259  64.550  1.00  0.00    -0.381 C  
BRANCH  29  30
HETATM   30  C   UNL     1      -9.902  10.833  65.972  1.00  0.00    -0.285 C  
BRANCH  30  31
HETATM   31  C   UNL     1      -9.661   9.315  66.109  1.00  0.00    -0.279 C  
BRANCH  31  32
HETATM   32  N   UNL     1     -10.539   8.671  67.095  1.00  0.00    -0.282 NA 
HETATM   33  C   UNL     1     -10.500   7.195  67.044  1.00  0.00    -0.322 C  
HETATM   34  C   UNL     1      -9.215   6.587  67.640  1.00  0.00    -0.113 C  
HETATM   35  N   UNL     1      -9.148   6.931  69.070  1.00  0.00    -0.139 NA 
HETATM   36  C   UNL     1      -9.156   8.389  69.305  1.00  0.00    -0.150 C  
HETATM   37  C   UNL     1     -10.266   9.115  68.482  1.00  0.00    -0.198 C  
BRANCH  35  38
HETATM   38  C   UNL     1      -8.963   5.952  70.041  1.00  0.00    -0.141 A  
HETATM   39  C   UNL     1      -7.789   5.730  70.813  1.00  0.00    -0.101 A  
HETATM   40 CL   UNL     1      -6.309   6.605  70.510  1.00  0.00    -0.041 Cl 
HETATM   41  C   UNL     1      -7.749   4.714  71.799  1.00  0.00    -0.096 A  
HETATM   42  C   UNL     1      -8.839   3.867  72.007  1.00  0.00    -0.130 A  
HETATM   43 CL   UNL     1      -6.369   4.438  72.816  1.00  0.00    -0.020 Cl 
HETATM   44  C   UNL     1      -9.987   4.045  71.260  1.00  0.00    -0.202 A  
HETATM   45  C   UNL     1     -10.047   5.080  70.323  1.00  0.00    -0.339 A  
ENDBRANCH  35  38
ENDBRANCH  31  32
ENDBRANCH  30  31
ENDBRANCH  29  30
ENDBRANCH  28  29
ENDBRANCH  27  28
ENDBRANCH  24  27
ENDBRANCH  15  16
ENDBRANCH  14  15
ENDBRANCH  12  14
ENDBRANCH  11  12
ENDBRANCH  10  11
ENDBRANCH   9  10
ENDBRANCH   8   9
ENDBRANCH   7   8
ENDBRANCH   6   7
ENDBRANCH   5   6
ENDBRANCH   4   5
ENDBRANCH   3   4
ENDBRANCH   2   3
TORSDOF 20
ENDMDL
MODEL        8
REMARK 921   NORMALIZED FREE ENERGY PREDICTED BY IDOCK:   -5.72 KCAL/MOL
REMARK 922        TOTAL FREE ENERGY PREDICTED BY IDOCK:  -16.25 KCAL/MOL
REMARK 923 INTER-LIGAND FREE ENERGY PREDICTED BY IDOCK:  -12.58 KCAL/MOL
REMARK 924 INTRA-LIGAND FREE ENERGY PREDICTED BY IDOCK:   -3.67 KCAL/MOL
REMARK 927      BINDING AFFINITY PREDICTED BY RF-SCORE:    0.00 PKD
ROOT
HETATM    1  C   UNL     1      -6.805   6.870  69.659  1.00  0.00    -0.051 C  
HETATM    2  C   UNL     1      -6.229   5.592  69.070  1.00  0.00    -0.029 C  
ENDROOT
BRANCH   2   3
HETATM    3  C   UNL     1      -6.408   5.549  67.553  1.00  0.00    -0.042 C  
BRANCH   3   4
HETATM    4  C   UNL     1      -7.111   6.806  67.040  1.00  0.00    -0.072 C  
BRANCH   4   5
HETATM    5  C   UNL     1      -6.996   6.918  65.520  1.00  0.00    -0.060 C  
BRANCH   5   6
HETATM    6  C   UNL     1      -8.297   7.431  64.904  1.00  0.00    -0.029 C  
BRANCH   6   7
HETATM    7  C   UNL     1      -8.393   8.954  65.001  1.00  0.00    -0.174 C  
BRANCH   7   8
HETATM    8  C   UNL     1      -9.543   9.372  65.917  1.00  0.00    -0.338 C  
BRANCH   8   9
HETATM    9  C   UNL     1     -10.034  10.782  65.585  1.00  0.00    -0.317 C  
BRANCH   9  10
HETATM   10  C   UNL     1     -10.408  10.893  64.105  1.00  0.00    -0.432 C  
BRANCH  10  11
HETATM   11  C   UNL     1     -10.900  12.288  63.726  1.00  0.00    -0.495 C  
BRANCH  11  12
HETATM   12  C   UNL     1     -12.268  12.606  64.284  1.00  0.00    -0.445 C  
HETATM   13  O   UNL     1     -13.254  11.890  64.191  1.00  0.00    -0.645 OA 
BRANCH  12  14
HETATM   14  O   UNL     1     -12.218  13.805  64.925  1.00  0.00    -0.381 OA 
BRANCH  14  15
HETATM   15  C   UNL     1     -10.909  14.346  65.154  1.00  0.00    -0.386 C  
BRANCH  15  16
HETATM   16  N   UNL     1     -10.922  15.522  66.010  1.00  0.00    -0.292 N  
HETATM   17  C   UNL     1     -10.900  16.739  65.332  1.00  0.00    -0.141 C  
HETATM   18  C   UNL     1     -10.378  17.912  66.114  1.00  0.00    -0.352 C  
HETATM   19  O   UNL     1     -11.170  16.855  64.139  1.00  0.00    -1.176 OA 
HETATM   20  C   UNL     1     -10.969  17.995  67.498  1.00  0.00    -0.111 C  
HETATM   21  C   UNL     1     -11.028  16.657  68.177  1.00  0.00    -0.327 A  
HETATM   22  C   UNL     1     -11.140  16.624  69.575  1.00  0.00    -0.158 A  
HETATM   23  C   UNL     1     -11.305  15.417  70.253  1.00  0.00    -0.332 A  
HETATM   24  C   UNL     1     -11.392  14.234  69.529  1.00  0.00    -0.269 A  
HETATM   25  C   UNL     1     -11.268  14.265  68.134  1.00  0.00    -0.295 A  
HETATM   26  C   UNL     1     -11.060  15.465  67.434  1.00  0.00    -0.311 A  
BRANCH  24  27
HETATM   27  O   UNL     1     -11.557  12.988  70.074  1.00  0.00    -0.235 OA 
BRANCH  27  28
HETATM   28  C   UNL     1     -11.698  11.905  69.151  1.00  0.00    -0.319 C  
BRANCH  28  29
HETATM   29  C   UNL     1     -12.438  10.758  69.842  1.00  0.00    -0.277 C  
BRANCH  29  30
HETATM   30  C   UNL     1     -12.069  10.647  71.329  1.00  0.00    -0.401 C  
BRANCH  30  31
HETATM   31  C   UNL     1     -12.580   9.351  71.990  1.00  0.00    -0.384 C  
BRANCH  31  32
HETATM   32  N   UNL     1     -11.518   8.373  72.258  1.00  0.00    -0.368 NA 
HETATM   33  C   UNL     1     -11.957   6.970  72.113  1.00  0.00    -0.261 C  
HETATM   34  C   UNL     1     -12.138   6.525  70.649  1.00  0.00    -0.200 C  
HETATM   35  N   UNL     1     -10.835   6.599  69.967  1.00  0.00    -0.257 NA 
HETATM   36  C   UNL     1     -10.254   7.955  69.998  1.00  0.00    -0.208 C  
HETATM   37  C   UNL     1     -10.313   8.591  71.423  1.00  0.00    -0.239 C  
BRANCH  35  38
HETATM   38  C   UNL     1     -10.321   5.509  69.271  1.00  0.00    -0.265 A  
HETATM   39  C   UNL     1     -10.347   5.311  67.862  1.00  0.00    -0.125 A  
HETATM   40 CL   UNL     1     -11.209   6.390  66.796  1.00  0.00    -0.290 Cl 
HETATM   41  C   UNL     1      -9.750   4.165  67.280  1.00  0.00    -0.170 A  
HETATM   42  C   UNL     1      -9.167   3.174  68.069  1.00  0.00    -0.248 A  
HETATM   43 CL   UNL     1      -9.693   3.900  65.564  1.00  0.00    -0.182 Cl 
HETATM   44  C   UNL     1      -9.143   3.329  69.442  1.00  0.00    -0.201 A  
HETATM   45  C   UNL     1      -9.685   4.483  70.016  1.00  0.00    -0.283 A  
ENDBRANCH  35  38
ENDBRANCH  31  32
ENDBRANCH  30  31
ENDBRANCH  29  30
ENDBRANCH  28  29
ENDBRANCH  27  28
ENDBRANCH  24  27
ENDBRANCH  15  16
ENDBRANCH  14  15
ENDBRANCH  12  14
ENDBRANCH  11  12
ENDBRANCH  10  11
ENDBRANCH   9  10
ENDBRANCH   8   9
ENDBRANCH   7   8
ENDBRANCH   6   7
ENDBRANCH   5   6
ENDBRANCH   4   5
ENDBRANCH   3   4
ENDBRANCH   2   3
TORSDOF 20
ENDMDL
MODEL        9
REMARK 921   NORMALIZED FREE ENERGY PREDICTED BY IDOCK:   -5.70 KCAL/MOL
REMARK 922        TOTAL FREE ENERGY PREDICTED BY IDOCK:  -16.20 KCAL/MOL
REMARK 923 INTER-LIGAND FREE ENERGY PREDICTED BY IDOCK:  -12.70 KCAL/MOL
REMARK 924 INTRA-LIGAND FREE ENERGY PREDICTED BY IDOCK:   -3.50 KCAL/MOL
REMARK 927      BINDING AFFINITY PREDICTED BY RF-SCORE:    0.00 PKD
ROOT
HETATM    1  C   UNL     1      -9.103  10.107  64.499  1.00  0.00    -0.280 C  
HETATM    2  C   UNL     1     -10.379  10.915  64.664  1.00  0.00    -0.407 C  
ENDROOT
BRANCH   2   3
HETATM    3  C   UNL     1     -10.520  11.964  63.561  1.00  0.00    -0.505 C  
BRANCH   3   4
HETATM    4  C   UNL     1     -11.933  12.543  63.523  1.00  0.00    -0.629 C  
BRANCH   4   5
HETATM    5  C   UNL     1     -11.970  13.945  64.132  1.00  0.00    -0.464 C  
BRANCH   5   6
HETATM    6  C   UNL     1     -12.453  13.905  65.581  1.00  0.00    -0.538 C  
BRANCH   6   7
HETATM    7  C   UNL     1     -11.278  13.973  66.558  1.00  0.00    -0.326 C  
BRANCH   7   8
HETATM    8  C   UNL     1     -11.668  13.404  67.922  1.00  0.00    -0.396 C  
BRANCH   8   9
HETATM    9  C   UNL     1     -11.786  14.508  68.973  1.00  0.00    -0.346 C  
BRANCH   9  10
HETATM   10  C   UNL     1     -12.062  13.914  70.357  1.00  0.00    -0.421 C  
BRANCH  10  11
HETATM   11  C   UNL     1     -12.002  12.389  70.364  1.00  0.00    -0.342 C  
BRANCH  11  12
HETATM   12  C   UNL     1     -12.880  11.766  71.425  1.00  0.00    -0.335 C  
HETATM   13  O   UNL     1     -13.454  12.374  72.315  1.00  0.00    -0.541 OA 
BRANCH  12  14
HETATM   14  O   UNL     1     -12.946  10.424  71.213  1.00  0.00    -0.365 OA 
BRANCH  14  15
HETATM   15  C   UNL     1     -11.896   9.639  71.795  1.00  0.00    -0.320 C  
BRANCH  15  16
HETATM   16  N   UNL     1     -11.451   8.557  70.931  1.00  0.00    -0.268 N  
HETATM   17  C   UNL     1     -12.122   7.348  71.116  1.00  0.00    -0.325 C  
HETATM   18  C   UNL     1     -11.379   6.116  70.678  1.00  0.00    -0.368 C  
HETATM   19  O   UNL     1     -13.197   7.253  71.702  1.00  0.00    -0.367 OA 
HETATM   20  C   UNL     1     -10.758   6.269  69.312  1.00  0.00    -0.367 C  
HETATM   21  C   UNL     1     -10.094   7.603  69.131  1.00  0.00    -0.194 A  
HETATM   22  C   UNL     1      -9.129   7.735  68.119  1.00  0.00    -0.129 A  
HETATM   23  C   UNL     1      -8.555   8.973  67.834  1.00  0.00    -0.125 A  
HETATM   24  C   UNL     1      -8.967  10.096  68.539  1.00  0.00    -0.127 A  
HETATM   25  C   UNL     1      -9.920   9.963  69.558  1.00  0.00    -0.240 A  
HETATM   26  C   UNL     1     -10.482   8.719  69.891  1.00  0.00    -0.221 A  
BRANCH  24  27
HETATM   27  O   UNL     1      -8.485  11.365  68.352  1.00  0.00    -0.144 OA 
BRANCH  27  28
HETATM   28  C   UNL     1      -7.123  11.470  67.932  1.00  0.00    -0.076 C  
BRANCH  28  29
HETATM   29  C   UNL     1      -6.216  11.360  69.159  1.00  0.00    -0.064 C  
BRANCH  29  30
HETATM   30  C   UNL     1      -5.967  12.727  69.815  1.00  0.00    -0.131 C  
BRANCH  30  31
HETATM   31  C   UNL     1      -5.265  13.734  68.882  1.00  0.00    -0.072 C  
BRANCH  31  32
HETATM   32  N   UNL     1      -5.530  15.136  69.228  1.00  0.00    -0.095 NA 
HETATM   33  C   UNL     1      -5.459  16.053  68.072  1.00  0.00    -0.120 C  
HETATM   34  C   UNL     1      -6.670  15.952  67.124  1.00  0.00    -0.133 C  
HETATM   35  N   UNL     1      -7.882  16.346  67.862  1.00  0.00    -0.150 NA 
HETATM   36  C   UNL     1      -8.121  15.507  69.053  1.00  0.00    -0.220 C  
HETATM   37  C   UNL     1      -6.831  15.321  69.913  1.00  0.00    -0.135 C  
BRANCH  35  38
HETATM   38  C   UNL     1      -8.743  17.321  67.369  1.00  0.00    -0.206 A  
HETATM   39  C   UNL     1      -8.754  18.701  67.716  1.00  0.00    -0.279 A  
HETATM   40 CL   UNL     1      -7.738  19.339  68.984  1.00  0.00    -0.373 Cl 
HETATM   41  C   UNL     1      -9.667  19.596  67.107  1.00  0.00    -0.355 A  
HETATM   42  C   UNL     1     -10.617  19.145  66.190  1.00  0.00    -0.524 A  
HETATM   43 CL   UNL     1      -9.685  21.300  67.442  1.00  0.00    -0.167 Cl 
HETATM   44  C   UNL     1     -10.645  17.807  65.846  1.00  0.00    -0.205 A  
HETATM   45  C   UNL     1      -9.711  16.932  66.407  1.00  0.00    -0.301 A  
ENDBRANCH  35  38
ENDBRANCH  31  32
ENDBRANCH  30  31
ENDBRANCH  29  30
ENDBRANCH  28  29
ENDBRANCH  27  28
ENDBRANCH  24  27
ENDBRANCH  15  16
ENDBRANCH  14  15
ENDBRANCH  12  14
ENDBRANCH  11  12
ENDBRANCH  10  11
ENDBRANCH   9  10
ENDBRANCH   8   9
ENDBRANCH   7   8
ENDBRANCH   6   7
ENDBRANCH   5   6
ENDBRANCH   4   5
ENDBRANCH   3   4
ENDBRANCH   2   3
TORSDOF 20
ENDMDL
MODEL       10
REMARK 921   NORMALIZED FREE ENERGY PREDICTED BY IDOCK:   -5.60 KCAL/MOL
REMARK 922        TOTAL FREE ENERGY PREDICTED BY IDOCK:  -16.00 KCAL/MOL
REMARK 923 INTER-LIGAND FREE ENERGY PREDICTED BY IDOCK:  -12.03 KCAL/MOL
REMARK 924 INTRA-LIGAND FREE ENERGY PREDICTED BY IDOCK:   -3.97 KCAL/MOL
REMARK 927      BINDING AFFINITY PREDICTED BY RF-SCORE:    0.00 PKD
ROOT
HETATM    1  C   UNL     1     -10.541  19.449  67.721  1.00  0.00    -0.538 C  
HETATM    2  C   UNL     1      -9.158  19.072  67.216  1.00  0.00    -0.313 C  
ENDROOT
BRANCH   2   3
HETATM    3  C   UNL     1      -8.196  18.809  68.374  1.00  0.00    -0.372 C  
BRANCH   3   4
HETATM    4  C   UNL     1      -7.121  17.795  67.984  1.00  0.00    -0.209 C  
BRANCH   4   5
HETATM    5  C   UNL     1      -6.953  16.727  69.065  1.00  0.00    -0.218 C  
BRANCH   5   6
HETATM    6  C   UNL     1      -6.618  15.368  68.452  1.00  0.00    -0.113 C  
BRANCH   6   7
HETATM    7  C   UNL     1      -7.104  14.224  69.343  1.00  0.00    -0.086 C  
BRANCH   7   8
HETATM    8  C   UNL     1      -7.655  13.073  68.502  1.00  0.00    -0.121 C  
BRANCH   8   9
HETATM    9  C   UNL     1      -6.901  11.772  68.778  1.00  0.00    -0.095 C  
BRANCH   9  10
HETATM   10  C   UNL     1      -7.792  10.558  68.500  1.00  0.00    -0.111 C  
BRANCH  10  11
HETATM   11  C   UNL     1      -8.451  10.011  69.764  1.00  0.00    -0.189 C  
BRANCH  11  12
HETATM   12  C   UNL     1      -9.954   9.900  69.648  1.00  0.00    -0.231 C  
HETATM   13  O   UNL     1     -10.613   8.908  69.920  1.00  0.00    -0.213 OA 
BRANCH  12  14
HETATM   14  O   UNL     1     -10.454  11.089  69.216  1.00  0.00    -0.219 OA 
BRANCH  14  15
HETATM   15  C   UNL     1     -11.875  11.253  69.323  1.00  0.00    -0.354 C  
BRANCH  15  16
HETATM   16  N   UNL     1     -12.260  12.197  70.361  1.00  0.00    -0.330 N  
HETATM   17  C   UNL     1     -12.875  11.623  71.473  1.00  0.00    -0.364 C  
HETATM   18  C   UNL     1     -13.749  12.541  72.282  1.00  0.00    -0.356 C  
HETATM   19  O   UNL     1     -12.821  10.424  71.734  1.00  0.00    -0.417 OA 
HETATM   20  C   UNL     1     -13.091  13.868  72.564  1.00  0.00    -0.533 C  
HETATM   21  C   UNL     1     -12.393  14.429  71.359  1.00  0.00    -0.433 A  
HETATM   22  C   UNL     1     -12.116  15.804  71.329  1.00  0.00    -0.487 A  
HETATM   23  C   UNL     1     -11.378  16.364  70.288  1.00  0.00    -0.207 A  
HETATM   24  C   UNL     1     -10.883  15.543  69.282  1.00  0.00    -0.252 A  
HETATM   25  C   UNL     1     -11.171  14.172  69.303  1.00  0.00    -0.308 A  
HETATM   26  C   UNL     1     -11.947  13.593  70.321  1.00  0.00    -0.327 A  
BRANCH  24  27
HETATM   27  O   UNL     1     -10.144  15.969  68.210  1.00  0.00    -0.223 OA 
BRANCH  27  28
HETATM   28  C   UNL     1     -10.043  15.063  67.108  1.00  0.00    -0.239 C  
BRANCH  28  29
HETATM   29  C   UNL     1     -10.833  15.630  65.927  1.00  0.00    -0.297 C  
BRANCH  29  30
HETATM   30  C   UNL     1     -12.138  14.857  65.683  1.00  0.00    -0.008 C  
BRANCH  30  31
HETATM   31  C   UNL     1     -12.157  14.098  64.341  1.00  0.00    -0.463 C  
BRANCH  31  32
HETATM   32  N   UNL     1     -12.344  12.649  64.491  1.00  0.00    -0.473 NA 
HETATM   33  C   UNL     1     -11.808  11.865  63.360  1.00  0.00    -0.413 C  
HETATM   34  C   UNL     1     -10.270  11.767  63.345  1.00  0.00    -0.449 C  
HETATM   35  N   UNL     1      -9.829  11.056  64.558  1.00  0.00    -0.265 NA 
HETATM   36  C   UNL     1     -10.266  11.725  65.799  1.00  0.00    -0.239 C  
HETATM   37  C   UNL     1     -11.775  12.125  65.755  1.00  0.00    -0.327 C  
BRANCH  35  38
HETATM   38  C   UNL     1      -8.982   9.955  64.482  1.00  0.00    -0.234 A  
HETATM   39  C   UNL     1      -9.097   8.742  65.217  1.00  0.00    -0.096 A  
HETATM   40 CL   UNL     1     -10.284   8.539  66.480  1.00  0.00    -0.343 Cl 
HETATM   41  C   UNL     1      -8.179   7.681  65.015  1.00  0.00    -0.113 A  
HETATM   42  C   UNL     1      -7.108   7.812  64.130  1.00  0.00    -0.075 A  
HETATM   43 CL   UNL     1      -8.305   6.155  65.833  1.00  0.00    -0.134 Cl 
HETATM   44  C   UNL     1      -6.959   8.986  63.416  1.00  0.00    -0.089 A  
HETATM   45  C   UNL     1      -7.892  10.014  63.576  1.00  0.00    -0.156 A  
ENDBRANCH  35  38
ENDBRANCH  31  32
ENDBRANCH  30  31
ENDBRANCH  29  30
ENDBRANCH  28  29
ENDBRANCH  27  28
ENDBRANCH  24  27
ENDBRANCH  15  16
ENDBRANCH  14  15
ENDBRANCH  12  14
ENDBRANCH  11  12
ENDBRANCH  10  11
ENDBRANCH   9  10
ENDBRANCH   8   9
ENDBRANCH   7   8
ENDBRANCH   6   7
ENDBRANCH   5   6
ENDBRANCH   4   5
ENDBRANCH   3   4
ENDBRANCH   2   3
TORSDOF 20
ENDMDL
MODEL       11
REMARK 921   NORMALIZED FREE ENERGY PREDICTED BY IDOCK:   -5.59 KCAL/MOL
REMARK 922        TOTAL FREE ENERGY PREDICTED BY IDOCK:  -15.97 KCAL/MOL
REMARK 923 INTER-LIGAND FREE ENERGY PREDICTED BY IDOCK:  -13.04 KCAL/MOL
REMARK 924 INTRA-LIGAND FREE ENERGY PREDICTED BY IDOCK:   -2.94 KCAL/MOL
REMARK 927      BINDING AFFINITY PREDICTED BY RF-SCORE:    0.00 PKD
ROOT
HETATM    1  C   UNL     1     -10.197  19.832  66.493  1.00  0.00    -0.606 C  
HETATM    2  C   UNL     1      -9.222  19.958  67.652  1.00  0.00    -0.447 C  
ENDROOT
BRANCH   2   3
HETATM    3  C   UNL     1      -7.804  20.241  67.159  1.00  0.00    -0.370 C  
BRANCH   3   4
HETATM    4  C   UNL     1      -7.558  19.617  65.786  1.00  0.00    -0.275 C  
BRANCH   4   5
HETATM    5  C   UNL     1      -6.366  18.661  65.822  1.00  0.00    -0.285 C  
BRANCH   5   6
HETATM    6  C   UNL     1      -6.671  17.429  66.675  1.00  0.00    -0.264 C  
BRANCH   6   7
HETATM    7  C   UNL     1      -7.953  16.738  66.210  1.00  0.00    -0.352 C  
BRANCH   7   8
HETATM    8  C   UNL     1      -8.581  15.931  67.345  1.00  0.00    -0.189 C  
BRANCH   8   9
HETATM    9  C   UNL     1      -8.853  14.488  66.919  1.00  0.00    -0.257 C  
BRANCH   9  10
HETATM   10  C   UNL     1      -9.792  14.445  65.711  1.00  0.00    -0.330 C  
BRANCH  10  11
HETATM   11  C   UNL     1     -11.195  14.949  66.039  1.00  0.00    -0.327 C  
BRANCH  11  12
HETATM   12  C   UNL     1     -12.027  13.937  66.791  1.00  0.00    -0.438 C  
HETATM   13  O   UNL     1     -12.173  12.765  66.476  1.00  0.00    -0.494 OA 
BRANCH  12  14
HETATM   14  O   UNL     1     -12.566  14.533  67.889  1.00  0.00     0.099 OA 
BRANCH  14  15
HETATM   15  C   UNL     1     -11.757  14.529  69.073  1.00  0.00    -0.311 C  
BRANCH  15  16
HETATM   16  N   UNL     1     -12.376  13.818  70.181  1.00  0.00    -0.338 N  
HETATM   17  C   UNL     1     -13.200  14.600  70.989  1.00  0.00    -0.374 C  
HETATM   18  C   UNL     1     -13.412  14.093  72.389  1.00  0.00    -0.616 C  
HETATM   19  O   UNL     1     -13.641  15.695  70.650  1.00  0.00    -0.448 OA 
HETATM   20  C   UNL     1     -13.736  12.621  72.429  1.00  0.00    -0.377 C  
HETATM   21  C   UNL     1     -12.867  11.818  71.505  1.00  0.00    -0.450 A  
HETATM   22  C   UNL     1     -12.745  10.439  71.736  1.00  0.00    -0.525 A  
HETATM   23  C   UNL     1     -12.039   9.624  70.852  1.00  0.00    -0.383 A  
HETATM   24  C   UNL     1     -11.476  10.181  69.710  1.00  0.00    -0.228 A  
HETATM   25  C   UNL     1     -11.586  11.560  69.486  1.00  0.00    -0.400 A  
HETATM   26  C   UNL     1     -12.257  12.407  70.384  1.00  0.00    -0.287 A  
BRANCH  24  27
HETATM   27  O   UNL     1     -10.764   9.490  68.766  1.00  0.00    -0.222 OA 
BRANCH  27  28
HETATM   28  C   UNL     1      -9.926  10.268  67.907  1.00  0.00    -0.164 C  
BRANCH  28  29
HETATM   29  C   UNL     1     -10.185   9.856  66.456  1.00  0.00    -0.292 C  
BRANCH  29  30
HETATM   30  C   UNL     1      -9.524   8.513  66.113  1.00  0.00    -0.286 C  
BRANCH  30  31
HETATM   31  C   UNL     1      -8.304   8.188  66.999  1.00  0.00    -0.116 C  
BRANCH  31  32
HETATM   32  N   UNL     1      -8.217   6.772  67.378  1.00  0.00    -0.121 NA 
HETATM   33  C   UNL     1      -7.594   6.552  68.699  1.00  0.00    -0.097 C  
HETATM   34  C   UNL     1      -8.506   6.918  69.886  1.00  0.00    -0.140 C  
HETATM   35  N   UNL     1      -9.689   6.041  69.861  1.00  0.00    -0.160 NA 
HETATM   36  C   UNL     1     -10.453   6.152  68.603  1.00  0.00    -0.236 C  
HETATM   37  C   UNL     1      -9.531   6.087  67.344  1.00  0.00    -0.111 C  
BRANCH  35  38
HETATM   38  C   UNL     1     -10.071   5.311  70.982  1.00  0.00    -0.221 A  
HETATM   39  C   UNL     1      -9.827   3.930  71.222  1.00  0.00    -0.157 A  
HETATM   40 CL   UNL     1      -9.119   2.896  70.007  1.00  0.00    -0.177 Cl 
HETATM   41  C   UNL     1     -10.242   3.318  72.430  1.00  0.00    -0.125 A  
HETATM   42  C   UNL     1     -10.948   4.035  73.397  1.00  0.00    -0.342 A  
HETATM   43 CL   UNL     1      -9.916   1.654  72.807  1.00  0.00    -0.158 Cl 
HETATM   44  C   UNL     1     -11.218   5.374  73.185  1.00  0.00    -0.355 A  
HETATM   45  C   UNL     1     -10.764   5.992  72.017  1.00  0.00    -0.281 A  
ENDBRANCH  35  38
ENDBRANCH  31  32
ENDBRANCH  30  31
ENDBRANCH  29  30
ENDBRANCH  28  29
ENDBRANCH  27  28
ENDBRANCH  24  27
ENDBRANCH  15  16
ENDBRANCH  14  15
ENDBRANCH  12  14
ENDBRANCH  11  12
ENDBRANCH  10  11
ENDBRANCH   9  10
ENDBRANCH   8   9
ENDBRANCH   7   8
ENDBRANCH   6   7
ENDBRANCH   5   6
ENDBRANCH   4   5
ENDBRANCH   3   4
ENDBRANCH   2   3
TORSDOF 20
ENDMDL
MODEL       12
REMARK 921   NORMALIZED FREE ENERGY PREDICTED BY IDOCK:   -5.57 KCAL/MOL
REMARK 922        TOTAL FREE ENERGY PREDICTED BY IDOCK:  -15.92 KCAL/MOL
REMARK 923 INTER-LIGAND FREE ENERGY PREDICTED BY IDOCK:  -12.44 KCAL/MOL
REMARK 924 INTRA-LIGAND FREE ENERGY PREDICTED BY IDOCK:   -3.48 KCAL/MOL
REMARK 927      BINDING AFFINITY PREDICTED BY RF-SCORE:    0.00 PKD
ROOT
HETATM    1  C   UNL     1     -12.302  15.469  74.424  1.00  0.00    -0.798 C  
HETATM    2  C   UNL     1     -12.147  15.588  72.917  1.00  0.00    -0.557 C  
ENDROOT
BRANCH   2   3
HETATM    3  C   UNL     1     -13.491  15.439  72.206  1.00  0.00    -0.573 C  
BRANCH   3   4
HETATM    4  C   UNL     1     -13.304  15.063  70.736  1.00  0.00    -0.362 C  
BRANCH   4   5
HETATM    5  C   UNL     1     -11.856  14.663  70.451  1.00  0.00    -0.365 C  
BRANCH   5   6
HETATM    6  C   UNL     1     -11.353  15.297  69.155  1.00  0.00    -0.307 C  
BRANCH   6   7
HETATM    7  C   UNL     1     -10.598  16.598  69.431  1.00  0.00    -0.333 C  
BRANCH   7   8
HETATM    8  C   UNL     1     -10.497  17.450  68.167  1.00  0.00    -0.389 C  
BRANCH   8   9
HETATM    9  C   UNL     1      -9.467  18.568  68.329  1.00  0.00    -0.360 C  
BRANCH   9  10
HETATM   10  C   UNL     1      -8.118  18.003  68.784  1.00  0.00    -0.247 C  
BRANCH  10  11
HETATM   11  C   UNL     1      -7.409  17.218  67.684  1.00  0.00    -0.179 C  
BRANCH  11  12
HETATM   12  C   UNL     1      -7.111  15.789  68.074  1.00  0.00    -0.123 C  
HETATM   13  O   UNL     1      -6.095  15.405  68.635  1.00  0.00    -0.093 OA 
BRANCH  12  14
HETATM   14  O   UNL     1      -8.164  15.003  67.721  1.00  0.00    -0.137 OA 
BRANCH  14  15
HETATM   15  C   UNL     1      -8.551  15.047  66.341  1.00  0.00    -0.048 C  
BRANCH  15  16
HETATM   16  N   UNL     1      -9.697  14.201  66.046  1.00  0.00    -0.296 N  
HETATM   17  C   UNL     1     -10.777  14.862  65.462  1.00  0.00    -0.356 C  
HETATM   18  C   UNL     1     -12.117  14.204  65.637  1.00  0.00    -0.425 C  
HETATM   19  O   UNL     1     -10.689  15.969  64.937  1.00  0.00    -0.576 OA 
HETATM   20  C   UNL     1     -12.078  12.725  65.347  1.00  0.00    -0.512 C  
HETATM   21  C   UNL     1     -10.874  12.056  65.945  1.00  0.00    -0.329 A  
HETATM   22  C   UNL     1     -10.909  10.666  66.135  1.00  0.00    -0.069 A  
HETATM   23  C   UNL     1      -9.786   9.976  66.586  1.00  0.00    -0.246 A  
HETATM   24  C   UNL     1      -8.605  10.670  66.819  1.00  0.00    -0.129 A  
HETATM   25  C   UNL     1      -8.572  12.059  66.642  1.00  0.00    -0.143 A  
HETATM   26  C   UNL     1      -9.704  12.781  66.227  1.00  0.00    -0.262 A  
BRANCH  24  27
HETATM   27  O   UNL     1      -7.435  10.109  67.259  1.00  0.00    -0.090 OA 
BRANCH  27  28
HETATM   28  C   UNL     1      -7.540   8.823  67.875  1.00  0.00    -0.097 C  
BRANCH  28  29
HETATM   29  C   UNL     1      -7.112   7.754  66.866  1.00  0.00    -0.081 C  
BRANCH  29  30
HETATM   30  C   UNL     1      -7.961   6.479  66.984  1.00  0.00    -0.112 C  
BRANCH  30  31
HETATM   31  C   UNL     1      -7.763   5.736  68.321  1.00  0.00    -0.093 C  
BRANCH  31  32
HETATM   32  N   UNL     1      -9.019   5.266  68.920  1.00  0.00    -0.102 NA 
HETATM   33  C   UNL     1      -9.152   5.603  70.352  1.00  0.00    -0.144 C  
HETATM   34  C   UNL     1      -9.466   7.089  70.614  1.00  0.00    -0.165 C  
HETATM   35  N   UNL     1     -10.771   7.410  70.013  1.00  0.00    -0.242 NA 
HETATM   36  C   UNL     1     -10.809   7.149  68.561  1.00  0.00    -0.095 C  
HETATM   37  C   UNL     1     -10.217   5.751  68.196  1.00  0.00    -0.190 C  
BRANCH  35  38
HETATM   38  C   UNL     1     -11.780   8.016  70.757  1.00  0.00    -0.206 A  
HETATM   39  C   UNL     1     -11.950   9.411  70.980  1.00  0.00    -0.315 A  
HETATM   40 CL   UNL     1     -10.767  10.579  70.451  1.00  0.00    -0.193 Cl 
HETATM   41  C   UNL     1     -13.048   9.896  71.732  1.00  0.00    -0.452 A  
HETATM   42  C   UNL     1     -13.964   9.023  72.319  1.00  0.00    -0.522 A  
HETATM   43 CL   UNL     1     -13.345  11.589  71.984  1.00  0.00    -0.527 Cl 
HETATM   44  C   UNL     1     -13.815   7.661  72.137  1.00  0.00    -0.167 A  
HETATM   45  C   UNL     1     -12.761   7.182  71.352  1.00  0.00    -0.433 A  
ENDBRANCH  35  38
ENDBRANCH  31  32
ENDBRANCH  30  31
ENDBRANCH  29  30
ENDBRANCH  28  29
ENDBRANCH  27  28
ENDBRANCH  24  27
ENDBRANCH  15  16
ENDBRANCH  14  15
ENDBRANCH  12  14
ENDBRANCH  11  12
ENDBRANCH  10  11
ENDBRANCH   9  10
ENDBRANCH   8   9
ENDBRANCH   7   8
ENDBRANCH   6   7
ENDBRANCH   5   6
ENDBRANCH   4   5
ENDBRANCH   3   4
ENDBRANCH   2   3
TORSDOF 20
ENDMDL
MODEL       13
REMARK 921   NORMALIZED FREE ENERGY PREDICTED BY IDOCK:   -5.55 KCAL/MOL
REMARK 922        TOTAL FREE ENERGY PREDICTED BY IDOCK:  -15.89 KCAL/MOL
REMARK 923 INTER-LIGAND FREE ENERGY PREDICTED BY IDOCK:  -13.06 KCAL/MOL
REMARK 924 INTRA-LIGAND FREE ENERGY PREDICTED BY IDOCK:   -2.82 KCAL/MOL
REMARK 927      BINDING AFFINITY PREDICTED BY RF-SCORE:    0.00 PKD
ROOT
HETATM    1  C   UNL     1     -12.450  16.278  73.238  1.00  0.00    -0.591 C  
HETATM    2  C   UNL     1     -13.535  15.316  72.782  1.00  0.00    -0.619 C  
ENDROOT
BRANCH   2   3
HETATM    3  C   UNL     1     -12.936  14.062  72.148  1.00  0.00    -0.458 C  
BRANCH   3   4
HETATM    4  C   UNL     1     -13.827  12.842  72.378  1.00  0.00    -0.443 C  
BRANCH   4   5
HETATM    5  C   UNL     1     -13.189  11.578  71.803  1.00  0.00    -0.456 C  
BRANCH   5   6
HETATM    6  C   UNL     1     -12.195  11.917  70.692  1.00  0.00    -0.424 C  
BRANCH   6   7
HETATM    7  C   UNL     1     -12.132  10.803  69.647  1.00  0.00    -0.361 C  
BRANCH   7   8
HETATM    8  C   UNL     1     -11.851  11.373  68.257  1.00  0.00    -0.320 C  
BRANCH   8   9
HETATM    9  C   UNL     1     -11.452  12.847  68.329  1.00  0.00    -0.348 C  
BRANCH   9  10
HETATM   10  C   UNL     1     -12.201  13.665  67.274  1.00  0.00    -0.317 C  
BRANCH  10  11
HETATM   11  C   UNL     1     -11.959  13.157  65.855  1.00  0.00    -0.479 C  
BRANCH  11  12
HETATM   12  C   UNL     1     -12.056  14.244  64.810  1.00  0.00    -0.446 C  
HETATM   13  O   UNL     1     -12.502  14.103  63.681  1.00  0.00    -0.819 OA 
BRANCH  12  14
HETATM   14  O   UNL     1     -11.591  15.408  65.337  1.00  0.00    -0.186 OA 
BRANCH  14  15
HETATM   15  C   UNL     1     -10.206  15.700  65.102  1.00  0.00    -0.262 C  
BRANCH  15  16
HETATM   16  N   UNL     1      -9.614  16.522  66.146  1.00  0.00    -0.307 N  
HETATM   17  C   UNL     1      -9.949  17.874  66.085  1.00  0.00    -0.283 C  
HETATM   18  C   UNL     1      -8.986  18.816  66.754  1.00  0.00    -0.311 C  
HETATM   19  O   UNL     1     -10.896  18.309  65.435  1.00  0.00    -0.569 OA 
HETATM   20  C   UNL     1      -8.579  18.348  68.129  1.00  0.00    -0.301 C  
HETATM   21  C   UNL     1      -8.280  16.877  68.168  1.00  0.00    -0.207 A  
HETATM   22  C   UNL     1      -7.497  16.385  69.224  1.00  0.00    -0.202 A  
HETATM   23  C   UNL     1      -7.274  15.017  69.372  1.00  0.00    -0.194 A  
HETATM   24  C   UNL     1      -7.862  14.127  68.481  1.00  0.00    -0.140 A  
HETATM   25  C   UNL     1      -8.633  14.619  67.420  1.00  0.00    -0.212 A  
HETATM   26  C   UNL     1      -8.837  15.996  67.226  1.00  0.00    -0.190 A  
BRANCH  24  27
HETATM   27  O   UNL     1      -7.723  12.765  68.522  1.00  0.00    -0.132 OA 
BRANCH  27  28
HETATM   28  C   UNL     1      -8.066  12.057  67.328  1.00  0.00    -0.174 C  
BRANCH  28  29
HETATM   29  C   UNL     1      -8.434  10.617  67.694  1.00  0.00    -0.118 C  
BRANCH  29  30
HETATM   30  C   UNL     1      -8.995   9.843  66.492  1.00  0.00    -0.166 C  
BRANCH  30  31
HETATM   31  C   UNL     1      -8.184   8.577  66.148  1.00  0.00    -0.115 C  
BRANCH  31  32
HETATM   32  N   UNL     1      -8.862   7.329  66.521  1.00  0.00    -0.135 NA 
HETATM   33  C   UNL     1      -8.155   6.564  67.569  1.00  0.00    -0.121 C  
HETATM   34  C   UNL     1      -8.284   7.174  68.978  1.00  0.00    -0.125 C  
HETATM   35  N   UNL     1      -9.703   7.158  69.372  1.00  0.00    -0.160 NA 
HETATM   36  C   UNL     1     -10.563   7.906  68.434  1.00  0.00    -0.107 C  
HETATM   37  C   UNL     1     -10.266   7.543  66.944  1.00  0.00    -0.289 C  
BRANCH  35  38
HETATM   38  C   UNL     1     -10.111   6.598  70.579  1.00  0.00    -0.187 A  
HETATM   39  C   UNL     1     -10.126   5.216  70.913  1.00  0.00    -0.232 A  
HETATM   40 CL   UNL     1      -9.763   3.980  69.736  1.00  0.00    -0.279 Cl 
HETATM   41  C   UNL     1     -10.534   4.784  72.199  1.00  0.00    -0.175 A  
HETATM   42  C   UNL     1     -10.984   5.694  73.157  1.00  0.00    -0.326 A  
HETATM   43 CL   UNL     1     -10.513   3.117  72.687  1.00  0.00    -0.212 Cl 
HETATM   44  C   UNL     1     -10.999   7.042  72.856  1.00  0.00    -0.337 A  
HETATM   45  C   UNL     1     -10.548   7.475  71.606  1.00  0.00    -0.232 A  
ENDBRANCH  35  38
ENDBRANCH  31  32
ENDBRANCH  30  31
ENDBRANCH  29  30
ENDBRANCH  28  29
ENDBRANCH  27  28
ENDBRANCH  24  27
ENDBRANCH  15  16
ENDBRANCH  14  15
ENDBRANCH  12  14
ENDBRANCH  11  12
ENDBRANCH  10  11
ENDBRANCH   9  10
ENDBRANCH   8   9
ENDBRANCH   7   8
ENDBRANCH   6   7
ENDBRANCH   5   6
ENDBRANCH   4   5
ENDBRANCH   3   4
ENDBRANCH   2   3
TORSDOF 20
ENDMDL
MODEL       14
REMARK 921   NORMALIZED FREE ENERGY PREDICTED BY IDOCK:   -5.53 KCAL/MOL
REMARK 922        TOTAL FREE ENERGY PREDICTED BY IDOCK:  -15.85 KCAL/MOL
REMARK 923 INTER-LIGAND FREE ENERGY PREDICTED BY IDOCK:  -11.94 KCAL/MOL
REMARK 924 INTRA-LIGAND FREE ENERGY PREDICTED BY IDOCK:   -3.91 KCAL/MOL
REMARK 927      BINDING AFFINITY PREDICTED BY RF-SCORE:    0.00 PKD
ROOT
HETATM    1  C   UNL     1     -10.161  10.851  63.364  1.00  0.00    -0.398 C  
HETATM    2  C   UNL     1     -10.554  12.312  63.511  1.00  0.00    -0.488 C  
ENDROOT
BRANCH   2   3
HETATM    3  C   UNL     1     -12.059  12.504  63.331  1.00  0.00    -0.621 C  
BRANCH   3   4
HETATM    4  C   UNL     1     -12.786  12.493  64.675  1.00  0.00    -0.434 C  
BRANCH   4   5
HETATM    5  C   UNL     1     -12.467  13.750  65.483  1.00  0.00    -0.548 C  
BRANCH   5   6
HETATM    6  C   UNL     1     -12.137  13.405  66.935  1.00  0.00    -0.406 C  
BRANCH   6   7
HETATM    7  C   UNL     1     -11.462  12.038  67.040  1.00  0.00    -0.402 C  
BRANCH   7   8
HETATM    8  C   UNL     1     -11.318  11.609  68.500  1.00  0.00    -0.332 C  
BRANCH   8   9
HETATM    9  C   UNL     1     -11.906  12.655  69.448  1.00  0.00    -0.356 C  
BRANCH   9  10
HETATM   10  C   UNL     1     -12.396  12.001  70.743  1.00  0.00    -0.403 C  
BRANCH  10  11
HETATM   11  C   UNL     1     -11.836  10.594  70.939  1.00  0.00    -0.433 C  
BRANCH  11  12
HETATM   12  C   UNL     1     -12.777   9.681  71.689  1.00  0.00    -0.407 C  
HETATM   13  O   UNL     1     -13.725  10.045  72.369  1.00  0.00    -0.297 OA 
BRANCH  12  14
HETATM   14  O   UNL     1     -12.413   8.389  71.467  1.00  0.00    -0.301 OA 
BRANCH  14  15
HETATM   15  C   UNL     1     -11.061   8.046  71.805  1.00  0.00    -0.260 C  
BRANCH  15  16
HETATM   16  N   UNL     1     -10.608   6.825  71.158  1.00  0.00    -0.222 N  
HETATM   17  C   UNL     1     -10.804   5.662  71.901  1.00  0.00    -0.242 C  
HETATM   18  C   UNL     1      -9.906   4.507  71.555  1.00  0.00    -0.260 C  
HETATM   19  O   UNL     1     -11.569   5.592  72.859  1.00  0.00    -0.297 OA 
HETATM   20  C   UNL     1      -9.810   4.273  70.068  1.00  0.00    -0.275 C  
HETATM   21  C   UNL     1      -9.654   5.551  69.297  1.00  0.00    -0.184 A  
HETATM   22  C   UNL     1      -9.132   5.484  67.996  1.00  0.00    -0.110 A  
HETATM   23  C   UNL     1      -9.062   6.622  67.192  1.00  0.00    -0.132 A  
HETATM   24  C   UNL     1      -9.547   7.831  67.676  1.00  0.00    -0.146 A  
HETATM   25  C   UNL     1     -10.057   7.901  68.979  1.00  0.00    -0.204 A  
HETATM   26  C   UNL     1     -10.098   6.777  69.821  1.00  0.00    -0.183 A  
BRANCH  24  27
HETATM   27  O   UNL     1      -9.539   9.015  66.986  1.00  0.00    -0.156 OA 
BRANCH  27  28
HETATM   28  C   UNL     1      -8.391   9.268  66.172  1.00  0.00    -0.119 C  
BRANCH  28  29
HETATM   29  C   UNL     1      -7.998  10.739  66.315  1.00  0.00    -0.160 C  
BRANCH  29  30
HETATM   30  C   UNL     1      -7.578  11.086  67.752  1.00  0.00    -0.099 C  
BRANCH  30  31
HETATM   31  C   UNL     1      -6.426  12.110  67.821  1.00  0.00    -0.095 C  
BRANCH  31  32
HETATM   32  N   UNL     1      -6.647  13.173  68.810  1.00  0.00    -0.090 NA 
HETATM   33  C   UNL     1      -5.927  14.425  68.501  1.00  0.00    -0.093 C  
HETATM   34  C   UNL     1      -6.551  15.231  67.345  1.00  0.00    -0.086 C  
HETATM   35  N   UNL     1      -7.909  15.647  67.737  1.00  0.00    -0.135 NA 
HETATM   36  C   UNL     1      -8.782  14.502  68.064  1.00  0.00    -0.167 C  
HETATM   37  C   UNL     1      -8.083  13.478  69.013  1.00  0.00     0.245 C  
BRANCH  35  38
HETATM   38  C   UNL     1      -8.308  16.978  67.659  1.00  0.00    -0.190 A  
HETATM   39  C   UNL     1      -9.302  17.519  66.798  1.00  0.00    -0.265 A  
HETATM   40 CL   UNL     1     -10.072  16.557  65.562  1.00  0.00    -0.269 Cl 
HETATM   41  C   UNL     1      -9.637  18.894  66.849  1.00  0.00    -0.314 A  
HETATM   42  C   UNL     1      -8.966  19.769  67.705  1.00  0.00    -0.402 A  
HETATM   43 CL   UNL     1     -10.886  19.600  65.869  1.00  0.00    -0.503 Cl 
HETATM   44  C   UNL     1      -7.981  19.278  68.540  1.00  0.00    -0.396 A  
HETATM   45  C   UNL     1      -7.686  17.911  68.529  1.00  0.00    -0.299 A  
ENDBRANCH  35  38
ENDBRANCH  31  32
ENDBRANCH  30  31
ENDBRANCH  29  30
ENDBRANCH  28  29
ENDBRANCH  27  28
ENDBRANCH  24  27
ENDBRANCH  15  16
ENDBRANCH  14  15
ENDBRANCH  12  14
ENDBRANCH  11  12
ENDBRANCH  10  11
ENDBRANCH   9  10
ENDBRANCH   8   9
ENDBRANCH   7   8
ENDBRANCH   6   7
ENDBRANCH   5   6
ENDBRANCH   4   5
ENDBRANCH   3   4
ENDBRANCH   2   3
TORSDOF 20
ENDMDL
MODEL       15
REMARK 921   NORMALIZED FREE ENERGY PREDICTED BY IDOCK:   -5.52 KCAL/MOL
REMARK 922        TOTAL FREE ENERGY PREDICTED BY IDOCK:  -15.82 KCAL/MOL
REMARK 923 INTER-LIGAND FREE ENERGY PREDICTED BY IDOCK:  -12.41 KCAL/MOL
REMARK 924 INTRA-LIGAND FREE ENERGY PREDICTED BY IDOCK:   -3.42 KCAL/MOL
REMARK 927      BINDING AFFINITY PREDICTED BY RF-SCORE:    0.00 PKD
ROOT
HETATM    1  C   UNL     1      -6.041  19.876  70.472  1.00  0.00    -0.331 C  
HETATM    2  C   UNL     1      -5.820  20.743  69.244  1.00  0.00    -0.353 C  
ENDROOT
BRANCH   2   3
HETATM    3  C   UNL     1      -6.844  20.435  68.153  1.00  0.00    -0.305 C  
BRANCH   3   4
HETATM    4  C   UNL     1      -7.791  19.314  68.580  1.00  0.00    -0.383 C  
BRANCH   4   5
HETATM    5  C   UNL     1      -9.228  19.617  68.157  1.00  0.00    -0.418 C  
BRANCH   5   6
HETATM    6  C   UNL     1      -9.330  19.817  66.645  1.00  0.00    -0.483 C  
BRANCH   6   7
HETATM    7  C   UNL     1     -10.501  19.028  66.060  1.00  0.00    -0.530 C  
BRANCH   7   8
HETATM    8  C   UNL     1     -10.184  17.534  66.012  1.00  0.00    -0.306 C  
BRANCH   8   9
HETATM    9  C   UNL     1     -10.902  16.850  64.848  1.00  0.00    -0.012 C  
BRANCH   9  10
HETATM   10  C   UNL     1     -10.738  15.329  64.927  1.00  0.00    -0.423 C  
BRANCH  10  11
HETATM   11  C   UNL     1     -11.911  14.579  64.302  1.00  0.00    -0.419 C  
BRANCH  11  12
HETATM   12  C   UNL     1     -12.564  13.602  65.252  1.00  0.00    -0.469 C  
HETATM   13  O   UNL     1     -13.074  12.538  64.933  1.00  0.00    -0.833 OA 
BRANCH  12  14
HETATM   14  O   UNL     1     -12.472  14.087  66.519  1.00  0.00    -0.442 OA 
BRANCH  14  15
HETATM   15  C   UNL     1     -11.870  13.216  67.487  1.00  0.00    -0.360 C  
BRANCH  15  16
HETATM   16  N   UNL     1     -10.647  13.761  68.057  1.00  0.00    -0.247 N  
HETATM   17  C   UNL     1     -10.838  14.814  68.950  1.00  0.00    -0.254 C  
HETATM   18  C   UNL     1      -9.663  15.734  69.134  1.00  0.00    -0.250 C  
HETATM   19  O   UNL     1     -11.918  15.070  69.476  1.00  0.00    -0.303 OA 
HETATM   20  C   UNL     1      -8.368  14.988  69.337  1.00  0.00    -0.141 C  
HETATM   21  C   UNL     1      -8.223  13.828  68.395  1.00  0.00    -0.151 A  
HETATM   22  C   UNL     1      -6.937  13.315  68.163  1.00  0.00    -0.114 A  
HETATM   23  C   UNL     1      -6.750  12.175  67.383  1.00  0.00    -0.143 A  
HETATM   24  C   UNL     1      -7.856  11.519  66.856  1.00  0.00    -0.163 A  
HETATM   25  C   UNL     1      -9.139  12.037  67.077  1.00  0.00    -0.191 A  
HETATM   26  C   UNL     1      -9.347  13.208  67.825  1.00  0.00    -0.206 A  
BRANCH  24  27
HETATM   27  O   UNL     1      -7.806  10.391  66.080  1.00  0.00    -0.130 OA 
BRANCH  27  28
HETATM   28  C   UNL     1      -6.513   9.817  65.875  1.00  0.00    -0.082 C  
BRANCH  28  29
HETATM   29  C   UNL     1      -6.389   8.555  66.731  1.00  0.00    -0.056 C  
BRANCH  29  30
HETATM   30  C   UNL     1      -7.517   7.552  66.443  1.00  0.00    -0.084 C  
BRANCH  30  31
HETATM   31  C   UNL     1      -7.686   6.490  67.548  1.00  0.00    -0.106 C  
BRANCH  31  32
HETATM   32  N   UNL     1      -9.083   6.281  67.949  1.00  0.00    -0.113 NA 
HETATM   33  C   UNL     1      -9.295   6.359  69.409  1.00  0.00    -0.141 C  
HETATM   34  C   UNL     1      -9.243   7.793  69.969  1.00  0.00    -0.153 C  
HETATM   35  N   UNL     1     -10.339   8.575  69.372  1.00  0.00    -0.213 NA 
HETATM   36  C   UNL     1     -10.268   8.621  67.898  1.00  0.00    -0.219 C  
HETATM   37  C   UNL     1     -10.019   7.211  67.274  1.00  0.00    -0.186 C  
BRANCH  35  38
HETATM   38  C   UNL     1     -11.237   9.282  70.165  1.00  0.00    -0.208 A  
HETATM   39  C   UNL     1     -12.168   8.735  71.091  1.00  0.00    -0.244 A  
HETATM   40 CL   UNL     1     -12.417   7.014  71.239  1.00  0.00    -0.422 Cl 
HETATM   41  C   UNL     1     -13.004   9.578  71.865  1.00  0.00    -0.425 A  
HETATM   42  C   UNL     1     -12.978  10.964  71.705  1.00  0.00    -0.557 A  
HETATM   43 CL   UNL     1     -14.113   8.973  73.057  1.00  0.00    -0.052 Cl 
HETATM   44  C   UNL     1     -12.097  11.525  70.799  1.00  0.00    -0.410 A  
HETATM   45  C   UNL     1     -11.236  10.698  70.073  1.00  0.00    -0.382 A  
ENDBRANCH  35  38
ENDBRANCH  31  32
ENDBRANCH  30  31
ENDBRANCH  29  30
ENDBRANCH  28  29
ENDBRANCH  27  28
ENDBRANCH  24  27
ENDBRANCH  15  16
ENDBRANCH  14  15
ENDBRANCH  12  14
ENDBRANCH  11  12
ENDBRANCH  10  11
ENDBRANCH   9  10
ENDBRANCH   8   9
ENDBRANCH   7   8
ENDBRANCH   6   7
ENDBRANCH   5   6
ENDBRANCH   4   5
ENDBRANCH   3   4
ENDBRANCH   2   3
TORSDOF 20
ENDMDL
MODEL       16
REMARK 921   NORMALIZED FREE ENERGY PREDICTED BY IDOCK:   -5.52 KCAL/MOL
REMARK 922        TOTAL FREE ENERGY PREDICTED BY IDOCK:  -15.81 KCAL/MOL
REMARK 923 INTER-LIGAND FREE ENERGY PREDICTED BY IDOCK:  -11.46 KCAL/MOL
REMARK 924 INTRA-LIGAND FREE ENERGY PREDICTED BY IDOCK:   -4.35 KCAL/MOL
REMARK 927      BINDING AFFINITY PREDICTED BY RF-SCORE:    0.00 PKD
ROOT
HETATM    1  C   UNL     1     -14.374   8.224  71.842  1.00  0.00    -0.564 C  
HETATM    2  C   UNL     1     -13.521   9.471  72.008  1.00  0.00    -0.522 C  
ENDROOT
BRANCH   2   3
HETATM    3  C   UNL     1     -13.284  10.164  70.667  1.00  0.00    -0.197 C  
BRANCH   3   4
HETATM    4  C   UNL     1     -12.193  11.228  70.777  1.00  0.00    -0.479 C  
BRANCH   4   5
HETATM    5  C   UNL     1     -11.235  11.159  69.587  1.00  0.00    -0.333 C  
BRANCH   5   6
HETATM    6  C   UNL     1     -10.636   9.761  69.441  1.00  0.00    -0.248 C  
BRANCH   6   7
HETATM    7  C   UNL     1      -9.195   9.720  69.949  1.00  0.00    -0.263 C  
BRANCH   7   8
HETATM    8  C   UNL     1      -8.988   8.552  70.913  1.00  0.00    -0.206 C  
BRANCH   8   9
HETATM    9  C   UNL     1     -10.316   8.072  71.500  1.00  0.00    -0.258 C  
BRANCH   9  10
HETATM   10  C   UNL     1     -10.552   6.594  71.174  1.00  0.00    -0.263 C  
BRANCH  10  11
HETATM   11  C   UNL     1     -11.606   6.393  70.089  1.00  0.00    -0.449 C  
BRANCH  11  12
HETATM   12  C   UNL     1     -11.018   5.976  68.761  1.00  0.00    -0.312 C  
HETATM   13  O   UNL     1     -11.277   6.485  67.680  1.00  0.00    -0.324 OA 
BRANCH  12  14
HETATM   14  O   UNL     1     -10.136   4.960  68.966  1.00  0.00    -0.189 OA 
BRANCH  14  15
HETATM   15  C   UNL     1      -8.986   4.939  68.109  1.00  0.00    -0.110 C  
BRANCH  15  16
HETATM   16  N   UNL     1      -7.870   5.708  68.639  1.00  0.00    -0.095 N  
HETATM   17  C   UNL     1      -7.119   5.054  69.614  1.00  0.00    -0.055 C  
HETATM   18  C   UNL     1      -6.344   5.943  70.546  1.00  0.00    -0.032 C  
HETATM   19  O   UNL     1      -7.161   3.841  69.800  1.00  0.00    -0.041 OA 
HETATM   20  C   UNL     1      -5.590   7.027  69.819  1.00  0.00    -0.022 C  
HETATM   21  C   UNL     1      -6.411   7.671  68.740  1.00  0.00    -0.040 A  
HETATM   22  C   UNL     1      -6.028   8.941  68.280  1.00  0.00    -0.042 A  
HETATM   23  C   UNL     1      -6.686   9.543  67.208  1.00  0.00    -0.072 A  
HETATM   24  C   UNL     1      -7.714   8.863  66.568  1.00  0.00    -0.099 A  
HETATM   25  C   UNL     1      -8.105   7.601  67.035  1.00  0.00    -0.117 A  
HETATM   26  C   UNL     1      -7.484   6.993  68.139  1.00  0.00    -0.099 A  
BRANCH  24  27
HETATM   27  O   UNL     1      -8.434   9.342  65.506  1.00  0.00    -0.130 OA 
BRANCH  27  28
HETATM   28  C   UNL     1      -9.784   9.728  65.776  1.00  0.00    -0.273 C  
BRANCH  28  29
HETATM   29  C   UNL     1      -9.842  11.249  65.936  1.00  0.00    -0.272 C  
BRANCH  29  30
HETATM   30  C   UNL     1     -11.280  11.753  66.129  1.00  0.00    -0.363 C  
BRANCH  30  31
HETATM   31  C   UNL     1     -11.758  12.684  64.996  1.00  0.00    -0.359 C  
BRANCH  31  32
HETATM   32  N   UNL     1     -12.376  13.925  65.481  1.00  0.00    -0.451 NA 
HETATM   33  C   UNL     1     -11.973  14.287  66.856  1.00  0.00    -0.438 C  
HETATM   34  C   UNL     1     -10.540  14.843  66.956  1.00  0.00    -0.289 C  
HETATM   35  N   UNL     1     -10.462  16.094  66.184  1.00  0.00    -0.325 NA 
HETATM   36  C   UNL     1     -10.816  15.908  64.763  1.00  0.00    -0.324 C  
HETATM   37  C   UNL     1     -12.127  15.078  64.585  1.00  0.00    -0.323 C  
BRANCH  35  38
HETATM   38  C   UNL     1      -9.972  17.266  66.753  1.00  0.00    -0.301 A  
HETATM   39  C   UNL     1      -8.614  17.556  67.065  1.00  0.00    -0.235 A  
HETATM   40 CL   UNL     1      -7.356  16.357  66.908  1.00  0.00    -0.251 Cl 
HETATM   41  C   UNL     1      -8.248  18.811  67.611  1.00  0.00    -0.263 A  
HETATM   42  C   UNL     1      -9.209  19.778  67.909  1.00  0.00    -0.427 A  
HETATM   43 CL   UNL     1      -6.602  19.248  67.953  1.00  0.00    -0.248 Cl 
HETATM   44  C   UNL     1     -10.538  19.518  67.635  1.00  0.00    -0.566 A  
HETATM   45  C   UNL     1     -10.896  18.301  67.047  1.00  0.00    -0.196 A  
ENDBRANCH  35  38
ENDBRANCH  31  32
ENDBRANCH  30  31
ENDBRANCH  29  30
ENDBRANCH  28  29
ENDBRANCH  27  28
ENDBRANCH  24  27
ENDBRANCH  15  16
ENDBRANCH  14  15
ENDBRANCH  12  14
ENDBRANCH  11  12
ENDBRANCH  10  11
ENDBRANCH   9  10
ENDBRANCH   8   9
ENDBRANCH   7   8
ENDBRANCH   6   7
ENDBRANCH   5   6
ENDBRANCH   4   5
ENDBRANCH   3   4
ENDBRANCH   2   3
TORSDOF 20
ENDMDL
MODEL       17
REMARK 921   NORMALIZED FREE ENERGY PREDICTED BY IDOCK:   -5.49 KCAL/MOL
REMARK 922        TOTAL FREE ENERGY PREDICTED BY IDOCK:  -15.75 KCAL/MOL
REMARK 923 INTER-LIGAND FREE ENERGY PREDICTED BY IDOCK:  -12.91 KCAL/MOL
REMARK 924 INTRA-LIGAND FREE ENERGY PREDICTED BY IDOCK:   -2.84 KCAL/MOL
REMARK 927      BINDING AFFINITY PREDICTED BY RF-SCORE:    0.00 PKD
ROOT
HETATM    1  C   UNL     1     -10.143  14.974  65.067  1.00  0.00    -0.289 C  
HETATM    2  C   UNL     1     -11.654  15.087  64.954  1.00  0.00    -0.374 C  
ENDROOT
BRANCH   2   3
HETATM    3  C   UNL     1     -12.311  13.709  64.880  1.00  0.00    -0.442 C  
BRANCH   3   4
HETATM    4  C   UNL     1     -12.147  13.088  63.494  1.00  0.00    -0.617 C  
BRANCH   4   5
HETATM    5  C   UNL     1     -11.511  11.701  63.584  1.00  0.00    -0.458 C  
BRANCH   5   6
HETATM    6  C   UNL     1     -10.023  11.751  63.237  1.00  0.00    -0.435 C  
BRANCH   6   7
HETATM    7  C   UNL     1      -9.220  10.778  64.101  1.00  0.00    -0.251 C  
BRANCH   7   8
HETATM    8  C   UNL     1     -10.110  10.122  65.156  1.00  0.00    -0.329 C  
BRANCH   8   9
HETATM    9  C   UNL     1      -9.411   8.929  65.811  1.00  0.00    -0.272 C  
BRANCH   9  10
HETATM   10  C   UNL     1     -10.144   8.502  67.085  1.00  0.00    -0.331 C  
BRANCH  10  11
HETATM   11  C   UNL     1     -10.750   7.105  66.974  1.00  0.00    -0.420 C  
BRANCH  11  12
HETATM   12  C   UNL     1      -9.710   6.013  66.888  1.00  0.00    -0.148 C  
HETATM   13  O   UNL     1      -9.267   5.537  65.853  1.00  0.00    -0.160 OA 
BRANCH  12  14
HETATM   14  O   UNL     1      -9.329   5.663  68.146  1.00  0.00    -0.110 OA 
BRANCH  14  15
HETATM   15  C   UNL     1     -10.248   4.843  68.880  1.00  0.00    -0.067 C  
BRANCH  15  16
HETATM   16  N   UNL     1     -10.060   4.928  70.320  1.00  0.00    -0.252 N  
HETATM   17  C   UNL     1      -9.265   3.922  70.866  1.00  0.00    -0.129 C  
HETATM   18  C   UNL     1      -9.477   3.644  72.329  1.00  0.00    -0.189 C  
HETATM   19  O   UNL     1      -8.519   3.210  70.199  1.00  0.00    -0.051 OA 
HETATM   20  C   UNL     1      -9.522   4.904  73.157  1.00  0.00    -0.144 C  
HETATM   21  C   UNL     1     -10.341   5.984  72.511  1.00  0.00    -0.222 A  
HETATM   22  C   UNL     1     -10.827   7.024  73.319  1.00  0.00    -0.345 A  
HETATM   23  C   UNL     1     -11.503   8.109  72.762  1.00  0.00    -0.397 A  
HETATM   24  C   UNL     1     -11.667   8.176  71.383  1.00  0.00    -0.285 A  
HETATM   25  C   UNL     1     -11.193   7.133  70.578  1.00  0.00    -0.321 A  
HETATM   26  C   UNL     1     -10.546   6.010  71.122  1.00  0.00    -0.246 A  
BRANCH  24  27
HETATM   27  O   UNL     1     -12.306   9.187  70.715  1.00  0.00    -0.199 OA 
BRANCH  27  28
HETATM   28  C   UNL     1     -12.070  10.513  71.195  1.00  0.00    -0.370 C  
BRANCH  28  29
HETATM   29  C   UNL     1     -13.345  11.033  71.863  1.00  0.00    -0.423 C  
BRANCH  29  30
HETATM   30  C   UNL     1     -13.337  12.562  72.007  1.00  0.00    -0.528 C  
BRANCH  30  31
HETATM   31  C   UNL     1     -12.186  13.242  71.238  1.00  0.00    -0.020 C  
BRANCH  31  32
HETATM   32  N   UNL     1     -12.640  14.045  70.095  1.00  0.00    -0.308 NA 
HETATM   33  C   UNL     1     -12.607  15.501  70.347  1.00  0.00    -0.378 C  
HETATM   34  C   UNL     1     -11.187  16.100  70.333  1.00  0.00    -0.381 C  
HETATM   35  N   UNL     1     -10.611  15.922  68.990  1.00  0.00    -0.231 NA 
HETATM   36  C   UNL     1     -10.548  14.505  68.582  1.00  0.00    -0.255 C  
HETATM   37  C   UNL     1     -11.888  13.752  68.852  1.00  0.00    -0.360 C  
BRANCH  35  38
HETATM   38  C   UNL     1     -10.077  16.996  68.284  1.00  0.00    -0.306 A  
HETATM   39  C   UNL     1      -8.708  17.379  68.226  1.00  0.00    -0.261 A  
HETATM   40 CL   UNL     1      -7.491  16.602  69.207  1.00  0.00    -0.217 Cl 
HETATM   41  C   UNL     1      -8.295  18.479  67.434  1.00  0.00    -0.256 A  
HETATM   42  C   UNL     1      -9.221  19.251  66.732  1.00  0.00    -0.367 A  
HETATM   43 CL   UNL     1      -6.632  18.954  67.272  1.00  0.00    -0.196 Cl 
HETATM   44  C   UNL     1     -10.560  18.916  66.784  1.00  0.00    -0.480 A  
HETATM   45  C   UNL     1     -10.964  17.800  67.522  1.00  0.00    -0.091 A  
ENDBRANCH  35  38
ENDBRANCH  31  32
ENDBRANCH  30  31
ENDBRANCH  29  30
ENDBRANCH  28  29
ENDBRANCH  27  28
ENDBRANCH  24  27
ENDBRANCH  15  16
ENDBRANCH  14  15
ENDBRANCH  12  14
ENDBRANCH  11  12
ENDBRANCH  10  11
ENDBRANCH   9  10
ENDBRANCH   8   9
ENDBRANCH   7   8
ENDBRANCH   6   7
ENDBRANCH   5   6
ENDBRANCH   4   5
ENDBRANCH   3   4
ENDBRANCH   2   3
TORSDOF 20
ENDMDL
MODEL       18
REMARK 921   NORMALIZED FREE ENERGY PREDICTED BY IDOCK:   -5.45 KCAL/MOL
REMARK 922        TOTAL FREE ENERGY PREDICTED BY IDOCK:  -15.68 KCAL/MOL
REMARK 923 INTER-LIGAND FREE ENERGY PREDICTED BY IDOCK:  -12.40 KCAL/MOL
REMARK 924 INTRA-LIGAND FREE ENERGY PREDICTED BY IDOCK:   -3.27 KCAL/MOL
REMARK 927      BINDING AFFINITY PREDICTED BY RF-SCORE:    0.00 PKD
ROOT
HETATM    1  C   UNL     1     -10.603  18.624  67.102  1.00  0.00    -0.468 C  
HETATM    2  C   UNL     1     -10.317  17.592  66.023  1.00  0.00    -0.305 C  
ENDROOT
BRANCH   2   3
HETATM    3  C   UNL     1     -10.800  16.204  66.440  1.00  0.00    -0.131 C  
BRANCH   3   4
HETATM    4  C   UNL     1     -10.549  15.174  65.339  1.00  0.00    -0.410 C  
BRANCH   4   5
HETATM    5  C   UNL     1     -11.820  14.916  64.528  1.00  0.00    -0.404 C  
BRANCH   5   6
HETATM    6  C   UNL     1     -12.766  13.972  65.269  1.00  0.00    -0.468 C  
BRANCH   6   7
HETATM    7  C   UNL     1     -12.635  12.539  64.752  1.00  0.00    -0.493 C  
BRANCH   7   8
HETATM    8  C   UNL     1     -11.880  12.504  63.424  1.00  0.00    -0.587 C  
BRANCH   8   9
HETATM    9  C   UNL     1     -10.653  11.594  63.504  1.00  0.00    -0.496 C  
BRANCH   9  10
HETATM   10  C   UNL     1     -10.147  11.489  64.945  1.00  0.00    -0.314 C  
BRANCH  10  11
HETATM   11  C   UNL     1      -9.968  10.043  65.401  1.00  0.00    -0.364 C  
BRANCH  11  12
HETATM   12  C   UNL     1      -9.312   9.926  66.757  1.00  0.00    -0.151 C  
HETATM   13  O   UNL     1      -8.763  10.837  67.359  1.00  0.00    -0.126 OA 
BRANCH  12  14
HETATM   14  O   UNL     1      -9.452   8.651  67.209  1.00  0.00    -0.146 OA 
BRANCH  14  15
HETATM   15  C   UNL     1      -8.241   7.897  67.361  1.00  0.00    -0.123 C  
BRANCH  15  16
HETATM   16  N   UNL     1      -8.115   6.824  66.386  1.00  0.00    -0.106 N  
HETATM   17  C   UNL     1      -7.532   7.199  65.176  1.00  0.00    -0.094 C  
HETATM   18  C   UNL     1      -7.863   6.330  63.995  1.00  0.00    -0.116 C  
HETATM   19  O   UNL     1      -6.884   8.232  65.028  1.00  0.00    -0.065 OA 
HETATM   20  C   UNL     1      -7.737   4.860  64.304  1.00  0.00    -0.080 C  
HETATM   21  C   UNL     1      -8.326   4.502  65.638  1.00  0.00    -0.115 A  
HETATM   22  C   UNL     1      -8.670   3.163  65.877  1.00  0.00    -0.129 A  
HETATM   23  C   UNL     1      -9.122   2.752  67.130  1.00  0.00    -0.192 A  
HETATM   24  C   UNL     1      -9.201   3.675  68.165  1.00  0.00    -0.169 A  
HETATM   25  C   UNL     1      -8.870   5.015  67.924  1.00  0.00    -0.107 A  
HETATM   26  C   UNL     1      -8.452   5.460  66.658  1.00  0.00    -0.108 A  
BRANCH  24  27
HETATM   27  O   UNL     1      -9.624   3.397  69.438  1.00  0.00    -0.172 OA 
BRANCH  27  28
HETATM   28  C   UNL     1      -9.194   4.299  70.461  1.00  0.00    -0.122 C  
BRANCH  28  29
HETATM   29  C   UNL     1     -10.401   4.692  71.315  1.00  0.00    -0.148 C  
BRANCH  29  30
HETATM   30  C   UNL     1     -10.388   6.184  71.678  1.00  0.00    -0.259 C  
BRANCH  30  31
HETATM   31  C   UNL     1     -11.794   6.817  71.707  1.00  0.00    -0.330 C  
BRANCH  31  32
HETATM   32  N   UNL     1     -11.841   8.105  72.413  1.00  0.00    -0.375 NA 
HETATM   33  C   UNL     1     -10.749   9.025  72.034  1.00  0.00    -0.263 C  
HETATM   34  C   UNL     1     -10.930   9.664  70.644  1.00  0.00    -0.320 C  
HETATM   35  N   UNL     1     -12.149  10.490  70.658  1.00  0.00    -0.325 NA 
HETATM   36  C   UNL     1     -13.357   9.713  71.001  1.00  0.00    -0.204 C  
HETATM   37  C   UNL     1     -13.139   8.801  72.249  1.00  0.00    -0.409 C  
BRANCH  35  38
HETATM   38  C   UNL     1     -12.126  11.821  70.252  1.00  0.00    -0.342 A  
HETATM   39  C   UNL     1     -12.638  12.938  70.969  1.00  0.00    -0.287 A  
HETATM   40 CL   UNL     1     -13.543  12.746  72.449  1.00  0.00    -0.622 Cl 
HETATM   41  C   UNL     1     -12.515  14.251  70.452  1.00  0.00    -0.362 A  
HETATM   42  C   UNL     1     -11.937  14.484  69.203  1.00  0.00    -0.344 A  
HETATM   43 CL   UNL     1     -13.062  15.659  71.309  1.00  0.00    -0.554 Cl 
HETATM   44  C   UNL     1     -11.447  13.417  68.474  1.00  0.00    -0.345 A  
HETATM   45  C   UNL     1     -11.521  12.126  69.005  1.00  0.00    -0.351 A  
ENDBRANCH  35  38
ENDBRANCH  31  32
ENDBRANCH  30  31
ENDBRANCH  29  30
ENDBRANCH  28  29
ENDBRANCH  27  28
ENDBRANCH  24  27
ENDBRANCH  15  16
ENDBRANCH  14  15
ENDBRANCH  12  14
ENDBRANCH  11  12
ENDBRANCH  10  11
ENDBRANCH   9  10
ENDBRANCH   8   9
ENDBRANCH   7   8
ENDBRANCH   6   7
ENDBRANCH   5   6
ENDBRANCH   4   5
ENDBRANCH   3   4
ENDBRANCH   2   3
TORSDOF 20
ENDMDL
MODEL       19
REMARK 921   NORMALIZED FREE ENERGY PREDICTED BY IDOCK:   -5.36 KCAL/MOL
REMARK 922        TOTAL FREE ENERGY PREDICTED BY IDOCK:  -15.47 KCAL/MOL
REMARK 923 INTER-LIGAND FREE ENERGY PREDICTED BY IDOCK:  -12.57 KCAL/MOL
REMARK 924 INTRA-LIGAND FREE ENERGY PREDICTED BY IDOCK:   -2.91 KCAL/MOL
REMARK 927      BINDING AFFINITY PREDICTED BY RF-SCORE:    0.00 PKD
ROOT
HETATM    1  C   UNL     1     -12.358  13.814  63.802  1.00  0.00    -0.313 C  
HETATM    2  C   UNL     1     -12.397  12.364  64.257  1.00  0.00    -0.544 C  
ENDROOT
BRANCH   2   3
HETATM    3  C   UNL     1     -11.226  11.569  63.682  1.00  0.00    -0.451 C  
BRANCH   3   4
HETATM    4  C   UNL     1     -10.338  11.006  64.791  1.00  0.00    -0.389 C  
BRANCH   4   5
HETATM    5  C   UNL     1      -9.364   9.964  64.241  1.00  0.00    -0.313 C  
BRANCH   5   6
HETATM    6  C   UNL     1      -9.015   8.920  65.300  1.00  0.00    -0.213 C  
BRANCH   6   7
HETATM    7  C   UNL     1     -10.007   8.957  66.463  1.00  0.00    -0.358 C  
BRANCH   7   8
HETATM    8  C   UNL     1     -10.453   7.546  66.846  1.00  0.00    -0.385 C  
BRANCH   8   9
HETATM    9  C   UNL     1      -9.254   6.622  67.062  1.00  0.00    -0.147 C  
BRANCH   9  10
HETATM   10  C   UNL     1      -9.483   5.267  66.388  1.00  0.00    -0.161 C  
BRANCH  10  11
HETATM   11  C   UNL     1      -9.382   4.100  67.367  1.00  0.00    -0.204 C  
BRANCH  11  12
HETATM   12  C   UNL     1      -8.085   4.085  68.141  1.00  0.00    -0.084 C  
HETATM   13  O   UNL     1      -6.967   4.046  67.648  1.00  0.00    -0.054 OA 
BRANCH  12  14
HETATM   14  O   UNL     1      -8.361   4.148  69.471  1.00  0.00    -0.058 OA 
BRANCH  14  15
HETATM   15  C   UNL     1      -9.715   3.864  69.850  1.00  0.00    -0.164 C  
BRANCH  15  16
HETATM   16  N   UNL     1     -10.019   4.269  71.214  1.00  0.00    -0.182 N  
HETATM   17  C   UNL     1      -9.846   3.271  72.172  1.00  0.00    -0.167 C  
HETATM   18  C   UNL     1     -10.630   3.445  73.444  1.00  0.00    -0.283 C  
HETATM   19  O   UNL     1      -9.198   2.247  71.975  1.00  0.00    -0.078 OA 
HETATM   20  C   UNL     1     -10.537   4.845  73.996  1.00  0.00    -0.350 C  
HETATM   21  C   UNL     1     -10.671   5.891  72.928  1.00  0.00    -0.281 A  
HETATM   22  C   UNL     1     -11.032   7.192  73.312  1.00  0.00    -0.325 A  
HETATM   23  C   UNL     1     -11.069   8.230  72.382  1.00  0.00    -0.447 A  
HETATM   24  C   UNL     1     -10.715   7.978  71.062  1.00  0.00    -0.220 A  
HETATM   25  C   UNL     1     -10.367   6.677  70.675  1.00  0.00    -0.233 A  
HETATM   26  C   UNL     1     -10.362   5.608  71.587  1.00  0.00    -0.215 A  
BRANCH  24  27
HETATM   27  O   UNL     1     -10.707   8.909  70.057  1.00  0.00    -0.222 OA 
BRANCH  27  28
HETATM   28  C   UNL     1     -11.650   9.977  70.175  1.00  0.00    -0.252 C  
BRANCH  28  29
HETATM   29  C   UNL     1     -11.086  11.215  69.473  1.00  0.00    -0.311 C  
BRANCH  29  30
HETATM   30  C   UNL     1     -11.879  11.570  68.207  1.00  0.00    -0.327 C  
BRANCH  30  31
HETATM   31  C   UNL     1     -11.872  13.079  67.886  1.00  0.00    -0.343 C  
BRANCH  31  32
HETATM   32  N   UNL     1     -10.567  13.717  68.102  1.00  0.00    -0.241 NA 
HETATM   33  C   UNL     1      -9.973  14.277  66.870  1.00  0.00    -0.263 C  
HETATM   34  C   UNL     1     -10.645  15.580  66.394  1.00  0.00    -0.311 C  
HETATM   35  N   UNL     1     -10.456  16.614  67.426  1.00  0.00    -0.315 NA 
HETATM   36  C   UNL     1     -11.018  16.222  68.733  1.00  0.00    -0.343 C  
HETATM   37  C   UNL     1     -10.609  14.772  69.142  1.00  0.00    -0.248 C  
BRANCH  35  38
HETATM   38  C   UNL     1      -9.920  17.859  67.111  1.00  0.00    -0.327 A  
HETATM   39  C   UNL     1      -8.651  18.114  66.520  1.00  0.00    -0.263 A  
HETATM   40 CL   UNL     1      -7.490  16.840  66.247  1.00  0.00    -0.299 Cl 
HETATM   41  C   UNL     1      -8.244  19.437  66.218  1.00  0.00    -0.330 A  
HETATM   42  C   UNL     1      -9.048  20.531  66.539  1.00  0.00    -0.186 A  
HETATM   43 CL   UNL     1      -6.736  19.806  65.438  1.00  0.00    -0.305 Cl 
HETATM   44  C   UNL     1     -10.278  20.317  67.131  1.00  0.00    -0.500 A  
HETATM   45  C   UNL     1     -10.704  19.010  67.382  1.00  0.00    -0.559 A  
ENDBRANCH  35  38
ENDBRANCH  31  32
ENDBRANCH  30  31
ENDBRANCH  29  30
ENDBRANCH  28  29
ENDBRANCH  27  28
ENDBRANCH  24  27
ENDBRANCH  15  16
ENDBRANCH  14  15
ENDBRANCH  12  14
ENDBRANCH  11  12
ENDBRANCH  10  11
ENDBRANCH   9  10
ENDBRANCH   8   9
ENDBRANCH   7   8
ENDBRANCH   6   7
ENDBRANCH   5   6
ENDBRANCH   4   5
ENDBRANCH   3   4
ENDBRANCH   2   3
TORSDOF 20
ENDMDL
MODEL       20
REMARK 921   NORMALIZED FREE ENERGY PREDICTED BY IDOCK:   -5.35 KCAL/MOL
REMARK 922        TOTAL FREE ENERGY PREDICTED BY IDOCK:  -15.45 KCAL/MOL
REMARK 923 INTER-LIGAND FREE ENERGY PREDICTED BY IDOCK:  -12.31 KCAL/MOL
REMARK 924 INTRA-LIGAND FREE ENERGY PREDICTED BY IDOCK:   -3.14 KCAL/MOL
REMARK 927      BINDING AFFINITY PREDICTED BY RF-SCORE:    0.00 PKD
ROOT
HETATM    1  C   UNL     1      -9.570  19.846  67.259  1.00  0.00    -0.502 C  
HETATM    2  C   UNL     1      -8.534  19.572  68.336  1.00  0.00    -0.387 C  
ENDROOT
BRANCH   2   3
HETATM    3  C   UNL     1      -7.121  19.873  67.838  1.00  0.00    -0.314 C  
BRANCH   3   4
HETATM    4  C   UNL     1      -6.888  19.292  66.444  1.00  0.00    -0.219 C  
BRANCH   4   5
HETATM    5  C   UNL     1      -5.763  18.257  66.461  1.00  0.00    -0.183 C  
BRANCH   5   6
HETATM    6  C   UNL     1      -6.256  16.913  66.995  1.00  0.00    -0.226 C  
BRANCH   6   7
HETATM    7  C   UNL     1      -7.658  16.592  66.475  1.00  0.00    -0.304 C  
BRANCH   7   8
HETATM    8  C   UNL     1      -8.401  15.669  67.440  1.00  0.00    -0.198 C  
BRANCH   8   9
HETATM    9  C   UNL     1      -8.866  14.390  66.742  1.00  0.00    -0.225 C  
BRANCH   9  10
HETATM   10  C   UNL     1      -9.978  14.694  65.735  1.00  0.00    -0.365 C  
BRANCH  10  11
HETATM   11  C   UNL     1     -11.139  15.466  66.358  1.00  0.00    -0.230 C  
BRANCH  11  12
HETATM   12  C   UNL     1     -11.899  14.664  67.389  1.00  0.00    -0.348 C  
HETATM   13  O   UNL     1     -12.491  13.616  67.176  1.00  0.00    -0.263 OA 
BRANCH  12  14
HETATM   14  O   UNL     1     -11.798  15.284  68.595  1.00  0.00    -0.346 OA 
BRANCH  14  15
HETATM   15  C   UNL     1     -11.134  14.547  69.632  1.00  0.00    -0.228 C  
BRANCH  15  16
HETATM   16  N   UNL     1     -12.060  13.906  70.553  1.00  0.00    -0.348 N  
HETATM   17  C   UNL     1     -12.984  14.764  71.145  1.00  0.00    -0.359 C  
HETATM   18  C   UNL     1     -13.568  14.296  72.449  1.00  0.00    -0.599 C  
HETATM   19  O   UNL     1     -13.236  15.888  70.717  1.00  0.00    -0.491 OA 
HETATM   20  C   UNL     1     -14.016  12.857  72.400  1.00  0.00    -0.338 C  
HETATM   21  C   UNL     1     -13.021  11.972  71.706  1.00  0.00    -0.445 A  
HETATM   22  C   UNL     1     -13.075  10.590  71.950  1.00  0.00    -0.567 A  
HETATM   23  C   UNL     1     -12.249   9.707  71.256  1.00  0.00    -0.452 A  
HETATM   24  C   UNL     1     -11.383  10.200  70.288  1.00  0.00    -0.315 A  
HETATM   25  C   UNL     1     -11.319  11.580  70.053  1.00  0.00    -0.222 A  
HETATM   26  C   UNL     1     -12.112  12.492  70.769  1.00  0.00    -0.146 A  
BRANCH  24  27
HETATM   27  O   UNL     1     -10.526   9.439  69.538  1.00  0.00    -0.202 OA 
BRANCH  27  28
HETATM   28  C   UNL     1      -9.907   8.335  70.204  1.00  0.00    -0.184 C  
BRANCH  28  29
HETATM   29  C   UNL     1      -8.954   8.873  71.274  1.00  0.00    -0.312 C  
BRANCH  29  30
HETATM   30  C   UNL     1      -7.549   9.136  70.712  1.00  0.00    -0.149 C  
BRANCH  30  31
HETATM   31  C   UNL     1      -7.034   8.004  69.800  1.00  0.00    -0.052 C  
BRANCH  31  32
HETATM   32  N   UNL     1      -6.355   8.491  68.592  1.00  0.00    -0.052 NA 
HETATM   33  C   UNL     1      -6.821   7.840  67.350  1.00  0.00    -0.069 C  
HETATM   34  C   UNL     1      -8.210   8.317  66.883  1.00  0.00    -0.103 C  
HETATM   35  N   UNL     1      -8.136   9.754  66.569  1.00  0.00    -0.116 NA 
HETATM   36  C   UNL     1      -7.700  10.567  67.721  1.00  0.00    -0.093 C  
HETATM   37  C   UNL     1      -6.450   9.961  68.433  1.00  0.00    -0.054 C  
BRANCH  35  38
HETATM   38  C   UNL     1      -8.570  10.249  65.342  1.00  0.00    -0.159 A  
HETATM   39  C   UNL     1      -9.756  10.996  65.099  1.00  0.00    -0.254 A  
HETATM   40 CL   UNL     1     -10.949  11.263  66.344  1.00  0.00    -0.316 Cl 
HETATM   41  C   UNL     1     -10.060  11.472  63.799  1.00  0.00    -0.366 A  
HETATM   42  C   UNL     1      -9.236  11.178  62.712  1.00  0.00    -0.374 A  
HETATM   43 CL   UNL     1     -11.458  12.443  63.452  1.00  0.00    -0.534 Cl 
HETATM   44  C   UNL     1      -8.087  10.438  62.913  1.00  0.00    -0.157 A  
HETATM   45  C   UNL     1      -7.758  10.012  64.203  1.00  0.00    -0.144 A  
ENDBRANCH  35  38
ENDBRANCH  31  32
ENDBRANCH  30  31
ENDBRANCH  29  30
ENDBRANCH  28  29
ENDBRANCH  27  28
ENDBRANCH  24  27
ENDBRANCH  15  16
ENDBRANCH  14  15
ENDBRANCH  12  14
ENDBRANCH  11  12
ENDBRANCH  10  11
ENDBRANCH   9  10
ENDBRANCH   8   9
ENDBRANCH   7   8
ENDBRANCH   6   7
ENDBRANCH   5   6
ENDBRANCH   4   5
ENDBRANCH   3   4
ENDBRANCH   2   3
TORSDOF 20
ENDMDL
MODEL       21
REMARK 921   NORMALIZED FREE ENERGY PREDICTED BY IDOCK:   -5.34 KCAL/MOL
REMARK 922        TOTAL FREE ENERGY PREDICTED BY IDOCK:  -15.42 KCAL/MOL
REMARK 923 INTER-LIGAND FREE ENERGY PREDICTED BY IDOCK:  -10.82 KCAL/MOL
REMARK 924 INTRA-LIGAND FREE ENERGY PREDICTED BY IDOCK:   -4.60 KCAL/MOL
REMARK 927      BINDING AFFINITY PREDICTED BY RF-SCORE:    0.00 PKD
ROOT
HETATM    1  C   UNL     1     -11.512  12.393  63.339  1.00  0.00    -0.526 C  
HETATM    2  C   UNL     1     -12.744  12.426  64.229  1.00  0.00    -0.437 C  
ENDROOT
BRANCH   2   3
HETATM    3  C   UNL     1     -12.821  13.729  65.023  1.00  0.00    -0.319 C  
BRANCH   3   4
HETATM    4  C   UNL     1     -11.689  14.682  64.640  1.00  0.00    -0.431 C  
BRANCH   4   5
HETATM    5  C   UNL     1     -10.826  15.026  65.854  1.00  0.00    -0.339 C  
BRANCH   5   6
HETATM    6  C   UNL     1      -9.579  14.144  65.913  1.00  0.00    -0.208 C  
BRANCH   6   7
HETATM    7  C   UNL     1      -9.568  13.287  67.179  1.00  0.00    -0.240 C  
BRANCH   7   8
HETATM    8  C   UNL     1     -10.518  12.097  67.041  1.00  0.00    -0.244 C  
BRANCH   8   9
HETATM    9  C   UNL     1     -11.607  12.127  68.114  1.00  0.00    -0.397 C  
BRANCH   9  10
HETATM   10  C   UNL     1     -11.260  13.135  69.213  1.00  0.00    -0.266 C  
BRANCH  10  11
HETATM   11  C   UNL     1     -12.494  13.825  69.788  1.00  0.00    -0.216 C  
BRANCH  11  12
HETATM   12  C   UNL     1     -12.246  15.268  70.164  1.00  0.00    -0.364 C  
HETATM   13  O   UNL     1     -12.539  15.781  71.233  1.00  0.00    -0.437 OA 
BRANCH  12  14
HETATM   14  O   UNL     1     -11.622  15.894  69.129  1.00  0.00    -0.362 OA 
BRANCH  14  15
HETATM   15  C   UNL     1     -10.710  16.943  69.483  1.00  0.00    -0.205 C  
BRANCH  15  16
HETATM   16  N   UNL     1      -9.720  17.206  68.450  1.00  0.00    -0.272 N  
HETATM   17  C   UNL     1     -10.042  18.250  67.584  1.00  0.00    -0.356 C  
HETATM   18  C   UNL     1      -9.374  18.210  66.237  1.00  0.00    -0.220 C  
HETATM   19  O   UNL     1     -10.901  19.093  67.829  1.00  0.00    -0.407 OA 
HETATM   20  C   UNL     1      -7.895  17.930  66.333  1.00  0.00    -0.307 C  
HETATM   21  C   UNL     1      -7.582  16.839  67.316  1.00  0.00    -0.204 A  
HETATM   22  C   UNL     1      -6.347  16.180  67.208  1.00  0.00    -0.204 A  
HETATM   23  C   UNL     1      -5.956  15.233  68.153  1.00  0.00    -0.140 A  
HETATM   24  C   UNL     1      -6.786  14.962  69.234  1.00  0.00    -0.148 A  
HETATM   25  C   UNL     1      -8.024  15.610  69.335  1.00  0.00    -0.226 A  
HETATM   26  C   UNL     1      -8.457  16.537  68.372  1.00  0.00    -0.208 A  
BRANCH  24  27
HETATM   27  O   UNL     1      -6.515  14.060  70.228  1.00  0.00    -0.124 OA 
BRANCH  27  28
HETATM   28  C   UNL     1      -5.563  13.040  69.918  1.00  0.00    -0.114 C  
BRANCH  28  29
HETATM   29  C   UNL     1      -6.156  11.678  70.287  1.00  0.00    -0.128 C  
BRANCH  29  30
HETATM   30  C   UNL     1      -7.009  11.094  69.151  1.00  0.00    -0.108 C  
BRANCH  30  31
HETATM   31  C   UNL     1      -8.314  10.438  69.644  1.00  0.00    -0.068 C  
BRANCH  31  32
HETATM   32  N   UNL     1      -8.531   9.089  69.104  1.00  0.00    -0.126 NA 
HETATM   33  C   UNL     1      -7.742   8.046  69.789  1.00  0.00    -0.101 C  
HETATM   34  C   UNL     1      -8.276   7.681  71.188  1.00  0.00    -0.100 C  
HETATM   35  N   UNL     1      -9.629   7.118  71.045  1.00  0.00    -0.159 NA 
HETATM   36  C   UNL     1     -10.567   8.051  70.390  1.00  0.00    -0.224 C  
HETATM   37  C   UNL     1      -9.959   8.694  69.104  1.00  0.00    -0.192 C  
BRANCH  35  38
HETATM   38  C   UNL     1      -9.964   5.889  71.607  1.00  0.00    -0.175 A  
HETATM   39  C   UNL     1      -9.544   4.606  71.157  1.00  0.00    -0.171 A  
HETATM   40 CL   UNL     1      -8.640   4.399  69.679  1.00  0.00    -0.093 Cl 
HETATM   41  C   UNL     1      -9.933   3.432  71.848  1.00  0.00    -0.140 A  
HETATM   42  C   UNL     1     -10.779   3.493  72.956  1.00  0.00    -0.232 A  
HETATM   43 CL   UNL     1      -9.400   1.845  71.386  1.00  0.00    -0.169 Cl 
HETATM   44  C   UNL     1     -11.218   4.723  73.406  1.00  0.00    -0.425 A  
HETATM   45  C   UNL     1     -10.795   5.886  72.757  1.00  0.00    -0.289 A  
ENDBRANCH  35  38
ENDBRANCH  31  32
ENDBRANCH  30  31
ENDBRANCH  29  30
ENDBRANCH  28  29
ENDBRANCH  27  28
ENDBRANCH  24  27
ENDBRANCH  15  16
ENDBRANCH  14  15
ENDBRANCH  12  14
ENDBRANCH  11  12
ENDBRANCH  10  11
ENDBRANCH   9  10
ENDBRANCH   8   9
ENDBRANCH   7   8
ENDBRANCH   6   7
ENDBRANCH   5   6
ENDBRANCH   4   5
ENDBRANCH   3   4
ENDBRANCH   2   3
TORSDOF 20
ENDMDL
MODEL       22
REMARK 921   NORMALIZED FREE ENERGY PREDICTED BY IDOCK:   -5.30 KCAL/MOL
REMARK 922        TOTAL FREE ENERGY PREDICTED BY IDOCK:  -15.34 KCAL/MOL
REMARK 923 INTER-LIGAND FREE ENERGY PREDICTED BY IDOCK:  -12.06 KCAL/MOL
REMARK 924 INTRA-LIGAND FREE ENERGY PREDICTED BY IDOCK:   -3.29 KCAL/MOL
REMARK 927      BINDING AFFINITY PREDICTED BY RF-SCORE:    0.00 PKD
ROOT
HETATM    1  C   UNL     1      -7.409  15.187  69.077  1.00  0.00    -0.155 C  
HETATM    2  C   UNL     1      -6.909  16.596  69.349  1.00  0.00    -0.218 C  
ENDROOT
BRANCH   2   3
HETATM    3  C   UNL     1      -6.036  17.107  68.203  1.00  0.00    -0.128 C  
BRANCH   3   4
HETATM    4  C   UNL     1      -6.623  16.725  66.844  1.00  0.00    -0.248 C  
BRANCH   4   5
HETATM    5  C   UNL     1      -6.392  17.831  65.815  1.00  0.00    -0.214 C  
BRANCH   5   6
HETATM    6  C   UNL     1      -6.196  19.186  66.494  1.00  0.00    -0.187 C  
BRANCH   6   7
HETATM    7  C   UNL     1      -7.413  20.088  66.291  1.00  0.00    -0.323 C  
BRANCH   7   8
HETATM    8  C   UNL     1      -8.160  20.302  67.607  1.00  0.00    -0.313 C  
BRANCH   8   9
HETATM    9  C   UNL     1      -9.646  20.574  67.366  1.00  0.00    -0.578 C  
BRANCH   9  10
HETATM   10  C   UNL     1     -10.514  19.593  68.159  1.00  0.00    -0.503 C  
BRANCH  10  11
HETATM   11  C   UNL     1     -10.064  18.143  67.992  1.00  0.00    -0.376 C  
BRANCH  11  12
HETATM   12  C   UNL     1     -10.382  17.578  66.627  1.00  0.00    -0.319 C  
HETATM   13  O   UNL     1     -10.521  18.233  65.604  1.00  0.00    -0.627 OA 
BRANCH  12  14
HETATM   14  O   UNL     1     -10.464  16.223  66.716  1.00  0.00    -0.296 OA 
BRANCH  14  15
HETATM   15  C   UNL     1      -9.733  15.479  65.731  1.00  0.00    -0.348 C  
BRANCH  15  16
HETATM   16  N   UNL     1     -10.537  14.454  65.083  1.00  0.00    -0.383 N  
HETATM   17  C   UNL     1     -11.611  14.938  64.337  1.00  0.00    -0.288 C  
HETATM   18  C   UNL     1     -12.741  13.971  64.117  1.00  0.00     0.066 C  
HETATM   19  O   UNL     1     -11.711  16.107  63.972  1.00  0.00    -0.829 OA 
HETATM   20  C   UNL     1     -12.261  12.609  63.684  1.00  0.00    -0.624 C  
HETATM   21  C   UNL     1     -11.070  12.144  64.471  1.00  0.00    -0.375 A  
HETATM   22  C   UNL     1     -10.781  10.771  64.494  1.00  0.00    -0.147 A  
HETATM   23  C   UNL     1      -9.631  10.291  65.119  1.00  0.00    -0.337 A  
HETATM   24  C   UNL     1      -8.743  11.189  65.699  1.00  0.00    -0.122 A  
HETATM   25  C   UNL     1      -9.037  12.559  65.688  1.00  0.00     0.309 A  
HETATM   26  C   UNL     1     -10.211  13.061  65.100  1.00  0.00    -0.272 A  
BRANCH  24  27
HETATM   27  O   UNL     1      -7.581  10.846  66.338  1.00  0.00    -0.139 OA 
BRANCH  27  28
HETATM   28  C   UNL     1      -7.716  10.051  67.518  1.00  0.00    -0.091 C  
BRANCH  28  29
HETATM   29  C   UNL     1      -7.365   8.600  67.182  1.00  0.00    -0.088 C  
BRANCH  29  30
HETATM   30  C   UNL     1      -8.572   7.663  67.344  1.00  0.00    -0.125 C  
BRANCH  30  31
HETATM   31  C   UNL     1      -8.899   7.340  68.816  1.00  0.00    -0.127 C  
BRANCH  31  32
HETATM   32  N   UNL     1     -10.312   7.545  69.160  1.00  0.00    -0.209 NA 
HETATM   33  C   UNL     1     -10.518   8.060  70.529  1.00  0.00    -0.214 C  
HETATM   34  C   UNL     1     -10.157   9.549  70.694  1.00  0.00    -0.286 C  
HETATM   35  N   UNL     1     -11.048  10.349  69.837  1.00  0.00    -0.284 NA 
HETATM   36  C   UNL     1     -10.953   9.976  68.412  1.00  0.00    -0.217 C  
HETATM   37  C   UNL     1     -11.013   8.430  68.200  1.00  0.00     0.208 C  
BRANCH  35  38
HETATM   38  C   UNL     1     -11.777  11.417  70.351  1.00  0.00    -0.268 A  
HETATM   39  C   UNL     1     -11.719  12.772  69.921  1.00  0.00    -0.251 A  
HETATM   40 CL   UNL     1     -10.553  13.315  68.741  1.00  0.00    -0.248 Cl 
HETATM   41  C   UNL     1     -12.549  13.757  70.511  1.00  0.00    -0.291 A  
HETATM   42  C   UNL     1     -13.407  13.442  71.565  1.00  0.00    -0.345 A  
HETATM   43 CL   UNL     1     -12.569  15.413  69.986  1.00  0.00    -0.331 Cl 
HETATM   44  C   UNL     1     -13.472  12.138  72.018  1.00  0.00    -0.388 A  
HETATM   45  C   UNL     1     -12.693  11.154  71.403  1.00  0.00    -0.524 A  
ENDBRANCH  35  38
ENDBRANCH  31  32
ENDBRANCH  30  31
ENDBRANCH  29  30
ENDBRANCH  28  29
ENDBRANCH  27  28
ENDBRANCH  24  27
ENDBRANCH  15  16
ENDBRANCH  14  15
ENDBRANCH  12  14
ENDBRANCH  11  12
ENDBRANCH  10  11
ENDBRANCH   9  10
ENDBRANCH   8   9
ENDBRANCH   7   8
ENDBRANCH   6   7
ENDBRANCH   5   6
ENDBRANCH   4   5
ENDBRANCH   3   4
ENDBRANCH   2   3
TORSDOF 20
ENDMDL
MODEL       23
REMARK 921   NORMALIZED FREE ENERGY PREDICTED BY IDOCK:   -5.24 KCAL/MOL
REMARK 922        TOTAL FREE ENERGY PREDICTED BY IDOCK:  -15.22 KCAL/MOL
REMARK 923 INTER-LIGAND FREE ENERGY PREDICTED BY IDOCK:  -12.00 KCAL/MOL
REMARK 924 INTRA-LIGAND FREE ENERGY PREDICTED BY IDOCK:   -3.21 KCAL/MOL
REMARK 927      BINDING AFFINITY PREDICTED BY RF-SCORE:    0.00 PKD
ROOT
HETATM    1  C   UNL     1      -8.500  17.137  66.256  1.00  0.00    -0.279 C  
HETATM    2  C   UNL     1      -8.736  15.667  66.563  1.00  0.00    -0.342 C  
ENDROOT
BRANCH   2   3
HETATM    3  C   UNL     1      -9.744  15.051  65.594  1.00  0.00    -0.344 C  
BRANCH   3   4
HETATM    4  C   UNL     1     -10.835  16.052  65.217  1.00  0.00    -0.376 C  
BRANCH   4   5
HETATM    5  C   UNL     1     -11.967  15.368  64.449  1.00  0.00    -0.235 C  
BRANCH   5   6
HETATM    6  C   UNL     1     -12.084  13.894  64.834  1.00  0.00    -0.434 C  
BRANCH   6   7
HETATM    7  C   UNL     1     -11.967  12.991  63.606  1.00  0.00    -0.608 C  
BRANCH   7   8
HETATM    8  C   UNL     1     -10.896  11.921  63.813  1.00  0.00    -0.481 C  
BRANCH   8   9
HETATM    9  C   UNL     1     -10.810  11.496  65.280  1.00  0.00    -0.319 C  
BRANCH   9  10
HETATM   10  C   UNL     1      -9.449  10.864  65.584  1.00  0.00    -0.252 C  
BRANCH  10  11
HETATM   11  C   UNL     1      -9.446   9.350  65.384  1.00  0.00    -0.322 C  
BRANCH  11  12
HETATM   12  C   UNL     1      -9.772   8.585  66.646  1.00  0.00    -0.249 C  
HETATM   13  O   UNL     1     -10.875   8.158  66.950  1.00  0.00    -0.250 OA 
BRANCH  12  14
HETATM   14  O   UNL     1      -8.634   8.428  67.375  1.00  0.00    -0.123 OA 
BRANCH  14  15
HETATM   15  C   UNL     1      -7.671   7.502  66.854  1.00  0.00    -0.110 C  
BRANCH  15  16
HETATM   16  N   UNL     1      -8.197   6.152  66.719  1.00  0.00    -0.109 N  
HETATM   17  C   UNL     1      -8.366   5.718  65.405  1.00  0.00    -0.142 C  
HETATM   18  C   UNL     1      -9.369   4.616  65.206  1.00  0.00    -0.159 C  
HETATM   19  O   UNL     1      -7.834   6.260  64.440  1.00  0.00    -0.105 OA 
HETATM   20  C   UNL     1      -9.205   3.497  66.202  1.00  0.00    -0.173 C  
HETATM   21  C   UNL     1      -8.971   4.001  67.597  1.00  0.00    -0.149 A  
HETATM   22  C   UNL     1      -9.225   3.134  68.671  1.00  0.00    -0.228 A  
HETATM   23  C   UNL     1      -8.927   3.508  69.980  1.00  0.00    -0.171 A  
HETATM   24  C   UNL     1      -8.340   4.744  70.221  1.00  0.00    -0.079 A  
HETATM   25  C   UNL     1      -8.098   5.616  69.151  1.00  0.00    -0.096 A  
HETATM   26  C   UNL     1      -8.428   5.276  67.828  1.00  0.00    -0.105 A  
BRANCH  24  27
HETATM   27  O   UNL     1      -7.997   5.226  71.457  1.00  0.00    -0.109 OA 
BRANCH  27  28
HETATM   28  C   UNL     1      -8.772   4.752  72.560  1.00  0.00    -0.116 C  
BRANCH  28  29
HETATM   29  C   UNL     1      -9.843   5.792  72.897  1.00  0.00    -0.174 C  
BRANCH  29  30
HETATM   30  C   UNL     1     -11.169   5.507  72.176  1.00  0.00    -0.247 C  
BRANCH  30  31
HETATM   31  C   UNL     1     -12.253   6.570  72.449  1.00  0.00    -0.057 C  
BRANCH  31  32
HETATM   32  N   UNL     1     -12.649   7.322  71.252  1.00  0.00    -0.368 NA 
HETATM   33  C   UNL     1     -13.773   8.252  71.484  1.00  0.00    -0.308 C  
HETATM   34  C   UNL     1     -13.380   9.516  72.273  1.00  0.00    -0.441 C  
HETATM   35  N   UNL     1     -12.398  10.279  71.484  1.00  0.00    -0.391 NA 
HETATM   36  C   UNL     1     -11.185   9.497  71.176  1.00  0.00    -0.376 C  
HETATM   37  C   UNL     1     -11.522   8.068  70.644  1.00  0.00    -0.232 C  
BRANCH  35  38
HETATM   38  C   UNL     1     -12.587  11.629  71.204  1.00  0.00    -0.335 A  
HETATM   39  C   UNL     1     -12.098  12.340  70.073  1.00  0.00    -0.273 A  
HETATM   40 CL   UNL     1     -11.015  11.604  68.920  1.00  0.00    -0.260 Cl 
HETATM   41  C   UNL     1     -12.399  13.713  69.893  1.00  0.00    -0.249 A  
HETATM   42  C   UNL     1     -13.135  14.422  70.843  1.00  0.00    -0.390 A  
HETATM   43 CL   UNL     1     -11.885  14.618  68.502  1.00  0.00    -0.358 Cl 
HETATM   44  C   UNL     1     -13.608  13.763  71.963  1.00  0.00    -0.569 A  
HETATM   45  C   UNL     1     -13.357  12.397  72.116  1.00  0.00    -0.508 A  
ENDBRANCH  35  38
ENDBRANCH  31  32
ENDBRANCH  30  31
ENDBRANCH  29  30
ENDBRANCH  28  29
ENDBRANCH  27  28
ENDBRANCH  24  27
ENDBRANCH  15  16
ENDBRANCH  14  15
ENDBRANCH  12  14
ENDBRANCH  11  12
ENDBRANCH  10  11
ENDBRANCH   9  10
ENDBRANCH   8   9
ENDBRANCH   7   8
ENDBRANCH   6   7
ENDBRANCH   5   6
ENDBRANCH   4   5
ENDBRANCH   3   4
ENDBRANCH   2   3
TORSDOF 20
ENDMDL
MODEL       24
REMARK 921   NORMALIZED FREE ENERGY PREDICTED BY IDOCK:   -5.20 KCAL/MOL
REMARK 922        TOTAL FREE ENERGY PREDICTED BY IDOCK:  -15.13 KCAL/MOL
REMARK 923 INTER-LIGAND FREE ENERGY PREDICTED BY IDOCK:  -10.64 KCAL/MOL
REMARK 924 INTRA-LIGAND FREE ENERGY PREDICTED BY IDOCK:   -4.49 KCAL/MOL
REMARK 927      BINDING AFFINITY PREDICTED BY RF-SCORE:    0.00 PKD
ROOT
HETATM    1  C   UNL     1     -10.793  19.412  65.697  1.00  0.00    -0.323 C  
HETATM    2  C   UNL     1     -10.705  19.241  67.205  1.00  0.00    -0.594 C  
ENDROOT
BRANCH   2   3
HETATM    3  C   UNL     1      -9.278  18.919  67.646  1.00  0.00    -0.318 C  
BRANCH   3   4
HETATM    4  C   UNL     1      -8.617  17.916  66.702  1.00  0.00    -0.283 C  
BRANCH   4   5
HETATM    5  C   UNL     1      -7.419  17.240  67.368  1.00  0.00    -0.191 C  
BRANCH   5   6
HETATM    6  C   UNL     1      -7.390  15.742  67.066  1.00  0.00    -0.226 C  
BRANCH   6   7
HETATM    7  C   UNL     1      -6.990  14.936  68.301  1.00  0.00    -0.118 C  
BRANCH   7   8
HETATM    8  C   UNL     1      -8.058  13.898  68.646  1.00  0.00    -0.097 C  
BRANCH   8   9
HETATM    9  C   UNL     1      -7.457  12.498  68.767  1.00  0.00    -0.049 C  
BRANCH   9  10
HETATM   10  C   UNL     1      -8.462  11.433  68.319  1.00  0.00    -0.154 C  
BRANCH  10  11
HETATM   11  C   UNL     1      -8.751  10.403  69.408  1.00  0.00    -0.138 C  
BRANCH  11  12
HETATM   12  C   UNL     1     -10.219  10.296  69.749  1.00  0.00    -0.220 C  
HETATM   13  O   UNL     1     -10.672  10.012  70.848  1.00  0.00    -0.300 OA 
BRANCH  12  14
HETATM   14  O   UNL     1     -10.954  10.592  68.643  1.00  0.00    -0.217 OA 
BRANCH  14  15
HETATM   15  C   UNL     1     -12.116  11.406  68.854  1.00  0.00    -0.219 C  
BRANCH  15  16
HETATM   16  N   UNL     1     -11.870  12.819  68.607  1.00  0.00    -0.315 N  
HETATM   17  C   UNL     1     -11.970  13.635  69.733  1.00  0.00    -0.341 C  
HETATM   18  C   UNL     1     -12.264  15.085  69.465  1.00  0.00    -0.267 C  
HETATM   19  O   UNL     1     -11.942  13.207  70.884  1.00  0.00    -0.227 OA 
HETATM   20  C   UNL     1     -11.401  15.657  68.369  1.00  0.00    -0.365 C  
HETATM   21  C   UNL     1     -11.271  14.728  67.197  1.00  0.00    -0.346 A  
HETATM   22  C   UNL     1     -10.880  15.266  65.961  1.00  0.00    -0.331 A  
HETATM   23  C   UNL     1     -10.641  14.440  64.864  1.00  0.00    -0.456 A  
HETATM   24  C   UNL     1     -10.761  13.063  65.006  1.00  0.00    -0.315 A  
HETATM   25  C   UNL     1     -11.164  12.526  66.236  1.00  0.00    -0.359 A  
HETATM   26  C   UNL     1     -11.450  13.343  67.343  1.00  0.00    -0.333 A  
BRANCH  24  27
HETATM   27  O   UNL     1     -10.551  12.147  64.009  1.00  0.00    -0.321 OA 
BRANCH  27  28
HETATM   28  C   UNL     1      -9.316  11.427  64.059  1.00  0.00    -0.063 C  
BRANCH  28  29
HETATM   29  C   UNL     1      -9.616   9.927  64.050  1.00  0.00    -0.137 C  
BRANCH  29  30
HETATM   30  C   UNL     1      -9.785   9.365  65.470  1.00  0.00    -0.300 C  
BRANCH  30  31
HETATM   31  C   UNL     1      -8.589   8.511  65.935  1.00  0.00    -0.163 C  
BRANCH  31  32
HETATM   32  N   UNL     1      -8.941   7.112  66.213  1.00  0.00    -0.157 NA 
HETATM   33  C   UNL     1      -8.057   6.466  67.204  1.00  0.00    -0.113 C  
HETATM   34  C   UNL     1      -8.309   6.924  68.653  1.00  0.00    -0.121 C  
HETATM   35  N   UNL     1      -9.677   6.539  69.040  1.00  0.00    -0.135 NA 
HETATM   36  C   UNL     1     -10.704   7.123  68.155  1.00  0.00    -0.160 C  
HETATM   37  C   UNL     1     -10.350   6.951  66.644  1.00  0.00    -0.144 C  
BRANCH  35  38
HETATM   38  C   UNL     1      -9.922   5.811  70.201  1.00  0.00    -0.198 A  
HETATM   39  C   UNL     1      -9.691   4.421  70.398  1.00  0.00    -0.214 A  
HETATM   40 CL   UNL     1      -9.193   3.376  69.093  1.00  0.00    -0.211 Cl 
HETATM   41  C   UNL     1      -9.953   3.813  71.650  1.00  0.00    -0.141 A  
HETATM   42  C   UNL     1     -10.493   4.543  72.709  1.00  0.00    -0.261 A  
HETATM   43 CL   UNL     1      -9.631   2.136  71.972  1.00  0.00    -0.178 Cl 
HETATM   44  C   UNL     1     -10.747   5.891  72.543  1.00  0.00    -0.274 A  
HETATM   45  C   UNL     1     -10.440   6.505  71.325  1.00  0.00    -0.250 A  
ENDBRANCH  35  38
ENDBRANCH  31  32
ENDBRANCH  30  31
ENDBRANCH  29  30
ENDBRANCH  28  29
ENDBRANCH  27  28
ENDBRANCH  24  27
ENDBRANCH  15  16
ENDBRANCH  14  15
ENDBRANCH  12  14
ENDBRANCH  11  12
ENDBRANCH  10  11
ENDBRANCH   9  10
ENDBRANCH   8   9
ENDBRANCH   7   8
ENDBRANCH   6   7
ENDBRANCH   5   6
ENDBRANCH   4   5
ENDBRANCH   3   4
ENDBRANCH   2   3
TORSDOF 20
ENDMDL
MODEL       25
REMARK 921   NORMALIZED FREE ENERGY PREDICTED BY IDOCK:   -5.18 KCAL/MOL
REMARK 922        TOTAL FREE ENERGY PREDICTED BY IDOCK:  -15.07 KCAL/MOL
REMARK 923 INTER-LIGAND FREE ENERGY PREDICTED BY IDOCK:  -10.42 KCAL/MOL
REMARK 924 INTRA-LIGAND FREE ENERGY PREDICTED BY IDOCK:   -4.65 KCAL/MOL
REMARK 927      BINDING AFFINITY PREDICTED BY RF-SCORE:    0.00 PKD
ROOT
HETATM    1  C   UNL     1     -10.366   4.722  65.960  1.00  0.00    -0.328 C  
HETATM    2  C   UNL     1      -8.853   4.645  65.836  1.00  0.00    -0.124 C  
ENDROOT
BRANCH   2   3
HETATM    3  C   UNL     1      -8.300   5.819  65.030  1.00  0.00    -0.138 C  
BRANCH   3   4
HETATM    4  C   UNL     1      -6.775   5.875  65.102  1.00  0.00    -0.044 C  
BRANCH   4   5
HETATM    5  C   UNL     1      -6.234   4.839  66.087  1.00  0.00    -0.035 C  
BRANCH   5   6
HETATM    6  C   UNL     1      -5.133   5.433  66.965  1.00  0.00    -0.005 C  
BRANCH   6   7
HETATM    7  C   UNL     1      -5.296   5.005  68.424  1.00  0.00    -0.010 C  
BRANCH   7   8
HETATM    8  C   UNL     1      -6.746   5.163  68.881  1.00  0.00    -0.050 C  
BRANCH   8   9
HETATM    9  C   UNL     1      -7.004   6.561  69.442  1.00  0.00    -0.071 C  
BRANCH   9  10
HETATM   10  C   UNL     1      -7.854   7.388  68.473  1.00  0.00    -0.122 C  
BRANCH  10  11
HETATM   11  C   UNL     1      -7.194   8.711  68.094  1.00  0.00    -0.087 C  
BRANCH  11  12
HETATM   12  C   UNL     1      -7.828   9.905  68.770  1.00  0.00    -0.091 C  
HETATM   13  O   UNL     1      -7.494  10.367  69.851  1.00  0.00    -0.158 OA 
BRANCH  12  14
HETATM   14  O   UNL     1      -8.813  10.396  67.970  1.00  0.00    -0.128 OA 
BRANCH  14  15
HETATM   15  C   UNL     1      -8.394  11.287  66.926  1.00  0.00    -0.155 C  
BRANCH  15  16
HETATM   16  N   UNL     1      -9.389  11.437  65.876  1.00  0.00    -0.225 N  
HETATM   17  C   UNL     1      -9.220  10.588  64.784  1.00  0.00    -0.227 C  
HETATM   18  C   UNL     1      -9.843  11.050  63.495  1.00  0.00    -0.403 C  
HETATM   19  O   UNL     1      -8.515   9.583  64.811  1.00  0.00    -0.138 OA 
HETATM   20  C   UNL     1     -11.258  11.536  63.678  1.00  0.00    -0.451 C  
HETATM   21  C   UNL     1     -11.414  12.403  64.894  1.00  0.00    -0.378 A  
HETATM   22  C   UNL     1     -12.523  13.260  64.963  1.00  0.00    -0.498 A  
HETATM   23  C   UNL     1     -12.778  14.009  66.111  1.00  0.00    -0.309 A  
HETATM   24  C   UNL     1     -11.940  13.881  67.212  1.00  0.00    -0.411 A  
HETATM   25  C   UNL     1     -10.826  13.035  67.138  1.00  0.00    -0.278 A  
HETATM   26  C   UNL     1     -10.526  12.302  65.978  1.00  0.00    -0.254 A  
BRANCH  24  27
HETATM   27  O   UNL     1     -12.085  14.557  68.395  1.00  0.00    -0.302 OA 
BRANCH  27  28
HETATM   28  C   UNL     1     -11.402  14.010  69.526  1.00  0.00    -0.245 C  
BRANCH  28  29
HETATM   29  C   UNL     1     -12.142  14.424  70.799  1.00  0.00    -0.408 C  
BRANCH  29  30
HETATM   30  C   UNL     1     -13.237  13.417  71.182  1.00  0.00    -0.176 C  
BRANCH  30  31
HETATM   31  C   UNL     1     -12.680  12.068  71.680  1.00  0.00    -0.221 C  
BRANCH  31  32
HETATM   32  N   UNL     1     -12.898  10.962  70.740  1.00  0.00    -0.318 NA 
HETATM   33  C   UNL     1     -11.658  10.480  70.097  1.00  0.00    -0.326 C  
HETATM   34  C   UNL     1     -10.760   9.644  71.030  1.00  0.00    -0.323 C  
HETATM   35  N   UNL     1     -11.492   8.430  71.428  1.00  0.00    -0.266 NA 
HETATM   36  C   UNL     1     -12.764   8.731  72.114  1.00  0.00    -0.400 C  
HETATM   37  C   UNL     1     -13.600   9.813  71.359  1.00  0.00    -0.249 C  
BRANCH  35  38
HETATM   38  C   UNL     1     -10.934   7.165  71.270  1.00  0.00    -0.240 A  
HETATM   39  C   UNL     1     -10.295   6.386  72.275  1.00  0.00    -0.192 A  
HETATM   40 CL   UNL     1      -9.981   7.019  73.870  1.00  0.00    -0.347 Cl 
HETATM   41  C   UNL     1      -9.800   5.090  71.984  1.00  0.00    -0.174 A  
HETATM   42  C   UNL     1      -9.876   4.561  70.694  1.00  0.00    -0.292 A  
HETATM   43 CL   UNL     1      -9.070   4.067  73.182  1.00  0.00    -0.114 Cl 
HETATM   44  C   UNL     1     -10.473   5.302  69.692  1.00  0.00    -0.320 A  
HETATM   45  C   UNL     1     -11.009   6.559  69.989  1.00  0.00    -0.388 A  
ENDBRANCH  35  38
ENDBRANCH  31  32
ENDBRANCH  30  31
ENDBRANCH  29  30
ENDBRANCH  28  29
ENDBRANCH  27  28
ENDBRANCH  24  27
ENDBRANCH  15  16
ENDBRANCH  14  15
ENDBRANCH  12  14
ENDBRANCH  11  12
ENDBRANCH  10  11
ENDBRANCH   9  10
ENDBRANCH   8   9
ENDBRANCH   7   8
ENDBRANCH   6   7
ENDBRANCH   5   6
ENDBRANCH   4   5
ENDBRANCH   3   4
ENDBRANCH   2   3
TORSDOF 20
ENDMDL
MODEL       26
REMARK 921   NORMALIZED FREE ENERGY PREDICTED BY IDOCK:   -5.17 KCAL/MOL
REMARK 922        TOTAL FREE ENERGY PREDICTED BY IDOCK:  -15.06 KCAL/MOL
REMARK 923 INTER-LIGAND FREE ENERGY PREDICTED BY IDOCK:  -10.45 KCAL/MOL
REMARK 924 INTRA-LIGAND FREE ENERGY PREDICTED BY IDOCK:   -4.62 KCAL/MOL
REMARK 927      BINDING AFFINITY PREDICTED BY RF-SCORE:    0.00 PKD
ROOT
HETATM    1  C   UNL     1      -6.393   6.221  70.929  1.00  0.00    -0.040 C  
HETATM    2  C   UNL     1      -7.696   5.814  71.597  1.00  0.00    -0.101 C  
ENDROOT
BRANCH   2   3
HETATM    3  C   UNL     1      -7.469   5.397  73.050  1.00  0.00    -0.093 C  
BRANCH   3   4
HETATM    4  C   UNL     1      -8.563   4.445  73.532  1.00  0.00    -0.096 C  
BRANCH   4   5
HETATM    5  C   UNL     1      -9.693   4.341  72.507  1.00  0.00    -0.200 C  
BRANCH   5   6
HETATM    6  C   UNL     1      -9.998   2.883  72.167  1.00  0.00    -0.235 C  
BRANCH   6   7
HETATM    7  C   UNL     1      -8.723   2.039  72.154  1.00  0.00    -0.091 C  
BRANCH   7   8
HETATM    8  C   UNL     1      -8.125   1.974  70.749  1.00  0.00    -0.059 C  
BRANCH   8   9
HETATM    9  C   UNL     1      -9.165   2.323  69.684  1.00  0.00    -0.181 C  
BRANCH   9  10
HETATM   10  C   UNL     1      -8.747   3.573  68.905  1.00  0.00    -0.138 C  
BRANCH  10  11
HETATM   11  C   UNL     1      -9.309   3.597  67.486  1.00  0.00    -0.244 C  
BRANCH  11  12
HETATM   12  C   UNL     1     -10.293   4.720  67.256  1.00  0.00    -0.049 C  
HETATM   13  O   UNL     1     -10.709   5.085  66.167  1.00  0.00    -0.315 OA 
BRANCH  12  14
HETATM   14  O   UNL     1     -10.657   5.243  68.458  1.00  0.00    -0.131 OA 
BRANCH  14  15
HETATM   15  C   UNL     1     -11.146   6.591  68.439  1.00  0.00    -0.254 C  
BRANCH  15  16
HETATM   16  N   UNL     1     -10.588   7.412  69.503  1.00  0.00    -0.235 N  
HETATM   17  C   UNL     1     -11.287   7.361  70.708  1.00  0.00    -0.280 C  
HETATM   18  C   UNL     1     -11.103   8.543  71.620  1.00  0.00    -0.360 C  
HETATM   19  O   UNL     1     -12.098   6.481  70.984  1.00  0.00    -0.352 OA 
HETATM   20  C   UNL     1      -9.656   8.939  71.768  1.00  0.00    -0.353 C  
HETATM   21  C   UNL     1      -8.922   8.930  70.459  1.00  0.00    -0.224 A  
HETATM   22  C   UNL     1      -7.731   9.667  70.357  1.00  0.00    -0.178 A  
HETATM   23  C   UNL     1      -6.952   9.612  69.203  1.00  0.00    -0.050 A  
HETATM   24  C   UNL     1      -7.343   8.792  68.151  1.00  0.00    -0.087 A  
HETATM   25  C   UNL     1      -8.538   8.066  68.247  1.00  0.00    -0.130 A  
HETATM   26  C   UNL     1      -9.360   8.138  69.384  1.00  0.00    -0.155 A  
BRANCH  24  27
HETATM   27  O   UNL     1      -6.664   8.648  66.970  1.00  0.00    -0.061 OA 
BRANCH  27  28
HETATM   28  C   UNL     1      -7.457   8.640  65.780  1.00  0.00    -0.085 C  
BRANCH  28  29
HETATM   29  C   UNL     1      -7.543  10.066  65.233  1.00  0.00    -0.137 C  
BRANCH  29  30
HETATM   30  C   UNL     1      -8.968  10.425  64.783  1.00  0.00    -0.228 C  
BRANCH  30  31
HETATM   31  C   UNL     1      -9.565  11.624  65.547  1.00  0.00    -0.218 C  
BRANCH  31  32
HETATM   32  N   UNL     1     -10.901  11.359  66.098  1.00  0.00    -0.273 NA 
HETATM   33  C   UNL     1     -10.874  10.680  67.410  1.00  0.00    -0.296 C  
HETATM   34  C   UNL     1     -10.464  11.599  68.576  1.00  0.00    -0.217 C  
HETATM   35  N   UNL     1     -11.466  12.670  68.710  1.00  0.00    -0.282 NA 
HETATM   36  C   UNL     1     -11.608  13.473  67.480  1.00  0.00    -0.350 C  
HETATM   37  C   UNL     1     -11.730  12.583  66.204  1.00  0.00    -0.409 C  
BRANCH  35  38
HETATM   38  C   UNL     1     -12.083  12.934  69.930  1.00  0.00    -0.265 A  
HETATM   39  C   UNL     1     -12.249  14.207  70.541  1.00  0.00    -0.361 A  
HETATM   40 CL   UNL     1     -11.523  15.649  69.877  1.00  0.00    -0.310 Cl 
HETATM   41  C   UNL     1     -12.933  14.337  71.775  1.00  0.00    -0.354 A  
HETATM   42  C   UNL     1     -13.418  13.218  72.453  1.00  0.00    -0.670 A  
HETATM   43 CL   UNL     1     -13.222  15.870  72.538  1.00  0.00    -0.542 Cl 
HETATM   44  C   UNL     1     -13.256  11.965  71.893  1.00  0.00    -0.467 A  
HETATM   45  C   UNL     1     -12.627  11.840  70.651  1.00  0.00    -0.289 A  
ENDBRANCH  35  38
ENDBRANCH  31  32
ENDBRANCH  30  31
ENDBRANCH  29  30
ENDBRANCH  28  29
ENDBRANCH  27  28
ENDBRANCH  24  27
ENDBRANCH  15  16
ENDBRANCH  14  15
ENDBRANCH  12  14
ENDBRANCH  11  12
ENDBRANCH  10  11
ENDBRANCH   9  10
ENDBRANCH   8   9
ENDBRANCH   7   8
ENDBRANCH   6   7
ENDBRANCH   5   6
ENDBRANCH   4   5
ENDBRANCH   3   4
ENDBRANCH   2   3
TORSDOF 20
ENDMDL
MODEL       27
REMARK 921   NORMALIZED FREE ENERGY PREDICTED BY IDOCK:   -5.14 KCAL/MOL
REMARK 922        TOTAL FREE ENERGY PREDICTED BY IDOCK:  -14.99 KCAL/MOL
REMARK 923 INTER-LIGAND FREE ENERGY PREDICTED BY IDOCK:  -11.43 KCAL/MOL
REMARK 924 INTRA-LIGAND FREE ENERGY PREDICTED BY IDOCK:   -3.56 KCAL/MOL
REMARK 927      BINDING AFFINITY PREDICTED BY RF-SCORE:    0.00 PKD
ROOT
HETATM    1  C   UNL     1     -10.237   4.909  66.297  1.00  0.00    -0.312 C  
HETATM    2  C   UNL     1      -8.906   4.944  67.031  1.00  0.00    -0.106 C  
ENDROOT
BRANCH   2   3
HETATM    3  C   UNL     1      -7.796   5.505  66.144  1.00  0.00    -0.100 C  
BRANCH   3   4
HETATM    4  C   UNL     1      -8.370   6.284  64.961  1.00  0.00    -0.099 C  
BRANCH   4   5
HETATM    5  C   UNL     1      -8.311   7.791  65.214  1.00  0.00    -0.128 C  
BRANCH   5   6
HETATM    6  C   UNL     1      -7.543   8.508  64.105  1.00  0.00    -0.123 C  
BRANCH   6   7
HETATM    7  C   UNL     1      -8.274   9.772  63.653  1.00  0.00    -0.158 C  
BRANCH   7   8
HETATM    8  C   UNL     1      -9.547   9.989  64.470  1.00  0.00    -0.346 C  
BRANCH   8   9
HETATM    9  C   UNL     1     -10.038  11.433  64.364  1.00  0.00    -0.341 C  
BRANCH   9  10
HETATM   10  C   UNL     1     -11.306  11.514  63.509  1.00  0.00    -0.375 C  
BRANCH  10  11
HETATM   11  C   UNL     1     -11.855  12.935  63.407  1.00  0.00    -0.576 C  
BRANCH  11  12
HETATM   12  C   UNL     1     -12.343  13.479  64.729  1.00  0.00    -0.392 C  
HETATM   13  O   UNL     1     -13.247  13.004  65.400  1.00  0.00    -0.538 OA 
BRANCH  12  14
HETATM   14  O   UNL     1     -11.599  14.568  65.063  1.00  0.00    -0.352 OA 
BRANCH  14  15
HETATM   15  C   UNL     1     -10.594  14.363  66.066  1.00  0.00    -0.302 C  
BRANCH  15  16
HETATM   16  N   UNL     1     -10.579  15.411  67.075  1.00  0.00    -0.303 N  
HETATM   17  C   UNL     1     -10.055  16.629  66.645  1.00  0.00    -0.301 C  
HETATM   18  C   UNL     1      -9.524  17.529  67.726  1.00  0.00    -0.269 C  
HETATM   19  O   UNL     1      -9.914  16.926  65.462  1.00  0.00    -0.572 OA 
HETATM   20  C   UNL     1     -10.468  17.649  68.896  1.00  0.00    -0.256 C  
HETATM   21  C   UNL     1     -11.055  16.326  69.295  1.00  0.00    -0.325 A  
HETATM   22  C   UNL     1     -11.590  16.197  70.587  1.00  0.00    -0.347 A  
HETATM   23  C   UNL     1     -12.242  15.030  70.979  1.00  0.00    -0.386 A  
HETATM   24  C   UNL     1     -12.392  13.991  70.068  1.00  0.00    -0.337 A  
HETATM   25  C   UNL     1     -11.848  14.114  68.783  1.00  0.00    -0.384 A  
HETATM   26  C   UNL     1     -11.150  15.265  68.379  1.00  0.00    -0.287 A  
BRANCH  24  27
HETATM   27  O   UNL     1     -13.014  12.799  70.328  1.00  0.00     0.210 OA 
BRANCH  27  28
HETATM   28  C   UNL     1     -12.161  11.682  70.592  1.00  0.00    -0.366 C  
BRANCH  28  29
HETATM   29  C   UNL     1     -13.026  10.440  70.818  1.00  0.00    -0.422 C  
BRANCH  29  30
HETATM   30  C   UNL     1     -12.501   9.576  71.974  1.00  0.00    -0.427 C  
BRANCH  30  31
HETATM   31  C   UNL     1     -12.531   8.064  71.669  1.00  0.00    -0.320 C  
BRANCH  31  32
HETATM   32  N   UNL     1     -11.202   7.441  71.668  1.00  0.00    -0.243 NA 
HETATM   33  C   UNL     1     -10.794   6.921  70.347  1.00  0.00    -0.261 C  
HETATM   34  C   UNL     1     -10.392   8.020  69.344  1.00  0.00    -0.217 C  
HETATM   35  N   UNL     1      -9.211   8.728  69.867  1.00  0.00    -0.153 NA 
HETATM   36  C   UNL     1      -9.452   9.336  71.190  1.00  0.00    -0.217 C  
HETATM   37  C   UNL     1     -10.144   8.346  72.179  1.00  0.00    -0.306 C  
BRANCH  35  38
HETATM   38  C   UNL     1      -8.064   8.888  69.095  1.00  0.00    -0.117 A  
HETATM   39  C   UNL     1      -7.741  10.003  68.273  1.00  0.00    -0.084 A  
HETATM   40 CL   UNL     1      -8.873  11.303  67.997  1.00  0.00    -0.143 Cl 
HETATM   41  C   UNL     1      -6.515  10.052  67.565  1.00  0.00    -0.067 A  
HETATM   42  C   UNL     1      -5.612   8.989  67.609  1.00  0.00    -0.035 A  
HETATM   43 CL   UNL     1      -6.036  11.414  66.598  1.00  0.00    -0.143 Cl 
HETATM   44  C   UNL     1      -5.906   7.883  68.384  1.00  0.00    -0.036 A  
HETATM   45  C   UNL     1      -7.092   7.855  69.124  1.00  0.00    -0.069 A  
ENDBRANCH  35  38
ENDBRANCH  31  32
ENDBRANCH  30  31
ENDBRANCH  29  30
ENDBRANCH  28  29
ENDBRANCH  27  28
ENDBRANCH  24  27
ENDBRANCH  15  16
ENDBRANCH  14  15
ENDBRANCH  12  14
ENDBRANCH  11  12
ENDBRANCH  10  11
ENDBRANCH   9  10
ENDBRANCH   8   9
ENDBRANCH   7   8
ENDBRANCH   6   7
ENDBRANCH   5   6
ENDBRANCH   4   5
ENDBRANCH   3   4
ENDBRANCH   2   3
TORSDOF 20
ENDMDL
MODEL       28
REMARK 921   NORMALIZED FREE ENERGY PREDICTED BY IDOCK:   -5.14 KCAL/MOL
REMARK 922        TOTAL FREE ENERGY PREDICTED BY IDOCK:  -14.99 KCAL/MOL
REMARK 923 INTER-LIGAND FREE ENERGY PREDICTED BY IDOCK:  -11.52 KCAL/MOL
REMARK 924 INTRA-LIGAND FREE ENERGY PREDICTED BY IDOCK:   -3.47 KCAL/MOL
REMARK 927      BINDING AFFINITY PREDICTED BY RF-SCORE:    0.00 PKD
ROOT
HETATM    1  C   UNL     1     -11.686  14.218  64.447  1.00  0.00    -0.405 C  
HETATM    2  C   UNL     1     -12.201  13.292  63.357  1.00  0.00    -0.476 C  
ENDROOT
BRANCH   2   3
HETATM    3  C   UNL     1     -11.750  11.851  63.592  1.00  0.00    -0.572 C  
BRANCH   3   4
HETATM    4  C   UNL     1     -10.235  11.765  63.772  1.00  0.00    -0.434 C  
BRANCH   4   5
HETATM    5  C   UNL     1      -9.821  10.395  64.309  1.00  0.00    -0.388 C  
BRANCH   5   6
HETATM    6  C   UNL     1      -9.172  10.514  65.687  1.00  0.00    -0.221 C  
BRANCH   6   7
HETATM    7  C   UNL     1      -9.441  11.884  66.309  1.00  0.00    -0.238 C  
BRANCH   7   8
HETATM    8  C   UNL     1      -9.979  11.743  67.732  1.00  0.00    -0.198 C  
BRANCH   8   9
HETATM    9  C   UNL     1     -11.498  11.917  67.773  1.00  0.00    -0.389 C  
BRANCH   9  10
HETATM   10  C   UNL     1     -11.887  13.085  68.683  1.00  0.00    -0.353 C  
BRANCH  10  11
HETATM   11  C   UNL     1     -11.887  14.425  67.952  1.00  0.00    -0.384 C  
BRANCH  11  12
HETATM   12  C   UNL     1     -11.587  15.595  68.860  1.00  0.00    -0.383 C  
HETATM   13  O   UNL     1     -11.807  15.634  70.061  1.00  0.00    -0.328 OA 
BRANCH  12  14
HETATM   14  O   UNL     1     -11.011  16.587  68.128  1.00  0.00    -0.346 OA 
BRANCH  14  15
HETATM   15  C   UNL     1     -10.194  17.515  68.855  1.00  0.00    -0.353 C  
BRANCH  15  16
HETATM   16  N   UNL     1      -9.234  18.209  68.010  1.00  0.00    -0.273 N  
HETATM   17  C   UNL     1      -9.675  19.431  67.505  1.00  0.00    -0.335 C  
HETATM   18  C   UNL     1      -8.994  19.904  66.251  1.00  0.00    -0.419 C  
HETATM   19  O   UNL     1     -10.634  20.046  67.963  1.00  0.00    -0.357 OA 
HETATM   20  C   UNL     1      -7.493  19.780  66.326  1.00  0.00    -0.308 C  
HETATM   21  C   UNL     1      -7.055  18.475  66.925  1.00  0.00    -0.220 A  
HETATM   22  C   UNL     1      -5.747  18.032  66.674  1.00  0.00    -0.190 A  
HETATM   23  C   UNL     1      -5.249  16.883  67.287  1.00  0.00    -0.168 A  
HETATM   24  C   UNL     1      -6.050  16.185  68.183  1.00  0.00    -0.115 A  
HETATM   25  C   UNL     1      -7.360  16.619  68.424  1.00  0.00    -0.190 A  
HETATM   26  C   UNL     1      -7.896  17.750  67.786  1.00  0.00    -0.216 A  
BRANCH  24  27
HETATM   27  O   UNL     1      -5.678  15.049  68.851  1.00  0.00    -0.089 OA 
BRANCH  27  28
HETATM   28  C   UNL     1      -5.570  13.858  68.067  1.00  0.00    -0.125 C  
BRANCH  28  29
HETATM   29  C   UNL     1      -6.559  12.821  68.602  1.00  0.00    -0.084 C  
BRANCH  29  30
HETATM   30  C   UNL     1      -5.878  11.476  68.901  1.00  0.00    -0.047 C  
BRANCH  30  31
HETATM   31  C   UNL     1      -6.534  10.285  68.175  1.00  0.00    -0.057 C  
BRANCH  31  32
HETATM   32  N   UNL     1      -6.560   9.054  68.976  1.00  0.00    -0.047 NA 
HETATM   33  C   UNL     1      -7.065   9.254  70.350  1.00  0.00    -0.091 C  
HETATM   34  C   UNL     1      -8.591   9.457  70.427  1.00  0.00    -0.230 C  
HETATM   35  N   UNL     1      -9.255   8.236  69.940  1.00  0.00    -0.154 NA 
HETATM   36  C   UNL     1      -8.875   7.896  68.555  1.00  0.00    -0.134 C  
HETATM   37  C   UNL     1      -7.332   7.966  68.331  1.00  0.00    -0.101 C  
BRANCH  35  38
HETATM   38  C   UNL     1     -10.228   7.591  70.699  1.00  0.00    -0.202 A  
HETATM   39  C   UNL     1     -11.563   8.028  70.918  1.00  0.00    -0.269 A  
HETATM   40 CL   UNL     1     -12.127   9.583  70.362  1.00  0.00    -0.133 Cl 
HETATM   41  C   UNL     1     -12.465   7.250  71.687  1.00  0.00    -0.359 A  
HETATM   42  C   UNL     1     -12.056   6.062  72.295  1.00  0.00    -0.196 A  
HETATM   43 CL   UNL     1     -14.124   7.698  71.935  1.00  0.00    -0.449 Cl 
HETATM   44  C   UNL     1     -10.759   5.621  72.116  1.00  0.00    -0.287 A  
HETATM   45  C   UNL     1      -9.884   6.360  71.315  1.00  0.00    -0.200 A  
ENDBRANCH  35  38
ENDBRANCH  31  32
ENDBRANCH  30  31
ENDBRANCH  29  30
ENDBRANCH  28  29
ENDBRANCH  27  28
ENDBRANCH  24  27
ENDBRANCH  15  16
ENDBRANCH  14  15
ENDBRANCH  12  14
ENDBRANCH  11  12
ENDBRANCH  10  11
ENDBRANCH   9  10
ENDBRANCH   8   9
ENDBRANCH   7   8
ENDBRANCH   6   7
ENDBRANCH   5   6
ENDBRANCH   4   5
ENDBRANCH   3   4
ENDBRANCH   2   3
TORSDOF 20
ENDMDL
MODEL       29
REMARK 921   NORMALIZED FREE ENERGY PREDICTED BY IDOCK:   -5.12 KCAL/MOL
REMARK 922        TOTAL FREE ENERGY PREDICTED BY IDOCK:  -14.96 KCAL/MOL
REMARK 923 INTER-LIGAND FREE ENERGY PREDICTED BY IDOCK:  -11.23 KCAL/MOL
REMARK 924 INTRA-LIGAND FREE ENERGY PREDICTED BY IDOCK:   -3.72 KCAL/MOL
REMARK 927      BINDING AFFINITY PREDICTED BY RF-SCORE:    0.00 PKD
ROOT
HETATM    1  C   UNL     1     -10.437   8.986  71.605  1.00  0.00    -0.426 C  
HETATM    2  C   UNL     1     -11.025   8.019  72.619  1.00  0.00    -0.448 C  
ENDROOT
BRANCH   2   3
HETATM    3  C   UNL     1      -9.947   7.464  73.549  1.00  0.00    -0.377 C  
BRANCH   3   4
HETATM    4  C   UNL     1      -9.426   6.115  73.054  1.00  0.00    -0.142 C  
BRANCH   4   5
HETATM    5  C   UNL     1     -10.578   5.147  72.786  1.00  0.00    -0.278 C  
BRANCH   5   6
HETATM    6  C   UNL     1     -10.364   4.382  71.480  1.00  0.00    -0.096 C  
BRANCH   6   7
HETATM    7  C   UNL     1      -9.338   5.084  70.589  1.00  0.00    -0.216 C  
BRANCH   7   8
HETATM    8  C   UNL     1      -9.843   5.187  69.151  1.00  0.00    -0.257 C  
BRANCH   8   9
HETATM    9  C   UNL     1     -10.562   6.515  68.906  1.00  0.00    -0.280 C  
BRANCH   9  10
HETATM   10  C   UNL     1     -10.946   6.661  67.431  1.00  0.00    -0.434 C  
BRANCH  10  11
HETATM   11  C   UNL     1      -9.906   7.439  66.628  1.00  0.00    -0.263 C  
BRANCH  11  12
HETATM   12  C   UNL     1      -9.934   8.924  66.903  1.00  0.00    -0.247 C  
HETATM   13  O   UNL     1     -10.822   9.518  67.497  1.00  0.00    -0.280 OA 
BRANCH  12  14
HETATM   14  O   UNL     1      -8.801   9.489  66.404  1.00  0.00    -0.138 OA 
BRANCH  14  15
HETATM   15  C   UNL     1      -7.575   8.798  66.679  1.00  0.00    -0.089 C  
BRANCH  15  16
HETATM   16  N   UNL     1      -7.110   8.991  68.044  1.00  0.00    -0.078 N  
HETATM   17  C   UNL     1      -7.005   7.822  68.796  1.00  0.00    -0.067 C  
HETATM   18  C   UNL     1      -7.065   7.999  70.288  1.00  0.00    -0.048 C  
HETATM   19  O   UNL     1      -6.984   6.698  68.302  1.00  0.00    -0.071 OA 
HETATM   20  C   UNL     1      -6.182   9.120  70.775  1.00  0.00    -0.053 C  
HETATM   21  C   UNL     1      -6.279  10.342  69.908  1.00  0.00    -0.081 A  
HETATM   22  C   UNL     1      -5.874  11.574  70.447  1.00  0.00    -0.155 A  
HETATM   23  C   UNL     1      -5.842  12.724  69.659  1.00  0.00    -0.113 A  
HETATM   24  C   UNL     1      -6.184  12.642  68.315  1.00  0.00    -0.071 A  
HETATM   25  C   UNL     1      -6.601  11.415  67.780  1.00  0.00    -0.069 A  
HETATM   26  C   UNL     1      -6.681  10.253  68.565  1.00  0.00    -0.057 A  
BRANCH  24  27
HETATM   27  O   UNL     1      -6.189  13.694  67.438  1.00  0.00    -0.323 OA 
BRANCH  27  28
HETATM   28  C   UNL     1      -7.293  14.598  67.537  1.00  0.00    -0.197 C  
BRANCH  28  29
HETATM   29  C   UNL     1      -6.877  15.952  66.958  1.00  0.00    -0.130 C  
BRANCH  29  30
HETATM   30  C   UNL     1      -8.066  16.701  66.337  1.00  0.00    -0.359 C  
BRANCH  30  31
HETATM   31  C   UNL     1      -9.262  15.785  66.011  1.00  0.00    -0.344 C  
BRANCH  31  32
HETATM   32  N   UNL     1     -10.524  16.235  66.611  1.00  0.00    -0.302 NA 
HETATM   33  C   UNL     1     -11.541  15.169  66.716  1.00  0.00    -0.134 C  
HETATM   34  C   UNL     1     -11.257  14.148  67.835  1.00  0.00    -0.279 C  
HETATM   35  N   UNL     1     -11.286  14.846  69.131  1.00  0.00    -0.264 NA 
HETATM   36  C   UNL     1     -10.302  15.944  69.208  1.00  0.00    -0.249 C  
HETATM   37  C   UNL     1     -10.337  16.858  67.942  1.00  0.00    -0.332 C  
BRANCH  35  38
HETATM   38  C   UNL     1     -12.080  14.391  70.180  1.00  0.00    -0.335 A  
HETATM   39  C   UNL     1     -12.248  13.040  70.595  1.00  0.00    -0.307 A  
HETATM   40 CL   UNL     1     -11.566  11.709  69.696  1.00  0.00    -0.380 Cl 
HETATM   41  C   UNL     1     -13.063  12.719  71.708  1.00  0.00    -0.356 A  
HETATM   42  C   UNL     1     -13.766  13.708  72.397  1.00  0.00    -0.697 A  
HETATM   43 CL   UNL     1     -13.255  11.098  72.302  1.00  0.00    -0.352 Cl 
HETATM   44  C   UNL     1     -13.639  15.027  72.006  1.00  0.00    -0.522 A  
HETATM   45  C   UNL     1     -12.794  15.352  70.940  1.00  0.00    -0.536 A  
ENDBRANCH  35  38
ENDBRANCH  31  32
ENDBRANCH  30  31
ENDBRANCH  29  30
ENDBRANCH  28  29
ENDBRANCH  27  28
ENDBRANCH  24  27
ENDBRANCH  15  16
ENDBRANCH  14  15
ENDBRANCH  12  14
ENDBRANCH  11  12
ENDBRANCH  10  11
ENDBRANCH   9  10
ENDBRANCH   8   9
ENDBRANCH   7   8
ENDBRANCH   6   7
ENDBRANCH   5   6
ENDBRANCH   4   5
ENDBRANCH   3   4
ENDBRANCH   2   3
TORSDOF 20
ENDMDL
MODEL       30
REMARK 921   NORMALIZED FREE ENERGY PREDICTED BY IDOCK:   -5.11 KCAL/MOL
REMARK 922        TOTAL FREE ENERGY PREDICTED BY IDOCK:  -14.94 KCAL/MOL
REMARK 923 INTER-LIGAND FREE ENERGY PREDICTED BY IDOCK:  -10.06 KCAL/MOL
REMARK 924 INTRA-LIGAND FREE ENERGY PREDICTED BY IDOCK:   -4.88 KCAL/MOL
REMARK 927      BINDING AFFINITY PREDICTED BY RF-SCORE:    0.00 PKD
ROOT
HETATM    1  C   UNL     1      -5.919   5.514  70.121  1.00  0.00    -0.021 C  
HETATM    2  C   UNL     1      -6.955   6.619  70.247  1.00  0.00    -0.066 C  
ENDROOT
BRANCH   2   3
HETATM    3  C   UNL     1      -7.041   7.141  71.681  1.00  0.00    -0.069 C  
BRANCH   3   4
HETATM    4  C   UNL     1      -7.722   6.128  72.601  1.00  0.00    -0.102 C  
BRANCH   4   5
HETATM    5  C   UNL     1      -9.240   6.156  72.422  1.00  0.00    -0.139 C  
BRANCH   5   6
HETATM    6  C   UNL     1      -9.784   4.765  72.100  1.00  0.00    -0.218 C  
BRANCH   6   7
HETATM    7  C   UNL     1      -8.672   3.717  72.121  1.00  0.00    -0.113 C  
BRANCH   7   8
HETATM    8  C   UNL     1      -8.580   2.991  70.779  1.00  0.00    -0.116 C  
BRANCH   8   9
HETATM    9  C   UNL     1      -9.497   3.630  69.735  1.00  0.00    -0.254 C  
BRANCH   9  10
HETATM   10  C   UNL     1      -8.732   3.911  68.439  1.00  0.00    -0.129 C  
BRANCH  10  11
HETATM   11  C   UNL     1      -9.519   3.509  67.194  1.00  0.00    -0.219 C  
BRANCH  11  12
HETATM   12  C   UNL     1     -10.096   4.691  66.450  1.00  0.00    -0.261 C  
HETATM   13  O   UNL     1     -10.889   4.625  65.522  1.00  0.00    -0.278 OA 
BRANCH  12  14
HETATM   14  O   UNL     1      -9.611   5.838  66.996  1.00  0.00    -0.125 OA 
BRANCH  14  15
HETATM   15  C   UNL     1     -10.552   6.909  67.158  1.00  0.00    -0.338 C  
BRANCH  15  16
HETATM   16  N   UNL     1     -10.217   7.797  68.261  1.00  0.00    -0.196 N  
HETATM   17  C   UNL     1     -10.944   7.577  69.430  1.00  0.00    -0.083 C  
HETATM   18  C   UNL     1     -11.040   8.747  70.369  1.00  0.00    -0.261 C  
HETATM   19  O   UNL     1     -11.574   6.546  69.652  1.00  0.00    -0.376 OA 
HETATM   20  C   UNL     1      -9.710   9.421  70.593  1.00  0.00    -0.336 C  
HETATM   21  C   UNL     1      -8.932   9.591  69.320  1.00  0.00    -0.160 A  
HETATM   22  C   UNL     1      -7.910  10.552  69.288  1.00  0.00    -0.144 A  
HETATM   23  C   UNL     1      -7.085  10.684  68.172  1.00  0.00    -0.081 A  
HETATM   24  C   UNL     1      -7.258   9.829  67.090  1.00  0.00    -0.087 A  
HETATM   25  C   UNL     1      -8.286   8.878  67.116  1.00  0.00    -0.103 A  
HETATM   26  C   UNL     1      -9.155   8.755  68.213  1.00  0.00    -0.141 A  
BRANCH  24  27
HETATM   27  O   UNL     1      -6.513   9.853  65.940  1.00  0.00    -0.077 OA 
BRANCH  27  28
HETATM   28  C   UNL     1      -7.018   9.093  64.840  1.00  0.00    -0.088 C  
BRANCH  28  29
HETATM   29  C   UNL     1      -7.497  10.055  63.751  1.00  0.00    -0.141 C  
BRANCH  29  30
HETATM   30  C   UNL     1      -8.979   9.844  63.407  1.00  0.00    -0.278 C  
BRANCH  30  31
HETATM   31  C   UNL     1      -9.728  11.158  63.105  1.00  0.00    -0.376 C  
BRANCH  31  32
HETATM   32  N   UNL     1     -10.911  11.364  63.950  1.00  0.00    -0.386 NA 
HETATM   33  C   UNL     1     -10.651  11.157  65.390  1.00  0.00    -0.227 C  
HETATM   34  C   UNL     1      -9.856  12.301  66.048  1.00  0.00    -0.248 C  
HETATM   35  N   UNL     1     -10.652  13.538  65.968  1.00  0.00    -0.281 NA 
HETATM   36  C   UNL     1     -10.987  13.910  64.579  1.00  0.00    -0.369 C  
HETATM   37  C   UNL     1     -11.529  12.697  63.757  1.00  0.00    -0.470 C  
BRANCH  35  38
HETATM   38  C   UNL     1     -10.914  14.303  67.100  1.00  0.00    -0.302 A  
HETATM   39  C   UNL     1     -10.414  15.604  67.382  1.00  0.00    -0.291 A  
HETATM   40 CL   UNL     1      -9.226  16.375  66.363  1.00  0.00    -0.307 Cl 
HETATM   41  C   UNL     1     -10.794  16.288  68.564  1.00  0.00    -0.330 A  
HETATM   42  C   UNL     1     -11.624  15.687  69.510  1.00  0.00    -0.366 A  
HETATM   43 CL   UNL     1     -10.268  17.902  68.932  1.00  0.00    -0.373 Cl 
HETATM   44  C   UNL     1     -12.111  14.415  69.274  1.00  0.00    -0.336 A  
HETATM   45  C   UNL     1     -11.780  13.760  68.085  1.00  0.00    -0.392 A  
ENDBRANCH  35  38
ENDBRANCH  31  32
ENDBRANCH  30  31
ENDBRANCH  29  30
ENDBRANCH  28  29
ENDBRANCH  27  28
ENDBRANCH  24  27
ENDBRANCH  15  16
ENDBRANCH  14  15
ENDBRANCH  12  14
ENDBRANCH  11  12
ENDBRANCH  10  11
ENDBRANCH   9  10
ENDBRANCH   8   9
ENDBRANCH   7   8
ENDBRANCH   6   7
ENDBRANCH   5   6
ENDBRANCH   4   5
ENDBRANCH   3   4
ENDBRANCH   2   3
TORSDOF 20
ENDMDL
MODEL       31
REMARK 921   NORMALIZED FREE ENERGY PREDICTED BY IDOCK:   -5.10 KCAL/MOL
REMARK 922        TOTAL FREE ENERGY PREDICTED BY IDOCK:  -14.92 KCAL/MOL
REMARK 923 INTER-LIGAND FREE ENERGY PREDICTED BY IDOCK:  -10.26 KCAL/MOL
REMARK 924 INTRA-LIGAND FREE ENERGY PREDICTED BY IDOCK:   -4.66 KCAL/MOL
REMARK 927      BINDING AFFINITY PREDICTED BY RF-SCORE:    0.00 PKD
ROOT
HETATM    1  C   UNL     1     -13.172  11.865  71.672  1.00  0.00    -0.364 C  
HETATM    2  C   UNL     1     -12.416  10.608  71.272  1.00  0.00    -0.515 C  
ENDROOT
BRANCH   2   3
HETATM    3  C   UNL     1     -13.317   9.375  71.328  1.00  0.00    -0.356 C  
BRANCH   3   4
HETATM    4  C   UNL     1     -12.674   8.254  72.144  1.00  0.00    -0.366 C  
BRANCH   4   5
HETATM    5  C   UNL     1     -11.195   8.542  72.404  1.00  0.00    -0.399 C  
BRANCH   5   6
HETATM    6  C   UNL     1     -10.538   7.400  73.179  1.00  0.00    -0.424 C  
BRANCH   6   7
HETATM    7  C   UNL     1      -9.164   7.058  72.602  1.00  0.00    -0.154 C  
BRANCH   7   8
HETATM    8  C   UNL     1      -9.170   5.668  71.966  1.00  0.00    -0.155 C  
BRANCH   8   9
HETATM    9  C   UNL     1      -9.230   5.754  70.441  1.00  0.00    -0.175 C  
BRANCH   9  10
HETATM   10  C   UNL     1     -10.665   5.560  69.942  1.00  0.00    -0.358 C  
BRANCH  10  11
HETATM   11  C   UNL     1     -11.075   6.608  68.910  1.00  0.00    -0.312 C  
BRANCH  11  12
HETATM   12  C   UNL     1     -10.812   6.173  67.487  1.00  0.00    -0.332 C  
HETATM   13  O   UNL     1     -10.777   5.017  67.095  1.00  0.00    -0.126 OA 
BRANCH  12  14
HETATM   14  O   UNL     1     -10.644   7.278  66.710  1.00  0.00    -0.298 OA 
BRANCH  14  15
HETATM   15  C   UNL     1      -9.806   8.309  67.249  1.00  0.00    -0.197 C  
BRANCH  15  16
HETATM   16  N   UNL     1      -8.664   8.613  66.401  1.00  0.00    -0.124 N  
HETATM   17  C   UNL     1      -7.487   7.949  66.744  1.00  0.00    -0.090 C  
HETATM   18  C   UNL     1      -6.212   8.602  66.288  1.00  0.00    -0.060 C  
HETATM   19  O   UNL     1      -7.455   6.960  67.472  1.00  0.00    -0.093 OA 
HETATM   20  C   UNL     1      -6.269   9.038  64.845  1.00  0.00    -0.065 C  
HETATM   21  C   UNL     1      -7.571   9.699  64.498  1.00  0.00    -0.127 A  
HETATM   22  C   UNL     1      -7.618  10.522  63.362  1.00  0.00     0.016 A  
HETATM   23  C   UNL     1      -8.821  11.078  62.929  1.00  0.00    -0.255 A  
HETATM   24  C   UNL     1      -9.995  10.786  63.614  1.00  0.00    -0.345 A  
HETATM   25  C   UNL     1      -9.947   9.975  64.755  1.00  0.00    -0.248 A  
HETATM   26  C   UNL     1      -8.739   9.438  65.234  1.00  0.00    -0.175 A  
BRANCH  24  27
HETATM   27  O   UNL     1     -11.236  11.264  63.288  1.00  0.00    -0.238 OA 
BRANCH  27  28
HETATM   28  C   UNL     1     -11.481  12.643  63.577  1.00  0.00    -0.491 C  
BRANCH  28  29
HETATM   29  C   UNL     1     -12.548  12.738  64.671  1.00  0.00    -0.491 C  
BRANCH  29  30
HETATM   30  C   UNL     1     -12.440  14.047  65.468  1.00  0.00    -0.533 C  
BRANCH  30  31
HETATM   31  C   UNL     1     -12.377  13.829  66.993  1.00  0.00    -0.247 C  
BRANCH  31  32
HETATM   32  N   UNL     1     -11.135  14.320  67.604  1.00  0.00    -0.283 NA 
HETATM   33  C   UNL     1     -10.793  13.643  68.872  1.00  0.00    -0.235 C  
HETATM   34  C   UNL     1     -10.256  12.211  68.686  1.00  0.00    -0.174 C  
HETATM   35  N   UNL     1      -8.997  12.273  67.924  1.00  0.00    -0.178 NA 
HETATM   36  C   UNL     1      -9.163  12.909  66.603  1.00  0.00    -0.221 C  
HETATM   37  C   UNL     1      -9.974  14.241  66.685  1.00  0.00    -0.275 C  
BRANCH  35  38
HETATM   38  C   UNL     1      -7.838  11.662  68.393  1.00  0.00    -0.137 A  
HETATM   39  C   UNL     1      -7.760  10.555  69.283  1.00  0.00    -0.144 A  
HETATM   40 CL   UNL     1      -9.178   9.895  70.058  1.00  0.00    -0.254 Cl 
HETATM   41  C   UNL     1      -6.507  10.007  69.652  1.00  0.00    -0.057 A  
HETATM   42  C   UNL     1      -5.312  10.566  69.197  1.00  0.00    -0.038 A  
HETATM   43 CL   UNL     1      -6.350   8.617  70.682  1.00  0.00    -0.036 Cl 
HETATM   44  C   UNL     1      -5.354  11.653  68.346  1.00  0.00    -0.045 A  
HETATM   45  C   UNL     1      -6.590  12.164  67.940  1.00  0.00    -0.085 A  
ENDBRANCH  35  38
ENDBRANCH  31  32
ENDBRANCH  30  31
ENDBRANCH  29  30
ENDBRANCH  28  29
ENDBRANCH  27  28
ENDBRANCH  24  27
ENDBRANCH  15  16
ENDBRANCH  14  15
ENDBRANCH  12  14
ENDBRANCH  11  12
ENDBRANCH  10  11
ENDBRANCH   9  10
ENDBRANCH   8   9
ENDBRANCH   7   8
ENDBRANCH   6   7
ENDBRANCH   5   6
ENDBRANCH   4   5
ENDBRANCH   3   4
ENDBRANCH   2   3
TORSDOF 20
ENDMDL
MODEL       32
REMARK 921   NORMALIZED FREE ENERGY PREDICTED BY IDOCK:   -5.07 KCAL/MOL
REMARK 922        TOTAL FREE ENERGY PREDICTED BY IDOCK:  -14.84 KCAL/MOL
REMARK 923 INTER-LIGAND FREE ENERGY PREDICTED BY IDOCK:  -11.01 KCAL/MOL
REMARK 924 INTRA-LIGAND FREE ENERGY PREDICTED BY IDOCK:   -3.83 KCAL/MOL
REMARK 927      BINDING AFFINITY PREDICTED BY RF-SCORE:    0.00 PKD
ROOT
HETATM    1  C   UNL     1     -10.853  19.802  65.597  1.00  0.00    -0.337 C  
HETATM    2  C   UNL     1     -10.410  19.764  67.051  1.00  0.00    -0.593 C  
ENDROOT
BRANCH   2   3
HETATM    3  C   UNL     1      -9.870  18.386  67.432  1.00  0.00    -0.323 C  
BRANCH   3   4
HETATM    4  C   UNL     1      -8.346  18.339  67.336  1.00  0.00    -0.245 C  
BRANCH   4   5
HETATM    5  C   UNL     1      -7.893  17.374  66.240  1.00  0.00    -0.330 C  
BRANCH   5   6
HETATM    6  C   UNL     1      -8.643  16.045  66.331  1.00  0.00    -0.369 C  
BRANCH   6   7
HETATM    7  C   UNL     1      -7.832  15.004  67.103  1.00  0.00    -0.224 C  
BRANCH   7   8
HETATM    8  C   UNL     1      -8.492  13.627  67.021  1.00  0.00    -0.141 C  
BRANCH   8   9
HETATM    9  C   UNL     1      -8.300  12.840  68.317  1.00  0.00    -0.161 C  
BRANCH   9  10
HETATM   10  C   UNL     1      -8.107  11.349  68.025  1.00  0.00    -0.134 C  
BRANCH  10  11
HETATM   11  C   UNL     1      -8.292  11.012  66.547  1.00  0.00    -0.163 C  
BRANCH  11  12
HETATM   12  C   UNL     1      -9.108   9.760  66.323  1.00  0.00    -0.157 C  
HETATM   13  O   UNL     1      -9.789   9.526  65.335  1.00  0.00    -0.302 OA 
BRANCH  12  14
HETATM   14  O   UNL     1      -8.944   8.926  67.385  1.00  0.00    -0.131 OA 
BRANCH  14  15
HETATM   15  C   UNL     1      -7.896   7.953  67.269  1.00  0.00    -0.113 C  
BRANCH  15  16
HETATM   16  N   UNL     1      -8.396   6.590  67.176  1.00  0.00    -0.113 N  
HETATM   17  C   UNL     1      -8.366   6.042  65.895  1.00  0.00    -0.138 C  
HETATM   18  C   UNL     1      -9.327   4.913  65.645  1.00  0.00    -0.167 C  
HETATM   19  O   UNL     1      -7.696   6.505  64.976  1.00  0.00    -0.089 OA 
HETATM   20  C   UNL     1      -9.315   3.887  66.749  1.00  0.00    -0.203 C  
HETATM   21  C   UNL     1      -9.292   4.513  68.114  1.00  0.00    -0.186 A  
HETATM   22  C   UNL     1      -9.704   3.739  69.209  1.00  0.00    -0.120 A  
HETATM   23  C   UNL     1      -9.605   4.229  70.511  1.00  0.00    -0.267 A  
HETATM   24  C   UNL     1      -9.061   5.489  70.727  1.00  0.00    -0.146 A  
HETATM   25  C   UNL     1      -8.662   6.268  69.633  1.00  0.00    -0.136 A  
HETATM   26  C   UNL     1      -8.790   5.811  68.310  1.00  0.00    -0.109 A  
BRANCH  24  27
HETATM   27  O   UNL     1      -8.907   6.080  71.953  1.00  0.00    -0.137 OA 
BRANCH  27  28
HETATM   28  C   UNL     1      -9.598   5.468  73.045  1.00  0.00    -0.150 C  
BRANCH  28  29
HETATM   29  C   UNL     1     -10.340   6.550  73.832  1.00  0.00    -0.356 C  
BRANCH  29  30
HETATM   30  C   UNL     1     -10.541   7.828  73.004  1.00  0.00    -0.441 C  
BRANCH  30  31
HETATM   31  C   UNL     1     -12.024   8.154  72.735  1.00  0.00    -0.190 C  
BRANCH  31  32
HETATM   32  N   UNL     1     -12.352   8.253  71.308  1.00  0.00    -0.291 NA 
HETATM   33  C   UNL     1     -13.375   9.276  71.007  1.00  0.00    -0.078 C  
HETATM   34  C   UNL     1     -12.851  10.722  71.090  1.00  0.00    -0.414 C  
HETATM   35  N   UNL     1     -11.804  10.906  70.072  1.00  0.00    -0.315 NA 
HETATM   36  C   UNL     1     -10.678   9.966  70.239  1.00  0.00    -0.310 C  
HETATM   37  C   UNL     1     -11.161   8.498  70.461  1.00  0.00    -0.244 C  
BRANCH  35  38
HETATM   38  C   UNL     1     -11.859  11.955  69.159  1.00  0.00    -0.311 A  
HETATM   39  C   UNL     1     -11.901  13.344  69.461  1.00  0.00    -0.332 A  
HETATM   40 CL   UNL     1     -12.053  13.926  71.099  1.00  0.00    -0.389 Cl 
HETATM   41  C   UNL     1     -11.919  14.312  68.427  1.00  0.00    -0.309 A  
HETATM   42  C   UNL     1     -11.950  13.933  67.084  1.00  0.00    -0.455 A  
HETATM   43 CL   UNL     1     -11.906  16.022  68.732  1.00  0.00    -0.319 Cl 
HETATM   44  C   UNL     1     -11.929  12.590  66.758  1.00  0.00    -0.327 A  
HETATM   45  C   UNL     1     -11.859  11.635  67.776  1.00  0.00    -0.247 A  
ENDBRANCH  35  38
ENDBRANCH  31  32
ENDBRANCH  30  31
ENDBRANCH  29  30
ENDBRANCH  28  29
ENDBRANCH  27  28
ENDBRANCH  24  27
ENDBRANCH  15  16
ENDBRANCH  14  15
ENDBRANCH  12  14
ENDBRANCH  11  12
ENDBRANCH  10  11
ENDBRANCH   9  10
ENDBRANCH   8   9
ENDBRANCH   7   8
ENDBRANCH   6   7
ENDBRANCH   5   6
ENDBRANCH   4   5
ENDBRANCH   3   4
ENDBRANCH   2   3
TORSDOF 20
ENDMDL
MODEL       33
REMARK 921   NORMALIZED FREE ENERGY PREDICTED BY IDOCK:   -5.07 KCAL/MOL
REMARK 922        TOTAL FREE ENERGY PREDICTED BY IDOCK:  -14.84 KCAL/MOL
REMARK 923 INTER-LIGAND FREE ENERGY PREDICTED BY IDOCK:  -10.87 KCAL/MOL
REMARK 924 INTRA-LIGAND FREE ENERGY PREDICTED BY IDOCK:   -3.96 KCAL/MOL
REMARK 927      BINDING AFFINITY PREDICTED BY RF-SCORE:    0.00 PKD
ROOT
HETATM    1  C   UNL     1     -10.149   3.246  63.461  1.00  0.00    -0.173 C  
HETATM    2  C   UNL     1      -9.533   4.002  64.627  1.00  0.00    -0.169 C  
ENDROOT
BRANCH   2   3
HETATM    3  C   UNL     1     -10.609   4.552  65.563  1.00  0.00    -0.218 C  
BRANCH   3   4
HETATM    4  C   UNL     1      -9.991   5.341  66.716  1.00  0.00    -0.224 C  
BRANCH   4   5
HETATM    5  C   UNL     1      -8.882   4.540  67.399  1.00  0.00    -0.113 C  
BRANCH   5   6
HETATM    6  C   UNL     1      -7.902   5.461  68.126  1.00  0.00    -0.092 C  
BRANCH   6   7
HETATM    7  C   UNL     1      -8.144   6.926  67.761  1.00  0.00    -0.114 C  
BRANCH   7   8
HETATM    8  C   UNL     1      -8.215   7.797  69.014  1.00  0.00    -0.126 C  
BRANCH   8   9
HETATM    9  C   UNL     1      -7.207   7.339  70.069  1.00  0.00    -0.078 C  
BRANCH   9  10
HETATM   10  C   UNL     1      -7.054   8.393  71.169  1.00  0.00    -0.066 C  
BRANCH  10  11
HETATM   11  C   UNL     1      -6.218   7.897  72.346  1.00  0.00    -0.048 C  
BRANCH  11  12
HETATM   12  C   UNL     1      -6.926   8.028  73.674  1.00  0.00    -0.123 C  
HETATM   13  O   UNL     1      -7.278   9.080  74.187  1.00  0.00    -0.397 OA 
BRANCH  12  14
HETATM   14  O   UNL     1      -7.130   6.787  74.193  1.00  0.00    -0.092 OA 
BRANCH  14  15
HETATM   15  C   UNL     1      -8.497   6.368  74.310  1.00  0.00    -0.128 C  
BRANCH  15  16
HETATM   16  N   UNL     1      -9.006   5.747  73.097  1.00  0.00    -0.125 N  
HETATM   17  C   UNL     1      -8.610   4.424  72.906  1.00  0.00    -0.105 C  
HETATM   18  C   UNL     1      -8.636   3.933  71.485  1.00  0.00    -0.121 C  
HETATM   19  O   UNL     1      -8.152   3.719  73.801  1.00  0.00    -0.084 OA 
HETATM   20  C   UNL     1      -9.912   4.298  70.770  1.00  0.00    -0.224 C  
HETATM   21  C   UNL     1     -10.337   5.712  71.042  1.00  0.00    -0.297 A  
HETATM   22  C   UNL     1     -11.227   6.324  70.146  1.00  0.00    -0.470 A  
HETATM   23  C   UNL     1     -11.739   7.595  70.401  1.00  0.00    -0.079 A  
HETATM   24  C   UNL     1     -11.389   8.251  71.575  1.00  0.00    -0.268 A  
HETATM   25  C   UNL     1     -10.491   7.645  72.464  1.00  0.00    -0.323 A  
HETATM   26  C   UNL     1      -9.930   6.383  72.207  1.00  0.00    -0.164 A  
BRANCH  24  27
HETATM   27  O   UNL     1     -11.826   9.496  71.942  1.00  0.00    -0.373 OA 
BRANCH  27  28
HETATM   28  C   UNL     1     -12.676  10.171  71.011  1.00  0.00    -0.386 C  
BRANCH  28  29
HETATM   29  C   UNL     1     -11.938  11.393  70.461  1.00  0.00    -0.451 C  
BRANCH  29  30
HETATM   30  C   UNL     1     -12.018  11.472  68.929  1.00  0.00    -0.364 C  
BRANCH  30  31
HETATM   31  C   UNL     1     -11.077  12.533  68.323  1.00  0.00    -0.257 C  
BRANCH  31  32
HETATM   32  N   UNL     1     -11.778  13.732  67.845  1.00  0.00    -0.340 NA 
HETATM   33  C   UNL     1     -11.792  14.837  68.825  1.00  0.00    -0.296 C  
HETATM   34  C   UNL     1     -10.439  15.561  68.965  1.00  0.00    -0.231 C  
HETATM   35  N   UNL     1     -10.101  16.186  67.675  1.00  0.00    -0.243 NA 
HETATM   36  C   UNL     1     -10.022  15.207  66.572  1.00  0.00    -0.266 C  
HETATM   37  C   UNL     1     -11.242  14.234  66.557  1.00  0.00    -0.332 C  
BRANCH  35  38
HETATM   38  C   UNL     1      -9.770  17.535  67.590  1.00  0.00    -0.275 A  
HETATM   39  C   UNL     1      -8.567  18.146  68.040  1.00  0.00    -0.265 A  
HETATM   40 CL   UNL     1      -7.363  17.257  68.939  1.00  0.00    -0.249 Cl 
HETATM   41  C   UNL     1      -8.344  19.533  67.857  1.00  0.00    -0.315 A  
HETATM   42  C   UNL     1      -9.317  20.350  67.280  1.00  0.00    -0.547 A  
HETATM   43 CL   UNL     1      -6.870  20.323  68.326  1.00  0.00    -0.334 Cl 
HETATM   44  C   UNL     1     -10.504  19.790  66.850  1.00  0.00    -0.596 A  
HETATM   45  C   UNL     1     -10.705  18.413  66.982  1.00  0.00    -0.330 A  
ENDBRANCH  35  38
ENDBRANCH  31  32
ENDBRANCH  30  31
ENDBRANCH  29  30
ENDBRANCH  28  29
ENDBRANCH  27  28
ENDBRANCH  24  27
ENDBRANCH  15  16
ENDBRANCH  14  15
ENDBRANCH  12  14
ENDBRANCH  11  12
ENDBRANCH  10  11
ENDBRANCH   9  10
ENDBRANCH   8   9
ENDBRANCH   7   8
ENDBRANCH   6   7
ENDBRANCH   5   6
ENDBRANCH   4   5
ENDBRANCH   3   4
ENDBRANCH   2   3
TORSDOF 20
ENDMDL
MODEL       34
REMARK 921   NORMALIZED FREE ENERGY PREDICTED BY IDOCK:   -5.05 KCAL/MOL
REMARK 922        TOTAL FREE ENERGY PREDICTED BY IDOCK:  -14.81 KCAL/MOL
REMARK 923 INTER-LIGAND FREE ENERGY PREDICTED BY IDOCK:  -11.11 KCAL/MOL
REMARK 924 INTRA-LIGAND FREE ENERGY PREDICTED BY IDOCK:   -3.69 KCAL/MOL
REMARK 927      BINDING AFFINITY PREDICTED BY RF-SCORE:    0.00 PKD
ROOT
HETATM    1  C   UNL     1      -5.475   8.764  63.232  1.00  0.00    -0.068 C  
HETATM    2  C   UNL     1      -6.081   7.617  64.024  1.00  0.00    -0.049 C  
ENDROOT
BRANCH   2   3
HETATM    3  C   UNL     1      -7.484   7.965  64.522  1.00  0.00    -0.099 C  
BRANCH   3   4
HETATM    4  C   UNL     1      -7.594   7.796  66.036  1.00  0.00    -0.087 C  
BRANCH   4   5
HETATM    5  C   UNL     1      -7.009   9.004  66.768  1.00  0.00    -0.081 C  
BRANCH   5   6
HETATM    6  C   UNL     1      -6.363   8.589  68.090  1.00  0.00    -0.056 C  
BRANCH   6   7
HETATM    7  C   UNL     1      -6.678   9.594  69.199  1.00  0.00    -0.049 C  
BRANCH   7   8
HETATM    8  C   UNL     1      -6.539   8.948  70.577  1.00  0.00    -0.049 C  
BRANCH   8   9
HETATM    9  C   UNL     1      -7.832   9.074  71.384  1.00  0.00    -0.088 C  
BRANCH   9  10
HETATM   10  C   UNL     1      -8.030   7.854  72.288  1.00  0.00    -0.151 C  
BRANCH  10  11
HETATM   11  C   UNL     1      -9.078   8.090  73.372  1.00  0.00    -0.340 C  
BRANCH  11  12
HETATM   12  C   UNL     1     -10.107   6.986  73.452  1.00  0.00    -0.284 C  
HETATM   13  O   UNL     1      -9.863   5.801  73.624  1.00  0.00    -0.156 OA 
BRANCH  12  14
HETATM   14  O   UNL     1     -11.349   7.528  73.326  1.00  0.00    -0.296 OA 
BRANCH  14  15
HETATM   15  C   UNL     1     -12.065   7.195  72.129  1.00  0.00    -0.246 C  
BRANCH  15  16
HETATM   16  N   UNL     1     -11.544   7.870  70.950  1.00  0.00    -0.284 N  
HETATM   17  C   UNL     1     -10.931   7.031  70.020  1.00  0.00    -0.270 C  
HETATM   18  C   UNL     1      -9.937   7.689  69.104  1.00  0.00    -0.181 C  
HETATM   19  O   UNL     1     -11.082   5.812  70.004  1.00  0.00    -0.348 OA 
HETATM   20  C   UNL     1     -10.454   8.977  68.516  1.00  0.00    -0.232 C  
HETATM   21  C   UNL     1     -11.157   9.829  69.534  1.00  0.00    -0.226 A  
HETATM   22  C   UNL     1     -11.307  11.199  69.267  1.00  0.00    -0.349 A  
HETATM   23  C   UNL     1     -12.041  12.020  70.122  1.00  0.00    -0.377 A  
HETATM   24  C   UNL     1     -12.658  11.467  71.237  1.00  0.00    -0.374 A  
HETATM   25  C   UNL     1     -12.497  10.102  71.512  1.00  0.00    -0.526 A  
HETATM   26  C   UNL     1     -11.728   9.264  70.686  1.00  0.00    -0.222 A  
BRANCH  24  27
HETATM   27  O   UNL     1     -13.406  12.163  72.149  1.00  0.00    -0.522 OA 
BRANCH  27  28
HETATM   28  C   UNL     1     -13.629  13.546  71.864  1.00  0.00    -0.424 C  
BRANCH  28  29
HETATM   29  C   UNL     1     -12.673  14.387  72.712  1.00  0.00    -0.429 C  
BRANCH  29  30
HETATM   30  C   UNL     1     -12.258  15.683  71.999  1.00  0.00    -0.521 C  
BRANCH  30  31
HETATM   31  C   UNL     1     -10.924  15.559  71.236  1.00  0.00    -0.171 C  
BRANCH  31  32
HETATM   32  N   UNL     1     -10.950  16.182  69.906  1.00  0.00    -0.340 NA 
HETATM   33  C   UNL     1      -9.828  15.769  69.039  1.00  0.00    -0.240 C  
HETATM   34  C   UNL     1      -9.965  14.338  68.484  1.00  0.00    -0.235 C  
HETATM   35  N   UNL     1     -11.163  14.276  67.629  1.00  0.00    -0.292 NA 
HETATM   36  C   UNL     1     -12.397  14.642  68.352  1.00  0.00     0.044 C  
HETATM   37  C   UNL     1     -12.226  15.948  69.189  1.00  0.00     0.005 C  
BRANCH  35  38
HETATM   38  C   UNL     1     -11.097  13.788  66.328  1.00  0.00    -0.302 A  
HETATM   39  C   UNL     1     -10.202  12.799  65.834  1.00  0.00    -0.287 A  
HETATM   40 CL   UNL     1      -8.908  12.157  66.814  1.00  0.00    -0.201 Cl 
HETATM   41  C   UNL     1     -10.269  12.367  64.487  1.00  0.00    -0.299 A  
HETATM   42  C   UNL     1     -11.176  12.933  63.591  1.00  0.00    -0.418 A  
HETATM   43 CL   UNL     1      -9.247  11.118  63.843  1.00  0.00    -0.171 Cl 
HETATM   44  C   UNL     1     -12.046  13.910  64.035  1.00  0.00    -0.437 A  
HETATM   45  C   UNL     1     -12.017  14.301  65.377  1.00  0.00    -0.383 A  
ENDBRANCH  35  38
ENDBRANCH  31  32
ENDBRANCH  30  31
ENDBRANCH  29  30
ENDBRANCH  28  29
ENDBRANCH  27  28
ENDBRANCH  24  27
ENDBRANCH  15  16
ENDBRANCH  14  15
ENDBRANCH  12  14
ENDBRANCH  11  12
ENDBRANCH  10  11
ENDBRANCH   9  10
ENDBRANCH   8   9
ENDBRANCH   7   8
ENDBRANCH   6   7
ENDBRANCH   5   6
ENDBRANCH   4   5
ENDBRANCH   3   4
ENDBRANCH   2   3
TORSDOF 20
ENDMDL
MODEL       35
REMARK 921   NORMALIZED FREE ENERGY PREDICTED BY IDOCK:   -4.99 KCAL/MOL
REMARK 922        TOTAL FREE ENERGY PREDICTED BY IDOCK:  -14.68 KCAL/MOL
REMARK 923 INTER-LIGAND FREE ENERGY PREDICTED BY IDOCK:  -11.16 KCAL/MOL
REMARK 924 INTRA-LIGAND FREE ENERGY PREDICTED BY IDOCK:   -3.52 KCAL/MOL
REMARK 927      BINDING AFFINITY PREDICTED BY RF-SCORE:    0.00 PKD
ROOT
HETATM    1  C   UNL     1     -11.735   5.414  72.728  1.00  0.00    -0.235 C  
HETATM    2  C   UNL     1     -11.363   6.875  72.535  1.00  0.00    -0.291 C  
ENDROOT
BRANCH   2   3
HETATM    3  C   UNL     1     -12.203   7.522  71.435  1.00  0.00    -0.363 C  
BRANCH   3   4
HETATM    4  C   UNL     1     -12.558   8.967  71.784  1.00  0.00    -0.420 C  
BRANCH   4   5
HETATM    5  C   UNL     1     -11.544   9.942  71.187  1.00  0.00    -0.468 C  
BRANCH   5   6
HETATM    6  C   UNL     1     -10.902   9.368  69.925  1.00  0.00    -0.259 C  
BRANCH   6   7
HETATM    7  C   UNL     1      -9.393   9.615  69.909  1.00  0.00    -0.256 C  
BRANCH   7   8
HETATM    8  C   UNL     1      -8.660   8.479  69.198  1.00  0.00    -0.133 C  
BRANCH   8   9
HETATM    9  C   UNL     1      -8.657   7.203  70.041  1.00  0.00    -0.141 C  
BRANCH   9  10
HETATM   10  C   UNL     1      -8.868   5.969  69.161  1.00  0.00    -0.119 C  
BRANCH  10  11
HETATM   11  C   UNL     1     -10.340   5.714  68.850  1.00  0.00    -0.295 C  
BRANCH  11  12
HETATM   12  C   UNL     1     -10.702   6.008  67.412  1.00  0.00    -0.310 C  
HETATM   13  O   UNL     1     -11.133   7.072  66.994  1.00  0.00    -0.373 OA 
BRANCH  12  14
HETATM   14  O   UNL     1     -10.447   4.906  66.656  1.00  0.00    -0.262 OA 
BRANCH  14  15
HETATM   15  C   UNL     1      -9.561   5.093  65.544  1.00  0.00    -0.043 C  
BRANCH  15  16
HETATM   16  N   UNL     1      -8.171   5.250  65.946  1.00  0.00    -0.114 N  
HETATM   17  C   UNL     1      -7.483   4.055  66.150  1.00  0.00    -0.088 C  
HETATM   18  C   UNL     1      -6.284   4.138  67.053  1.00  0.00    -0.036 C  
HETATM   19  O   UNL     1      -7.873   2.968  65.731  1.00  0.00    -0.083 OA 
HETATM   20  C   UNL     1      -5.392   5.309  66.724  1.00  0.00    -0.009 C  
HETATM   21  C   UNL     1      -6.170   6.564  66.457  1.00  0.00    -0.040 A  
HETATM   22  C   UNL     1      -5.505   7.796  66.562  1.00  0.00    -0.025 A  
HETATM   23  C   UNL     1      -6.144   8.987  66.224  1.00  0.00    -0.063 A  
HETATM   24  C   UNL     1      -7.448   8.951  65.745  1.00  0.00    -0.089 A  
HETATM   25  C   UNL     1      -8.117   7.723  65.651  1.00  0.00    -0.129 A  
HETATM   26  C   UNL     1      -7.506   6.515  66.026  1.00  0.00    -0.081 A  
BRANCH  24  27
HETATM   27  O   UNL     1      -8.183  10.047  65.376  1.00  0.00    -0.136 OA 
BRANCH  27  28
HETATM   28  C   UNL     1      -9.563  10.041  65.749  1.00  0.00    -0.231 C  
BRANCH  28  29
HETATM   29  C   UNL     1      -9.823  11.209  66.703  1.00  0.00    -0.231 C  
BRANCH  29  30
HETATM   30  C   UNL     1     -11.289  11.669  66.663  1.00  0.00    -0.338 C  
BRANCH  30  31
HETATM   31  C   UNL     1     -11.601  12.608  65.480  1.00  0.00    -0.370 C  
BRANCH  31  32
HETATM   32  N   UNL     1     -12.265  13.854  65.883  1.00  0.00    -0.439 NA 
HETATM   33  C   UNL     1     -11.800  14.377  67.183  1.00  0.00    -0.410 C  
HETATM   34  C   UNL     1     -10.401  15.021  67.129  1.00  0.00    -0.257 C  
HETATM   35  N   UNL     1     -10.452  16.189  66.234  1.00  0.00    -0.318 NA 
HETATM   36  C   UNL     1     -10.884  15.839  64.866  1.00  0.00    -0.413 C  
HETATM   37  C   UNL     1     -12.148  14.923  64.862  1.00  0.00    -0.274 C  
BRANCH  35  38
HETATM   38  C   UNL     1     -10.002  17.439  66.649  1.00  0.00    -0.308 A  
HETATM   39  C   UNL     1      -9.063  17.703  67.685  1.00  0.00    -0.241 A  
HETATM   40 CL   UNL     1      -8.449  16.437  68.717  1.00  0.00    -0.238 Cl 
HETATM   41  C   UNL     1      -8.664  19.030  67.981  1.00  0.00    -0.306 A  
HETATM   42  C   UNL     1      -9.217  20.118  67.306  1.00  0.00    -0.504 A  
HETATM   43 CL   UNL     1      -7.475  19.411  69.189  1.00  0.00    -0.380 Cl 
HETATM   44  C   UNL     1     -10.145  19.895  66.307  1.00  0.00    -0.613 A  
HETATM   45  C   UNL     1     -10.502  18.584  65.977  1.00  0.00    -0.433 A  
ENDBRANCH  35  38
ENDBRANCH  31  32
ENDBRANCH  30  31
ENDBRANCH  29  30
ENDBRANCH  28  29
ENDBRANCH  27  28
ENDBRANCH  24  27
ENDBRANCH  15  16
ENDBRANCH  14  15
ENDBRANCH  12  14
ENDBRANCH  11  12
ENDBRANCH  10  11
ENDBRANCH   9  10
ENDBRANCH   8   9
ENDBRANCH   7   8
ENDBRANCH   6   7
ENDBRANCH   5   6
ENDBRANCH   4   5
ENDBRANCH   3   4
ENDBRANCH   2   3
TORSDOF 20
ENDMDL
MODEL       36
REMARK 921   NORMALIZED FREE ENERGY PREDICTED BY IDOCK:   -4.96 KCAL/MOL
REMARK 922        TOTAL FREE ENERGY PREDICTED BY IDOCK:  -14.61 KCAL/MOL
REMARK 923 INTER-LIGAND FREE ENERGY PREDICTED BY IDOCK:  -10.47 KCAL/MOL
REMARK 924 INTRA-LIGAND FREE ENERGY PREDICTED BY IDOCK:   -4.14 KCAL/MOL
REMARK 927      BINDING AFFINITY PREDICTED BY RF-SCORE:    0.00 PKD
ROOT
HETATM    1  C   UNL     1     -10.658  18.028  67.460  1.00  0.00    -0.402 C  
HETATM    2  C   UNL     1     -10.388  16.641  68.020  1.00  0.00    -0.303 C  
ENDROOT
BRANCH   2   3
HETATM    3  C   UNL     1     -11.132  15.566  67.227  1.00  0.00    -0.271 C  
BRANCH   3   4
HETATM    4  C   UNL     1     -10.494  15.345  65.856  1.00  0.00    -0.354 C  
BRANCH   4   5
HETATM    5  C   UNL     1     -11.542  14.934  64.822  1.00  0.00    -0.410 C  
BRANCH   5   6
HETATM    6  C   UNL     1     -12.573  13.984  65.428  1.00  0.00    -0.529 C  
BRANCH   6   7
HETATM    7  C   UNL     1     -12.568  12.632  64.713  1.00  0.00    -0.530 C  
BRANCH   7   8
HETATM    8  C   UNL     1     -11.625  12.654  63.511  1.00  0.00    -0.584 C  
BRANCH   8   9
HETATM    9  C   UNL     1     -10.717  11.423  63.494  1.00  0.00    -0.453 C  
BRANCH   9  10
HETATM   10  C   UNL     1      -9.947  11.296  64.811  1.00  0.00    -0.327 C  
BRANCH  10  11
HETATM   11  C   UNL     1     -10.126   9.930  65.468  1.00  0.00    -0.297 C  
BRANCH  11  12
HETATM   12  C   UNL     1      -8.816   9.269  65.828  1.00  0.00    -0.177 C  
HETATM   13  O   UNL     1      -7.707   9.737  65.621  1.00  0.00    -0.107 OA 
BRANCH  12  14
HETATM   14  O   UNL     1      -9.072   8.082  66.442  1.00  0.00    -0.164 OA 
BRANCH  14  15
HETATM   15  C   UNL     1      -7.927   7.316  66.840  1.00  0.00    -0.112 C  
BRANCH  15  16
HETATM   16  N   UNL     1      -7.880   6.001  66.219  1.00  0.00    -0.102 N  
HETATM   17  C   UNL     1      -7.214   5.956  64.996  1.00  0.00    -0.066 C  
HETATM   18  C   UNL     1      -7.591   4.818  64.089  1.00  0.00    -0.072 C  
HETATM   19  O   UNL     1      -6.452   6.837  64.606  1.00  0.00    -0.040 OA 
HETATM   20  C   UNL     1      -7.637   3.494  64.809  1.00  0.00    -0.077 C  
HETATM   21  C   UNL     1      -8.312   3.592  66.146  1.00  0.00    -0.102 A  
HETATM   22  C   UNL     1      -8.809   2.417  66.730  1.00  0.00    -0.144 A  
HETATM   23  C   UNL     1      -9.351   2.428  68.015  1.00  0.00    -0.253 A  
HETATM   24  C   UNL     1      -9.370   3.614  68.738  1.00  0.00    -0.165 A  
HETATM   25  C   UNL     1      -8.886   4.791  68.151  1.00  0.00    -0.116 A  
HETATM   26  C   UNL     1      -8.373   4.811  66.843  1.00  0.00    -0.106 A  
BRANCH  24  27
HETATM   27  O   UNL     1      -9.869   3.755  70.006  1.00  0.00    -0.181 OA 
BRANCH  27  28
HETATM   28  C   UNL     1      -9.291   2.921  71.013  1.00  0.00    -0.148 C  
BRANCH  28  29
HETATM   29  C   UNL     1     -10.207   2.917  72.239  1.00  0.00    -0.180 C  
BRANCH  29  30
HETATM   30  C   UNL     1      -9.988   4.153  73.124  1.00  0.00    -0.192 C  
BRANCH  30  31
HETATM   31  C   UNL     1     -10.725   5.408  72.614  1.00  0.00    -0.240 C  
BRANCH  31  32
HETATM   32  N   UNL     1      -9.892   6.616  72.616  1.00  0.00    -0.168 NA 
HETATM   33  C   UNL     1      -9.265   6.903  71.309  1.00  0.00    -0.157 C  
HETATM   34  C   UNL     1     -10.247   7.458  70.258  1.00  0.00    -0.200 C  
HETATM   35  N   UNL     1     -10.767   8.751  70.734  1.00  0.00    -0.217 NA 
HETATM   36  C   UNL     1     -11.453   8.643  72.036  1.00  0.00    -0.367 C  
HETATM   37  C   UNL     1     -10.626   7.819  73.074  1.00  0.00    -0.379 C  
BRANCH  35  38
HETATM   38  C   UNL     1     -10.709   9.891  69.938  1.00  0.00    -0.280 A  
HETATM   39  C   UNL     1      -9.538  10.490  69.395  1.00  0.00    -0.148 A  
HETATM   40 CL   UNL     1      -7.939   9.929  69.812  1.00  0.00    -0.162 Cl 
HETATM   41  C   UNL     1      -9.626  11.635  68.566  1.00  0.00    -0.178 A  
HETATM   42  C   UNL     1     -10.855  12.241  68.300  1.00  0.00    -0.254 A  
HETATM   43 CL   UNL     1      -8.240  12.372  67.823  1.00  0.00    -0.151 Cl 
HETATM   44  C   UNL     1     -12.008  11.693  68.828  1.00  0.00    -0.326 A  
HETATM   45  C   UNL     1     -11.929  10.533  69.603  1.00  0.00    -0.279 A  
ENDBRANCH  35  38
ENDBRANCH  31  32
ENDBRANCH  30  31
ENDBRANCH  29  30
ENDBRANCH  28  29
ENDBRANCH  27  28
ENDBRANCH  24  27
ENDBRANCH  15  16
ENDBRANCH  14  15
ENDBRANCH  12  14
ENDBRANCH  11  12
ENDBRANCH  10  11
ENDBRANCH   9  10
ENDBRANCH   8   9
ENDBRANCH   7   8
ENDBRANCH   6   7
ENDBRANCH   5   6
ENDBRANCH   4   5
ENDBRANCH   3   4
ENDBRANCH   2   3
TORSDOF 20
ENDMDL
MODEL       37
REMARK 921   NORMALIZED FREE ENERGY PREDICTED BY IDOCK:   -4.96 KCAL/MOL
REMARK 922        TOTAL FREE ENERGY PREDICTED BY IDOCK:  -14.60 KCAL/MOL
REMARK 923 INTER-LIGAND FREE ENERGY PREDICTED BY IDOCK:  -10.61 KCAL/MOL
REMARK 924 INTRA-LIGAND FREE ENERGY PREDICTED BY IDOCK:   -3.99 KCAL/MOL
REMARK 927      BINDING AFFINITY PREDICTED BY RF-SCORE:    0.00 PKD
ROOT
HETATM    1  C   UNL     1     -10.682  19.546  67.432  1.00  0.00    -0.589 C  
HETATM    2  C   UNL     1      -9.786  19.879  66.251  1.00  0.00    -0.551 C  
ENDROOT
BRANCH   2   3
HETATM    3  C   UNL     1      -8.314  19.909  66.660  1.00  0.00    -0.369 C  
BRANCH   3   4
HETATM    4  C   UNL     1      -7.629  18.574  66.371  1.00  0.00    -0.287 C  
BRANCH   4   5
HETATM    5  C   UNL     1      -7.518  17.727  67.640  1.00  0.00    -0.207 C  
BRANCH   5   6
HETATM    6  C   UNL     1      -8.469  16.532  67.592  1.00  0.00    -0.182 C  
BRANCH   6   7
HETATM    7  C   UNL     1      -8.779  16.129  66.150  1.00  0.00    -0.358 C  
BRANCH   7   8
HETATM    8  C   UNL     1     -10.284  15.967  65.939  1.00  0.00    -0.386 C  
BRANCH   8   9
HETATM    9  C   UNL     1     -10.587  15.200  64.651  1.00  0.00    -0.167 C  
BRANCH   9  10
HETATM   10  C   UNL     1     -11.953  14.514  64.736  1.00  0.00    -0.449 C  
BRANCH  10  11
HETATM   11  C   UNL     1     -12.269  13.679  63.497  1.00  0.00    -0.329 C  
BRANCH  11  12
HETATM   12  C   UNL     1     -12.442  12.209  63.801  1.00  0.00    -0.514 C  
HETATM   13  O   UNL     1     -13.508  11.612  63.825  1.00  0.00    -0.298 OA 
BRANCH  12  14
HETATM   14  O   UNL     1     -11.220  11.654  64.020  1.00  0.00    -0.361 OA 
BRANCH  14  15
HETATM   15  C   UNL     1     -11.093  10.849  65.200  1.00  0.00     0.155 C  
BRANCH  15  16
HETATM   16  N   UNL     1     -10.268  11.470  66.225  1.00  0.00    -0.223 N  
HETATM   17  C   UNL     1     -10.975  12.179  67.194  1.00  0.00    -0.268 C  
HETATM   18  C   UNL     1     -10.200  13.246  67.917  1.00  0.00    -0.233 C  
HETATM   19  O   UNL     1     -12.181  12.047  67.385  1.00  0.00    -0.491 OA 
HETATM   20  C   UNL     1      -8.846  12.768  68.376  1.00  0.00    -0.117 C  
HETATM   21  C   UNL     1      -8.138  11.961  67.327  1.00  0.00    -0.171 A  
HETATM   22  C   UNL     1      -6.745  11.817  67.425  1.00  0.00    -0.120 A  
HETATM   23  C   UNL     1      -6.045  10.994  66.544  1.00  0.00    -0.134 A  
HETATM   24  C   UNL     1      -6.742  10.283  65.575  1.00  0.00    -0.128 A  
HETATM   25  C   UNL     1      -8.131  10.436  65.468  1.00  0.00    -0.156 A  
HETATM   26  C   UNL     1      -8.851  11.291  66.319  1.00  0.00    -0.191 A  
BRANCH  24  27
HETATM   27  O   UNL     1      -6.174   9.441  64.655  1.00  0.00    -0.073 OA 
BRANCH  27  28
HETATM   28  C   UNL     1      -5.187   8.533  65.150  1.00  0.00    -0.035 C  
BRANCH  28  29
HETATM   29  C   UNL     1      -5.829   7.157  65.336  1.00  0.00    -0.037 C  
BRANCH  29  30
HETATM   30  C   UNL     1      -5.801   6.702  66.803  1.00  0.00    -0.018 C  
BRANCH  30  31
HETATM   31  C   UNL     1      -7.205   6.472  67.398  1.00  0.00    -0.085 C  
BRANCH  31  32
HETATM   32  N   UNL     1      -7.396   7.109  68.707  1.00  0.00    -0.094 NA 
HETATM   33  C   UNL     1      -8.215   8.337  68.653  1.00  0.00    -0.120 C  
HETATM   34  C   UNL     1      -9.719   8.073  68.449  1.00  0.00    -0.158 C  
HETATM   35  N   UNL     1     -10.227   7.315  69.605  1.00  0.00    -0.205 NA 
HETATM   36  C   UNL     1      -9.525   6.031  69.796  1.00  0.00    -0.149 C  
HETATM   37  C   UNL     1      -7.974   6.187  69.714  1.00  0.00    -0.110 C  
BRANCH  35  38
HETATM   38  C   UNL     1     -11.339   7.749  70.321  1.00  0.00    -0.163 A  
HETATM   39  C   UNL     1     -11.588   9.069  70.787  1.00  0.00    -0.265 A  
HETATM   40 CL   UNL     1     -10.396  10.336  70.647  1.00  0.00    -0.017 Cl 
HETATM   41  C   UNL     1     -12.786   9.382  71.477  1.00  0.00    -0.361 A  
HETATM   42  C   UNL     1     -13.731   8.397  71.765  1.00  0.00    -0.432 A  
HETATM   43 CL   UNL     1     -13.175  10.987  72.013  1.00  0.00    -0.564 Cl 
HETATM   44  C   UNL     1     -13.509   7.100  71.341  1.00  0.00    -0.374 A  
HETATM   45  C   UNL     1     -12.353   6.801  70.616  1.00  0.00    -0.231 A  
ENDBRANCH  35  38
ENDBRANCH  31  32
ENDBRANCH  30  31
ENDBRANCH  29  30
ENDBRANCH  28  29
ENDBRANCH  27  28
ENDBRANCH  24  27
ENDBRANCH  15  16
ENDBRANCH  14  15
ENDBRANCH  12  14
ENDBRANCH  11  12
ENDBRANCH  10  11
ENDBRANCH   9  10
ENDBRANCH   8   9
ENDBRANCH   7   8
ENDBRANCH   6   7
ENDBRANCH   5   6
ENDBRANCH   4   5
ENDBRANCH   3   4
ENDBRANCH   2   3
TORSDOF 20
ENDMDL
MODEL       38
REMARK 921   NORMALIZED FREE ENERGY PREDICTED BY IDOCK:   -4.96 KCAL/MOL
REMARK 922        TOTAL FREE ENERGY PREDICTED BY IDOCK:  -14.59 KCAL/MOL
REMARK 923 INTER-LIGAND FREE ENERGY PREDICTED BY IDOCK:  -11.40 KCAL/MOL
REMARK 924 INTRA-LIGAND FREE ENERGY PREDICTED BY IDOCK:   -3.19 KCAL/MOL
REMARK 927      BINDING AFFINITY PREDICTED BY RF-SCORE:    0.00 PKD
ROOT
HETATM    1  C   UNL     1      -7.665  15.394  68.975  1.00  0.00    -0.186 C  
HETATM    2  C   UNL     1      -7.156  16.808  69.205  1.00  0.00    -0.198 C  
ENDROOT
BRANCH   2   3
HETATM    3  C   UNL     1      -6.197  17.241  68.097  1.00  0.00    -0.147 C  
BRANCH   3   4
HETATM    4  C   UNL     1      -6.798  16.994  66.714  1.00  0.00    -0.265 C  
BRANCH   4   5
HETATM    5  C   UNL     1      -6.264  18.001  65.695  1.00  0.00    -0.252 C  
BRANCH   5   6
HETATM    6  C   UNL     1      -6.046  19.372  66.335  1.00  0.00    -0.175 C  
BRANCH   6   7
HETATM    7  C   UNL     1      -7.284  20.256  66.185  1.00  0.00    -0.291 C  
BRANCH   7   8
HETATM    8  C   UNL     1      -7.995  20.435  67.526  1.00  0.00    -0.329 C  
BRANCH   8   9
HETATM    9  C   UNL     1      -9.457  20.838  67.333  1.00  0.00    -0.451 C  
BRANCH   9  10
HETATM   10  C   UNL     1     -10.383  19.932  68.149  1.00  0.00    -0.533 C  
BRANCH  10  11
HETATM   11  C   UNL     1     -10.008  18.457  68.039  1.00  0.00    -0.374 C  
BRANCH  11  12
HETATM   12  C   UNL     1     -10.421  17.836  66.725  1.00  0.00    -0.300 C  
HETATM   13  O   UNL     1     -10.758  18.453  65.726  1.00  0.00    -0.482 OA 
BRANCH  12  14
HETATM   14  O   UNL     1     -10.336  16.482  66.828  1.00  0.00    -0.292 OA 
BRANCH  14  15
HETATM   15  C   UNL     1      -9.964  15.780  65.634  1.00  0.00    -0.345 C  
BRANCH  15  16
HETATM   16  N   UNL     1     -10.774  14.595  65.397  1.00  0.00    -0.343 N  
HETATM   17  C   UNL     1     -11.938  14.819  64.665  1.00  0.00    -0.440 C  
HETATM   18  C   UNL     1     -13.034  13.807  64.854  1.00  0.00    -0.118 C  
HETATM   19  O   UNL     1     -12.132  15.830  63.994  1.00  0.00    -0.612 OA 
HETATM   20  C   UNL     1     -12.530  12.388  64.781  1.00  0.00    -0.480 C  
HETATM   21  C   UNL     1     -11.246  12.196  65.534  1.00  0.00    -0.381 A  
HETATM   22  C   UNL     1     -10.886  10.895  65.918  1.00  0.00    -0.132 A  
HETATM   23  C   UNL     1      -9.657  10.640  66.525  1.00  0.00    -0.218 A  
HETATM   24  C   UNL     1      -8.764  11.686  66.725  1.00  0.00    -0.189 A  
HETATM   25  C   UNL     1      -9.127  12.987  66.354  1.00  0.00    -0.073 A  
HETATM   26  C   UNL     1     -10.377  13.273  65.778  1.00  0.00    -0.288 A  
BRANCH  24  27
HETATM   27  O   UNL     1      -7.529  11.566  67.305  1.00  0.00    -0.122 OA 
BRANCH  27  28
HETATM   28  C   UNL     1      -7.200  10.281  67.838  1.00  0.00    -0.085 C  
BRANCH  28  29
HETATM   29  C   UNL     1      -6.142   9.630  66.944  1.00  0.00    -0.063 C  
BRANCH  29  30
HETATM   30  C   UNL     1      -6.414   8.134  66.727  1.00  0.00    -0.056 C  
BRANCH  30  31
HETATM   31  C   UNL     1      -5.944   7.251  67.901  1.00  0.00    -0.034 C  
BRANCH  31  32
HETATM   32  N   UNL     1      -6.972   6.316  68.376  1.00  0.00    -0.077 NA 
HETATM   33  C   UNL     1      -7.209   6.390  69.832  1.00  0.00    -0.074 C  
HETATM   34  C   UNL     1      -7.999   7.638  70.270  1.00  0.00    -0.101 C  
HETATM   35  N   UNL     1      -9.337   7.590  69.658  1.00  0.00    -0.154 NA 
HETATM   36  C   UNL     1      -9.287   7.534  68.184  1.00  0.00    -0.136 C  
HETATM   37  C   UNL     1      -8.264   6.474  67.667  1.00  0.00    -0.122 C  
BRANCH  35  38
HETATM   38  C   UNL     1     -10.490   7.722  70.428  1.00  0.00    -0.221 A  
HETATM   39  C   UNL     1     -11.247   8.909  70.628  1.00  0.00    -0.266 A  
HETATM   40 CL   UNL     1     -10.708  10.458  70.030  1.00  0.00    -0.330 Cl 
HETATM   41  C   UNL     1     -12.427   8.894  71.412  1.00  0.00    -0.304 A  
HETATM   42  C   UNL     1     -12.853   7.730  72.053  1.00  0.00    -0.265 A  
HETATM   43 CL   UNL     1     -13.428  10.295  71.640  1.00  0.00    -0.398 Cl 
HETATM   44  C   UNL     1     -12.128   6.564  71.892  1.00  0.00    -0.388 A  
HETATM   45  C   UNL     1     -10.992   6.565  71.077  1.00  0.00    -0.314 A  
ENDBRANCH  35  38
ENDBRANCH  31  32
ENDBRANCH  30  31
ENDBRANCH  29  30
ENDBRANCH  28  29
ENDBRANCH  27  28
ENDBRANCH  24  27
ENDBRANCH  15  16
ENDBRANCH  14  15
ENDBRANCH  12  14
ENDBRANCH  11  12
ENDBRANCH  10  11
ENDBRANCH   9  10
ENDBRANCH   8   9
ENDBRANCH   7   8
ENDBRANCH   6   7
ENDBRANCH   5   6
ENDBRANCH   4   5
ENDBRANCH   3   4
ENDBRANCH   2   3
TORSDOF 20
ENDMDL
MODEL       39
REMARK 921   NORMALIZED FREE ENERGY PREDICTED BY IDOCK:   -4.96 KCAL/MOL
REMARK 922        TOTAL FREE ENERGY PREDICTED BY IDOCK:  -14.59 KCAL/MOL
REMARK 923 INTER-LIGAND FREE ENERGY PREDICTED BY IDOCK:  -10.61 KCAL/MOL
REMARK 924 INTRA-LIGAND FREE ENERGY PREDICTED BY IDOCK:   -3.98 KCAL/MOL
REMARK 927      BINDING AFFINITY PREDICTED BY RF-SCORE:    0.00 PKD
ROOT
HETATM    1  C   UNL     1     -10.876  15.701  64.999  1.00  0.00    -0.468 C  
HETATM    2  C   UNL     1      -9.889  15.016  65.930  1.00  0.00    -0.369 C  
ENDROOT
BRANCH   2   3
HETATM    3  C   UNL     1      -9.934  15.621  67.332  1.00  0.00    -0.232 C  
BRANCH   3   4
HETATM    4  C   UNL     1     -11.334  15.519  67.937  1.00  0.00    -0.309 C  
BRANCH   4   5
HETATM    5  C   UNL     1     -11.323  15.899  69.417  1.00  0.00    -0.349 C  
BRANCH   5   6
HETATM    6  C   UNL     1     -12.536  15.320  70.146  1.00  0.00    -0.374 C  
BRANCH   6   7
HETATM    7  C   UNL     1     -12.248  13.912  70.668  1.00  0.00    -0.443 C  
BRANCH   7   8
HETATM    8  C   UNL     1     -13.132  13.585  71.871  1.00  0.00    -0.475 C  
BRANCH   8   9
HETATM    9  C   UNL     1     -13.282  12.074  72.057  1.00  0.00    -0.481 C  
BRANCH   9  10
HETATM   10  C   UNL     1     -12.439  11.313  71.030  1.00  0.00    -0.503 C  
BRANCH  10  11
HETATM   11  C   UNL     1     -12.882   9.862  70.865  1.00  0.00    -0.360 C  
BRANCH  11  12
HETATM   12  C   UNL     1     -11.826   8.867  71.287  1.00  0.00    -0.310 C  
HETATM   13  O   UNL     1     -11.510   8.617  72.441  1.00  0.00    -0.363 OA 
BRANCH  12  14
HETATM   14  O   UNL     1     -11.302   8.279  70.178  1.00  0.00    -0.192 OA 
BRANCH  14  15
HETATM   15  C   UNL     1     -11.467   6.858  70.078  1.00  0.00    -0.277 C  
BRANCH  15  16
HETATM   16  N   UNL     1     -10.372   6.208  69.376  1.00  0.00    -0.205 N  
HETATM   17  C   UNL     1     -10.617   5.938  68.031  1.00  0.00    -0.252 C  
HETATM   18  C   UNL     1      -9.797   4.832  67.427  1.00  0.00    -0.214 C  
HETATM   19  O   UNL     1     -11.519   6.468  67.387  1.00  0.00    -0.181 OA 
HETATM   20  C   UNL     1      -8.333   4.943  67.770  1.00  0.00    -0.104 C  
HETATM   21  C   UNL     1      -8.108   5.289  69.214  1.00  0.00    -0.092 A  
HETATM   22  C   UNL     1      -6.853   5.010  69.778  1.00  0.00    -0.052 A  
HETATM   23  C   UNL     1      -6.550   5.404  71.080  1.00  0.00    -0.043 A  
HETATM   24  C   UNL     1      -7.492   6.110  71.818  1.00  0.00    -0.095 A  
HETATM   25  C   UNL     1      -8.750   6.377  71.260  1.00  0.00    -0.135 A  
HETATM   26  C   UNL     1      -9.092   5.953  69.965  1.00  0.00    -0.144 A  
BRANCH  24  27
HETATM   27  O   UNL     1      -7.316   6.554  73.102  1.00  0.00    -0.085 OA 
BRANCH  27  28
HETATM   28  C   UNL     1      -7.089   7.957  73.262  1.00  0.00    -0.098 C  
BRANCH  28  29
HETATM   29  C   UNL     1      -5.747   8.318  72.624  1.00  0.00    -0.051 C  
BRANCH  29  30
HETATM   30  C   UNL     1      -5.864   9.525  71.680  1.00  0.00    -0.027 C  
BRANCH  30  31
HETATM   31  C   UNL     1      -7.020   9.397  70.666  1.00  0.00    -0.115 C  
BRANCH  31  32
HETATM   32  N   UNL     1      -6.618   9.681  69.283  1.00  0.00    -0.047 NA 
HETATM   33  C   UNL     1      -7.290   8.824  68.285  1.00  0.00    -0.087 C  
HETATM   34  C   UNL     1      -8.765   9.196  68.040  1.00  0.00    -0.129 C  
HETATM   35  N   UNL     1      -8.824  10.560  67.487  1.00  0.00    -0.131 NA 
HETATM   36  C   UNL     1      -8.208  11.562  68.379  1.00  0.00    -0.152 C  
HETATM   37  C   UNL     1      -6.813  11.102  68.910  1.00  0.00    -0.086 C  
BRANCH  35  38
HETATM   38  C   UNL     1      -9.517  10.834  66.312  1.00  0.00    -0.181 A  
HETATM   39  C   UNL     1     -10.758  11.521  66.197  1.00  0.00    -0.274 A  
HETATM   40 CL   UNL     1     -11.685  11.989  67.599  1.00  0.00    -0.391 Cl 
HETATM   41  C   UNL     1     -11.337  11.765  64.927  1.00  0.00    -0.236 A  
HETATM   42  C   UNL     1     -10.738  11.294  63.758  1.00  0.00    -0.448 A  
HETATM   43 CL   UNL     1     -12.815  12.652  64.718  1.00  0.00    -0.479 Cl 
HETATM   44  C   UNL     1      -9.542  10.607  63.838  1.00  0.00    -0.356 A  
HETATM   45  C   UNL     1      -8.942  10.411  65.086  1.00  0.00    -0.217 A  
ENDBRANCH  35  38
ENDBRANCH  31  32
ENDBRANCH  30  31
ENDBRANCH  29  30
ENDBRANCH  28  29
ENDBRANCH  27  28
ENDBRANCH  24  27
ENDBRANCH  15  16
ENDBRANCH  14  15
ENDBRANCH  12  14
ENDBRANCH  11  12
ENDBRANCH  10  11
ENDBRANCH   9  10
ENDBRANCH   8   9
ENDBRANCH   7   8
ENDBRANCH   6   7
ENDBRANCH   5   6
ENDBRANCH   4   5
ENDBRANCH   3   4
ENDBRANCH   2   3
TORSDOF 20
ENDMDL
MODEL       40
REMARK 921   NORMALIZED FREE ENERGY PREDICTED BY IDOCK:   -4.94 KCAL/MOL
REMARK 922        TOTAL FREE ENERGY PREDICTED BY IDOCK:  -14.56 KCAL/MOL
REMARK 923 INTER-LIGAND FREE ENERGY PREDICTED BY IDOCK:  -10.56 KCAL/MOL
REMARK 924 INTRA-LIGAND FREE ENERGY PREDICTED BY IDOCK:   -4.01 KCAL/MOL
REMARK 927      BINDING AFFINITY PREDICTED BY RF-SCORE:    0.00 PKD
ROOT
HETATM    1  C   UNL     1      -8.174   5.729  64.309  1.00  0.00    -0.106 C  
HETATM    2  C   UNL     1      -6.857   5.421  65.002  1.00  0.00    -0.049 C  
ENDROOT
BRANCH   2   3
HETATM    3  C   UNL     1      -6.786   3.958  65.438  1.00  0.00    -0.053 C  
BRANCH   3   4
HETATM    4  C   UNL     1      -6.229   3.827  66.855  1.00  0.00    -0.028 C  
BRANCH   4   5
HETATM    5  C   UNL     1      -5.990   5.201  67.481  1.00  0.00    -0.022 C  
BRANCH   5   6
HETATM    6  C   UNL     1      -5.965   5.115  69.007  1.00  0.00    -0.021 C  
BRANCH   6   7
HETATM    7  C   UNL     1      -6.460   6.415  69.642  1.00  0.00    -0.043 C  
BRANCH   7   8
HETATM    8  C   UNL     1      -6.197   6.423  71.148  1.00  0.00    -0.040 C  
BRANCH   8   9
HETATM    9  C   UNL     1      -7.494   6.588  71.940  1.00  0.00    -0.092 C  
BRANCH   9  10
HETATM   10  C   UNL     1      -8.192   7.900  71.571  1.00  0.00    -0.122 C  
BRANCH  10  11
HETATM   11  C   UNL     1      -9.068   8.437  72.701  1.00  0.00    -0.311 C  
BRANCH  11  12
HETATM   12  C   UNL     1     -10.506   8.649  72.286  1.00  0.00    -0.306 C  
HETATM   13  O   UNL     1     -10.895   9.480  71.479  1.00  0.00    -0.355 OA 
BRANCH  12  14
HETATM   14  O   UNL     1     -11.292   7.750  72.937  1.00  0.00    -0.387 OA 
BRANCH  14  15
HETATM   15  C   UNL     1     -12.034   6.842  72.110  1.00  0.00    -0.267 C  
BRANCH  15  16
HETATM   16  N   UNL     1     -11.218   5.759  71.584  1.00  0.00    -0.234 N  
HETATM   17  C   UNL     1     -10.991   4.712  72.475  1.00  0.00    -0.057 C  
HETATM   18  C   UNL     1      -9.769   3.878  72.205  1.00  0.00    -0.225 C  
HETATM   19  O   UNL     1     -11.657   4.529  73.490  1.00  0.00    -0.278 OA 
HETATM   20  C   UNL     1      -9.646   3.484  70.755  1.00  0.00    -0.246 C  
HETATM   21  C   UNL     1      -9.951   4.621  69.824  1.00  0.00    -0.295 A  
HETATM   22  C   UNL     1      -9.477   4.548  68.505  1.00  0.00    -0.213 A  
HETATM   23  C   UNL     1      -9.817   5.522  67.567  1.00  0.00    -0.165 A  
HETATM   24  C   UNL     1     -10.663   6.560  67.935  1.00  0.00    -0.287 A  
HETATM   25  C   UNL     1     -11.127   6.641  69.255  1.00  0.00    -0.345 A  
HETATM   26  C   UNL     1     -10.763   5.694  70.228  1.00  0.00    -0.294 A  
BRANCH  24  27
HETATM   27  O   UNL     1     -11.074   7.573  67.108  1.00  0.00    -0.216 OA 
BRANCH  27  28
HETATM   28  C   UNL     1     -10.058   8.468  66.649  1.00  0.00    -0.294 C  
BRANCH  28  29
HETATM   29  C   UNL     1      -9.939   9.631  67.637  1.00  0.00    -0.218 C  
BRANCH  29  30
HETATM   30  C   UNL     1     -11.085  10.642  67.477  1.00  0.00    -0.367 C  
BRANCH  30  31
HETATM   31  C   UNL     1     -10.867  11.632  66.314  1.00  0.00    -0.286 C  
BRANCH  31  32
HETATM   32  N   UNL     1     -11.614  12.887  66.467  1.00  0.00    -0.351 NA 
HETATM   33  C   UNL     1     -11.145  13.719  67.594  1.00  0.00    -0.273 C  
HETATM   34  C   UNL     1      -9.805  14.431  67.324  1.00  0.00    -0.247 C  
HETATM   35  N   UNL     1      -9.982  15.362  66.197  1.00  0.00    -0.285 NA 
HETATM   36  C   UNL     1     -10.434  14.685  64.966  1.00  0.00    -0.421 C  
HETATM   37  C   UNL     1     -11.620  13.705  65.231  1.00  0.00    -0.320 C  
BRANCH  35  38
HETATM   38  C   UNL     1      -9.619  16.702  66.303  1.00  0.00    -0.299 A  
HETATM   39  C   UNL     1      -8.309  17.213  66.520  1.00  0.00    -0.274 A  
HETATM   40 CL   UNL     1      -6.954  16.165  66.852  1.00  0.00    -0.231 Cl 
HETATM   41  C   UNL     1      -8.074  18.609  66.570  1.00  0.00    -0.284 A  
HETATM   42  C   UNL     1      -9.124  19.522  66.462  1.00  0.00    -0.416 A  
HETATM   43 CL   UNL     1      -6.490  19.294  66.767  1.00  0.00    -0.188 Cl 
HETATM   44  C   UNL     1     -10.411  19.056  66.270  1.00  0.00    -0.530 A  
HETATM   45  C   UNL     1     -10.637  17.680  66.168  1.00  0.00    -0.220 A  
ENDBRANCH  35  38
ENDBRANCH  31  32
ENDBRANCH  30  31
ENDBRANCH  29  30
ENDBRANCH  28  29
ENDBRANCH  27  28
ENDBRANCH  24  27
ENDBRANCH  15  16
ENDBRANCH  14  15
ENDBRANCH  12  14
ENDBRANCH  11  12
ENDBRANCH  10  11
ENDBRANCH   9  10
ENDBRANCH   8   9
ENDBRANCH   7   8
ENDBRANCH   6   7
ENDBRANCH   5   6
ENDBRANCH   4   5
ENDBRANCH   3   4
ENDBRANCH   2   3
TORSDOF 20
ENDMDL
MODEL       41
REMARK 921   NORMALIZED FREE ENERGY PREDICTED BY IDOCK:   -4.90 KCAL/MOL
REMARK 922        TOTAL FREE ENERGY PREDICTED BY IDOCK:  -14.48 KCAL/MOL
REMARK 923 INTER-LIGAND FREE ENERGY PREDICTED BY IDOCK:  -12.01 KCAL/MOL
REMARK 924 INTRA-LIGAND FREE ENERGY PREDICTED BY IDOCK:   -2.47 KCAL/MOL
REMARK 927      BINDING AFFINITY PREDICTED BY RF-SCORE:    0.00 PKD
ROOT
HETATM    1  C   UNL     1     -13.771  15.711  72.676  1.00  0.00    -0.666 C  
HETATM    2  C   UNL     1     -13.215  15.449  71.286  1.00  0.00    -0.585 C  
ENDROOT
BRANCH   2   3
HETATM    3  C   UNL     1     -11.697  15.283  71.316  1.00  0.00    -0.425 C  
BRANCH   3   4
HETATM    4  C   UNL     1     -11.033  16.027  70.159  1.00  0.00    -0.369 C  
BRANCH   4   5
HETATM    5  C   UNL     1     -10.136  15.093  69.346  1.00  0.00    -0.245 C  
BRANCH   5   6
HETATM    6  C   UNL     1      -8.667  15.262  69.734  1.00  0.00     0.009 C  
BRANCH   6   7
HETATM    7  C   UNL     1      -7.916  16.106  68.704  1.00  0.00    -0.201 C  
BRANCH   7   8
HETATM    8  C   UNL     1      -7.773  17.551  69.180  1.00  0.00    -0.042 C  
BRANCH   8   9
HETATM    9  C   UNL     1      -7.681  18.520  68.001  1.00  0.00    -0.281 C  
BRANCH   9  10
HETATM   10  C   UNL     1      -8.774  19.590  68.089  1.00  0.00    -0.368 C  
BRANCH  10  11
HETATM   11  C   UNL     1     -10.180  18.996  68.073  1.00  0.00    -0.476 C  
BRANCH  11  12
HETATM   12  C   UNL     1     -10.563  18.416  66.731  1.00  0.00    -0.333 C  
HETATM   13  O   UNL     1     -10.713  19.055  65.700  1.00  0.00    -0.504 OA 
BRANCH  12  14
HETATM   14  O   UNL     1     -10.691  17.067  66.851  1.00  0.00    -0.250 OA 
BRANCH  14  15
HETATM   15  C   UNL     1      -9.864  16.274  65.989  1.00  0.00    -0.343 C  
BRANCH  15  16
HETATM   16  N   UNL     1     -10.577  15.158  65.387  1.00  0.00    -0.359 N  
HETATM   17  C   UNL     1     -11.518  15.518  64.423  1.00  0.00    -0.259 C  
HETATM   18  C   UNL     1     -12.617  14.521  64.181  1.00  0.00    -0.048 C  
HETATM   19  O   UNL     1     -11.543  16.618  63.878  1.00  0.00    -1.204 OA 
HETATM   20  C   UNL     1     -12.100  13.112  64.034  1.00  0.00    -0.511 C  
HETATM   21  C   UNL     1     -11.049  12.779  65.053  1.00  0.00    -0.317 A  
HETATM   22  C   UNL     1     -10.788  11.427  65.324  1.00  0.00    -0.297 A  
HETATM   23  C   UNL     1      -9.753  11.054  66.180  1.00  0.00    -0.257 A  
HETATM   24  C   UNL     1      -8.948  12.034  66.747  1.00  0.00    -0.198 A  
HETATM   25  C   UNL     1      -9.216  13.385  66.487  1.00  0.00    -0.182 A  
HETATM   26  C   UNL     1     -10.279  13.785  65.661  1.00  0.00    -0.313 A  
BRANCH  24  27
HETATM   27  O   UNL     1      -7.901  11.799  67.598  1.00  0.00    -0.123 OA 
BRANCH  27  28
HETATM   28  C   UNL     1      -8.224  11.692  68.987  1.00  0.00     0.114 C  
BRANCH  28  29
HETATM   29  C   UNL     1      -8.468  10.220  69.327  1.00  0.00    -0.172 C  
BRANCH  29  30
HETATM   30  C   UNL     1      -9.788  10.016  70.087  1.00  0.00    -0.205 C  
BRANCH  30  31
HETATM   31  C   UNL     1     -10.065   8.542  70.444  1.00  0.00    -0.189 C  
BRANCH  31  32
HETATM   32  N   UNL     1     -10.676   7.780  69.347  1.00  0.00    -0.208 NA 
HETATM   33  C   UNL     1      -9.744   7.493  68.237  1.00  0.00    -0.155 C  
HETATM   34  C   UNL     1      -8.713   6.395  68.561  1.00  0.00    -0.121 C  
HETATM   35  N   UNL     1      -9.429   5.131  68.807  1.00  0.00    -0.125 NA 
HETATM   36  C   UNL     1     -10.399   5.234  69.915  1.00  0.00    -0.304 C  
HETATM   37  C   UNL     1     -11.291   6.511  69.803  1.00  0.00    -0.393 C  
BRANCH  35  38
HETATM   38  C   UNL     1      -9.090   3.964  68.129  1.00  0.00    -0.142 A  
HETATM   39  C   UNL     1      -9.423   3.634  66.786  1.00  0.00    -0.179 A  
HETATM   40 CL   UNL     1     -10.484   4.635  65.828  1.00  0.00    -0.318 Cl 
HETATM   41  C   UNL     1      -8.980   2.420  66.205  1.00  0.00    -0.114 A  
HETATM   42  C   UNL     1      -8.250   1.490  66.946  1.00  0.00    -0.077 A  
HETATM   43 CL   UNL     1      -9.300   1.991  64.553  1.00  0.00    -0.132 Cl 
HETATM   44  C   UNL     1      -7.927   1.773  68.260  1.00  0.00    -0.062 A  
HETATM   45  C   UNL     1      -8.319   2.993  68.818  1.00  0.00    -0.086 A  
ENDBRANCH  35  38
ENDBRANCH  31  32
ENDBRANCH  30  31
ENDBRANCH  29  30
ENDBRANCH  28  29
ENDBRANCH  27  28
ENDBRANCH  24  27
ENDBRANCH  15  16
ENDBRANCH  14  15
ENDBRANCH  12  14
ENDBRANCH  11  12
ENDBRANCH  10  11
ENDBRANCH   9  10
ENDBRANCH   8   9
ENDBRANCH   7   8
ENDBRANCH   6   7
ENDBRANCH   5   6
ENDBRANCH   4   5
ENDBRANCH   3   4
ENDBRANCH   2   3
TORSDOF 20
ENDMDL
MODEL       42
REMARK 921   NORMALIZED FREE ENERGY PREDICTED BY IDOCK:   -4.90 KCAL/MOL
REMARK 922        TOTAL FREE ENERGY PREDICTED BY IDOCK:  -14.47 KCAL/MOL
REMARK 923 INTER-LIGAND FREE ENERGY PREDICTED BY IDOCK:  -10.49 KCAL/MOL
REMARK 924 INTRA-LIGAND FREE ENERGY PREDICTED BY IDOCK:   -3.98 KCAL/MOL
REMARK 927      BINDING AFFINITY PREDICTED BY RF-SCORE:    0.00 PKD
ROOT
HETATM    1  C   UNL     1     -10.861  18.401  68.116  1.00  0.00    -0.081 C  
HETATM    2  C   UNL     1     -10.616  19.076  66.777  1.00  0.00    -0.508 C  
ENDROOT
BRANCH   2   3
HETATM    3  C   UNL     1      -9.346  19.927  66.807  1.00  0.00    -0.494 C  
BRANCH   3   4
HETATM    4  C   UNL     1      -8.101  19.075  66.567  1.00  0.00    -0.300 C  
BRANCH   4   5
HETATM    5  C   UNL     1      -7.223  19.020  67.817  1.00  0.00    -0.258 C  
BRANCH   5   6
HETATM    6  C   UNL     1      -7.154  17.601  68.381  1.00  0.00    -0.236 C  
BRANCH   6   7
HETATM    7  C   UNL     1      -7.264  16.557  67.269  1.00  0.00    -0.202 C  
BRANCH   7   8
HETATM    8  C   UNL     1      -8.480  15.657  67.484  1.00  0.00    -0.182 C  
BRANCH   8   9
HETATM    9  C   UNL     1      -9.128  15.270  66.154  1.00  0.00    -0.314 C  
BRANCH   9  10
HETATM   10  C   UNL     1     -10.632  15.560  66.177  1.00  0.00    -0.321 C  
BRANCH  10  11
HETATM   11  C   UNL     1     -11.288  15.369  64.812  1.00  0.00    -0.381 C  
BRANCH  11  12
HETATM   12  C   UNL     1     -12.123  14.113  64.727  1.00  0.00    -0.441 C  
HETATM   13  O   UNL     1     -13.318  14.039  64.972  1.00  0.00    -0.578 OA 
BRANCH  12  14
HETATM   14  O   UNL     1     -11.337  13.084  64.309  1.00  0.00    -0.341 OA 
BRANCH  14  15
HETATM   15  C   UNL     1     -11.489  11.845  65.014  1.00  0.00    -0.244 C  
BRANCH  15  16
HETATM   16  N   UNL     1     -10.498  11.663  66.064  1.00  0.00    -0.243 N  
HETATM   17  C   UNL     1     -10.921  12.038  67.338  1.00  0.00    -0.261 C  
HETATM   18  C   UNL     1      -9.829  12.383  68.312  1.00  0.00    -0.224 C  
HETATM   19  O   UNL     1     -12.100  12.200  67.640  1.00  0.00    -0.522 OA 
HETATM   20  C   UNL     1      -8.711  11.371  68.312  1.00  0.00    -0.160 C  
HETATM   21  C   UNL     1      -8.321  10.949  66.925  1.00  0.00    -0.133 A  
HETATM   22  C   UNL     1      -7.056  10.369  66.737  1.00  0.00    -0.105 A  
HETATM   23  C   UNL     1      -6.679   9.863  65.494  1.00  0.00    -0.094 A  
HETATM   24  C   UNL     1      -7.579   9.904  64.437  1.00  0.00    -0.143 A  
HETATM   25  C   UNL     1      -8.837  10.494  64.621  1.00  0.00    -0.211 A  
HETATM   26  C   UNL     1      -9.223  11.049  65.853  1.00  0.00    -0.199 A  
BRANCH  24  27
HETATM   27  O   UNL     1      -7.332   9.438  63.173  1.00  0.00    -0.105 OA 
BRANCH  27  28
HETATM   28  C   UNL     1      -6.802   8.113  63.077  1.00  0.00    -0.086 C  
BRANCH  28  29
HETATM   29  C   UNL     1      -7.904   7.112  63.429  1.00  0.00    -0.104 C  
BRANCH  29  30
HETATM   30  C   UNL     1      -7.466   6.137  64.532  1.00  0.00    -0.083 C  
BRANCH  30  31
HETATM   31  C   UNL     1      -8.625   5.683  65.442  1.00  0.00    -0.150 C  
BRANCH  31  32
HETATM   32  N   UNL     1      -8.198   5.334  66.803  1.00  0.00    -0.108 NA 
HETATM   33  C   UNL     1      -7.782   6.500  67.608  1.00  0.00    -0.106 C  
HETATM   34  C   UNL     1      -8.958   7.372  68.092  1.00  0.00    -0.129 C  
HETATM   35  N   UNL     1      -9.810   6.565  68.982  1.00  0.00    -0.141 NA 
HETATM   36  C   UNL     1     -10.337   5.355  68.322  1.00  0.00    -0.146 C  
HETATM   37  C   UNL     1      -9.228   4.573  67.549  1.00  0.00    -0.137 C  
BRANCH  35  38
HETATM   38  C   UNL     1     -10.155   7.014  70.253  1.00  0.00    -0.187 A  
HETATM   39  C   UNL     1      -9.289   7.145  71.374  1.00  0.00    -0.154 A  
HETATM   40 CL   UNL     1      -7.637   6.583  71.331  1.00  0.00    -0.092 Cl 
HETATM   41  C   UNL     1      -9.768   7.652  72.607  1.00  0.00    -0.196 A  
HETATM   42  C   UNL     1     -11.111   7.987  72.776  1.00  0.00    -0.448 A  
HETATM   43 CL   UNL     1      -8.745   7.895  73.989  1.00  0.00    -0.325 Cl 
HETATM   44  C   UNL     1     -11.983   7.853  71.712  1.00  0.00    -0.337 A  
HETATM   45  C   UNL     1     -11.501   7.402  70.480  1.00  0.00    -0.281 A  
ENDBRANCH  35  38
ENDBRANCH  31  32
ENDBRANCH  30  31
ENDBRANCH  29  30
ENDBRANCH  28  29
ENDBRANCH  27  28
ENDBRANCH  24  27
ENDBRANCH  15  16
ENDBRANCH  14  15
ENDBRANCH  12  14
ENDBRANCH  11  12
ENDBRANCH  10  11
ENDBRANCH   9  10
ENDBRANCH   8   9
ENDBRANCH   7   8
ENDBRANCH   6   7
ENDBRANCH   5   6
ENDBRANCH   4   5
ENDBRANCH   3   4
ENDBRANCH   2   3
TORSDOF 20
ENDMDL
MODEL       43
REMARK 921   NORMALIZED FREE ENERGY PREDICTED BY IDOCK:   -4.85 KCAL/MOL
REMARK 922        TOTAL FREE ENERGY PREDICTED BY IDOCK:  -14.36 KCAL/MOL
REMARK 923 INTER-LIGAND FREE ENERGY PREDICTED BY IDOCK:  -10.65 KCAL/MOL
REMARK 924 INTRA-LIGAND FREE ENERGY PREDICTED BY IDOCK:   -3.71 KCAL/MOL
REMARK 927      BINDING AFFINITY PREDICTED BY RF-SCORE:    0.00 PKD
ROOT
HETATM    1  C   UNL     1     -10.533  19.464  67.938  1.00  0.00    -0.536 C  
HETATM    2  C   UNL     1     -10.218  19.717  66.473  1.00  0.00    -0.606 C  
ENDROOT
BRANCH   2   3
HETATM    3  C   UNL     1      -8.719  19.604  66.199  1.00  0.00    -0.361 C  
BRANCH   3   4
HETATM    4  C   UNL     1      -8.064  18.566  67.110  1.00  0.00    -0.248 C  
BRANCH   4   5
HETATM    5  C   UNL     1      -7.874  17.236  66.381  1.00  0.00    -0.345 C  
BRANCH   5   6
HETATM    6  C   UNL     1      -8.070  16.053  67.329  1.00  0.00    -0.205 C  
BRANCH   6   7
HETATM    7  C   UNL     1      -9.197  15.139  66.849  1.00  0.00    -0.259 C  
BRANCH   7   8
HETATM    8  C   UNL     1     -10.547  15.851  66.923  1.00  0.00    -0.309 C  
BRANCH   8   9
HETATM    9  C   UNL     1     -11.278  15.525  68.226  1.00  0.00    -0.343 C  
BRANCH   9  10
HETATM   10  C   UNL     1     -10.785  14.197  68.808  1.00  0.00    -0.265 C  
BRANCH  10  11
HETATM   11  C   UNL     1     -11.811  13.076  68.666  1.00  0.00    -0.353 C  
BRANCH  11  12
HETATM   12  C   UNL     1     -11.630  12.263  67.406  1.00  0.00    -0.355 C  
HETATM   13  O   UNL     1     -12.033  12.577  66.296  1.00  0.00    -0.508 OA 
BRANCH  12  14
HETATM   14  O   UNL     1     -10.925  11.137  67.702  1.00  0.00    -0.230 OA 
BRANCH  14  15
HETATM   15  C   UNL     1      -9.497  11.245  67.618  1.00  0.00    -0.167 C  
BRANCH  15  16
HETATM   16  N   UNL     1      -8.855   9.997  67.235  1.00  0.00    -0.134 N  
HETATM   17  C   UNL     1      -8.755   9.789  65.860  1.00  0.00    -0.139 C  
HETATM   18  C   UNL     1      -8.619   8.356  65.425  1.00  0.00    -0.193 C  
HETATM   19  O   UNL     1      -8.885  10.684  65.028  1.00  0.00    -0.192 OA 
HETATM   20  C   UNL     1      -7.596   7.600  66.233  1.00  0.00    -0.088 C  
HETATM   21  C   UNL     1      -7.698   7.891  67.703  1.00  0.00    -0.117 A  
HETATM   22  C   UNL     1      -7.133   6.975  68.604  1.00  0.00    -0.092 A  
HETATM   23  C   UNL     1      -7.103   7.242  69.972  1.00  0.00    -0.066 A  
HETATM   24  C   UNL     1      -7.611   8.445  70.445  1.00  0.00    -0.072 A  
HETATM   25  C   UNL     1      -8.187   9.354  69.547  1.00  0.00    -0.124 A  
HETATM   26  C   UNL     1      -8.265   9.088  68.170  1.00  0.00    -0.113 A  
BRANCH  24  27
HETATM   27  O   UNL     1      -7.637   8.826  71.761  1.00  0.00    -0.220 OA 
BRANCH  27  28
HETATM   28  C   UNL     1      -8.896   8.713  72.429  1.00  0.00    -0.111 C  
BRANCH  28  29
HETATM   29  C   UNL     1      -8.755   7.720  73.585  1.00  0.00    -0.308 C  
BRANCH  29  30
HETATM   30  C   UNL     1     -10.101   7.083  73.964  1.00  0.00    -0.355 C  
BRANCH  30  31
HETATM   31  C   UNL     1     -11.281   7.599  73.115  1.00  0.00    -0.256 C  
BRANCH  31  32
HETATM   32  N   UNL     1     -11.924   6.552  72.311  1.00  0.00    -0.270 NA 
HETATM   33  C   UNL     1     -12.231   6.974  70.929  1.00  0.00    -0.342 C  
HETATM   34  C   UNL     1     -10.992   7.056  70.015  1.00  0.00    -0.270 C  
HETATM   35  N   UNL     1     -10.405   5.711  69.893  1.00  0.00    -0.251 NA 
HETATM   36  C   UNL     1     -10.016   5.139  71.197  1.00  0.00    -0.206 C  
HETATM   37  C   UNL     1     -11.139   5.296  72.270  1.00  0.00    -0.153 C  
BRANCH  35  38
HETATM   38  C   UNL     1     -10.147   5.146  68.647  1.00  0.00    -0.150 A  
HETATM   39  C   UNL     1      -9.408   3.958  68.389  1.00  0.00    -0.163 A  
HETATM   40 CL   UNL     1      -8.561   3.107  69.656  1.00  0.00    -0.102 Cl 
HETATM   41  C   UNL     1      -9.251   3.473  67.067  1.00  0.00    -0.190 A  
HETATM   42  C   UNL     1      -9.769   4.172  65.976  1.00  0.00    -0.212 A  
HETATM   43 CL   UNL     1      -8.416   1.996  66.695  1.00  0.00    -0.094 Cl 
HETATM   44  C   UNL     1     -10.476   5.339  66.193  1.00  0.00    -0.259 A  
HETATM   45  C   UNL     1     -10.676   5.791  67.500  1.00  0.00    -0.320 A  
ENDBRANCH  35  38
ENDBRANCH  31  32
ENDBRANCH  30  31
ENDBRANCH  29  30
ENDBRANCH  28  29
ENDBRANCH  27  28
ENDBRANCH  24  27
ENDBRANCH  15  16
ENDBRANCH  14  15
ENDBRANCH  12  14
ENDBRANCH  11  12
ENDBRANCH  10  11
ENDBRANCH   9  10
ENDBRANCH   8   9
ENDBRANCH   7   8
ENDBRANCH   6   7
ENDBRANCH   5   6
ENDBRANCH   4   5
ENDBRANCH   3   4
ENDBRANCH   2   3
TORSDOF 20
ENDMDL
MODEL       44
REMARK 921   NORMALIZED FREE ENERGY PREDICTED BY IDOCK:   -4.81 KCAL/MOL
REMARK 922        TOTAL FREE ENERGY PREDICTED BY IDOCK:  -14.27 KCAL/MOL
REMARK 923 INTER-LIGAND FREE ENERGY PREDICTED BY IDOCK:  -11.83 KCAL/MOL
REMARK 924 INTRA-LIGAND FREE ENERGY PREDICTED BY IDOCK:   -2.44 KCAL/MOL
REMARK 927      BINDING AFFINITY PREDICTED BY RF-SCORE:    0.00 PKD
ROOT
HETATM    1  C   UNL     1     -10.412   8.373  72.340  1.00  0.00    -0.402 C  
HETATM    2  C   UNL     1     -10.639   7.145  73.207  1.00  0.00    -0.405 C  
ENDROOT
BRANCH   2   3
HETATM    3  C   UNL     1     -11.665   6.202  72.578  1.00  0.00    -0.259 C  
BRANCH   3   4
HETATM    4  C   UNL     1     -11.535   4.786  73.138  1.00  0.00    -0.348 C  
BRANCH   4   5
HETATM    5  C   UNL     1     -10.257   4.637  73.964  1.00  0.00    -0.256 C  
BRANCH   5   6
HETATM    6  C   UNL     1      -9.404   3.475  73.456  1.00  0.00    -0.120 C  
BRANCH   6   7
HETATM    7  C   UNL     1      -8.602   3.876  72.217  1.00  0.00    -0.112 C  
BRANCH   7   8
HETATM    8  C   UNL     1      -8.920   2.956  71.039  1.00  0.00    -0.162 C  
BRANCH   8   9
HETATM    9  C   UNL     1      -8.860   3.711  69.710  1.00  0.00    -0.152 C  
BRANCH   9  10
HETATM   10  C   UNL     1     -10.053   4.661  69.570  1.00  0.00    -0.212 C  
BRANCH  10  11
HETATM   11  C   UNL     1      -9.632   6.125  69.476  1.00  0.00    -0.165 C  
BRANCH  11  12
HETATM   12  C   UNL     1     -10.188   6.825  68.258  1.00  0.00    -0.175 C  
HETATM   13  O   UNL     1     -11.162   6.462  67.616  1.00  0.00    -0.337 OA 
BRANCH  12  14
HETATM   14  O   UNL     1      -9.443   7.936  68.006  1.00  0.00    -0.147 OA 
BRANCH  14  15
HETATM   15  C   UNL     1      -8.040   7.723  67.802  1.00  0.00    -0.125 C  
BRANCH  15  16
HETATM   16  N   UNL     1      -7.718   7.329  66.439  1.00  0.00    -0.091 N  
HETATM   17  C   UNL     1      -7.078   6.096  66.323  1.00  0.00    -0.068 C  
HETATM   18  C   UNL     1      -6.266   5.897  65.074  1.00  0.00    -0.036 C  
HETATM   19  O   UNL     1      -7.063   5.254  67.217  1.00  0.00    -0.067 OA 
HETATM   20  C   UNL     1      -7.003   6.322  63.829  1.00  0.00    -0.043 C  
HETATM   21  C   UNL     1      -7.725   7.626  64.009  1.00  0.00    -0.126 A  
HETATM   22  C   UNL     1      -8.084   8.352  62.863  1.00  0.00    -0.170 A  
HETATM   23  C   UNL     1      -8.847   9.515  62.961  1.00  0.00    -0.242 A  
HETATM   24  C   UNL     1      -9.285   9.942  64.208  1.00  0.00    -0.265 A  
HETATM   25  C   UNL     1      -8.916   9.225  65.354  1.00  0.00    -0.253 A  
HETATM   26  C   UNL     1      -8.114   8.074  65.283  1.00  0.00    -0.138 A  
BRANCH  24  27
HETATM   27  O   UNL     1     -10.041  11.062  64.437  1.00  0.00    -0.280 OA 
BRANCH  27  28
HETATM   28  C   UNL     1     -10.552  11.729  63.281  1.00  0.00    -0.368 C  
BRANCH  28  29
HETATM   29  C   UNL     1     -12.039  12.020  63.493  1.00  0.00    -0.628 C  
BRANCH  29  30
HETATM   30  C   UNL     1     -12.269  13.391  64.148  1.00  0.00    -0.457 C  
BRANCH  30  31
HETATM   31  C   UNL     1     -12.329  13.330  65.687  1.00  0.00    -0.465 C  
BRANCH  31  32
HETATM   32  N   UNL     1     -11.048  13.642  66.335  1.00  0.00    -0.301 NA 
HETATM   33  C   UNL     1     -10.178  14.521  65.528  1.00  0.00    -0.370 C  
HETATM   34  C   UNL     1     -10.637  15.992  65.498  1.00  0.00    -0.398 C  
HETATM   35  N   UNL     1     -10.579  16.534  66.866  1.00  0.00    -0.279 NA 
HETATM   36  C   UNL     1     -11.421  15.777  67.813  1.00  0.00    -0.175 C  
HETATM   37  C   UNL     1     -11.217  14.234  67.683  1.00  0.00    -0.304 C  
BRANCH  35  38
HETATM   38  C   UNL     1      -9.895  17.713  67.148  1.00  0.00    -0.306 A  
HETATM   39  C   UNL     1      -8.789  17.864  68.030  1.00  0.00    -0.268 A  
HETATM   40 CL   UNL     1      -8.226  16.553  69.034  1.00  0.00    -0.232 Cl 
HETATM   41  C   UNL     1      -8.162  19.123  68.197  1.00  0.00    -0.318 A  
HETATM   42  C   UNL     1      -8.640  20.261  67.546  1.00  0.00    -0.389 A  
HETATM   43 CL   UNL     1      -6.769  19.357  69.209  1.00  0.00    -0.361 Cl 
HETATM   44  C   UNL     1      -9.725  20.149  66.698  1.00  0.00    -0.568 A  
HETATM   45  C   UNL     1     -10.313  18.898  66.491  1.00  0.00    -0.493 A  
ENDBRANCH  35  38
ENDBRANCH  31  32
ENDBRANCH  30  31
ENDBRANCH  29  30
ENDBRANCH  28  29
ENDBRANCH  27  28
ENDBRANCH  24  27
ENDBRANCH  15  16
ENDBRANCH  14  15
ENDBRANCH  12  14
ENDBRANCH  11  12
ENDBRANCH  10  11
ENDBRANCH   9  10
ENDBRANCH   8   9
ENDBRANCH   7   8
ENDBRANCH   6   7
ENDBRANCH   5   6
ENDBRANCH   4   5
ENDBRANCH   3   4
ENDBRANCH   2   3
TORSDOF 20
ENDMDL
MODEL       45
REMARK 921   NORMALIZED FREE ENERGY PREDICTED BY IDOCK:   -4.75 KCAL/MOL
REMARK 922        TOTAL FREE ENERGY PREDICTED BY IDOCK:  -14.16 KCAL/MOL
REMARK 923 INTER-LIGAND FREE ENERGY PREDICTED BY IDOCK:  -10.50 KCAL/MOL
REMARK 924 INTRA-LIGAND FREE ENERGY PREDICTED BY IDOCK:   -3.66 KCAL/MOL
REMARK 927      BINDING AFFINITY PREDICTED BY RF-SCORE:    0.00 PKD
ROOT
HETATM    1  C   UNL     1     -11.091   4.723  73.163  1.00  0.00    -0.388 C  
HETATM    2  C   UNL     1     -10.515   6.127  73.259  1.00  0.00    -0.261 C  
ENDROOT
BRANCH   2   3
HETATM    3  C   UNL     1     -10.781   6.925  71.983  1.00  0.00    -0.244 C  
BRANCH   3   4
HETATM    4  C   UNL     1     -11.120   8.382  72.299  1.00  0.00    -0.438 C  
BRANCH   4   5
HETATM    5  C   UNL     1     -10.441   9.331  71.312  1.00  0.00    -0.408 C  
BRANCH   5   6
HETATM    6  C   UNL     1     -10.196   8.647  69.967  1.00  0.00    -0.201 C  
BRANCH   6   7
HETATM    7  C   UNL     1      -9.114   9.372  69.167  1.00  0.00    -0.148 C  
BRANCH   7   8
HETATM    8  C   UNL     1      -8.120   8.378  68.567  1.00  0.00    -0.123 C  
BRANCH   8   9
HETATM    9  C   UNL     1      -8.036   7.101  69.404  1.00  0.00    -0.125 C  
BRANCH   9  10
HETATM   10  C   UNL     1      -8.261   5.863  68.531  1.00  0.00    -0.109 C  
BRANCH  10  11
HETATM   11  C   UNL     1      -9.659   5.272  68.698  1.00  0.00    -0.183 C  
BRANCH  11  12
HETATM   12  C   UNL     1     -10.536   5.471  67.484  1.00  0.00    -0.204 C  
HETATM   13  O   UNL     1     -11.154   6.491  67.217  1.00  0.00    -0.378 OA 
BRANCH  12  14
HETATM   14  O   UNL     1     -10.506   4.343  66.725  1.00  0.00    -0.080 OA 
BRANCH  14  15
HETATM   15  C   UNL     1     -10.217   4.525  65.332  1.00  0.00    -0.202 C  
BRANCH  15  16
HETATM   16  N   UNL     1      -8.823   4.269  65.003  1.00  0.00    -0.130 N  
HETATM   17  C   UNL     1      -8.532   2.945  64.682  1.00  0.00    -0.091 C  
HETATM   18  C   UNL     1      -7.099   2.528  64.868  1.00  0.00    -0.053 C  
HETATM   19  O   UNL     1      -9.387   2.117  64.379  1.00  0.00    -0.127 OA 
HETATM   20  C   UNL     1      -6.126   3.526  64.291  1.00  0.00    -0.022 C  
HETATM   21  C   UNL     1      -6.503   4.944  64.610  1.00  0.00    -0.039 A  
HETATM   22  C   UNL     1      -5.509   5.932  64.527  1.00  0.00    -0.017 A  
HETATM   23  C   UNL     1      -5.821   7.278  64.708  1.00  0.00    -0.037 A  
HETATM   24  C   UNL     1      -7.139   7.649  64.944  1.00  0.00    -0.063 A  
HETATM   25  C   UNL     1      -8.129   6.662  65.040  1.00  0.00    -0.124 A  
HETATM   26  C   UNL     1      -7.831   5.296  64.902  1.00  0.00    -0.095 A  
BRANCH  24  27
HETATM   27  O   UNL     1      -7.574   8.934  65.134  1.00  0.00    -0.094 OA 
BRANCH  27  28
HETATM   28  C   UNL     1      -8.533   9.426  64.195  1.00  0.00    -0.190 C  
BRANCH  28  29
HETATM   29  C   UNL     1      -9.735   9.984  64.959  1.00  0.00    -0.386 C  
BRANCH  29  30
HETATM   30  C   UNL     1     -10.084  11.413  64.519  1.00  0.00    -0.337 C  
BRANCH  30  31
HETATM   31  C   UNL     1      -9.552  12.495  65.480  1.00  0.00    -0.043 C  
BRANCH  31  32
HETATM   32  N   UNL     1     -10.591  13.419  65.954  1.00  0.00    -0.279 NA 
HETATM   33  C   UNL     1     -11.816  12.738  66.423  1.00  0.00    -0.408 C  
HETATM   34  C   UNL     1     -11.659  12.051  67.793  1.00  0.00    -0.330 C  
HETATM   35  N   UNL     1     -11.370  13.078  68.807  1.00  0.00    -0.270 NA 
HETATM   36  C   UNL     1     -10.149  13.849  68.504  1.00  0.00    -0.234 C  
HETATM   37  C   UNL     1     -10.107  14.329  67.018  1.00  0.00    -0.260 C  
BRANCH  35  38
HETATM   38  C   UNL     1     -12.124  13.175  69.973  1.00  0.00    -0.305 A  
HETATM   39  C   UNL     1     -12.683  14.360  70.528  1.00  0.00    -0.340 A  
HETATM   40 CL   UNL     1     -12.340  15.938  69.866  1.00  0.00    -0.227 Cl 
HETATM   41  C   UNL     1     -13.465  14.310  71.708  1.00  0.00    -0.381 A  
HETATM   42  C   UNL     1     -13.667  13.109  72.390  1.00  0.00    -0.640 A  
HETATM   43 CL   UNL     1     -14.226  15.711  72.398  1.00  0.00    -0.613 Cl 
HETATM   44  C   UNL     1     -13.122  11.944  71.886  1.00  0.00    -0.474 A  
HETATM   45  C   UNL     1     -12.394  11.983  70.694  1.00  0.00    -0.394 A  
ENDBRANCH  35  38
ENDBRANCH  31  32
ENDBRANCH  30  31
ENDBRANCH  29  30
ENDBRANCH  28  29
ENDBRANCH  27  28
ENDBRANCH  24  27
ENDBRANCH  15  16
ENDBRANCH  14  15
ENDBRANCH  12  14
ENDBRANCH  11  12
ENDBRANCH  10  11
ENDBRANCH   9  10
ENDBRANCH   8   9
ENDBRANCH   7   8
ENDBRANCH   6   7
ENDBRANCH   5   6
ENDBRANCH   4   5
ENDBRANCH   3   4
ENDBRANCH   2   3
TORSDOF 20
ENDMDL
MODEL       46
REMARK 921   NORMALIZED FREE ENERGY PREDICTED BY IDOCK:   -4.75 KCAL/MOL
REMARK 922        TOTAL FREE ENERGY PREDICTED BY IDOCK:  -14.15 KCAL/MOL
REMARK 923 INTER-LIGAND FREE ENERGY PREDICTED BY IDOCK:  -11.32 KCAL/MOL
REMARK 924 INTRA-LIGAND FREE ENERGY PREDICTED BY IDOCK:   -2.83 KCAL/MOL
REMARK 927      BINDING AFFINITY PREDICTED BY RF-SCORE:    0.00 PKD
ROOT
HETATM    1  C   UNL     1     -11.198  15.678  64.806  1.00  0.00    -0.391 C  
HETATM    2  C   UNL     1     -12.241  14.734  64.229  1.00  0.00    -0.402 C  
ENDROOT
BRANCH   2   3
HETATM    3  C   UNL     1     -12.494  13.549  65.160  1.00  0.00    -0.495 C  
BRANCH   3   4
HETATM    4  C   UNL     1     -12.117  12.227  64.492  1.00  0.00    -0.462 C  
BRANCH   4   5
HETATM    5  C   UNL     1     -10.604  12.007  64.526  1.00  0.00    -0.356 C  
BRANCH   5   6
HETATM    6  C   UNL     1     -10.111  11.360  63.232  1.00  0.00    -0.424 C  
BRANCH   6   7
HETATM    7  C   UNL     1      -8.848  10.533  63.472  1.00  0.00    -0.208 C  
BRANCH   7   8
HETATM    8  C   UNL     1      -8.575  10.376  64.967  1.00  0.00    -0.190 C  
BRANCH   8   9
HETATM    9  C   UNL     1      -7.307   9.559  65.219  1.00  0.00    -0.104 C  
BRANCH   9  10
HETATM   10  C   UNL     1      -7.364   8.874  66.588  1.00  0.00    -0.085 C  
BRANCH  10  11
HETATM   11  C   UNL     1      -8.396   9.506  67.518  1.00  0.00    -0.125 C  
BRANCH  11  12
HETATM   12  C   UNL     1      -9.684   8.719  67.596  1.00  0.00    -0.169 C  
HETATM   13  O   UNL     1     -10.804   9.201  67.668  1.00  0.00    -0.234 OA 
BRANCH  12  14
HETATM   14  O   UNL     1      -9.395   7.391  67.548  1.00  0.00    -0.129 OA 
BRANCH  14  15
HETATM   15  C   UNL     1     -10.450   6.500  67.938  1.00  0.00    -0.222 C  
BRANCH  15  16
HETATM   16  N   UNL     1     -10.101   5.673  69.082  1.00  0.00    -0.188 N  
HETATM   17  C   UNL     1      -9.384   4.518  68.772  1.00  0.00    -0.146 C  
HETATM   18  C   UNL     1      -9.473   3.405  69.779  1.00  0.00    -0.229 C  
HETATM   19  O   UNL     1      -8.808   4.346  67.702  1.00  0.00    -0.103 OA 
HETATM   20  C   UNL     1      -9.273   3.887  71.194  1.00  0.00    -0.201 C  
HETATM   21  C   UNL     1     -10.015   5.161  71.475  1.00  0.00    -0.248 A  
HETATM   22  C   UNL     1     -10.280   5.497  72.812  1.00  0.00    -0.216 A  
HETATM   23  C   UNL     1     -10.870   6.716  73.141  1.00  0.00    -0.298 A  
HETATM   24  C   UNL     1     -11.170   7.625  72.134  1.00  0.00    -0.284 A  
HETATM   25  C   UNL     1     -10.917   7.285  70.798  1.00  0.00    -0.273 A  
HETATM   26  C   UNL     1     -10.362   6.045  70.440  1.00  0.00    -0.223 A  
BRANCH  24  27
HETATM   27  O   UNL     1     -11.746   8.853  72.326  1.00  0.00    -0.354 OA 
BRANCH  27  28
HETATM   28  C   UNL     1     -12.298   9.484  71.168  1.00  0.00    -0.326 C  
BRANCH  28  29
HETATM   29  C   UNL     1     -11.734  10.902  71.061  1.00  0.00    -0.162 C  
BRANCH  29  30
HETATM   30  C   UNL     1     -12.843  11.949  70.875  1.00  0.00    -0.220 C  
BRANCH  30  31
HETATM   31  C   UNL     1     -12.424  13.366  71.316  1.00  0.00    -0.278 C  
BRANCH  31  32
HETATM   32  N   UNL     1     -12.611  14.383  70.273  1.00  0.00    -0.348 NA 
HETATM   33  C   UNL     1     -11.870  15.635  70.530  1.00  0.00    -0.373 C  
HETATM   34  C   UNL     1     -10.352  15.519  70.288  1.00  0.00    -0.197 C  
HETATM   35  N   UNL     1     -10.122  15.213  68.866  1.00  0.00    -0.230 NA 
HETATM   36  C   UNL     1     -10.783  13.964  68.439  1.00  0.00    -0.257 C  
HETATM   37  C   UNL     1     -12.266  13.886  68.920  1.00  0.00    -0.222 C  
BRANCH  35  38
HETATM   38  C   UNL     1      -9.257  15.981  68.092  1.00  0.00    -0.195 A  
HETATM   39  C   UNL     1      -9.463  17.321  67.661  1.00  0.00    -0.246 A  
HETATM   40 CL   UNL     1     -10.972  18.154  67.933  1.00  0.00    -0.219 Cl 
HETATM   41  C   UNL     1      -8.477  18.000  66.903  1.00  0.00    -0.249 A  
HETATM   42  C   UNL     1      -7.300  17.360  66.512  1.00  0.00    -0.312 A  
HETATM   43 CL   UNL     1      -8.643  19.655  66.404  1.00  0.00    -0.372 Cl 
HETATM   44  C   UNL     1      -7.079  16.052  66.899  1.00  0.00    -0.182 A  
HETATM   45  C   UNL     1      -8.027  15.398  67.691  1.00  0.00    -0.172 A  
ENDBRANCH  35  38
ENDBRANCH  31  32
ENDBRANCH  30  31
ENDBRANCH  29  30
ENDBRANCH  28  29
ENDBRANCH  27  28
ENDBRANCH  24  27
ENDBRANCH  15  16
ENDBRANCH  14  15
ENDBRANCH  12  14
ENDBRANCH  11  12
ENDBRANCH  10  11
ENDBRANCH   9  10
ENDBRANCH   8   9
ENDBRANCH   7   8
ENDBRANCH   6   7
ENDBRANCH   5   6
ENDBRANCH   4   5
ENDBRANCH   3   4
ENDBRANCH   2   3
TORSDOF 20
ENDMDL
MODEL       47
REMARK 921   NORMALIZED FREE ENERGY PREDICTED BY IDOCK:   -4.73 KCAL/MOL
REMARK 922        TOTAL FREE ENERGY PREDICTED BY IDOCK:  -14.10 KCAL/MOL
REMARK 923 INTER-LIGAND FREE ENERGY PREDICTED BY IDOCK:  -10.82 KCAL/MOL
REMARK 924 INTRA-LIGAND FREE ENERGY PREDICTED BY IDOCK:   -3.27 KCAL/MOL
REMARK 927      BINDING AFFINITY PREDICTED BY RF-SCORE:    0.00 PKD
ROOT
HETATM    1  C   UNL     1      -6.186  11.231  68.616  1.00  0.00    -0.044 C  
HETATM    2  C   UNL     1      -6.435  12.027  67.345  1.00  0.00    -0.137 C  
ENDROOT
BRANCH   2   3
HETATM    3  C   UNL     1      -7.701  12.875  67.460  1.00  0.00    -0.174 C  
BRANCH   3   4
HETATM    4  C   UNL     1      -8.952  12.001  67.527  1.00  0.00    -0.174 C  
BRANCH   4   5
HETATM    5  C   UNL     1      -9.589  11.845  66.146  1.00  0.00    -0.250 C  
BRANCH   5   6
HETATM    6  C   UNL     1     -11.115  11.860  66.237  1.00  0.00    -0.364 C  
BRANCH   6   7
HETATM    7  C   UNL     1     -11.689  13.169  65.694  1.00  0.00    -0.402 C  
BRANCH   7   8
HETATM    8  C   UNL     1     -10.661  13.900  64.831  1.00  0.00    -0.436 C  
BRANCH   8   9
HETATM    9  C   UNL     1     -10.667  15.403  65.110  1.00  0.00    -0.460 C  
BRANCH   9  10
HETATM   10  C   UNL     1      -9.683  15.752  66.231  1.00  0.00    -0.328 C  
BRANCH  10  11
HETATM   11  C   UNL     1     -10.370  15.924  67.583  1.00  0.00    -0.281 C  
BRANCH  11  12
HETATM   12  C   UNL     1      -9.440  15.700  68.753  1.00  0.00    -0.214 C  
HETATM   13  O   UNL     1      -8.333  16.202  68.884  1.00  0.00    -0.208 OA 
BRANCH  12  14
HETATM   14  O   UNL     1     -10.043  14.871  69.648  1.00  0.00    -0.159 OA 
BRANCH  14  15
HETATM   15  C   UNL     1     -11.265  14.257  69.216  1.00  0.00    -0.273 C  
BRANCH  15  16
HETATM   16  N   UNL     1     -12.099  13.814  70.322  1.00  0.00    -0.339 N  
HETATM   17  C   UNL     1     -12.815  14.827  70.957  1.00  0.00    -0.352 C  
HETATM   18  C   UNL     1     -13.234  14.542  72.373  1.00  0.00    -0.508 C  
HETATM   19  O   UNL     1     -13.004  15.935  70.462  1.00  0.00    -0.438 OA 
HETATM   20  C   UNL     1     -13.843  13.172  72.532  1.00  0.00    -0.495 C  
HETATM   21  C   UNL     1     -13.077  12.115  71.789  1.00  0.00    -0.457 A  
HETATM   22  C   UNL     1     -13.247  10.776  72.173  1.00  0.00    -0.360 A  
HETATM   23  C   UNL     1     -12.646   9.743  71.455  1.00  0.00    -0.493 A  
HETATM   24  C   UNL     1     -11.894  10.043  70.326  1.00  0.00    -0.216 A  
HETATM   25  C   UNL     1     -11.713  11.380  69.950  1.00  0.00    -0.424 A  
HETATM   26  C   UNL     1     -12.276  12.439  70.682  1.00  0.00    -0.278 A  
BRANCH  24  27
HETATM   27  O   UNL     1     -11.258   9.122  69.536  1.00  0.00    -0.118 OA 
BRANCH  27  28
HETATM   28  C   UNL     1      -9.829   9.141  69.564  1.00  0.00    -0.178 C  
BRANCH  28  29
HETATM   29  C   UNL     1      -9.355   8.762  70.968  1.00  0.00    -0.280 C  
BRANCH  29  30
HETATM   30  C   UNL     1      -9.676   7.298  71.308  1.00  0.00    -0.168 C  
BRANCH  30  31
HETATM   31  C   UNL     1      -8.419   6.419  71.468  1.00  0.00    -0.129 C  
BRANCH  31  32
HETATM   32  N   UNL     1      -8.568   5.076  70.892  1.00  0.00    -0.119 NA 
HETATM   33  C   UNL     1      -9.753   4.936  70.021  1.00  0.00    -0.215 C  
HETATM   34  C   UNL     1      -9.598   5.618  68.648  1.00  0.00    -0.130 C  
HETATM   35  N   UNL     1      -8.497   4.968  67.918  1.00  0.00    -0.104 NA 
HETATM   36  C   UNL     1      -7.214   5.036  68.646  1.00  0.00    -0.062 C  
HETATM   37  C   UNL     1      -7.365   4.635  70.147  1.00  0.00    -0.050 C  
BRANCH  35  38
HETATM   38  C   UNL     1      -8.674   4.480  66.627  1.00  0.00    -0.111 A  
HETATM   39  C   UNL     1      -8.590   5.223  65.417  1.00  0.00    -0.149 A  
HETATM   40 CL   UNL     1      -8.397   6.958  65.414  1.00  0.00    -0.136 Cl 
HETATM   41  C   UNL     1      -8.758   4.589  64.162  1.00  0.00    -0.143 A  
HETATM   42  C   UNL     1      -9.063   3.230  64.075  1.00  0.00    -0.103 A  
HETATM   43 CL   UNL     1      -8.602   5.429  62.650  1.00  0.00    -0.098 Cl 
HETATM   44  C   UNL     1      -9.171   2.484  65.233  1.00  0.00    -0.107 A  
HETATM   45  C   UNL     1      -8.954   3.098  66.470  1.00  0.00    -0.163 A  
ENDBRANCH  35  38
ENDBRANCH  31  32
ENDBRANCH  30  31
ENDBRANCH  29  30
ENDBRANCH  28  29
ENDBRANCH  27  28
ENDBRANCH  24  27
ENDBRANCH  15  16
ENDBRANCH  14  15
ENDBRANCH  12  14
ENDBRANCH  11  12
ENDBRANCH  10  11
ENDBRANCH   9  10
ENDBRANCH   8   9
ENDBRANCH   7   8
ENDBRANCH   6   7
ENDBRANCH   5   6
ENDBRANCH   4   5
ENDBRANCH   3   4
ENDBRANCH   2   3
TORSDOF 20
ENDMDL
MODEL       48
REMARK 921   NORMALIZED FREE ENERGY PREDICTED BY IDOCK:   -4.72 KCAL/MOL
REMARK 922        TOTAL FREE ENERGY PREDICTED BY IDOCK:  -14.09 KCAL/MOL
REMARK 923 INTER-LIGAND FREE ENERGY PREDICTED BY IDOCK:  -11.02 KCAL/MOL
REMARK 924 INTRA-LIGAND FREE ENERGY PREDICTED BY IDOCK:   -3.07 KCAL/MOL
REMARK 927      BINDING AFFINITY PREDICTED BY RF-SCORE:    0.00 PKD
ROOT
HETATM    1  C   UNL     1      -6.039  11.627  68.501  1.00  0.00    -0.050 C  
HETATM    2  C   UNL     1      -6.264  12.446  67.240  1.00  0.00    -0.144 C  
ENDROOT
BRANCH   2   3
HETATM    3  C   UNL     1      -7.542  13.278  67.338  1.00  0.00    -0.137 C  
BRANCH   3   4
HETATM    4  C   UNL     1      -8.785  12.390  67.335  1.00  0.00    -0.183 C  
BRANCH   4   5
HETATM    5  C   UNL     1      -9.479  12.420  65.973  1.00  0.00    -0.168 C  
BRANCH   5   6
HETATM    6  C   UNL     1     -10.998  12.335  66.125  1.00  0.00    -0.328 C  
BRANCH   6   7
HETATM    7  C   UNL     1     -11.679  13.593  65.587  1.00  0.00    -0.360 C  
BRANCH   7   8
HETATM    8  C   UNL     1     -10.681  14.479  64.841  1.00  0.00    -0.448 C  
BRANCH   8   9
HETATM    9  C   UNL     1     -10.719  15.917  65.358  1.00  0.00    -0.415 C  
BRANCH   9  10
HETATM   10  C   UNL     1      -9.692  16.121  66.475  1.00  0.00    -0.282 C  
BRANCH  10  11
HETATM   11  C   UNL     1     -10.343  16.340  67.839  1.00  0.00    -0.285 C  
BRANCH  11  12
HETATM   12  C   UNL     1      -9.404  16.075  68.993  1.00  0.00    -0.239 C  
HETATM   13  O   UNL     1      -8.340  16.644  69.185  1.00  0.00    -0.215 OA 
BRANCH  12  14
HETATM   14  O   UNL     1      -9.947  15.120  69.795  1.00  0.00    -0.216 OA 
BRANCH  14  15
HETATM   15  C   UNL     1     -11.021  14.355  69.231  1.00  0.00    -0.255 C  
BRANCH  15  16
HETATM   16  N   UNL     1     -11.879  13.752  70.239  1.00  0.00    -0.294 N  
HETATM   17  C   UNL     1     -12.730  14.644  70.890  1.00  0.00    -0.348 C  
HETATM   18  C   UNL     1     -13.212  14.212  72.248  1.00  0.00    -0.540 C  
HETATM   19  O   UNL     1     -12.992  15.765  70.464  1.00  0.00    -0.454 OA 
HETATM   20  C   UNL     1     -13.695  12.784  72.264  1.00  0.00    -0.495 C  
HETATM   21  C   UNL     1     -12.784  11.863  71.506  1.00  0.00    -0.379 A  
HETATM   22  C   UNL     1     -12.849  10.487  71.780  1.00  0.00    -0.559 A  
HETATM   23  C   UNL     1     -12.104   9.573  71.036  1.00  0.00    -0.398 A  
HETATM   24  C   UNL     1     -11.312  10.027  69.989  1.00  0.00    -0.275 A  
HETATM   25  C   UNL     1     -11.237  11.401  69.723  1.00  0.00    -0.266 A  
HETATM   26  C   UNL     1     -11.946  12.344  70.486  1.00  0.00    -0.195 A  
BRANCH  24  27
HETATM   27  O   UNL     1     -10.540   9.233  69.184  1.00  0.00    -0.218 OA 
BRANCH  27  28
HETATM   28  C   UNL     1     -11.146   8.776  67.972  1.00  0.00     0.312 C  
BRANCH  28  29
HETATM   29  C   UNL     1     -10.183   9.027  66.810  1.00  0.00    -0.341 C  
BRANCH  29  30
HETATM   30  C   UNL     1      -8.795   8.424  67.072  1.00  0.00    -0.146 C  
BRANCH  30  31
HETATM   31  C   UNL     1      -8.270   7.569  65.901  1.00  0.00    -0.134 C  
BRANCH  31  32
HETATM   32  N   UNL     1      -8.007   6.171  66.269  1.00  0.00    -0.104 NA 
HETATM   33  C   UNL     1      -7.313   6.023  67.565  1.00  0.00    -0.077 C  
HETATM   34  C   UNL     1      -8.215   6.281  68.786  1.00  0.00    -0.120 C  
HETATM   35  N   UNL     1      -9.290   5.275  68.802  1.00  0.00    -0.116 NA 
HETATM   36  C   UNL     1     -10.109   5.299  67.574  1.00  0.00    -0.179 C  
HETATM   37  C   UNL     1      -9.235   5.341  66.281  1.00  0.00    -0.149 C  
BRANCH  35  38
HETATM   38  C   UNL     1      -9.544   4.505  69.933  1.00  0.00    -0.199 A  
HETATM   39  C   UNL     1     -10.034   4.969  71.185  1.00  0.00    -0.207 A  
HETATM   40 CL   UNL     1     -10.240   6.669  71.521  1.00  0.00    -0.214 Cl 
HETATM   41  C   UNL     1     -10.282   4.065  72.247  1.00  0.00    -0.157 A  
HETATM   42  C   UNL     1     -10.005   2.703  72.117  1.00  0.00    -0.236 A  
HETATM   43 CL   UNL     1     -10.941   4.561  73.776  1.00  0.00    -0.363 Cl 
HETATM   44  C   UNL     1      -9.510   2.225  70.919  1.00  0.00    -0.212 A  
HETATM   45  C   UNL     1      -9.313   3.107  69.853  1.00  0.00    -0.228 A  
ENDBRANCH  35  38
ENDBRANCH  31  32
ENDBRANCH  30  31
ENDBRANCH  29  30
ENDBRANCH  28  29
ENDBRANCH  27  28
ENDBRANCH  24  27
ENDBRANCH  15  16
ENDBRANCH  14  15
ENDBRANCH  12  14
ENDBRANCH  11  12
ENDBRANCH  10  11
ENDBRANCH   9  10
ENDBRANCH   8   9
ENDBRANCH   7   8
ENDBRANCH   6   7
ENDBRANCH   5   6
ENDBRANCH   4   5
ENDBRANCH   3   4
ENDBRANCH   2   3
TORSDOF 20
ENDMDL
MODEL       49
REMARK 921   NORMALIZED FREE ENERGY PREDICTED BY IDOCK:   -4.71 KCAL/MOL
REMARK 922        TOTAL FREE ENERGY PREDICTED BY IDOCK:  -14.07 KCAL/MOL
REMARK 923 INTER-LIGAND FREE ENERGY PREDICTED BY IDOCK:  -10.30 KCAL/MOL
REMARK 924 INTRA-LIGAND FREE ENERGY PREDICTED BY IDOCK:   -3.77 KCAL/MOL
REMARK 927      BINDING AFFINITY PREDICTED BY RF-SCORE:    0.00 PKD
ROOT
HETATM    1  C   UNL     1     -10.552   5.120  66.207  1.00  0.00    -0.325 C  
HETATM    2  C   UNL     1      -9.541   4.014  66.462  1.00  0.00    -0.223 C  
ENDROOT
BRANCH   2   3
HETATM    3  C   UNL     1      -8.388   4.073  65.461  1.00  0.00    -0.109 C  
BRANCH   3   4
HETATM    4  C   UNL     1      -8.805   4.786  64.175  1.00  0.00    -0.122 C  
BRANCH   4   5
HETATM    5  C   UNL     1      -7.856   5.941  63.854  1.00  0.00    -0.119 C  
BRANCH   5   6
HETATM    6  C   UNL     1      -8.028   6.413  62.410  1.00  0.00    -0.105 C  
BRANCH   6   7
HETATM    7  C   UNL     1      -8.246   7.924  62.344  1.00  0.00    -0.141 C  
BRANCH   7   8
HETATM    8  C   UNL     1      -8.042   8.567  63.716  1.00  0.00    -0.154 C  
BRANCH   8   9
HETATM    9  C   UNL     1      -8.294  10.074  63.668  1.00  0.00    -0.166 C  
BRANCH   9  10
HETATM   10  C   UNL     1      -9.787  10.381  63.811  1.00  0.00    -0.308 C  
BRANCH  10  11
HETATM   11  C   UNL     1     -10.071  11.430  64.883  1.00  0.00    -0.323 C  
BRANCH  11  12
HETATM   12  C   UNL     1     -10.444  10.827  66.218  1.00  0.00    -0.226 C  
HETATM   13  O   UNL     1     -10.282   9.659  66.537  1.00  0.00    -0.239 OA 
BRANCH  12  14
HETATM   14  O   UNL     1     -10.965  11.800  67.014  1.00  0.00    -0.254 OA 
BRANCH  14  15
HETATM   15  C   UNL     1     -10.036  12.484  67.866  1.00  0.00    -0.212 C  
BRANCH  15  16
HETATM   16  N   UNL     1     -10.486  13.815  68.242  1.00  0.00    -0.241 N  
HETATM   17  C   UNL     1     -10.058  14.838  67.398  1.00  0.00    -0.231 C  
HETATM   18  C   UNL     1     -10.022  16.213  68.005  1.00  0.00    -0.238 C  
HETATM   19  O   UNL     1      -9.621  14.645  66.267  1.00  0.00    -0.282 OA 
HETATM   20  C   UNL     1     -11.277  16.541  68.774  1.00  0.00    -0.277 C  
HETATM   21  C   UNL     1     -11.739  15.397  69.630  1.00  0.00    -0.355 A  
HETATM   22  C   UNL     1     -12.605  15.673  70.699  1.00  0.00    -0.461 A  
HETATM   23  C   UNL     1     -13.151  14.642  71.463  1.00  0.00    -0.420 A  
HETATM   24  C   UNL     1     -12.858  13.323  71.140  1.00  0.00    -0.280 A  
HETATM   25  C   UNL     1     -11.983  13.047  70.081  1.00  0.00    -0.374 A  
HETATM   26  C   UNL     1     -11.389  14.071  69.324  1.00  0.00    -0.273 A  
BRANCH  24  27
HETATM   27  O   UNL     1     -13.332  12.224  71.808  1.00  0.00    -0.410 OA 
BRANCH  27  28
HETATM   28  C   UNL     1     -12.707  10.976  71.500  1.00  0.00    -0.415 C  
BRANCH  28  29
HETATM   29  C   UNL     1     -13.782   9.890  71.418  1.00  0.00    -0.203 C  
BRANCH  29  30
HETATM   30  C   UNL     1     -13.507   8.733  72.390  1.00  0.00    -0.446 C  
BRANCH  30  31
HETATM   31  C   UNL     1     -13.065   7.435  71.683  1.00  0.00    -0.364 C  
BRANCH  31  32
HETATM   32  N   UNL     1     -11.711   7.002  72.050  1.00  0.00    -0.285 NA 
HETATM   33  C   UNL     1     -11.267   5.786  71.339  1.00  0.00    -0.164 C  
HETATM   34  C   UNL     1     -10.899   6.029  69.862  1.00  0.00    -0.363 C  
HETATM   35  N   UNL     1      -9.755   6.954  69.806  1.00  0.00    -0.164 NA 
HETATM   36  C   UNL     1     -10.036   8.247  70.460  1.00  0.00    -0.195 C  
HETATM   37  C   UNL     1     -10.698   8.068  71.863  1.00  0.00    -0.251 C  
BRANCH  35  38
HETATM   38  C   UNL     1      -8.607   6.641  69.084  1.00  0.00    -0.130 A  
HETATM   39  C   UNL     1      -7.702   5.575  69.346  1.00  0.00    -0.086 A  
HETATM   40 CL   UNL     1      -7.845   4.575  70.769  1.00  0.00    -0.063 Cl 
HETATM   41  C   UNL     1      -6.586   5.346  68.504  1.00  0.00    -0.045 A  
HETATM   42  C   UNL     1      -6.310   6.189  67.426  1.00  0.00    -0.037 A  
HETATM   43 CL   UNL     1      -5.484   4.024  68.734  1.00  0.00    -0.012 Cl 
HETATM   44  C   UNL     1      -7.160   7.245  67.157  1.00  0.00    -0.087 A  
HETATM   45  C   UNL     1      -8.290   7.441  67.956  1.00  0.00    -0.124 A  
ENDBRANCH  35  38
ENDBRANCH  31  32
ENDBRANCH  30  31
ENDBRANCH  29  30
ENDBRANCH  28  29
ENDBRANCH  27  28
ENDBRANCH  24  27
ENDBRANCH  15  16
ENDBRANCH  14  15
ENDBRANCH  12  14
ENDBRANCH  11  12
ENDBRANCH  10  11
ENDBRANCH   9  10
ENDBRANCH   8   9
ENDBRANCH   7   8
ENDBRANCH   6   7
ENDBRANCH   5   6
ENDBRANCH   4   5
ENDBRANCH   3   4
ENDBRANCH   2   3
TORSDOF 20
ENDMDL
MODEL       50
REMARK 921   NORMALIZED FREE ENERGY PREDICTED BY IDOCK:   -4.70 KCAL/MOL
REMARK 922        TOTAL FREE ENERGY PREDICTED BY IDOCK:  -14.04 KCAL/MOL
REMARK 923 INTER-LIGAND FREE ENERGY PREDICTED BY IDOCK:  -10.41 KCAL/MOL
REMARK 924 INTRA-LIGAND FREE ENERGY PREDICTED BY IDOCK:   -3.63 KCAL/MOL
REMARK 927      BINDING AFFINITY PREDICTED BY RF-SCORE:    0.00 PKD
ROOT
HETATM    1  C   UNL     1     -10.028  19.445  67.965  1.00  0.00    -0.488 C  
HETATM    2  C   UNL     1      -9.688  19.835  66.536  1.00  0.00    -0.529 C  
ENDROOT
BRANCH   2   3
HETATM    3  C   UNL     1      -8.183  20.030  66.356  1.00  0.00    -0.338 C  
BRANCH   3   4
HETATM    4  C   UNL     1      -7.445  18.692  66.351  1.00  0.00    -0.275 C  
BRANCH   4   5
HETATM    5  C   UNL     1      -6.228  18.732  67.275  1.00  0.00    -0.181 C  
BRANCH   5   6
HETATM    6  C   UNL     1      -6.511  18.013  68.594  1.00  0.00    -0.223 C  
BRANCH   6   7
HETATM    7  C   UNL     1      -6.973  16.576  68.353  1.00  0.00    -0.150 C  
BRANCH   7   8
HETATM    8  C   UNL     1      -8.247  16.272  69.140  1.00  0.00    -0.215 C  
BRANCH   8   9
HETATM    9  C   UNL     1      -9.140  15.280  68.393  1.00  0.00    -0.189 C  
BRANCH   9  10
HETATM   10  C   UNL     1      -9.966  15.994  67.320  1.00  0.00    -0.242 C  
BRANCH  10  11
HETATM   11  C   UNL     1      -9.380  15.830  65.920  1.00  0.00    -0.356 C  
BRANCH  11  12
HETATM   12  C   UNL     1     -10.414  15.458  64.883  1.00  0.00    -0.292 C  
HETATM   13  O   UNL     1     -11.384  16.134  64.576  1.00  0.00    -0.497 OA 
BRANCH  12  14
HETATM   14  O   UNL     1     -10.077  14.261  64.331  1.00  0.00    -0.162 OA 
BRANCH  14  15
HETATM   15  C   UNL     1     -11.007  13.188  64.531  1.00  0.00    -0.372 C  
BRANCH  15  16
HETATM   16  N   UNL     1     -11.203  12.862  65.936  1.00  0.00    -0.286 N  
HETATM   17  C   UNL     1     -12.389  13.343  66.488  1.00  0.00    -0.295 C  
HETATM   18  C   UNL     1     -12.390  13.515  67.982  1.00  0.00     0.049 C  
HETATM   19  O   UNL     1     -13.343  13.724  65.816  1.00  0.00    -0.471 OA 
HETATM   20  C   UNL     1     -11.822  12.318  68.703  1.00  0.00    -0.354 C  
HETATM   21  C   UNL     1     -10.578  11.793  68.048  1.00  0.00    -0.235 A  
HETATM   22  C   UNL     1      -9.713  10.990  68.808  1.00  0.00    -0.199 A  
HETATM   23  C   UNL     1      -8.598  10.387  68.227  1.00  0.00    -0.128 A  
HETATM   24  C   UNL     1      -8.358  10.560  66.869  1.00  0.00    -0.126 A  
HETATM   25  C   UNL     1      -9.214  11.372  66.112  1.00  0.00    -0.223 A  
HETATM   26  C   UNL     1     -10.319  12.022  66.686  1.00  0.00    -0.208 A  
BRANCH  24  27
HETATM   27  O   UNL     1      -7.304  10.020  66.181  1.00  0.00    -0.100 OA 
BRANCH  27  28
HETATM   28  C   UNL     1      -7.568   9.606  64.838  1.00  0.00    -0.117 C  
BRANCH  28  29
HETATM   29  C   UNL     1      -8.039   8.151  64.851  1.00  0.00    -0.153 C  
BRANCH  29  30
HETATM   30  C   UNL     1      -6.986   7.209  65.453  1.00  0.00    -0.056 C  
BRANCH  30  31
HETATM   31  C   UNL     1      -7.467   5.749  65.570  1.00  0.00    -0.077 C  
BRANCH  31  32
HETATM   32  N   UNL     1      -7.288   5.179  66.911  1.00  0.00    -0.085 NA 
HETATM   33  C   UNL     1      -7.339   6.186  67.991  1.00  0.00    -0.088 C  
HETATM   34  C   UNL     1      -8.759   6.704  68.291  1.00  0.00    -0.118 C  
HETATM   35  N   UNL     1      -9.583   5.579  68.765  1.00  0.00    -0.129 NA 
HETATM   36  C   UNL     1      -9.660   4.478  67.785  1.00  0.00    -0.160 C  
HETATM   37  C   UNL     1      -8.258   4.100  67.210  1.00  0.00    -0.099 C  
BRANCH  35  38
HETATM   38  C   UNL     1     -10.297   5.659  69.957  1.00  0.00    -0.275 A  
HETATM   39  C   UNL     1     -10.076   4.890  71.134  1.00  0.00    -0.207 A  
HETATM   40 CL   UNL     1      -8.925   3.579  71.174  1.00  0.00    -0.144 Cl 
HETATM   41  C   UNL     1     -10.859   5.100  72.296  1.00  0.00    -0.176 A  
HETATM   42  C   UNL     1     -11.902   6.027  72.306  1.00  0.00    -0.305 A  
HETATM   43 CL   UNL     1     -10.594   4.239  73.781  1.00  0.00    -0.274 Cl 
HETATM   44  C   UNL     1     -12.154   6.775  71.172  1.00  0.00    -0.422 A  
HETATM   45  C   UNL     1     -11.350   6.606  70.041  1.00  0.00    -0.440 A  
ENDBRANCH  35  38
ENDBRANCH  31  32
ENDBRANCH  30  31
ENDBRANCH  29  30
ENDBRANCH  28  29
ENDBRANCH  27  28
ENDBRANCH  24  27
ENDBRANCH  15  16
ENDBRANCH  14  15
ENDBRANCH  12  14
ENDBRANCH  11  12
ENDBRANCH  10  11
ENDBRANCH   9  10
ENDBRANCH   8   9
ENDBRANCH   7   8
ENDBRANCH   6   7
ENDBRANCH   5   6
ENDBRANCH   4   5
ENDBRANCH   3   4
ENDBRANCH   2   3
TORSDOF 20
ENDMDL
MODEL       51
REMARK 921   NORMALIZED FREE ENERGY PREDICTED BY IDOCK:   -4.69 KCAL/MOL
REMARK 922        TOTAL FREE ENERGY PREDICTED BY IDOCK:  -14.03 KCAL/MOL
REMARK 923 INTER-LIGAND FREE ENERGY PREDICTED BY IDOCK:  -10.72 KCAL/MOL
REMARK 924 INTRA-LIGAND FREE ENERGY PREDICTED BY IDOCK:   -3.31 KCAL/MOL
REMARK 927      BINDING AFFINITY PREDICTED BY RF-SCORE:    0.00 PKD
ROOT
HETATM    1  C   UNL     1     -13.604  12.820  72.072  1.00  0.00    -0.460 C  
HETATM    2  C   UNL     1     -12.676  11.767  71.490  1.00  0.00    -0.400 C  
ENDROOT
BRANCH   2   3
HETATM    3  C   UNL     1     -13.391  10.427  71.322  1.00  0.00    -0.334 C  
BRANCH   3   4
HETATM    4  C   UNL     1     -13.263   9.568  72.579  1.00  0.00    -0.356 C  
BRANCH   4   5
HETATM    5  C   UNL     1     -12.183   8.500  72.408  1.00  0.00    -0.432 C  
BRANCH   5   6
HETATM    6  C   UNL     1     -12.542   7.525  71.288  1.00  0.00    -0.345 C  
BRANCH   6   7
HETATM    7  C   UNL     1     -11.318   6.730  70.832  1.00  0.00    -0.363 C  
BRANCH   7   8
HETATM    8  C   UNL     1     -11.245   6.667  69.307  1.00  0.00    -0.326 C  
BRANCH   8   9
HETATM    9  C   UNL     1     -10.282   5.574  68.840  1.00  0.00    -0.284 C  
BRANCH   9  10
HETATM   10  C   UNL     1     -10.320   5.430  67.316  1.00  0.00    -0.273 C  
BRANCH  10  11
HETATM   11  C   UNL     1      -8.928   5.413  66.692  1.00  0.00    -0.116 C  
BRANCH  11  12
HETATM   12  C   UNL     1      -8.339   6.794  66.518  1.00  0.00    -0.121 C  
HETATM   13  O   UNL     1      -7.388   7.242  67.141  1.00  0.00    -0.089 OA 
BRANCH  12  14
HETATM   14  O   UNL     1      -9.023   7.448  65.540  1.00  0.00    -0.042 OA 
BRANCH  14  15
HETATM   15  C   UNL     1      -8.324   8.515  64.884  1.00  0.00    -0.160 C  
BRANCH  15  16
HETATM   16  N   UNL     1      -9.161   9.682  64.651  1.00  0.00    -0.235 N  
HETATM   17  C   UNL     1      -9.215  10.106  63.324  1.00  0.00    -0.290 C  
HETATM   18  C   UNL     1      -9.587  11.548  63.114  1.00  0.00    -0.381 C  
HETATM   19  O   UNL     1      -8.873   9.406  62.374  1.00  0.00    -0.224 OA 
HETATM   20  C   UNL     1     -10.779  11.964  63.938  1.00  0.00    -0.450 C  
HETATM   21  C   UNL     1     -10.713  11.444  65.344  1.00  0.00    -0.313 A  
HETATM   22  C   UNL     1     -11.490  12.077  66.326  1.00  0.00    -0.408 A  
HETATM   23  C   UNL     1     -11.553  11.575  67.625  1.00  0.00    -0.320 A  
HETATM   24  C   UNL     1     -10.860  10.413  67.943  1.00  0.00    -0.279 A  
HETATM   25  C   UNL     1     -10.074   9.787  66.967  1.00  0.00    -0.277 A  
HETATM   26  C   UNL     1      -9.964  10.299  65.663  1.00  0.00    -0.280 A  
BRANCH  24  27
HETATM   27  O   UNL     1     -10.843   9.819  69.177  1.00  0.00    -0.219 OA 
BRANCH  27  28
HETATM   28  C   UNL     1      -9.990  10.415  70.157  1.00  0.00     0.144 C  
BRANCH  28  29
HETATM   29  C   UNL     1      -8.861   9.439  70.492  1.00  0.00    -0.287 C  
BRANCH  29  30
HETATM   30  C   UNL     1      -7.628   9.658  69.603  1.00  0.00    -0.114 C  
BRANCH  30  31
HETATM   31  C   UNL     1      -6.653  10.715  70.162  1.00  0.00    -0.151 C  
BRANCH  31  32
HETATM   32  N   UNL     1      -6.039  11.551  69.123  1.00  0.00    -0.059 NA 
HETATM   33  C   UNL     1      -6.948  11.860  68.000  1.00  0.00    -0.078 C  
HETATM   34  C   UNL     1      -8.027  12.904  68.345  1.00  0.00    -0.137 C  
HETATM   35  N   UNL     1      -7.366  14.178  68.674  1.00  0.00    -0.120 NA 
HETATM   36  C   UNL     1      -6.425  14.054  69.805  1.00  0.00    -0.115 C  
HETATM   37  C   UNL     1      -5.484  12.817  69.658  1.00  0.00    -0.089 C  
BRANCH  35  38
HETATM   38  C   UNL     1      -7.727  15.365  68.043  1.00  0.00    -0.125 A  
HETATM   39  C   UNL     1      -9.015  15.969  68.041  1.00  0.00    -0.187 A  
HETATM   40 CL   UNL     1     -10.406  15.175  68.735  1.00  0.00    -0.229 Cl 
HETATM   41  C   UNL     1      -9.236  17.205  67.384  1.00  0.00    -0.232 A  
HETATM   42  C   UNL     1      -8.214  17.839  66.676  1.00  0.00    -0.287 A  
HETATM   43 CL   UNL     1     -10.768  18.023  67.401  1.00  0.00    -0.378 Cl 
HETATM   44  C   UNL     1      -6.957  17.267  66.644  1.00  0.00    -0.272 A  
HETATM   45  C   UNL     1      -6.723  16.075  67.335  1.00  0.00    -0.224 A  
ENDBRANCH  35  38
ENDBRANCH  31  32
ENDBRANCH  30  31
ENDBRANCH  29  30
ENDBRANCH  28  29
ENDBRANCH  27  28
ENDBRANCH  24  27
ENDBRANCH  15  16
ENDBRANCH  14  15
ENDBRANCH  12  14
ENDBRANCH  11  12
ENDBRANCH  10  11
ENDBRANCH   9  10
ENDBRANCH   8   9
ENDBRANCH   7   8
ENDBRANCH   6   7
ENDBRANCH   5   6
ENDBRANCH   4   5
ENDBRANCH   3   4
ENDBRANCH   2   3
TORSDOF 20
ENDMDL
MODEL       52
REMARK 921   NORMALIZED FREE ENERGY PREDICTED BY IDOCK:   -4.66 KCAL/MOL
REMARK 922        TOTAL FREE ENERGY PREDICTED BY IDOCK:  -13.95 KCAL/MOL
REMARK 923 INTER-LIGAND FREE ENERGY PREDICTED BY IDOCK:  -10.09 KCAL/MOL
REMARK 924 INTRA-LIGAND FREE ENERGY PREDICTED BY IDOCK:   -3.86 KCAL/MOL
REMARK 927      BINDING AFFINITY PREDICTED BY RF-SCORE:    0.00 PKD
ROOT
HETATM    1  C   UNL     1     -10.000  17.761  66.203  1.00  0.00    -0.283 C  
HETATM    2  C   UNL     1     -10.388  16.390  66.733  1.00  0.00    -0.293 C  
ENDROOT
BRANCH   2   3
HETATM    3  C   UNL     1     -10.227  15.314  65.661  1.00  0.00    -0.398 C  
BRANCH   3   4
HETATM    4  C   UNL     1     -11.285  15.456  64.568  1.00  0.00    -0.310 C  
BRANCH   4   5
HETATM    5  C   UNL     1     -12.349  14.364  64.686  1.00  0.00    -0.435 C  
BRANCH   5   6
HETATM    6  C   UNL     1     -12.310  13.422  63.483  1.00  0.00    -0.398 C  
BRANCH   6   7
HETATM    7  C   UNL     1     -11.919  12.005  63.902  1.00  0.00    -0.542 C  
BRANCH   7   8
HETATM    8  C   UNL     1     -10.475  11.697  63.508  1.00  0.00    -0.498 C  
BRANCH   8   9
HETATM    9  C   UNL     1      -9.598  11.466  64.739  1.00  0.00    -0.239 C  
BRANCH   9  10
HETATM   10  C   UNL     1     -10.457  11.154  65.968  1.00  0.00    -0.312 C  
BRANCH  10  11
HETATM   11  C   UNL     1     -10.034  11.952  67.198  1.00  0.00    -0.209 C  
BRANCH  11  12
HETATM   12  C   UNL     1      -8.931  11.286  67.987  1.00  0.00    -0.156 C  
HETATM   13  O   UNL     1      -7.816  11.024  67.562  1.00  0.00    -0.111 OA 
BRANCH  12  14
HETATM   14  O   UNL     1      -9.371  11.049  69.252  1.00  0.00    -0.087 OA 
BRANCH  14  15
HETATM   15  C   UNL     1     -10.792  10.943  69.417  1.00  0.00    -0.240 C  
BRANCH  15  16
HETATM   16  N   UNL     1     -11.201   9.685  70.022  1.00  0.00    -0.243 N  
HETATM   17  C   UNL     1     -11.937   9.813  71.198  1.00  0.00    -0.376 C  
HETATM   18  C   UNL     1     -11.911   8.623  72.118  1.00  0.00    -0.449 C  
HETATM   19  O   UNL     1     -12.483  10.857  71.546  1.00  0.00    -0.358 OA 
HETATM   20  C   UNL     1     -12.145   7.324  71.390  1.00  0.00    -0.370 C  
HETATM   21  C   UNL     1     -11.380   7.244  70.100  1.00  0.00    -0.236 A  
HETATM   22  C   UNL     1     -11.150   5.978  69.539  1.00  0.00    -0.468 A  
HETATM   23  C   UNL     1     -10.539   5.847  68.293  1.00  0.00    -0.310 A  
HETATM   24  C   UNL     1     -10.182   6.987  67.584  1.00  0.00    -0.193 A  
HETATM   25  C   UNL     1     -10.399   8.251  68.149  1.00  0.00    -0.253 A  
HETATM   26  C   UNL     1     -10.976   8.405  69.421  1.00  0.00    -0.002 A  
BRANCH  24  27
HETATM   27  O   UNL     1      -9.581   6.992  66.353  1.00  0.00    -0.169 OA 
BRANCH  27  28
HETATM   28  C   UNL     1      -8.284   6.394  66.277  1.00  0.00    -0.118 C  
BRANCH  28  29
HETATM   29  C   UNL     1      -7.289   7.433  65.757  1.00  0.00    -0.074 C  
BRANCH  29  30
HETATM   30  C   UNL     1      -6.266   7.837  66.830  1.00  0.00    -0.049 C  
BRANCH  30  31
HETATM   31  C   UNL     1      -5.596   6.631  67.519  1.00  0.00    -0.012 C  
BRANCH  31  32
HETATM   32  N   UNL     1      -5.285   6.865  68.935  1.00  0.00    -0.013 NA 
HETATM   33  C   UNL     1      -6.143   7.890  69.566  1.00  0.00    -0.033 C  
HETATM   34  C   UNL     1      -7.577   7.407  69.855  1.00  0.00    -0.090 C  
HETATM   35  N   UNL     1      -7.517   6.298  70.823  1.00  0.00    -0.089 NA 
HETATM   36  C   UNL     1      -6.706   5.164  70.338  1.00  0.00    -0.040 C  
HETATM   37  C   UNL     1      -5.337   5.626  69.746  1.00  0.00    -0.004 C  
BRANCH  35  38
HETATM   38  C   UNL     1      -8.272   6.318  71.992  1.00  0.00    -0.110 A  
HETATM   39  C   UNL     1      -9.099   5.272  72.487  1.00  0.00    -0.136 A  
HETATM   40 CL   UNL     1      -9.407   3.824  71.562  1.00  0.00    -0.189 Cl 
HETATM   41  C   UNL     1      -9.788   5.412  73.717  1.00  0.00    -0.165 A  
HETATM   42  C   UNL     1      -9.719   6.596  74.453  1.00  0.00    -0.329 A  
HETATM   43 CL   UNL     1     -10.760   4.148  74.405  1.00  0.00    -0.258 Cl 
HETATM   44  C   UNL     1      -8.938   7.637  73.988  1.00  0.00    -0.299 A  
HETATM   45  C   UNL     1      -8.217   7.482  72.801  1.00  0.00    -0.145 A  
ENDBRANCH  35  38
ENDBRANCH  31  32
ENDBRANCH  30  31
ENDBRANCH  29  30
ENDBRANCH  28  29
ENDBRANCH  27  28
ENDBRANCH  24  27
ENDBRANCH  15  16
ENDBRANCH  14  15
ENDBRANCH  12  14
ENDBRANCH  11  12
ENDBRANCH  10  11
ENDBRANCH   9  10
ENDBRANCH   8   9
ENDBRANCH   7   8
ENDBRANCH   6   7
ENDBRANCH   5   6
ENDBRANCH   4   5
ENDBRANCH   3   4
ENDBRANCH   2   3
TORSDOF 20
ENDMDL
MODEL       53
REMARK 921   NORMALIZED FREE ENERGY PREDICTED BY IDOCK:   -4.58 KCAL/MOL
REMARK 922        TOTAL FREE ENERGY PREDICTED BY IDOCK:  -13.78 KCAL/MOL
REMARK 923 INTER-LIGAND FREE ENERGY PREDICTED BY IDOCK:  -11.60 KCAL/MOL
REMARK 924 INTRA-LIGAND FREE ENERGY PREDICTED BY IDOCK:   -2.18 KCAL/MOL
REMARK 927      BINDING AFFINITY PREDICTED BY RF-SCORE:    0.00 PKD
ROOT
HETATM    1  C   UNL     1     -10.957  10.974  63.517  1.00  0.00    -0.027 C  
HETATM    2  C   UNL     1     -12.027  12.040  63.694  1.00  0.00    -0.612 C  
ENDROOT
BRANCH   2   3
HETATM    3  C   UNL     1     -11.824  12.822  64.991  1.00  0.00    -0.423 C  
BRANCH   3   4
HETATM    4  C   UNL     1     -12.211  14.290  64.821  1.00  0.00    -0.456 C  
BRANCH   4   5
HETATM    5  C   UNL     1     -11.010  15.206  65.061  1.00  0.00    -0.443 C  
BRANCH   5   6
HETATM    6  C   UNL     1     -10.993  15.729  66.496  1.00  0.00    -0.165 C  
BRANCH   6   7
HETATM    7  C   UNL     1     -10.117  14.855  67.394  1.00  0.00    -0.228 C  
BRANCH   7   8
HETATM    8  C   UNL     1     -10.712  14.743  68.797  1.00  0.00    -0.253 C  
BRANCH   8   9
HETATM    9  C   UNL     1     -11.997  13.914  68.793  1.00  0.00    -0.393 C  
BRANCH   9  10
HETATM   10  C   UNL     1     -12.302  13.376  70.193  1.00  0.00    -0.322 C  
BRANCH  10  11
HETATM   11  C   UNL     1     -11.995  11.887  70.330  1.00  0.00    -0.400 C  
BRANCH  11  12
HETATM   12  C   UNL     1     -12.820  11.208  71.399  1.00  0.00    -0.439 C  
HETATM   13  O   UNL     1     -13.480  11.779  72.254  1.00  0.00    -0.423 OA 
BRANCH  12  14
HETATM   14  O   UNL     1     -12.728   9.860  71.241  1.00  0.00    -0.330 OA 
BRANCH  14  15
HETATM   15  C   UNL     1     -11.409   9.302  71.324  1.00  0.00    -0.353 C  
BRANCH  15  16
HETATM   16  N   UNL     1     -11.154   8.294  70.307  1.00  0.00    -0.247 N  
HETATM   17  C   UNL     1     -11.665   7.029  70.596  1.00  0.00    -0.338 C  
HETATM   18  C   UNL     1     -10.996   5.879  69.896  1.00  0.00    -0.444 C  
HETATM   19  O   UNL     1     -12.524   6.825  71.450  1.00  0.00    -0.359 OA 
HETATM   20  C   UNL     1     -10.795   6.135  68.423  1.00  0.00    -0.382 C  
HETATM   21  C   UNL     1     -10.297   7.524  68.146  1.00  0.00    -0.244 A  
HETATM   22  C   UNL     1      -9.667   7.773  66.917  1.00  0.00    -0.282 A  
HETATM   23  C   UNL     1      -9.279   9.063  66.559  1.00  0.00    -0.226 A  
HETATM   24  C   UNL     1      -9.549  10.121  67.418  1.00  0.00    -0.154 A  
HETATM   25  C   UNL     1     -10.167   9.872  68.650  1.00  0.00    -0.197 A  
HETATM   26  C   UNL     1     -10.529   8.574  69.050  1.00  0.00    -0.200 A  
BRANCH  24  27
HETATM   27  O   UNL     1      -9.223  11.431  67.181  1.00  0.00    -0.163 OA 
BRANCH  27  28
HETATM   28  C   UNL     1      -8.066  11.661  66.374  1.00  0.00    -0.023 C  
BRANCH  28  29
HETATM   29  C   UNL     1      -6.871  11.940  67.289  1.00  0.00    -0.142 C  
BRANCH  29  30
HETATM   30  C   UNL     1      -7.297  12.110  68.755  1.00  0.00    -0.090 C  
BRANCH  30  31
HETATM   31  C   UNL     1      -7.012  13.519  69.314  1.00  0.00    -0.008 C  
BRANCH  31  32
HETATM   32  N   UNL     1      -5.998  14.257  68.549  1.00  0.00    -0.086 NA 
HETATM   33  C   UNL     1      -6.563  15.081  67.461  1.00  0.00    -0.125 C  
HETATM   34  C   UNL     1      -7.269  16.360  67.953  1.00  0.00    -0.137 C  
HETATM   35  N   UNL     1      -6.278  17.220  68.622  1.00  0.00    -0.163 NA 
HETATM   36  C   UNL     1      -5.623  16.552  69.763  1.00  0.00    -0.178 C  
HETATM   37  C   UNL     1      -5.142  15.110  69.407  1.00  0.00    -0.092 C  
BRANCH  35  38
HETATM   38  C   UNL     1      -6.116  18.554  68.258  1.00  0.00    -0.202 A  
HETATM   39  C   UNL     1      -6.034  19.070  66.935  1.00  0.00    -0.162 A  
HETATM   40 CL   UNL     1      -5.966  18.024  65.540  1.00  0.00    -0.224 Cl 
HETATM   41  C   UNL     1      -5.905  20.463  66.706  1.00  0.00    -0.177 A  
HETATM   42  C   UNL     1      -5.802  21.362  67.767  1.00  0.00    -0.373 A  
HETATM   43 CL   UNL     1      -5.865  21.158  65.115  1.00  0.00    -0.266 Cl 
HETATM   44  C   UNL     1      -5.859  20.889  69.064  1.00  0.00    -0.330 A  
HETATM   45  C   UNL     1      -6.039  19.522  69.292  1.00  0.00    -0.317 A  
ENDBRANCH  35  38
ENDBRANCH  31  32
ENDBRANCH  30  31
ENDBRANCH  29  30
ENDBRANCH  28  29
ENDBRANCH  27  28
ENDBRANCH  24  27
ENDBRANCH  15  16
ENDBRANCH  14  15
ENDBRANCH  12  14
ENDBRANCH  11  12
ENDBRANCH  10  11
ENDBRANCH   9  10
ENDBRANCH   8   9
ENDBRANCH   7   8
ENDBRANCH   6   7
ENDBRANCH   5   6
ENDBRANCH   4   5
ENDBRANCH   3   4
ENDBRANCH   2   3
TORSDOF 20
ENDMDL
MODEL       54
REMARK 921   NORMALIZED FREE ENERGY PREDICTED BY IDOCK:   -4.57 KCAL/MOL
REMARK 922        TOTAL FREE ENERGY PREDICTED BY IDOCK:  -13.76 KCAL/MOL
REMARK 923 INTER-LIGAND FREE ENERGY PREDICTED BY IDOCK:  -10.23 KCAL/MOL
REMARK 924 INTRA-LIGAND FREE ENERGY PREDICTED BY IDOCK:   -3.53 KCAL/MOL
REMARK 927      BINDING AFFINITY PREDICTED BY RF-SCORE:    0.00 PKD
ROOT
HETATM    1  C   UNL     1     -10.748  16.289  64.968  1.00  0.00    -0.319 C  
HETATM    2  C   UNL     1     -11.886  15.617  64.216  1.00  0.00    -0.151 C  
ENDROOT
BRANCH   2   3
HETATM    3  C   UNL     1     -12.028  14.150  64.618  1.00  0.00    -0.459 C  
BRANCH   3   4
HETATM    4  C   UNL     1     -10.736  13.376  64.361  1.00  0.00    -0.423 C  
BRANCH   4   5
HETATM    5  C   UNL     1     -11.020  11.891  64.136  1.00  0.00    -0.430 C  
BRANCH   5   6
HETATM    6  C   UNL     1     -10.236  11.022  65.119  1.00  0.00    -0.352 C  
BRANCH   6   7
HETATM    7  C   UNL     1      -9.845  11.814  66.367  1.00  0.00    -0.237 C  
BRANCH   7   8
HETATM    8  C   UNL     1     -10.621  11.326  67.589  1.00  0.00    -0.252 C  
BRANCH   8   9
HETATM    9  C   UNL     1     -11.875  12.169  67.826  1.00  0.00    -0.327 C  
BRANCH   9  10
HETATM   10  C   UNL     1     -11.724  13.028  69.085  1.00  0.00    -0.378 C  
BRANCH  10  11
HETATM   11  C   UNL     1     -12.081  14.492  68.843  1.00  0.00    -0.272 C  
BRANCH  11  12
HETATM   12  C   UNL     1     -11.100  15.453  69.473  1.00  0.00    -0.284 C  
HETATM   13  O   UNL     1     -10.717  15.415  70.633  1.00  0.00    -0.312 OA 
BRANCH  12  14
HETATM   14  O   UNL     1     -10.695  16.352  68.535  1.00  0.00    -0.284 OA 
BRANCH  14  15
HETATM   15  C   UNL     1     -10.094  17.556  69.031  1.00  0.00    -0.291 C  
BRANCH  15  16
HETATM   16  N   UNL     1      -9.310  18.255  68.024  1.00  0.00    -0.277 N  
HETATM   17  C   UNL     1      -9.850  19.469  67.603  1.00  0.00    -0.364 C  
HETATM   18  C   UNL     1      -9.411  19.942  66.244  1.00  0.00    -0.474 C  
HETATM   19  O   UNL     1     -10.719  20.076  68.223  1.00  0.00    -0.260 OA 
HETATM   20  C   UNL     1      -7.919  19.836  66.049  1.00  0.00    -0.339 C  
HETATM   21  C   UNL     1      -7.365  18.539  66.565  1.00  0.00    -0.258 A  
HETATM   22  C   UNL     1      -6.118  18.110  66.085  1.00  0.00    -0.244 A  
HETATM   23  C   UNL     1      -5.504  16.971  66.604  1.00  0.00    -0.168 A  
HETATM   24  C   UNL     1      -6.122  16.270  67.632  1.00  0.00    -0.149 A  
HETATM   25  C   UNL     1      -7.373  16.690  68.102  1.00  0.00    -0.172 A  
HETATM   26  C   UNL     1      -8.029  17.811  67.566  1.00  0.00    -0.212 A  
BRANCH  24  27
HETATM   27  O   UNL     1      -5.622  15.141  68.227  1.00  0.00    -0.103 OA 
BRANCH  27  28
HETATM   28  C   UNL     1      -6.439  14.541  69.235  1.00  0.00    -0.123 C  
BRANCH  28  29
HETATM   29  C   UNL     1      -5.537  13.995  70.343  1.00  0.00    -0.134 C  
BRANCH  29  30
HETATM   30  C   UNL     1      -5.468  12.460  70.326  1.00  0.00    -0.139 C  
BRANCH  30  31
HETATM   31  C   UNL     1      -6.056  11.837  69.043  1.00  0.00    -0.066 C  
BRANCH  31  32
HETATM   32  N   UNL     1      -5.767  10.404  68.904  1.00  0.00    -0.041 NA 
HETATM   33  C   UNL     1      -6.548   9.552  69.824  1.00  0.00    -0.051 C  
HETATM   34  C   UNL     1      -8.027   9.397  69.421  1.00  0.00    -0.089 C  
HETATM   35  N   UNL     1      -8.093   8.723  68.113  1.00  0.00    -0.106 NA 
HETATM   36  C   UNL     1      -7.372   9.460  67.057  1.00  0.00    -0.087 C  
HETATM   37  C   UNL     1      -5.951   9.914  67.518  1.00  0.00    -0.054 C  
BRANCH  35  38
HETATM   38  C   UNL     1      -8.876   7.588  67.924  1.00  0.00    -0.126 A  
HETATM   39  C   UNL     1      -8.540   6.253  68.280  1.00  0.00    -0.117 A  
HETATM   40 CL   UNL     1      -6.959   5.833  68.888  1.00  0.00    -0.065 Cl 
HETATM   41  C   UNL     1      -9.452   5.191  68.061  1.00  0.00    -0.127 A  
HETATM   42  C   UNL     1     -10.683   5.412  67.443  1.00  0.00    -0.161 A  
HETATM   43 CL   UNL     1      -9.124   3.552  68.534  1.00  0.00    -0.184 Cl 
HETATM   44  C   UNL     1     -11.031   6.696  67.067  1.00  0.00    -0.463 A  
HETATM   45  C   UNL     1     -10.154   7.753  67.329  1.00  0.00    -0.307 A  
ENDBRANCH  35  38
ENDBRANCH  31  32
ENDBRANCH  30  31
ENDBRANCH  29  30
ENDBRANCH  28  29
ENDBRANCH  27  28
ENDBRANCH  24  27
ENDBRANCH  15  16
ENDBRANCH  14  15
ENDBRANCH  12  14
ENDBRANCH  11  12
ENDBRANCH  10  11
ENDBRANCH   9  10
ENDBRANCH   8   9
ENDBRANCH   7   8
ENDBRANCH   6   7
ENDBRANCH   5   6
ENDBRANCH   4   5
ENDBRANCH   3   4
ENDBRANCH   2   3
TORSDOF 20
ENDMDL
MODEL       55
REMARK 921   NORMALIZED FREE ENERGY PREDICTED BY IDOCK:   -4.51 KCAL/MOL
REMARK 922        TOTAL FREE ENERGY PREDICTED BY IDOCK:  -13.62 KCAL/MOL
REMARK 923 INTER-LIGAND FREE ENERGY PREDICTED BY IDOCK:  -10.45 KCAL/MOL
REMARK 924 INTRA-LIGAND FREE ENERGY PREDICTED BY IDOCK:   -3.17 KCAL/MOL
REMARK 927      BINDING AFFINITY PREDICTED BY RF-SCORE:    0.00 PKD
ROOT
HETATM    1  C   UNL     1      -8.894   8.217  73.183  1.00  0.00    -0.325 C  
HETATM    2  C   UNL     1      -9.250   6.763  73.452  1.00  0.00    -0.159 C  
ENDROOT
BRANCH   2   3
HETATM    3  C   UNL     1     -10.764   6.559  73.488  1.00  0.00    -0.286 C  
BRANCH   3   4
HETATM    4  C   UNL     1     -11.308   6.187  72.109  1.00  0.00    -0.347 C  
BRANCH   4   5
HETATM    5  C   UNL     1     -12.341   7.208  71.632  1.00  0.00    -0.398 C  
BRANCH   5   6
HETATM    6  C   UNL     1     -11.668   8.391  70.936  1.00  0.00    -0.269 C  
BRANCH   6   7
HETATM    7  C   UNL     1     -11.916   9.694  71.696  1.00  0.00    -0.470 C  
BRANCH   7   8
HETATM    8  C   UNL     1     -12.684  10.693  70.832  1.00  0.00    -0.498 C  
BRANCH   8   9
HETATM    9  C   UNL     1     -11.745  11.462  69.902  1.00  0.00    -0.424 C  
BRANCH   9  10
HETATM   10  C   UNL     1     -11.960  12.972  70.040  1.00  0.00    -0.383 C  
BRANCH  10  11
HETATM   11  C   UNL     1     -11.460  13.750  68.825  1.00  0.00    -0.338 C  
BRANCH  11  12
HETATM   12  C   UNL     1     -10.116  14.404  69.052  1.00  0.00    -0.155 C  
HETATM   13  O   UNL     1      -9.911  15.370  69.772  1.00  0.00    -0.266 OA 
BRANCH  12  14
HETATM   14  O   UNL     1      -9.170  13.729  68.344  1.00  0.00    -0.198 OA 
BRANCH  14  15
HETATM   15  C   UNL     1      -8.616  14.416  67.214  1.00  0.00    -0.215 C  
BRANCH  15  16
HETATM   16  N   UNL     1      -9.626  14.836  66.254  1.00  0.00    -0.297 N  
HETATM   17  C   UNL     1      -9.803  16.215  66.157  1.00  0.00    -0.333 C  
HETATM   18  C   UNL     1     -11.137  16.667  65.630  1.00  0.00     0.117 C  
HETATM   19  O   UNL     1      -8.989  17.033  66.577  1.00  0.00    -0.240 OA 
HETATM   20  C   UNL     1     -11.560  15.909  64.398  1.00  0.00    -0.234 C  
HETATM   21  C   UNL     1     -11.304  14.434  64.517  1.00  0.00    -0.328 A  
HETATM   22  C   UNL     1     -12.012  13.565  63.672  1.00  0.00    -0.439 A  
HETATM   23  C   UNL     1     -11.741  12.197  63.662  1.00  0.00    -0.588 A  
HETATM   24  C   UNL     1     -10.735  11.694  64.477  1.00  0.00    -0.322 A  
HETATM   25  C   UNL     1     -10.037  12.559  65.330  1.00  0.00    -0.275 A  
HETATM   26  C   UNL     1     -10.321  13.934  65.387  1.00  0.00    -0.348 A  
BRANCH  24  27
HETATM   27  O   UNL     1     -10.371  10.375  64.556  1.00  0.00    -0.311 OA 
BRANCH  27  28
HETATM   28  C   UNL     1      -8.992  10.112  64.823  1.00  0.00    -0.203 C  
BRANCH  28  29
HETATM   29  C   UNL     1      -8.524   8.963  63.928  1.00  0.00    -0.147 C  
BRANCH  29  30
HETATM   30  C   UNL     1      -8.001   7.772  64.746  1.00  0.00    -0.142 C  
BRANCH  30  31
HETATM   31  C   UNL     1      -8.456   7.797  66.219  1.00  0.00    -0.141 C  
BRANCH  31  32
HETATM   32  N   UNL     1      -7.445   7.283  67.152  1.00  0.00    -0.103 NA 
HETATM   33  C   UNL     1      -7.740   7.585  68.568  1.00  0.00    -0.120 C  
HETATM   34  C   UNL     1      -8.873   6.725  69.162  1.00  0.00    -0.134 C  
HETATM   35  N   UNL     1      -8.455   5.313  69.142  1.00  0.00    -0.098 NA 
HETATM   36  C   UNL     1      -8.138   4.833  67.783  1.00  0.00    -0.093 C  
HETATM   37  C   UNL     1      -7.217   5.826  67.006  1.00  0.00    -0.075 C  
BRANCH  35  38
HETATM   38  C   UNL     1      -8.503   4.528  70.291  1.00  0.00    -0.074 A  
HETATM   39  C   UNL     1      -7.573   4.540  71.368  1.00  0.00    -0.073 A  
HETATM   40 CL   UNL     1      -6.101   5.474  71.304  1.00  0.00    -0.032 Cl 
HETATM   41  C   UNL     1      -7.764   3.710  72.500  1.00  0.00    -0.067 A  
HETATM   42  C   UNL     1      -8.836   2.819  72.571  1.00  0.00    -0.097 A  
HETATM   43 CL   UNL     1      -6.700   3.726  73.873  1.00  0.00    -0.043 Cl 
HETATM   44  C   UNL     1      -9.746   2.771  71.531  1.00  0.00    -0.225 A  
HETATM   45  C   UNL     1      -9.589   3.627  70.437  1.00  0.00    -0.254 A  
ENDBRANCH  35  38
ENDBRANCH  31  32
ENDBRANCH  30  31
ENDBRANCH  29  30
ENDBRANCH  28  29
ENDBRANCH  27  28
ENDBRANCH  24  27
ENDBRANCH  15  16
ENDBRANCH  14  15
ENDBRANCH  12  14
ENDBRANCH  11  12
ENDBRANCH  10  11
ENDBRANCH   9  10
ENDBRANCH   8   9
ENDBRANCH   7   8
ENDBRANCH   6   7
ENDBRANCH   5   6
ENDBRANCH   4   5
ENDBRANCH   3   4
ENDBRANCH   2   3
TORSDOF 20
ENDMDL
MODEL       56
REMARK 921   NORMALIZED FREE ENERGY PREDICTED BY IDOCK:   -4.50 KCAL/MOL
REMARK 922        TOTAL FREE ENERGY PREDICTED BY IDOCK:  -13.61 KCAL/MOL
REMARK 923 INTER-LIGAND FREE ENERGY PREDICTED BY IDOCK:  -10.05 KCAL/MOL
REMARK 924 INTRA-LIGAND FREE ENERGY PREDICTED BY IDOCK:   -3.56 KCAL/MOL
REMARK 927      BINDING AFFINITY PREDICTED BY RF-SCORE:    0.00 PKD
ROOT
HETATM    1  C   UNL     1     -10.661  11.380  63.342  1.00  0.00    -0.405 C  
HETATM    2  C   UNL     1     -11.732  12.426  63.607  1.00  0.00    -0.596 C  
ENDROOT
BRANCH   2   3
HETATM    3  C   UNL     1     -11.360  13.313  64.794  1.00  0.00    -0.350 C  
BRANCH   3   4
HETATM    4  C   UNL     1     -11.868  14.741  64.601  1.00  0.00    -0.442 C  
BRANCH   4   5
HETATM    5  C   UNL     1     -10.822  15.762  65.050  1.00  0.00    -0.461 C  
BRANCH   5   6
HETATM    6  C   UNL     1     -10.943  16.058  66.544  1.00  0.00    -0.080 C  
BRANCH   6   7
HETATM    7  C   UNL     1      -9.958  15.217  67.356  1.00  0.00    -0.226 C  
BRANCH   7   8
HETATM    8  C   UNL     1     -10.533  14.875  68.730  1.00  0.00    -0.242 C  
BRANCH   8   9
HETATM    9  C   UNL     1     -11.786  14.006  68.608  1.00  0.00    -0.389 C  
BRANCH   9  10
HETATM   10  C   UNL     1     -12.250  13.526  69.986  1.00  0.00    -0.381 C  
BRANCH  10  11
HETATM   11  C   UNL     1     -11.987  12.039  70.210  1.00  0.00    -0.398 C  
BRANCH  11  12
HETATM   12  C   UNL     1     -12.814  11.452  71.330  1.00  0.00    -0.397 C  
HETATM   13  O   UNL     1     -13.458  12.095  72.146  1.00  0.00    -0.494 OA 
BRANCH  12  14
HETATM   14  O   UNL     1     -12.744  10.095  71.269  1.00  0.00    -0.340 OA 
BRANCH  14  15
HETATM   15  C   UNL     1     -11.427   9.527  71.306  1.00  0.00    -0.377 C  
BRANCH  15  16
HETATM   16  N   UNL     1     -11.238   8.469  70.327  1.00  0.00    -0.223 N  
HETATM   17  C   UNL     1     -11.673   7.209  70.736  1.00  0.00    -0.323 C  
HETATM   18  C   UNL     1     -11.035   6.040  70.037  1.00  0.00    -0.450 C  
HETATM   19  O   UNL     1     -12.435   7.030  71.682  1.00  0.00    -0.341 OA 
HETATM   20  C   UNL     1     -10.990   6.214  68.540  1.00  0.00    -0.404 C  
HETATM   21  C   UNL     1     -10.571   7.599  68.137  1.00  0.00    -0.187 A  
HETATM   22  C   UNL     1     -10.075   7.793  66.839  1.00  0.00    -0.356 A  
HETATM   23  C   UNL     1      -9.770   9.071  66.372  1.00  0.00    -0.337 A  
HETATM   24  C   UNL     1      -9.992  10.170  67.194  1.00  0.00    -0.196 A  
HETATM   25  C   UNL     1     -10.476   9.975  68.494  1.00  0.00    -0.229 A  
HETATM   26  C   UNL     1     -10.750   8.693  69.000  1.00  0.00    -0.101 A  
BRANCH  24  27
HETATM   27  O   UNL     1      -9.738  11.472  66.852  1.00  0.00    -0.183 OA 
BRANCH  27  28
HETATM   28  C   UNL     1      -8.365  11.872  66.851  1.00  0.00    -0.169 C  
BRANCH  28  29
HETATM   29  C   UNL     1      -7.983  12.334  68.259  1.00  0.00    -0.163 C  
BRANCH  29  30
HETATM   30  C   UNL     1      -6.534  11.963  68.613  1.00  0.00    -0.062 C  
BRANCH  30  31
HETATM   31  C   UNL     1      -6.430  10.921  69.745  1.00  0.00    -0.128 C  
BRANCH  31  32
HETATM   32  N   UNL     1      -7.342   9.782  69.577  1.00  0.00    -0.081 NA 
HETATM   33  C   UNL     1      -6.810   8.726  68.692  1.00  0.00    -0.063 C  
HETATM   34  C   UNL     1      -5.702   7.873  69.339  1.00  0.00    -0.027 C  
HETATM   35  N   UNL     1      -6.267   7.164  70.499  1.00  0.00    -0.031 NA 
HETATM   36  C   UNL     1      -6.831   8.082  71.508  1.00  0.00    -0.055 C  
HETATM   37  C   UNL     1      -7.744   9.174  70.867  1.00  0.00    -0.126 C  
BRANCH  35  38
HETATM   38  C   UNL     1      -6.135   5.785  70.638  1.00  0.00    -0.030 A  
HETATM   39  C   UNL     1      -6.656   4.789  69.766  1.00  0.00    -0.036 A  
HETATM   40 CL   UNL     1      -7.711   5.190  68.435  1.00  0.00    -0.079 Cl 
HETATM   41  C   UNL     1      -6.414   3.414  70.008  1.00  0.00    -0.032 A  
HETATM   42  C   UNL     1      -5.705   2.993  71.134  1.00  0.00    -0.013 A  
HETATM   43 CL   UNL     1      -6.969   2.156  68.947  1.00  0.00    -0.039 Cl 
HETATM   44  C   UNL     1      -5.202   3.936  72.009  1.00  0.00     0.000 A  
HETATM   45  C   UNL     1      -5.395   5.295  71.744  1.00  0.00    -0.009 A  
ENDBRANCH  35  38
ENDBRANCH  31  32
ENDBRANCH  30  31
ENDBRANCH  29  30
ENDBRANCH  28  29
ENDBRANCH  27  28
ENDBRANCH  24  27
ENDBRANCH  15  16
ENDBRANCH  14  15
ENDBRANCH  12  14
ENDBRANCH  11  12
ENDBRANCH  10  11
ENDBRANCH   9  10
ENDBRANCH   8   9
ENDBRANCH   7   8
ENDBRANCH   6   7
ENDBRANCH   5   6
ENDBRANCH   4   5
ENDBRANCH   3   4
ENDBRANCH   2   3
TORSDOF 20
ENDMDL
MODEL       57
REMARK 921   NORMALIZED FREE ENERGY PREDICTED BY IDOCK:   -4.47 KCAL/MOL
REMARK 922        TOTAL FREE ENERGY PREDICTED BY IDOCK:  -13.54 KCAL/MOL
REMARK 923 INTER-LIGAND FREE ENERGY PREDICTED BY IDOCK:  -10.15 KCAL/MOL
REMARK 924 INTRA-LIGAND FREE ENERGY PREDICTED BY IDOCK:   -3.39 KCAL/MOL
REMARK 927      BINDING AFFINITY PREDICTED BY RF-SCORE:    0.00 PKD
ROOT
HETATM    1  C   UNL     1     -10.005  20.192  65.724  1.00  0.00    -0.329 C  
HETATM    2  C   UNL     1      -9.994  19.813  67.196  1.00  0.00    -0.536 C  
ENDROOT
BRANCH   2   3
HETATM    3  C   UNL     1      -9.873  18.301  67.380  1.00  0.00    -0.323 C  
BRANCH   3   4
HETATM    4  C   UNL     1      -9.091  17.956  68.647  1.00  0.00    -0.263 C  
BRANCH   4   5
HETATM    5  C   UNL     1      -7.673  18.524  68.590  1.00  0.00    -0.332 C  
BRANCH   5   6
HETATM    6  C   UNL     1      -6.810  17.756  67.589  1.00  0.00    -0.189 C  
BRANCH   6   7
HETATM    7  C   UNL     1      -5.994  16.666  68.284  1.00  0.00    -0.121 C  
BRANCH   7   8
HETATM    8  C   UNL     1      -6.584  15.283  68.009  1.00  0.00    -0.153 C  
BRANCH   8   9
HETATM    9  C   UNL     1      -7.115  14.639  69.290  1.00  0.00    -0.150 C  
BRANCH   9  10
HETATM   10  C   UNL     1      -6.747  13.154  69.346  1.00  0.00    -0.022 C  
BRANCH  10  11
HETATM   11  C   UNL     1      -6.502  12.557  67.962  1.00  0.00    -0.087 C  
BRANCH  11  12
HETATM   12  C   UNL     1      -7.637  11.682  67.484  1.00  0.00    -0.128 C  
HETATM   13  O   UNL     1      -8.304  11.873  66.478  1.00  0.00    -0.155 OA 
BRANCH  12  14
HETATM   14  O   UNL     1      -7.780  10.634  68.340  1.00  0.00    -0.097 OA 
BRANCH  14  15
HETATM   15  C   UNL     1      -6.933   9.502  68.101  1.00  0.00    -0.078 C  
BRANCH  15  16
HETATM   16  N   UNL     1      -7.592   8.451  67.341  1.00  0.00    -0.096 N  
HETATM   17  C   UNL     1      -7.366   8.496  65.966  1.00  0.00    -0.081 C  
HETATM   18  C   UNL     1      -8.403   7.820  65.112  1.00  0.00    -0.113 C  
HETATM   19  O   UNL     1      -6.455   9.137  65.449  1.00  0.00    -0.066 OA 
HETATM   20  C   UNL     1      -8.776   6.453  65.626  1.00  0.00    -0.108 C  
HETATM   21  C   UNL     1      -8.956   6.431  67.116  1.00  0.00    -0.109 A  
HETATM   22  C   UNL     1      -9.701   5.384  67.682  1.00  0.00    -0.155 A  
HETATM   23  C   UNL     1      -9.814   5.251  69.065  1.00  0.00    -0.235 A  
HETATM   24  C   UNL     1      -9.155   6.150  69.895  1.00  0.00    -0.143 A  
HETATM   25  C   UNL     1      -8.422   7.203  69.331  1.00  0.00    -0.134 A  
HETATM   26  C   UNL     1      -8.328   7.380  67.940  1.00  0.00    -0.119 A  
BRANCH  24  27
HETATM   27  O   UNL     1      -9.184   6.125  71.264  1.00  0.00    -0.149 OA 
BRANCH  27  28
HETATM   28  C   UNL     1     -10.130   5.237  71.863  1.00  0.00    -0.197 C  
BRANCH  28  29
HETATM   29  C   UNL     1     -11.374   6.033  72.262  1.00  0.00    -0.353 C  
BRANCH  29  30
HETATM   30  C   UNL     1     -11.022   7.453  72.732  1.00  0.00    -0.387 C  
BRANCH  30  31
HETATM   31  C   UNL     1     -12.215   8.428  72.675  1.00  0.00    -0.237 C  
BRANCH  31  32
HETATM   32  N   UNL     1     -12.653   8.737  71.308  1.00  0.00    -0.284 NA 
HETATM   33  C   UNL     1     -13.534   9.919  71.223  1.00  0.00    -0.280 C  
HETATM   34  C   UNL     1     -12.793  11.259  71.396  1.00  0.00    -0.410 C  
HETATM   35  N   UNL     1     -11.827  11.412  70.295  1.00  0.00    -0.346 NA 
HETATM   36  C   UNL     1     -10.844  10.311  70.245  1.00  0.00    -0.286 C  
HETATM   37  C   UNL     1     -11.520   8.909  70.368  1.00  0.00    -0.157 C  
BRANCH  35  38
HETATM   38  C   UNL     1     -11.807  12.557  69.504  1.00  0.00    -0.310 A  
HETATM   39  C   UNL     1     -11.691  12.609  68.087  1.00  0.00    -0.347 A  
HETATM   40 CL   UNL     1     -11.388  11.179  67.134  1.00  0.00    -0.324 Cl 
HETATM   41  C   UNL     1     -11.721  13.849  67.402  1.00  0.00    -0.389 A  
HETATM   42  C   UNL     1     -11.811  15.056  68.097  1.00  0.00    -0.286 A  
HETATM   43 CL   UNL     1     -11.650  13.974  65.671  1.00  0.00    -0.323 Cl 
HETATM   44  C   UNL     1     -11.906  15.039  69.476  1.00  0.00    -0.360 A  
HETATM   45  C   UNL     1     -11.929  13.814  70.150  1.00  0.00    -0.404 A  
ENDBRANCH  35  38
ENDBRANCH  31  32
ENDBRANCH  30  31
ENDBRANCH  29  30
ENDBRANCH  28  29
ENDBRANCH  27  28
ENDBRANCH  24  27
ENDBRANCH  15  16
ENDBRANCH  14  15
ENDBRANCH  12  14
ENDBRANCH  11  12
ENDBRANCH  10  11
ENDBRANCH   9  10
ENDBRANCH   8   9
ENDBRANCH   7   8
ENDBRANCH   6   7
ENDBRANCH   5   6
ENDBRANCH   4   5
ENDBRANCH   3   4
ENDBRANCH   2   3
TORSDOF 20
ENDMDL
MODEL       58
REMARK 921   NORMALIZED FREE ENERGY PREDICTED BY IDOCK:   -4.45 KCAL/MOL
REMARK 922        TOTAL FREE ENERGY PREDICTED BY IDOCK:  -13.50 KCAL/MOL
REMARK 923 INTER-LIGAND FREE ENERGY PREDICTED BY IDOCK:   -9.47 KCAL/MOL
REMARK 924 INTRA-LIGAND FREE ENERGY PREDICTED BY IDOCK:   -4.03 KCAL/MOL
REMARK 927      BINDING AFFINITY PREDICTED BY RF-SCORE:    0.00 PKD
ROOT
HETATM    1  C   UNL     1      -9.759   1.774  71.283  1.00  0.00    -0.202 C  
HETATM    2  C   UNL     1      -8.258   1.810  71.044  1.00  0.00    -0.058 C  
ENDROOT
BRANCH   2   3
HETATM    3  C   UNL     1      -7.630   3.071  71.637  1.00  0.00    -0.048 C  
BRANCH   3   4
HETATM    4  C   UNL     1      -7.881   3.163  73.141  1.00  0.00    -0.061 C  
BRANCH   4   5
HETATM    5  C   UNL     1      -8.352   4.563  73.536  1.00  0.00    -0.102 C  
BRANCH   5   6
HETATM    6  C   UNL     1      -7.178   5.438  73.974  1.00  0.00    -0.086 C  
BRANCH   6   7
HETATM    7  C   UNL     1      -6.628   6.253  72.803  1.00  0.00    -0.065 C  
BRANCH   7   8
HETATM    8  C   UNL     1      -7.763   6.812  71.946  1.00  0.00    -0.096 C  
BRANCH   8   9
HETATM    9  C   UNL     1      -7.275   7.175  70.543  1.00  0.00    -0.067 C  
BRANCH   9  10
HETATM   10  C   UNL     1      -6.689   8.589  70.520  1.00  0.00    -0.038 C  
BRANCH  10  11
HETATM   11  C   UNL     1      -7.037   9.348  69.241  1.00  0.00    -0.058 C  
BRANCH  11  12
HETATM   12  C   UNL     1      -7.264  10.824  69.471  1.00  0.00    -0.132 C  
HETATM   13  O   UNL     1      -6.612  11.532  70.224  1.00  0.00    -0.177 OA 
BRANCH  12  14
HETATM   14  O   UNL     1      -8.294  11.242  68.687  1.00  0.00    -0.149 OA 
BRANCH  14  15
HETATM   15  C   UNL     1      -7.933  11.971  67.505  1.00  0.00    -0.159 C  
BRANCH  15  16
HETATM   16  N   UNL     1      -8.895  11.812  66.425  1.00  0.00    -0.191 N  
HETATM   17  C   UNL     1      -8.551  10.857  65.471  1.00  0.00    -0.145 C  
HETATM   18  C   UNL     1      -9.183  11.029  64.117  1.00  0.00    -0.170 C  
HETATM   19  O   UNL     1      -7.700   9.991  65.655  1.00  0.00    -0.123 OA 
HETATM   20  C   UNL     1     -10.663  11.304  64.200  1.00  0.00    -0.436 C  
HETATM   21  C   UNL     1     -11.002  12.295  65.275  1.00  0.00    -0.347 A  
HETATM   22  C   UNL     1     -12.233  12.965  65.199  1.00  0.00    -0.519 A  
HETATM   23  C   UNL     1     -12.650  13.817  66.221  1.00  0.00    -0.372 A  
HETATM   24  C   UNL     1     -11.848  13.979  67.345  1.00  0.00    -0.409 A  
HETATM   25  C   UNL     1     -10.614  13.320  67.416  1.00  0.00    -0.250 A  
HETATM   26  C   UNL     1     -10.155  12.490  66.379  1.00  0.00    -0.243 A  
BRANCH  24  27
HETATM   27  O   UNL     1     -12.145  14.781  68.415  1.00  0.00    -0.272 OA 
BRANCH  27  28
HETATM   28  C   UNL     1     -11.116  14.941  69.394  1.00  0.00    -0.280 C  
BRANCH  28  29
HETATM   29  C   UNL     1     -11.755  14.978  70.784  1.00  0.00    -0.371 C  
BRANCH  29  30
HETATM   30  C   UNL     1     -12.923  13.988  70.907  1.00  0.00    -0.347 C  
BRANCH  30  31
HETATM   31  C   UNL     1     -12.496  12.604  71.437  1.00  0.00    -0.104 C  
BRANCH  31  32
HETATM   32  N   UNL     1     -13.118  11.485  70.717  1.00  0.00     0.015 NA 
HETATM   33  C   UNL     1     -12.346  11.040  69.539  1.00  0.00    -0.197 C  
HETATM   34  C   UNL     1     -11.078  10.239  69.894  1.00  0.00    -0.304 C  
HETATM   35  N   UNL     1     -11.478   9.004  70.590  1.00  0.00    -0.263 NA 
HETATM   36  C   UNL     1     -12.252   9.269  71.819  1.00  0.00    -0.385 C  
HETATM   37  C   UNL     1     -13.385  10.318  71.590  1.00  0.00    -0.353 C  
BRANCH  35  38
HETATM   38  C   UNL     1     -11.033   7.757  70.162  1.00  0.00    -0.241 A  
HETATM   39  C   UNL     1     -10.460   7.446  68.897  1.00  0.00    -0.203 A  
HETATM   40 CL   UNL     1     -10.386   8.618  67.607  1.00  0.00    -0.302 Cl 
HETATM   41  C   UNL     1     -10.013   6.134  68.605  1.00  0.00    -0.148 A  
HETATM   42  C   UNL     1     -10.169   5.096  69.526  1.00  0.00    -0.318 A  
HETATM   43 CL   UNL     1      -9.248   5.708  67.105  1.00  0.00    -0.114 Cl 
HETATM   44  C   UNL     1     -10.739   5.363  70.756  1.00  0.00    -0.252 A  
HETATM   45  C   UNL     1     -11.133   6.668  71.066  1.00  0.00    -0.330 A  
ENDBRANCH  35  38
ENDBRANCH  31  32
ENDBRANCH  30  31
ENDBRANCH  29  30
ENDBRANCH  28  29
ENDBRANCH  27  28
ENDBRANCH  24  27
ENDBRANCH  15  16
ENDBRANCH  14  15
ENDBRANCH  12  14
ENDBRANCH  11  12
ENDBRANCH  10  11
ENDBRANCH   9  10
ENDBRANCH   8   9
ENDBRANCH   7   8
ENDBRANCH   6   7
ENDBRANCH   5   6
ENDBRANCH   4   5
ENDBRANCH   3   4
ENDBRANCH   2   3
TORSDOF 20
ENDMDL
MODEL       59
REMARK 921   NORMALIZED FREE ENERGY PREDICTED BY IDOCK:   -4.44 KCAL/MOL
REMARK 922        TOTAL FREE ENERGY PREDICTED BY IDOCK:  -13.47 KCAL/MOL
REMARK 923 INTER-LIGAND FREE ENERGY PREDICTED BY IDOCK:  -10.29 KCAL/MOL
REMARK 924 INTRA-LIGAND FREE ENERGY PREDICTED BY IDOCK:   -3.17 KCAL/MOL
REMARK 927      BINDING AFFINITY PREDICTED BY RF-SCORE:    0.00 PKD
ROOT
HETATM    1  C   UNL     1     -13.823   7.396  71.614  1.00  0.00    -0.490 C  
HETATM    2  C   UNL     1     -12.622   6.605  71.122  1.00  0.00    -0.194 C  
ENDROOT
BRANCH   2   3
HETATM    3  C   UNL     1     -11.717   6.190  72.282  1.00  0.00    -0.352 C  
BRANCH   3   4
HETATM    4  C   UNL     1     -10.458   5.485  71.779  1.00  0.00    -0.287 C  
BRANCH   4   5
HETATM    5  C   UNL     1     -10.595   5.098  70.306  1.00  0.00    -0.230 C  
BRANCH   5   6
HETATM    6  C   UNL     1      -9.513   4.101  69.893  1.00  0.00    -0.265 C  
BRANCH   6   7
HETATM    7  C   UNL     1      -9.284   4.126  68.382  1.00  0.00    -0.198 C  
BRANCH   7   8
HETATM    8  C   UNL     1      -7.914   4.714  68.046  1.00  0.00    -0.085 C  
BRANCH   8   9
HETATM    9  C   UNL     1      -8.043   5.965  67.176  1.00  0.00    -0.102 C  
BRANCH   9  10
HETATM   10  C   UNL     1      -7.396   7.173  67.861  1.00  0.00    -0.097 C  
BRANCH  10  11
HETATM   11  C   UNL     1      -7.390   7.051  69.382  1.00  0.00    -0.091 C  
BRANCH  11  12
HETATM   12  C   UNL     1      -8.261   8.081  70.063  1.00  0.00    -0.118 C  
HETATM   13  O   UNL     1      -8.181   8.411  71.237  1.00  0.00    -0.109 OA 
BRANCH  12  14
HETATM   14  O   UNL     1      -9.130   8.598  69.154  1.00  0.00    -0.141 OA 
BRANCH  14  15
HETATM   15  C   UNL     1     -10.518   8.564  69.516  1.00  0.00    -0.220 C  
BRANCH  15  16
HETATM   16  N   UNL     1     -11.107   9.890  69.626  1.00  0.00    -0.247 N  
HETATM   17  C   UNL     1     -11.505  10.247  70.914  1.00  0.00    -0.339 C  
HETATM   18  C   UNL     1     -12.567  11.309  70.998  1.00  0.00    -0.495 C  
HETATM   19  O   UNL     1     -11.121   9.668  71.926  1.00  0.00    -0.201 OA 
HETATM   20  C   UNL     1     -12.281  12.485  70.098  1.00  0.00    -0.307 C  
HETATM   21  C   UNL     1     -11.802  12.063  68.739  1.00  0.00    -0.358 A  
HETATM   22  C   UNL     1     -11.907  12.981  67.682  1.00  0.00    -0.401 A  
HETATM   23  C   UNL     1     -11.383  12.687  66.424  1.00  0.00    -0.381 A  
HETATM   24  C   UNL     1     -10.721  11.482  66.224  1.00  0.00    -0.272 A  
HETATM   25  C   UNL     1     -10.627  10.560  67.275  1.00  0.00    -0.317 A  
HETATM   26  C   UNL     1     -11.183  10.818  68.539  1.00  0.00    -0.279 A  
BRANCH  24  27
HETATM   27  O   UNL     1     -10.161  11.078  65.040  1.00  0.00    -0.264 OA 
BRANCH  27  28
HETATM   28  C   UNL     1      -9.104  10.120  65.133  1.00  0.00    -0.201 C  
BRANCH  28  29
HETATM   29  C   UNL     1      -7.777  10.862  65.304  1.00  0.00     0.161 C  
BRANCH  29  30
HETATM   30  C   UNL     1      -7.200  10.692  66.718  1.00  0.00    -0.119 C  
BRANCH  30  31
HETATM   31  C   UNL     1      -6.224  11.817  67.118  1.00  0.00    -0.147 C  
BRANCH  31  32
HETATM   32  N   UNL     1      -6.657  12.574  68.300  1.00  0.00    -0.066 NA 
HETATM   33  C   UNL     1      -5.822  13.760  68.579  1.00  0.00    -0.090 C  
HETATM   34  C   UNL     1      -6.068  14.934  67.612  1.00  0.00    -0.075 C  
HETATM   35  N   UNL     1      -7.460  15.390  67.766  1.00  0.00    -0.141 NA 
HETATM   36  C   UNL     1      -8.442  14.321  67.499  1.00  0.00    -0.187 C  
HETATM   37  C   UNL     1      -8.077  12.989  68.227  1.00  0.00    -0.151 C  
BRANCH  35  38
HETATM   38  C   UNL     1      -7.760  16.728  68.007  1.00  0.00    -0.171 A  
HETATM   39  C   UNL     1      -8.873  17.454  67.500  1.00  0.00    -0.224 A  
HETATM   40 CL   UNL     1      -9.969  16.763  66.331  1.00  0.00    -0.298 Cl 
HETATM   41  C   UNL     1      -9.078  18.810  67.857  1.00  0.00    -0.291 A  
HETATM   42  C   UNL     1      -8.170  19.488  68.670  1.00  0.00    -0.369 A  
HETATM   43 CL   UNL     1     -10.452  19.729  67.323  1.00  0.00    -0.571 Cl 
HETATM   44  C   UNL     1      -7.068  18.815  69.162  1.00  0.00    -0.272 A  
HETATM   45  C   UNL     1      -6.891  17.463  68.854  1.00  0.00    -0.241 A  
ENDBRANCH  35  38
ENDBRANCH  31  32
ENDBRANCH  30  31
ENDBRANCH  29  30
ENDBRANCH  28  29
ENDBRANCH  27  28
ENDBRANCH  24  27
ENDBRANCH  15  16
ENDBRANCH  14  15
ENDBRANCH  12  14
ENDBRANCH  11  12
ENDBRANCH  10  11
ENDBRANCH   9  10
ENDBRANCH   8   9
ENDBRANCH   7   8
ENDBRANCH   6   7
ENDBRANCH   5   6
ENDBRANCH   4   5
ENDBRANCH   3   4
ENDBRANCH   2   3
TORSDOF 20
ENDMDL
MODEL       60
REMARK 921   NORMALIZED FREE ENERGY PREDICTED BY IDOCK:   -4.43 KCAL/MOL
REMARK 922        TOTAL FREE ENERGY PREDICTED BY IDOCK:  -13.45 KCAL/MOL
REMARK 923 INTER-LIGAND FREE ENERGY PREDICTED BY IDOCK:  -10.58 KCAL/MOL
REMARK 924 INTRA-LIGAND FREE ENERGY PREDICTED BY IDOCK:   -2.87 KCAL/MOL
REMARK 927      BINDING AFFINITY PREDICTED BY RF-SCORE:    0.00 PKD
ROOT
HETATM    1  C   UNL     1     -10.512   5.107  74.358  1.00  0.00    -0.294 C  
HETATM    2  C   UNL     1      -9.344   4.595  73.530  1.00  0.00    -0.127 C  
ENDROOT
BRANCH   2   3
HETATM    3  C   UNL     1      -9.729   3.344  72.740  1.00  0.00    -0.189 C  
BRANCH   3   4
HETATM    4  C   UNL     1      -9.642   3.589  71.235  1.00  0.00    -0.242 C  
BRANCH   4   5
HETATM    5  C   UNL     1      -8.566   4.624  70.907  1.00  0.00    -0.124 C  
BRANCH   5   6
HETATM    6  C   UNL     1      -9.151   5.803  70.129  1.00  0.00    -0.155 C  
BRANCH   6   7
HETATM    7  C   UNL     1     -10.551   5.480  69.605  1.00  0.00    -0.375 C  
BRANCH   7   8
HETATM    8  C   UNL     1     -11.510   6.642  69.858  1.00  0.00    -0.414 C  
BRANCH   8   9
HETATM    9  C   UNL     1     -11.651   6.934  71.352  1.00  0.00    -0.340 C  
BRANCH   9  10
HETATM   10  C   UNL     1     -11.185   8.357  71.674  1.00  0.00    -0.343 C  
BRANCH  10  11
HETATM   11  C   UNL     1     -12.032   9.423  70.984  1.00  0.00    -0.389 C  
BRANCH  11  12
HETATM   12  C   UNL     1     -11.267  10.206  69.943  1.00  0.00    -0.287 C  
HETATM   13  O   UNL     1     -11.767  10.833  69.020  1.00  0.00    -0.295 OA 
BRANCH  12  14
HETATM   14  O   UNL     1      -9.937  10.120  70.212  1.00  0.00    -0.204 OA 
BRANCH  14  15
HETATM   15  C   UNL     1      -9.156   9.335  69.299  1.00  0.00    -0.151 C  
BRANCH  15  16
HETATM   16  N   UNL     1      -7.934  10.003  68.879  1.00  0.00    -0.094 N  
HETATM   17  C   UNL     1      -7.096  10.398  69.921  1.00  0.00    -0.159 C  
HETATM   18  C   UNL     1      -6.147  11.521  69.606  1.00  0.00    -0.114 C  
HETATM   19  O   UNL     1      -7.186   9.960  71.065  1.00  0.00    -0.330 OA 
HETATM   20  C   UNL     1      -5.435  11.325  68.291  1.00  0.00    -0.042 C  
HETATM   21  C   UNL     1      -6.357  10.846  67.207  1.00  0.00    -0.068 A  
HETATM   22  C   UNL     1      -5.965  11.026  65.871  1.00  0.00    -0.080 A  
HETATM   23  C   UNL     1      -6.727  10.509  64.824  1.00  0.00     0.039 A  
HETATM   24  C   UNL     1      -7.874   9.778  65.110  1.00  0.00    -0.126 A  
HETATM   25  C   UNL     1      -8.273   9.609  66.443  1.00  0.00    -0.119 A  
HETATM   26  C   UNL     1      -7.542  10.156  67.511  1.00  0.00    -0.091 A  
BRANCH  24  27
HETATM   27  O   UNL     1      -8.703   9.217  64.175  1.00  0.00    -0.198 OA 
BRANCH  27  28
HETATM   28  C   UNL     1      -9.498  10.123  63.406  1.00  0.00    -0.261 C  
BRANCH  28  29
HETATM   29  C   UNL     1     -10.433  10.884  64.348  1.00  0.00    -0.403 C  
BRANCH  29  30
HETATM   30  C   UNL     1     -11.414  11.784  63.582  1.00  0.00    -0.524 C  
BRANCH  30  31
HETATM   31  C   UNL     1     -12.631  12.218  64.425  1.00  0.00    -0.354 C  
BRANCH  31  32
HETATM   32  N   UNL     1     -12.762  13.675  64.556  1.00  0.00    -0.655 NA 
HETATM   33  C   UNL     1     -12.947  14.128  65.949  1.00  0.00    -0.110 C  
HETATM   34  C   UNL     1     -11.663  14.066  66.799  1.00  0.00    -0.407 C  
HETATM   35  N   UNL     1     -10.667  14.983  66.218  1.00  0.00    -0.315 NA 
HETATM   36  C   UNL     1     -10.344  14.657  64.816  1.00  0.00    -0.253 C  
HETATM   37  C   UNL     1     -11.623  14.409  63.956  1.00  0.00    -0.029 C  
BRANCH  35  38
HETATM   38  C   UNL     1     -10.035  15.949  66.995  1.00  0.00    -0.247 A  
HETATM   39  C   UNL     1      -8.713  15.889  67.517  1.00  0.00    -0.178 A  
HETATM   40 CL   UNL     1      -7.728  14.456  67.370  1.00  0.00    -0.210 Cl 
HETATM   41  C   UNL     1      -8.179  16.966  68.267  1.00  0.00    -0.222 A  
HETATM   42  C   UNL     1      -8.949  18.093  68.561  1.00  0.00    -0.309 A  
HETATM   43 CL   UNL     1      -6.552  16.979  68.875  1.00  0.00    -0.185 Cl 
HETATM   44  C   UNL     1     -10.243  18.172  68.084  1.00  0.00    -0.400 A  
HETATM   45  C   UNL     1     -10.754  17.133  67.301  1.00  0.00    -0.208 A  
ENDBRANCH  35  38
ENDBRANCH  31  32
ENDBRANCH  30  31
ENDBRANCH  29  30
ENDBRANCH  28  29
ENDBRANCH  27  28
ENDBRANCH  24  27
ENDBRANCH  15  16
ENDBRANCH  14  15
ENDBRANCH  12  14
ENDBRANCH  11  12
ENDBRANCH  10  11
ENDBRANCH   9  10
ENDBRANCH   8   9
ENDBRANCH   7   8
ENDBRANCH   6   7
ENDBRANCH   5   6
ENDBRANCH   4   5
ENDBRANCH   3   4
ENDBRANCH   2   3
TORSDOF 20
ENDMDL
MODEL       61
REMARK 921   NORMALIZED FREE ENERGY PREDICTED BY IDOCK:   -4.41 KCAL/MOL
REMARK 922        TOTAL FREE ENERGY PREDICTED BY IDOCK:  -13.41 KCAL/MOL
REMARK 923 INTER-LIGAND FREE ENERGY PREDICTED BY IDOCK:  -10.22 KCAL/MOL
REMARK 924 INTRA-LIGAND FREE ENERGY PREDICTED BY IDOCK:   -3.19 KCAL/MOL
REMARK 927      BINDING AFFINITY PREDICTED BY RF-SCORE:    0.00 PKD
ROOT
HETATM    1  C   UNL     1      -5.537  20.099  70.958  1.00  0.00    -0.342 C  
HETATM    2  C   UNL     1      -5.920  20.232  69.493  1.00  0.00    -0.377 C  
ENDROOT
BRANCH   2   3
HETATM    3  C   UNL     1      -7.148  19.386  69.160  1.00  0.00    -0.384 C  
BRANCH   3   4
HETATM    4  C   UNL     1      -7.177  19.007  67.680  1.00  0.00    -0.243 C  
BRANCH   4   5
HETATM    5  C   UNL     1      -7.990  17.732  67.455  1.00  0.00    -0.221 C  
BRANCH   5   6
HETATM    6  C   UNL     1      -9.258  17.727  68.309  1.00  0.00    -0.280 C  
BRANCH   6   7
HETATM    7  C   UNL     1     -10.462  17.230  67.510  1.00  0.00    -0.356 C  
BRANCH   7   8
HETATM    8  C   UNL     1     -10.076  16.948  66.058  1.00  0.00    -0.336 C  
BRANCH   8   9
HETATM    9  C   UNL     1     -10.411  15.509  65.662  1.00  0.00    -0.407 C  
BRANCH   9  10
HETATM   10  C   UNL     1     -11.429  15.483  64.519  1.00  0.00    -0.311 C  
BRANCH  10  11
HETATM   11  C   UNL     1     -12.464  14.373  64.680  1.00  0.00    -0.364 C  
BRANCH  11  12
HETATM   12  C   UNL     1     -11.849  13.030  64.998  1.00  0.00    -0.362 C  
HETATM   13  O   UNL     1     -11.116  12.393  64.256  1.00  0.00    -0.305 OA 
BRANCH  12  14
HETATM   14  O   UNL     1     -12.223  12.657  66.252  1.00  0.00    -0.562 OA 
BRANCH  14  15
HETATM   15  C   UNL     1     -11.413  11.654  66.881  1.00  0.00    -0.247 C  
BRANCH  15  16
HETATM   16  N   UNL     1     -10.143  12.172  67.366  1.00  0.00    -0.198 N  
HETATM   17  C   UNL     1     -10.248  13.119  68.383  1.00  0.00    -0.247 C  
HETATM   18  C   UNL     1      -9.076  14.050  68.531  1.00  0.00    -0.163 C  
HETATM   19  O   UNL     1     -11.264  13.286  69.051  1.00  0.00    -0.256 OA 
HETATM   20  C   UNL     1      -7.754  13.325  68.504  1.00  0.00    -0.120 C  
HETATM   21  C   UNL     1      -7.698  12.275  67.433  1.00  0.00    -0.165 A  
HETATM   22  C   UNL     1      -6.438  11.828  67.003  1.00  0.00    -0.147 A  
HETATM   23  C   UNL     1      -6.323  10.782  66.089  1.00  0.00    -0.134 A  
HETATM   24  C   UNL     1      -7.470  10.152  65.622  1.00  0.00    -0.144 A  
HETATM   25  C   UNL     1      -8.728  10.606  66.041  1.00  0.00    -0.186 A  
HETATM   26  C   UNL     1      -8.869  11.686  66.929  1.00  0.00    -0.190 A  
BRANCH  24  27
HETATM   27  O   UNL     1      -7.491   9.114  64.728  1.00  0.00    -0.102 OA 
BRANCH  27  28
HETATM   28  C   UNL     1      -6.314   8.304  64.670  1.00  0.00    -0.064 C  
BRANCH  28  29
HETATM   29  C   UNL     1      -6.724   6.831  64.711  1.00  0.00    -0.042 C  
BRANCH  29  30
HETATM   30  C   UNL     1      -8.247   6.654  64.606  1.00  0.00    -0.034 C  
BRANCH  30  31
HETATM   31  C   UNL     1      -8.791   5.510  65.486  1.00  0.00    -0.144 C  
BRANCH  31  32
HETATM   32  N   UNL     1     -10.013   5.865  66.217  1.00  0.00    -0.106 NA 
HETATM   33  C   UNL     1     -10.262   5.015  67.400  1.00  0.00    -0.148 C  
HETATM   34  C   UNL     1      -9.337   5.325  68.593  1.00  0.00    -0.121 C  
HETATM   35  N   UNL     1      -9.591   6.704  69.042  1.00  0.00    -0.134 NA 
HETATM   36  C   UNL     1      -9.366   7.700  67.976  1.00  0.00    -0.140 C  
HETATM   37  C   UNL     1     -10.042   7.288  66.630  1.00  0.00    -0.168 C  
BRANCH  35  38
HETATM   38  C   UNL     1      -9.878   6.989  70.374  1.00  0.00    -0.179 A  
HETATM   39  C   UNL     1      -8.945   7.342  71.388  1.00  0.00    -0.138 A  
HETATM   40 CL   UNL     1      -7.223   7.306  71.108  1.00  0.00    -0.071 Cl 
HETATM   41  C   UNL     1      -9.381   7.643  72.702  1.00  0.00    -0.172 A  
HETATM   42  C   UNL     1     -10.728   7.552  73.055  1.00  0.00    -0.438 A  
HETATM   43 CL   UNL     1      -8.298   8.142  73.965  1.00  0.00    -0.319 Cl 
HETATM   44  C   UNL     1     -11.656   7.193  72.097  1.00  0.00    -0.317 A  
HETATM   45  C   UNL     1     -11.235   6.946  70.787  1.00  0.00    -0.338 A  
ENDBRANCH  35  38
ENDBRANCH  31  32
ENDBRANCH  30  31
ENDBRANCH  29  30
ENDBRANCH  28  29
ENDBRANCH  27  28
ENDBRANCH  24  27
ENDBRANCH  15  16
ENDBRANCH  14  15
ENDBRANCH  12  14
ENDBRANCH  11  12
ENDBRANCH  10  11
ENDBRANCH   9  10
ENDBRANCH   8   9
ENDBRANCH   7   8
ENDBRANCH   6   7
ENDBRANCH   5   6
ENDBRANCH   4   5
ENDBRANCH   3   4
ENDBRANCH   2   3
TORSDOF 20
ENDMDL
MODEL       62
REMARK 921   NORMALIZED FREE ENERGY PREDICTED BY IDOCK:   -4.36 KCAL/MOL
REMARK 922        TOTAL FREE ENERGY PREDICTED BY IDOCK:  -13.31 KCAL/MOL
REMARK 923 INTER-LIGAND FREE ENERGY PREDICTED BY IDOCK:  -11.86 KCAL/MOL
REMARK 924 INTRA-LIGAND FREE ENERGY PREDICTED BY IDOCK:   -1.45 KCAL/MOL
REMARK 927      BINDING AFFINITY PREDICTED BY RF-SCORE:    0.00 PKD
ROOT
HETATM    1  C   UNL     1     -12.071  15.497  74.000  1.00  0.00    -0.634 C  
HETATM    2  C   UNL     1     -13.360  15.896  73.300  1.00  0.00    -0.660 C  
ENDROOT
BRANCH   2   3
HETATM    3  C   UNL     1     -13.482  15.224  71.933  1.00  0.00    -0.547 C  
BRANCH   3   4
HETATM    4  C   UNL     1     -14.402  14.006  71.992  1.00  0.00    -0.548 C  
BRANCH   4   5
HETATM    5  C   UNL     1     -13.596  12.707  71.971  1.00  0.00    -0.426 C  
BRANCH   5   6
HETATM    6  C   UNL     1     -12.299  12.874  71.178  1.00  0.00    -0.262 C  
BRANCH   6   7
HETATM    7  C   UNL     1     -12.354  12.102  69.859  1.00  0.00    -0.129 C  
BRANCH   7   8
HETATM    8  C   UNL     1     -11.665  12.884  68.740  1.00  0.00    -0.363 C  
BRANCH   8   9
HETATM    9  C   UNL     1     -11.525  14.363  69.099  1.00  0.00    -0.328 C  
BRANCH   9  10
HETATM   10  C   UNL     1     -11.047  15.173  67.891  1.00  0.00    -0.322 C  
BRANCH  10  11
HETATM   11  C   UNL     1     -10.292  14.320  66.874  1.00  0.00    -0.268 C  
BRANCH  11  12
HETATM   12  C   UNL     1     -10.628  14.667  65.442  1.00  0.00    -0.374 C  
HETATM   13  O   UNL     1     -11.069  13.889  64.610  1.00  0.00    -0.362 OA 
BRANCH  12  14
HETATM   14  O   UNL     1     -10.385  15.990  65.238  1.00  0.00    -0.471 OA 
BRANCH  14  15
HETATM   15  C   UNL     1      -9.067  16.449  65.570  1.00  0.00     0.425 C  
BRANCH  15  16
HETATM   16  N   UNL     1      -9.072  17.699  66.314  1.00  0.00    -0.227 N  
HETATM   17  C   UNL     1     -10.091  18.583  65.964  1.00  0.00    -0.288 C  
HETATM   18  C   UNL     1      -9.835  20.031  66.277  1.00  0.00    -0.576 C  
HETATM   19  O   UNL     1     -11.091  18.249  65.333  1.00  0.00    -0.323 OA 
HETATM   20  C   UNL     1      -9.301  20.236  67.672  1.00  0.00    -0.481 C  
HETATM   21  C   UNL     1      -8.245  19.232  68.034  1.00  0.00    -0.346 A  
HETATM   22  C   UNL     1      -7.369  19.537  69.087  1.00  0.00    -0.364 A  
HETATM   23  C   UNL     1      -6.437  18.603  69.538  1.00  0.00    -0.239 A  
HETATM   24  C   UNL     1      -6.399  17.341  68.957  1.00  0.00    -0.210 A  
HETATM   25  C   UNL     1      -7.265  17.040  67.898  1.00  0.00    -0.162 A  
HETATM   26  C   UNL     1      -8.183  17.980  67.400  1.00  0.00    -0.224 A  
BRANCH  24  27
HETATM   27  O   UNL     1      -5.537  16.337  69.311  1.00  0.00    -0.117 OA 
BRANCH  27  28
HETATM   28  C   UNL     1      -6.133  15.111  69.743  1.00  0.00    -0.139 C  
BRANCH  28  29
HETATM   29  C   UNL     1      -5.967  14.064  68.640  1.00  0.00    -0.088 C  
BRANCH  29  30
HETATM   30  C   UNL     1      -7.028  12.957  68.733  1.00  0.00    -0.103 C  
BRANCH  30  31
HETATM   31  C   UNL     1      -6.459  11.605  69.209  1.00  0.00    -0.105 C  
BRANCH  31  32
HETATM   32  N   UNL     1      -7.109  10.445  68.587  1.00  0.00    -0.073 NA 
HETATM   33  C   UNL     1      -6.857   9.175  69.299  1.00  0.00    -0.049 C  
HETATM   34  C   UNL     1      -7.641   9.035  70.618  1.00  0.00    -0.119 C  
HETATM   35  N   UNL     1      -9.082   9.033  70.314  1.00  0.00    -0.184 NA 
HETATM   36  C   UNL     1      -9.517  10.257  69.612  1.00  0.00    -0.151 C  
HETATM   37  C   UNL     1      -8.571  10.626  68.425  1.00  0.00    -0.134 C  
BRANCH  35  38
HETATM   38  C   UNL     1      -9.918   8.023  70.780  1.00  0.00    -0.188 A  
HETATM   39  C   UNL     1      -9.582   6.651  70.948  1.00  0.00    -0.175 A  
HETATM   40 CL   UNL     1      -8.050   6.006  70.415  1.00  0.00    -0.110 Cl 
HETATM   41  C   UNL     1     -10.524   5.731  71.470  1.00  0.00    -0.235 A  
HETATM   42  C   UNL     1     -11.824   6.130  71.784  1.00  0.00    -0.279 A  
HETATM   43 CL   UNL     1     -10.153   4.059  71.758  1.00  0.00    -0.234 Cl 
HETATM   44  C   UNL     1     -12.187   7.452  71.614  1.00  0.00    -0.361 A  
HETATM   45  C   UNL     1     -11.243   8.372  71.148  1.00  0.00    -0.307 A  
ENDBRANCH  35  38
ENDBRANCH  31  32
ENDBRANCH  30  31
ENDBRANCH  29  30
ENDBRANCH  28  29
ENDBRANCH  27  28
ENDBRANCH  24  27
ENDBRANCH  15  16
ENDBRANCH  14  15
ENDBRANCH  12  14
ENDBRANCH  11  12
ENDBRANCH  10  11
ENDBRANCH   9  10
ENDBRANCH   8   9
ENDBRANCH   7   8
ENDBRANCH   6   7
ENDBRANCH   5   6
ENDBRANCH   4   5
ENDBRANCH   3   4
ENDBRANCH   2   3
TORSDOF 20
ENDMDL
MODEL       63
REMARK 921   NORMALIZED FREE ENERGY PREDICTED BY IDOCK:   -4.36 KCAL/MOL
REMARK 922        TOTAL FREE ENERGY PREDICTED BY IDOCK:  -13.30 KCAL/MOL
REMARK 923 INTER-LIGAND FREE ENERGY PREDICTED BY IDOCK:  -10.26 KCAL/MOL
REMARK 924 INTRA-LIGAND FREE ENERGY PREDICTED BY IDOCK:   -3.04 KCAL/MOL
REMARK 927      BINDING AFFINITY PREDICTED BY RF-SCORE:    0.00 PKD
ROOT
HETATM    1  C   UNL     1      -5.279  20.312  71.599  1.00  0.00    -0.402 C  
HETATM    2  C   UNL     1      -5.416  20.591  70.111  1.00  0.00    -0.361 C  
ENDROOT
BRANCH   2   3
HETATM    3  C   UNL     1      -6.643  19.893  69.525  1.00  0.00    -0.372 C  
BRANCH   3   4
HETATM    4  C   UNL     1      -6.641  19.955  67.998  1.00  0.00    -0.289 C  
BRANCH   4   5
HETATM    5  C   UNL     1      -6.774  18.558  67.391  1.00  0.00    -0.205 C  
BRANCH   5   6
HETATM    6  C   UNL     1      -7.574  17.632  68.308  1.00  0.00    -0.257 C  
BRANCH   6   7
HETATM    7  C   UNL     1      -8.816  17.091  67.600  1.00  0.00    -0.220 C  
BRANCH   7   8
HETATM    8  C   UNL     1      -8.443  16.405  66.286  1.00  0.00    -0.372 C  
BRANCH   8   9
HETATM    9  C   UNL     1      -9.367  15.223  65.992  1.00  0.00    -0.346 C  
BRANCH   9  10
HETATM   10  C   UNL     1     -10.453  15.619  64.987  1.00  0.00    -0.364 C  
BRANCH  10  11
HETATM   11  C   UNL     1     -11.852  15.217  65.445  1.00  0.00    -0.017 C  
BRANCH  11  12
HETATM   12  C   UNL     1     -12.426  14.065  64.654  1.00  0.00    -0.335 C  
HETATM   13  O   UNL     1     -12.571  14.041  63.441  1.00  0.00    -0.845 OA 
BRANCH  12  14
HETATM   14  O   UNL     1     -12.733  13.050  65.507  1.00  0.00    -0.522 OA 
BRANCH  14  15
HETATM   15  C   UNL     1     -11.934  11.864  65.392  1.00  0.00     0.020 C  
BRANCH  15  16
HETATM   16  N   UNL     1     -10.793  11.859  66.294  1.00  0.00    -0.271 N  
HETATM   17  C   UNL     1     -11.075  12.269  67.596  1.00  0.00    -0.268 C  
HETATM   18  C   UNL     1      -9.905  12.792  68.383  1.00  0.00    -0.196 C  
HETATM   19  O   UNL     1     -12.211  12.323  68.058  1.00  0.00    -0.383 OA 
HETATM   20  C   UNL     1      -8.690  11.907  68.271  1.00  0.00    -0.170 C  
HETATM   21  C   UNL     1      -8.449  11.440  66.865  1.00  0.00    -0.157 A  
HETATM   22  C   UNL     1      -7.165  10.987  66.523  1.00  0.00    -0.143 A  
HETATM   23  C   UNL     1      -6.908  10.443  65.266  1.00  0.00    -0.102 A  
HETATM   24  C   UNL     1      -7.945  10.319  64.349  1.00  0.00    -0.135 A  
HETATM   25  C   UNL     1      -9.224  10.782  64.685  1.00  0.00    -0.249 A  
HETATM   26  C   UNL     1      -9.497  11.371  65.931  1.00  0.00    -0.228 A  
BRANCH  24  27
HETATM   27  O   UNL     1      -7.823   9.800  63.087  1.00  0.00    -0.128 OA 
BRANCH  27  28
HETATM   28  C   UNL     1      -6.492   9.539  62.634  1.00  0.00    -0.098 C  
BRANCH  28  29
HETATM   29  C   UNL     1      -6.326   8.032  62.429  1.00  0.00    -0.086 C  
BRANCH  29  30
HETATM   30  C   UNL     1      -7.216   7.219  63.381  1.00  0.00    -0.072 C  
BRANCH  30  31
HETATM   31  C   UNL     1      -6.502   6.809  64.685  1.00  0.00    -0.042 C  
BRANCH  31  32
HETATM   32  N   UNL     1      -7.345   6.018  65.590  1.00  0.00    -0.074 NA 
HETATM   33  C   UNL     1      -6.819   5.939  66.968  1.00  0.00    -0.063 C  
HETATM   34  C   UNL     1      -6.995   7.240  67.776  1.00  0.00    -0.076 C  
HETATM   35  N   UNL     1      -8.434   7.515  67.922  1.00  0.00    -0.122 NA 
HETATM   36  C   UNL     1      -9.123   7.648  66.623  1.00  0.00    -0.164 C  
HETATM   37  C   UNL     1      -8.747   6.499  65.635  1.00  0.00    -0.091 C  
BRANCH  35  38
HETATM   38  C   UNL     1      -9.002   7.748  69.171  1.00  0.00    -0.145 A  
HETATM   39  C   UNL     1     -10.178   7.143  69.697  1.00  0.00    -0.208 A  
HETATM   40 CL   UNL     1     -11.189   6.100  68.729  1.00  0.00    -0.406 Cl 
HETATM   41  C   UNL     1     -10.627   7.447  71.006  1.00  0.00    -0.224 A  
HETATM   42  C   UNL     1      -9.963   8.384  71.798  1.00  0.00    -0.312 A  
HETATM   43 CL   UNL     1     -12.017   6.694  71.726  1.00  0.00    -0.376 Cl 
HETATM   44  C   UNL     1      -8.828   9.003  71.308  1.00  0.00    -0.259 A  
HETATM   45  C   UNL     1      -8.354   8.666  70.037  1.00  0.00    -0.124 A  
ENDBRANCH  35  38
ENDBRANCH  31  32
ENDBRANCH  30  31
ENDBRANCH  29  30
ENDBRANCH  28  29
ENDBRANCH  27  28
ENDBRANCH  24  27
ENDBRANCH  15  16
ENDBRANCH  14  15
ENDBRANCH  12  14
ENDBRANCH  11  12
ENDBRANCH  10  11
ENDBRANCH   9  10
ENDBRANCH   8   9
ENDBRANCH   7   8
ENDBRANCH   6   7
ENDBRANCH   5   6
ENDBRANCH   4   5
ENDBRANCH   3   4
ENDBRANCH   2   3
TORSDOF 20
ENDMDL
MODEL       64
REMARK 921   NORMALIZED FREE ENERGY PREDICTED BY IDOCK:   -4.36 KCAL/MOL
REMARK 922        TOTAL FREE ENERGY PREDICTED BY IDOCK:  -13.30 KCAL/MOL
REMARK 923 INTER-LIGAND FREE ENERGY PREDICTED BY IDOCK:  -10.52 KCAL/MOL
REMARK 924 INTRA-LIGAND FREE ENERGY PREDICTED BY IDOCK:   -2.77 KCAL/MOL
REMARK 927      BINDING AFFINITY PREDICTED BY RF-SCORE:    0.00 PKD
ROOT
HETATM    1  C   UNL     1     -10.160  20.014  66.523  1.00  0.00    -0.606 C  
HETATM    2  C   UNL     1     -10.597  18.735  67.218  1.00  0.00    -0.504 C  
ENDROOT
BRANCH   2   3
HETATM    3  C   UNL     1      -9.582  18.301  68.274  1.00  0.00    -0.332 C  
BRANCH   3   4
HETATM    4  C   UNL     1      -8.633  19.442  68.636  1.00  0.00    -0.394 C  
BRANCH   4   5
HETATM    5  C   UNL     1      -7.261  18.908  69.047  1.00  0.00    -0.328 C  
BRANCH   5   6
HETATM    6  C   UNL     1      -6.812  17.772  68.128  1.00  0.00    -0.206 C  
BRANCH   6   7
HETATM    7  C   UNL     1      -5.529  17.119  68.643  1.00  0.00    -0.134 C  
BRANCH   7   8
HETATM    8  C   UNL     1      -5.773  15.658  69.019  1.00  0.00    -0.104 C  
BRANCH   8   9
HETATM    9  C   UNL     1      -5.127  14.707  68.011  1.00  0.00    -0.099 C  
BRANCH   9  10
HETATM   10  C   UNL     1      -5.976  13.445  67.832  1.00  0.00    -0.140 C  
BRANCH  10  11
HETATM   11  C   UNL     1      -6.623  12.983  69.135  1.00  0.00    -0.104 C  
BRANCH  11  12
HETATM   12  C   UNL     1      -7.508  11.771  68.960  1.00  0.00    -0.030 C  
HETATM   13  O   UNL     1      -7.480  10.767  69.656  1.00  0.00    -0.141 OA 
BRANCH  12  14
HETATM   14  O   UNL     1      -8.356  11.988  67.918  1.00  0.00    -0.137 OA 
BRANCH  14  15
HETATM   15  C   UNL     1      -9.757  11.916  68.219  1.00  0.00    -0.200 C  
BRANCH  15  16
HETATM   16  N   UNL     1     -10.579  12.655  67.272  1.00  0.00    -0.227 N  
HETATM   17  C   UNL     1     -11.143  13.826  67.777  1.00  0.00    -0.268 C  
HETATM   18  C   UNL     1     -12.378  14.312  67.071  1.00  0.00    -0.203 C  
HETATM   19  O   UNL     1     -10.751  14.380  68.800  1.00  0.00    -0.239 OA 
HETATM   20  C   UNL     1     -12.229  14.303  65.570  1.00  0.00    -0.408 C  
HETATM   21  C   UNL     1     -11.568  13.052  65.068  1.00  0.00    -0.359 A  
HETATM   22  C   UNL     1     -11.742  12.702  63.720  1.00  0.00    -0.566 A  
HETATM   23  C   UNL     1     -11.069  11.612  63.170  1.00  0.00    -0.209 A  
HETATM   24  C   UNL     1     -10.189  10.882  63.961  1.00  0.00    -0.357 A  
HETATM   25  C   UNL     1     -10.025  11.223  65.310  1.00  0.00    -0.301 A  
HETATM   26  C   UNL     1     -10.724  12.292  65.895  1.00  0.00    -0.258 A  
BRANCH  24  27
HETATM   27  O   UNL     1      -9.468   9.796  63.540  1.00  0.00    -0.212 OA 
BRANCH  27  28
HETATM   28  C   UNL     1      -8.069  10.006  63.332  1.00  0.00    -0.158 C  
BRANCH  28  29
HETATM   29  C   UNL     1      -7.300   8.805  63.887  1.00  0.00    -0.099 C  
BRANCH  29  30
HETATM   30  C   UNL     1      -7.310   8.775  65.423  1.00  0.00    -0.085 C  
BRANCH  30  31
HETATM   31  C   UNL     1      -6.964   7.391  66.008  1.00  0.00    -0.061 C  
BRANCH  31  32
HETATM   32  N   UNL     1      -8.135   6.654  66.499  1.00  0.00    -0.109 NA 
HETATM   33  C   UNL     1      -7.925   6.023  67.818  1.00  0.00    -0.105 C  
HETATM   34  C   UNL     1      -7.935   7.021  68.992  1.00  0.00    -0.116 C  
HETATM   35  N   UNL     1      -9.264   7.651  69.067  1.00  0.00    -0.141 NA 
HETATM   36  C   UNL     1      -9.630   8.355  67.822  1.00  0.00    -0.156 C  
HETATM   37  C   UNL     1      -9.358   7.489  66.552  1.00  0.00    -0.181 C  
BRANCH  35  38
HETATM   38  C   UNL     1      -9.992   7.663  70.253  1.00  0.00    -0.189 A  
HETATM   39  C   UNL     1     -10.519   6.534  70.939  1.00  0.00    -0.223 A  
HETATM   40 CL   UNL     1     -10.447   4.928  70.261  1.00  0.00    -0.257 Cl 
HETATM   41  C   UNL     1     -11.215   6.688  72.164  1.00  0.00    -0.264 A  
HETATM   42  C   UNL     1     -11.450   7.952  72.707  1.00  0.00    -0.428 A  
HETATM   43 CL   UNL     1     -11.824   5.344  73.080  1.00  0.00    -0.224 Cl 
HETATM   44  C   UNL     1     -10.967   9.070  72.054  1.00  0.00    -0.355 A  
HETATM   45  C   UNL     1     -10.235   8.916  70.872  1.00  0.00    -0.304 A  
ENDBRANCH  35  38
ENDBRANCH  31  32
ENDBRANCH  30  31
ENDBRANCH  29  30
ENDBRANCH  28  29
ENDBRANCH  27  28
ENDBRANCH  24  27
ENDBRANCH  15  16
ENDBRANCH  14  15
ENDBRANCH  12  14
ENDBRANCH  11  12
ENDBRANCH  10  11
ENDBRANCH   9  10
ENDBRANCH   8   9
ENDBRANCH   7   8
ENDBRANCH   6   7
ENDBRANCH   5   6
ENDBRANCH   4   5
ENDBRANCH   3   4
ENDBRANCH   2   3
TORSDOF 20
ENDMDL
MODEL       65
REMARK 921   NORMALIZED FREE ENERGY PREDICTED BY IDOCK:   -4.35 KCAL/MOL
REMARK 922        TOTAL FREE ENERGY PREDICTED BY IDOCK:  -13.28 KCAL/MOL
REMARK 923 INTER-LIGAND FREE ENERGY PREDICTED BY IDOCK:  -10.44 KCAL/MOL
REMARK 924 INTRA-LIGAND FREE ENERGY PREDICTED BY IDOCK:   -2.84 KCAL/MOL
REMARK 927      BINDING AFFINITY PREDICTED BY RF-SCORE:    0.00 PKD
ROOT
HETATM    1  C   UNL     1     -12.549  15.950  73.362  1.00  0.00    -0.666 C  
HETATM    2  C   UNL     1     -11.779  15.350  72.197  1.00  0.00    -0.551 C  
ENDROOT
BRANCH   2   3
HETATM    3  C   UNL     1     -12.513  14.147  71.607  1.00  0.00    -0.395 C  
BRANCH   3   4
HETATM    4  C   UNL     1     -12.334  14.076  70.091  1.00  0.00    -0.409 C  
BRANCH   4   5
HETATM    5  C   UNL     1     -11.142  14.920  69.638  1.00  0.00    -0.298 C  
BRANCH   5   6
HETATM    6  C   UNL     1     -11.587  16.055  68.716  1.00  0.00    -0.352 C  
BRANCH   6   7
HETATM    7  C   UNL     1     -10.763  17.320  68.958  1.00  0.00    -0.158 C  
BRANCH   7   8
HETATM    8  C   UNL     1     -10.882  18.284  67.778  1.00  0.00    -0.257 C  
BRANCH   8   9
HETATM    9  C   UNL     1     -10.022  19.530  67.987  1.00  0.00    -0.513 C  
BRANCH   9  10
HETATM   10  C   UNL     1      -8.569  19.145  68.278  1.00  0.00    -0.370 C  
BRANCH  10  11
HETATM   11  C   UNL     1      -7.879  18.501  67.078  1.00  0.00    -0.236 C  
BRANCH  11  12
HETATM   12  C   UNL     1      -7.335  17.123  67.374  1.00  0.00    -0.153 C  
HETATM   13  O   UNL     1      -6.185  16.872  67.701  1.00  0.00    -0.133 OA 
BRANCH  12  14
HETATM   14  O   UNL     1      -8.337  16.213  67.243  1.00  0.00    -0.163 OA 
BRANCH  14  15
HETATM   15  C   UNL     1      -8.810  15.981  65.908  1.00  0.00    -0.156 C  
BRANCH  15  16
HETATM   16  N   UNL     1      -9.873  14.990  65.847  1.00  0.00    -0.318 N  
HETATM   17  C   UNL     1     -10.978  15.365  65.085  1.00  0.00    -0.418 C  
HETATM   18  C   UNL     1     -12.268  14.667  65.419  1.00  0.00    -0.221 C  
HETATM   19  O   UNL     1     -10.959  16.284  64.271  1.00  0.00    -0.707 OA 
HETATM   20  C   UNL     1     -12.100  13.175  65.558  1.00  0.00    -0.490 C  
HETATM   21  C   UNL     1     -10.870  12.808  66.337  1.00  0.00    -0.294 A  
HETATM   22  C   UNL     1     -10.802  11.529  66.911  1.00  0.00    -0.331 A  
HETATM   23  C   UNL     1      -9.645  11.093  67.555  1.00  0.00    -0.181 A  
HETATM   24  C   UNL     1      -8.533  11.925  67.600  1.00  0.00    -0.156 A  
HETATM   25  C   UNL     1      -8.604  13.206  67.038  1.00  0.00    -0.168 A  
HETATM   26  C   UNL     1      -9.774  13.682  66.421  1.00  0.00    -0.292 A  
BRANCH  24  27
HETATM   27  O   UNL     1      -7.340  11.613  68.196  1.00  0.00    -0.081 OA 
BRANCH  27  28
HETATM   28  C   UNL     1      -7.386  10.626  69.230  1.00  0.00    -0.119 C  
BRANCH  28  29
HETATM   29  C   UNL     1      -6.140  10.767  70.106  1.00  0.00    -0.118 C  
BRANCH  29  30
HETATM   30  C   UNL     1      -5.909   9.528  70.983  1.00  0.00    -0.069 C  
BRANCH  30  31
HETATM   31  C   UNL     1      -7.194   9.014  71.664  1.00  0.00     0.036 C  
BRANCH  31  32
HETATM   32  N   UNL     1      -7.225   7.555  71.828  1.00  0.00    -0.062 NA 
HETATM   33  C   UNL     1      -8.564   6.966  71.619  1.00  0.00    -0.117 C  
HETATM   34  C   UNL     1      -8.994   6.910  70.141  1.00  0.00    -0.149 C  
HETATM   35  N   UNL     1      -8.063   6.034  69.410  1.00  0.00    -0.109 NA 
HETATM   36  C   UNL     1      -6.663   6.494  69.496  1.00  0.00    -0.053 C  
HETATM   37  C   UNL     1      -6.249   6.858  70.956  1.00  0.00    -0.036 C  
BRANCH  35  38
HETATM   38  C   UNL     1      -8.526   4.979  68.629  1.00  0.00    -0.087 A  
HETATM   39  C   UNL     1      -9.090   5.068  67.326  1.00  0.00    -0.114 A  
HETATM   40 CL   UNL     1      -9.431   6.605  66.574  1.00  0.00    -0.197 Cl 
HETATM   41  C   UNL     1      -9.489   3.903  66.626  1.00  0.00    -0.199 A  
HETATM   42  C   UNL     1      -9.390   2.640  67.212  1.00  0.00    -0.137 A  
HETATM   43 CL   UNL     1     -10.123   3.942  65.010  1.00  0.00    -0.187 Cl 
HETATM   44  C   UNL     1      -8.864   2.522  68.484  1.00  0.00    -0.154 A  
HETATM   45  C   UNL     1      -8.422   3.665  69.156  1.00  0.00    -0.098 A  
ENDBRANCH  35  38
ENDBRANCH  31  32
ENDBRANCH  30  31
ENDBRANCH  29  30
ENDBRANCH  28  29
ENDBRANCH  27  28
ENDBRANCH  24  27
ENDBRANCH  15  16
ENDBRANCH  14  15
ENDBRANCH  12  14
ENDBRANCH  11  12
ENDBRANCH  10  11
ENDBRANCH   9  10
ENDBRANCH   8   9
ENDBRANCH   7   8
ENDBRANCH   6   7
ENDBRANCH   5   6
ENDBRANCH   4   5
ENDBRANCH   3   4
ENDBRANCH   2   3
TORSDOF 20
ENDMDL
MODEL       66
REMARK 921   NORMALIZED FREE ENERGY PREDICTED BY IDOCK:   -4.29 KCAL/MOL
REMARK 922        TOTAL FREE ENERGY PREDICTED BY IDOCK:  -13.14 KCAL/MOL
REMARK 923 INTER-LIGAND FREE ENERGY PREDICTED BY IDOCK:  -10.45 KCAL/MOL
REMARK 924 INTRA-LIGAND FREE ENERGY PREDICTED BY IDOCK:   -2.69 KCAL/MOL
REMARK 927      BINDING AFFINITY PREDICTED BY RF-SCORE:    0.00 PKD
ROOT
HETATM    1  C   UNL     1     -12.049  15.435  74.482  1.00  0.00    -0.486 C  
HETATM    2  C   UNL     1     -13.193  15.974  73.639  1.00  0.00    -0.506 C  
ENDROOT
BRANCH   2   3
HETATM    3  C   UNL     1     -12.959  15.712  72.151  1.00  0.00    -0.527 C  
BRANCH   3   4
HETATM    4  C   UNL     1     -14.107  14.908  71.541  1.00  0.00    -0.593 C  
BRANCH   4   5
HETATM    5  C   UNL     1     -13.620  13.548  71.040  1.00  0.00     0.148 C  
BRANCH   5   6
HETATM    6  C   UNL     1     -12.113  13.560  70.784  1.00  0.00    -0.351 C  
BRANCH   6   7
HETATM    7  C   UNL     1     -11.795  13.201  69.333  1.00  0.00    -0.383 C  
BRANCH   7   8
HETATM    8  C   UNL     1     -10.668  14.077  68.787  1.00  0.00    -0.272 C  
BRANCH   8   9
HETATM    9  C   UNL     1     -10.793  15.518  69.284  1.00  0.00    -0.252 C  
BRANCH   9  10
HETATM   10  C   UNL     1     -10.544  16.509  68.144  1.00  0.00    -0.329 C  
BRANCH  10  11
HETATM   11  C   UNL     1     -10.650  15.860  66.766  1.00  0.00    -0.309 C  
BRANCH  11  12
HETATM   12  C   UNL     1     -10.458  16.839  65.632  1.00  0.00    -0.269 C  
HETATM   13  O   UNL     1     -11.076  16.831  64.577  1.00  0.00    -0.989 OA 
BRANCH  12  14
HETATM   14  O   UNL     1      -9.506  17.745  65.984  1.00  0.00    -0.502 OA 
BRANCH  14  15
HETATM   15  C   UNL     1      -8.144  17.312  65.856  1.00  0.00    -0.001 C  
BRANCH  15  16
HETATM   16  N   UNL     1      -7.401  17.400  67.104  1.00  0.00    -0.164 N  
HETATM   17  C   UNL     1      -7.257  18.691  67.608  1.00  0.00    -0.215 C  
HETATM   18  C   UNL     1      -6.094  18.902  68.538  1.00  0.00    -0.228 C  
HETATM   19  O   UNL     1      -7.944  19.642  67.245  1.00  0.00    -0.264 OA 
HETATM   20  C   UNL     1      -5.985  17.822  69.584  1.00  0.00    -0.252 C  
HETATM   21  C   UNL     1      -6.201  16.450  69.015  1.00  0.00    -0.158 A  
HETATM   22  C   UNL     1      -5.721  15.346  69.737  1.00  0.00    -0.126 A  
HETATM   23  C   UNL     1      -5.983  14.044  69.313  1.00  0.00    -0.095 A  
HETATM   24  C   UNL     1      -6.758  13.837  68.178  1.00  0.00    -0.124 A  
HETATM   25  C   UNL     1      -7.227  14.939  67.450  1.00  0.00    -0.213 A  
HETATM   26  C   UNL     1      -6.940  16.259  67.835  1.00  0.00    -0.138 A  
BRANCH  24  27
HETATM   27  O   UNL     1      -7.088  12.612  67.663  1.00  0.00    -0.111 OA 
BRANCH  27  28
HETATM   28  C   UNL     1      -8.313  12.541  66.929  1.00  0.00    -0.096 C  
BRANCH  28  29
HETATM   29  C   UNL     1      -9.041  11.248  67.302  1.00  0.00    -0.156 C  
BRANCH  29  30
HETATM   30  C   UNL     1      -8.798  10.852  68.767  1.00  0.00    -0.162 C  
BRANCH  30  31
HETATM   31  C   UNL     1      -9.862   9.883  69.321  1.00  0.00    -0.207 C  
BRANCH  31  32
HETATM   32  N   UNL     1      -9.291   8.671  69.923  1.00  0.00    -0.157 NA 
HETATM   33  C   UNL     1     -10.249   7.549  70.010  1.00  0.00    -0.215 C  
HETATM   34  C   UNL     1     -10.532   6.868  68.657  1.00  0.00    -0.195 C  
HETATM   35  N   UNL     1      -9.280   6.276  68.155  1.00  0.00    -0.112 NA 
HETATM   36  C   UNL     1      -8.207   7.274  67.985  1.00  0.00    -0.120 C  
HETATM   37  C   UNL     1      -8.066   8.208  69.229  1.00  0.00    -0.117 C  
BRANCH  35  38
HETATM   38  C   UNL     1      -9.216   4.939  67.771  1.00  0.00    -0.121 A  
HETATM   39  C   UNL     1      -8.931   4.441  66.470  1.00  0.00    -0.117 A  
HETATM   40 CL   UNL     1      -8.773   5.501  65.092  1.00  0.00    -0.145 Cl 
HETATM   41  C   UNL     1      -8.860   3.047  66.225  1.00  0.00    -0.144 A  
HETATM   42  C   UNL     1      -9.120   2.123  67.237  1.00  0.00    -0.159 A  
HETATM   43 CL   UNL     1      -8.454   2.380  64.674  1.00  0.00    -0.088 Cl 
HETATM   44  C   UNL     1      -9.418   2.576  68.508  1.00  0.00    -0.207 A  
HETATM   45  C   UNL     1      -9.437   3.950  68.764  1.00  0.00    -0.224 A  
ENDBRANCH  35  38
ENDBRANCH  31  32
ENDBRANCH  30  31
ENDBRANCH  29  30
ENDBRANCH  28  29
ENDBRANCH  27  28
ENDBRANCH  24  27
ENDBRANCH  15  16
ENDBRANCH  14  15
ENDBRANCH  12  14
ENDBRANCH  11  12
ENDBRANCH  10  11
ENDBRANCH   9  10
ENDBRANCH   8   9
ENDBRANCH   7   8
ENDBRANCH   6   7
ENDBRANCH   5   6
ENDBRANCH   4   5
ENDBRANCH   3   4
ENDBRANCH   2   3
TORSDOF 20
ENDMDL
MODEL       67
REMARK 921   NORMALIZED FREE ENERGY PREDICTED BY IDOCK:   -4.28 KCAL/MOL
REMARK 922        TOTAL FREE ENERGY PREDICTED BY IDOCK:  -13.12 KCAL/MOL
REMARK 923 INTER-LIGAND FREE ENERGY PREDICTED BY IDOCK:   -9.51 KCAL/MOL
REMARK 924 INTRA-LIGAND FREE ENERGY PREDICTED BY IDOCK:   -3.60 KCAL/MOL
REMARK 927      BINDING AFFINITY PREDICTED BY RF-SCORE:    0.00 PKD
ROOT
HETATM    1  C   UNL     1      -9.745   9.731  69.960  1.00  0.00    -0.292 C  
HETATM    2  C   UNL     1      -8.264  10.058  70.060  1.00  0.00    -0.139 C  
ENDROOT
BRANCH   2   3
HETATM    3  C   UNL     1      -7.564   9.166  71.085  1.00  0.00    -0.093 C  
BRANCH   3   4
HETATM    4  C   UNL     1      -8.053   7.721  70.988  1.00  0.00    -0.098 C  
BRANCH   4   5
HETATM    5  C   UNL     1      -8.206   7.099  72.376  1.00  0.00    -0.113 C  
BRANCH   5   6
HETATM    6  C   UNL     1      -9.077   7.972  73.280  1.00  0.00    -0.349 C  
BRANCH   6   7
HETATM    7  C   UNL     1     -10.438   7.323  73.533  1.00  0.00    -0.421 C  
BRANCH   7   8
HETATM    8  C   UNL     1     -11.459   7.768  72.486  1.00  0.00    -0.428 C  
BRANCH   8   9
HETATM    9  C   UNL     1     -11.976   6.581  71.672  1.00  0.00    -0.387 C  
BRANCH   9  10
HETATM   10  C   UNL     1     -11.619   6.741  70.192  1.00  0.00    -0.397 C  
BRANCH  10  11
HETATM   11  C   UNL     1     -10.652   5.666  69.702  1.00  0.00    -0.401 C  
BRANCH  11  12
HETATM   12  C   UNL     1     -10.656   5.505  68.199  1.00  0.00    -0.134 C  
HETATM   13  O   UNL     1     -11.074   6.330  67.400  1.00  0.00    -0.350 OA 
BRANCH  12  14
HETATM   14  O   UNL     1     -10.097   4.307  67.880  1.00  0.00    -0.046 OA 
BRANCH  14  15
HETATM   15  C   UNL     1      -9.770   4.110  66.497  1.00  0.00    -0.209 C  
BRANCH  15  16
HETATM   16  N   UNL     1      -8.338   4.142  66.243  1.00  0.00    -0.105 N  
HETATM   17  C   UNL     1      -7.669   2.950  66.516  1.00  0.00    -0.076 C  
HETATM   18  C   UNL     1      -6.196   3.078  66.793  1.00  0.00    -0.025 C  
HETATM   19  O   UNL     1      -8.236   1.869  66.647  1.00  0.00    -0.076 OA 
HETATM   20  C   UNL     1      -5.492   3.957  65.791  1.00  0.00    -0.013 C  
HETATM   21  C   UNL     1      -6.268   5.204  65.479  1.00  0.00    -0.034 A  
HETATM   22  C   UNL     1      -5.581   6.295  64.924  1.00  0.00    -0.022 A  
HETATM   23  C   UNL     1      -6.264   7.440  64.515  1.00  0.00    -0.037 A  
HETATM   24  C   UNL     1      -7.648   7.487  64.632  1.00  0.00    -0.111 A  
HETATM   25  C   UNL     1      -8.333   6.404  65.198  1.00  0.00    -0.109 A  
HETATM   26  C   UNL     1      -7.661   5.258  65.654  1.00  0.00    -0.087 A  
BRANCH  24  27
HETATM   27  O   UNL     1      -8.433   8.549  64.265  1.00  0.00    -0.144 OA 
BRANCH  27  28
HETATM   28  C   UNL     1      -8.112   9.810  64.857  1.00  0.00    -0.140 C  
BRANCH  28  29
HETATM   29  C   UNL     1      -8.613   9.821  66.302  1.00  0.00    -0.137 C  
BRANCH  29  30
HETATM   30  C   UNL     1     -10.137   9.997  66.382  1.00  0.00    -0.307 C  
BRANCH  30  31
HETATM   31  C   UNL     1     -10.649  11.239  65.626  1.00  0.00    -0.244 C  
BRANCH  31  32
HETATM   32  N   UNL     1     -11.162  12.292  66.512  1.00  0.00    -0.306 NA 
HETATM   33  C   UNL     1     -10.172  12.765  67.502  1.00  0.00    -0.216 C  
HETATM   34  C   UNL     1      -9.074  13.664  66.901  1.00  0.00    -0.240 C  
HETATM   35  N   UNL     1      -9.702  14.883  66.363  1.00  0.00    -0.269 NA 
HETATM   36  C   UNL     1     -10.716  14.592  65.331  1.00  0.00    -0.361 C  
HETATM   37  C   UNL     1     -11.696  13.458  65.768  1.00  0.00    -0.349 C  
BRANCH  35  38
HETATM   38  C   UNL     1      -9.253  16.149  66.729  1.00  0.00    -0.231 A  
HETATM   39  C   UNL     1      -9.876  17.040  67.646  1.00  0.00    -0.257 A  
HETATM   40 CL   UNL     1     -11.440  16.700  68.343  1.00  0.00    -0.157 Cl 
HETATM   41  C   UNL     1      -9.288  18.291  67.955  1.00  0.00    -0.284 A  
HETATM   42  C   UNL     1      -8.112  18.710  67.332  1.00  0.00    -0.258 A  
HETATM   43 CL   UNL     1      -9.966  19.393  69.114  1.00  0.00    -0.478 Cl 
HETATM   44  C   UNL     1      -7.493  17.875  66.421  1.00  0.00    -0.308 A  
HETATM   45  C   UNL     1      -8.044  16.618  66.154  1.00  0.00    -0.273 A  
ENDBRANCH  35  38
ENDBRANCH  31  32
ENDBRANCH  30  31
ENDBRANCH  29  30
ENDBRANCH  28  29
ENDBRANCH  27  28
ENDBRANCH  24  27
ENDBRANCH  15  16
ENDBRANCH  14  15
ENDBRANCH  12  14
ENDBRANCH  11  12
ENDBRANCH  10  11
ENDBRANCH   9  10
ENDBRANCH   8   9
ENDBRANCH   7   8
ENDBRANCH   6   7
ENDBRANCH   5   6
ENDBRANCH   4   5
ENDBRANCH   3   4
ENDBRANCH   2   3
TORSDOF 20
ENDMDL
MODEL       68
REMARK 921   NORMALIZED FREE ENERGY PREDICTED BY IDOCK:   -4.24 KCAL/MOL
REMARK 922        TOTAL FREE ENERGY PREDICTED BY IDOCK:  -13.04 KCAL/MOL
REMARK 923 INTER-LIGAND FREE ENERGY PREDICTED BY IDOCK:  -10.00 KCAL/MOL
REMARK 924 INTRA-LIGAND FREE ENERGY PREDICTED BY IDOCK:   -3.03 KCAL/MOL
REMARK 927      BINDING AFFINITY PREDICTED BY RF-SCORE:    0.00 PKD
ROOT
HETATM    1  C   UNL     1      -7.464   6.205  71.028  1.00  0.00    -0.085 C  
HETATM    2  C   UNL     1      -8.393   5.758  72.145  1.00  0.00    -0.115 C  
ENDROOT
BRANCH   2   3
HETATM    3  C   UNL     1      -7.636   4.978  73.219  1.00  0.00    -0.089 C  
BRANCH   3   4
HETATM    4  C   UNL     1      -8.353   3.675  73.569  1.00  0.00    -0.083 C  
BRANCH   4   5
HETATM    5  C   UNL     1      -9.756   3.640  72.963  1.00  0.00    -0.175 C  
BRANCH   5   6
HETATM    6  C   UNL     1      -9.910   2.467  71.995  1.00  0.00    -0.223 C  
BRANCH   6   7
HETATM    7  C   UNL     1      -8.556   2.025  71.440  1.00  0.00    -0.091 C  
BRANCH   7   8
HETATM    8  C   UNL     1      -8.507   2.194  69.922  1.00  0.00    -0.086 C  
BRANCH   8   9
HETATM    9  C   UNL     1      -9.443   3.309  69.454  1.00  0.00    -0.203 C  
BRANCH   9  10
HETATM   10  C   UNL     1      -8.841   4.061  68.264  1.00  0.00    -0.138 C  
BRANCH  10  11
HETATM   11  C   UNL     1      -9.416   3.601  66.927  1.00  0.00    -0.213 C  
BRANCH  11  12
HETATM   12  C   UNL     1     -10.303   4.636  66.275  1.00  0.00    -0.255 C  
HETATM   13  O   UNL     1     -11.206   4.400  65.486  1.00  0.00     0.037 OA 
BRANCH  12  14
HETATM   14  O   UNL     1      -9.950   5.870  66.727  1.00  0.00    -0.152 OA 
BRANCH  14  15
HETATM   15  C   UNL     1     -11.015   6.686  67.234  1.00  0.00    -0.385 C  
BRANCH  15  16
HETATM   16  N   UNL     1     -10.567   7.650  68.227  1.00  0.00    -0.165 N  
HETATM   17  C   UNL     1     -10.790   7.273  69.550  1.00  0.00    -0.209 C  
HETATM   18  C   UNL     1     -10.859   8.397  70.547  1.00  0.00    -0.250 C  
HETATM   19  O   UNL     1     -11.035   6.120  69.893  1.00  0.00    -0.316 OA 
HETATM   20  C   UNL     1      -9.739   9.393  70.375  1.00  0.00    -0.315 C  
HETATM   21  C   UNL     1      -9.492   9.733  68.934  1.00  0.00    -0.161 A  
HETATM   22  C   UNL     1      -8.809  10.924  68.639  1.00  0.00    -0.158 A  
HETATM   23  C   UNL     1      -8.458  11.242  67.328  1.00  0.00    -0.144 A  
HETATM   24  C   UNL     1      -8.760  10.352  66.304  1.00  0.00    -0.153 A  
HETATM   25  C   UNL     1      -9.452   9.169  66.597  1.00  0.00    -0.242 A  
HETATM   26  C   UNL     1      -9.853   8.848  67.905  1.00  0.00    -0.169 A  
BRANCH  24  27
HETATM   27  O   UNL     1      -8.465  10.545  64.980  1.00  0.00    -0.173 OA 
BRANCH  27  28
HETATM   28  C   UNL     1      -9.169   9.722  64.047  1.00  0.00    -0.215 C  
BRANCH  28  29
HETATM   29  C   UNL     1      -9.938  10.621  63.076  1.00  0.00    -0.239 C  
BRANCH  29  30
HETATM   30  C   UNL     1     -10.820  11.642  63.811  1.00  0.00    -0.493 C  
BRANCH  30  31
HETATM   31  C   UNL     1     -10.144  13.016  63.989  1.00  0.00    -0.008 C  
BRANCH  31  32
HETATM   32  N   UNL     1     -10.998  14.006  64.658  1.00  0.00    -0.397 NA 
HETATM   33  C   UNL     1     -12.189  13.417  65.303  1.00  0.00    -0.440 C  
HETATM   34  C   UNL     1     -11.877  12.656  66.606  1.00  0.00    -0.380 C  
HETATM   35  N   UNL     1     -11.329  13.605  67.589  1.00  0.00    -0.286 NA 
HETATM   36  C   UNL     1     -10.105  14.277  67.109  1.00  0.00    -0.254 C  
HETATM   37  C   UNL     1     -10.261  14.820  65.653  1.00  0.00    -0.358 C  
BRANCH  35  38
HETATM   38  C   UNL     1     -11.870  13.716  68.867  1.00  0.00    -0.364 A  
HETATM   39  C   UNL     1     -12.368  12.656  69.674  1.00  0.00     0.015 A  
HETATM   40 CL   UNL     1     -12.513  11.026  69.067  1.00  0.00    -0.022 Cl 
HETATM   41  C   UNL     1     -12.861  12.906  70.978  1.00  0.00    -0.184 A  
HETATM   42  C   UNL     1     -12.921  14.203  71.490  1.00  0.00    -0.417 A  
HETATM   43 CL   UNL     1     -13.422  11.646  72.034  1.00  0.00    -0.447 Cl 
HETATM   44  C   UNL     1     -12.462  15.256  70.723  1.00  0.00    -0.457 A  
HETATM   45  C   UNL     1     -11.928  15.005  69.456  1.00  0.00    -0.346 A  
ENDBRANCH  35  38
ENDBRANCH  31  32
ENDBRANCH  30  31
ENDBRANCH  29  30
ENDBRANCH  28  29
ENDBRANCH  27  28
ENDBRANCH  24  27
ENDBRANCH  15  16
ENDBRANCH  14  15
ENDBRANCH  12  14
ENDBRANCH  11  12
ENDBRANCH  10  11
ENDBRANCH   9  10
ENDBRANCH   8   9
ENDBRANCH   7   8
ENDBRANCH   6   7
ENDBRANCH   5   6
ENDBRANCH   4   5
ENDBRANCH   3   4
ENDBRANCH   2   3
TORSDOF 20
ENDMDL
MODEL       69
REMARK 921   NORMALIZED FREE ENERGY PREDICTED BY IDOCK:   -4.21 KCAL/MOL
REMARK 922        TOTAL FREE ENERGY PREDICTED BY IDOCK:  -12.98 KCAL/MOL
REMARK 923 INTER-LIGAND FREE ENERGY PREDICTED BY IDOCK:   -9.38 KCAL/MOL
REMARK 924 INTRA-LIGAND FREE ENERGY PREDICTED BY IDOCK:   -3.60 KCAL/MOL
REMARK 927      BINDING AFFINITY PREDICTED BY RF-SCORE:    0.00 PKD
ROOT
HETATM    1  C   UNL     1      -9.967  17.472  66.385  1.00  0.00    -0.330 C  
HETATM    2  C   UNL     1     -10.242  16.032  66.783  1.00  0.00    -0.275 C  
ENDROOT
BRANCH   2   3
HETATM    3  C   UNL     1     -10.158  15.095  65.579  1.00  0.00    -0.402 C  
BRANCH   3   4
HETATM    4  C   UNL     1     -11.380  15.244  64.673  1.00  0.00    -0.364 C  
BRANCH   4   5
HETATM    5  C   UNL     1     -12.302  14.030  64.789  1.00  0.00    -0.437 C  
BRANCH   5   6
HETATM    6  C   UNL     1     -12.257  13.179  63.521  1.00  0.00    -0.552 C  
BRANCH   6   7
HETATM    7  C   UNL     1     -11.844  11.740  63.834  1.00  0.00    -0.449 C  
BRANCH   7   8
HETATM    8  C   UNL     1     -10.350  11.535  63.590  1.00  0.00    -0.467 C  
BRANCH   8   9
HETATM    9  C   UNL     1      -9.582  11.412  64.907  1.00  0.00    -0.244 C  
BRANCH   9  10
HETATM   10  C   UNL     1     -10.486  10.862  66.014  1.00  0.00    -0.287 C  
BRANCH  10  11
HETATM   11  C   UNL     1     -10.489  11.742  67.262  1.00  0.00    -0.242 C  
BRANCH  11  12
HETATM   12  C   UNL     1      -9.378  11.403  68.228  1.00  0.00    -0.187 C  
HETATM   13  O   UNL     1      -8.186  11.389  67.959  1.00  0.00    -0.127 OA 
BRANCH  12  14
HETATM   14  O   UNL     1      -9.917  11.142  69.450  1.00  0.00    -0.083 OA 
BRANCH  14  15
HETATM   15  C   UNL     1     -11.298  10.757  69.462  1.00  0.00    -0.289 C  
BRANCH  15  16
HETATM   16  N   UNL     1     -11.530   9.498  70.154  1.00  0.00    -0.206 N  
HETATM   17  C   UNL     1     -12.263   9.607  71.335  1.00  0.00    -0.385 C  
HETATM   18  C   UNL     1     -12.069   8.495  72.328  1.00  0.00    -0.455 C  
HETATM   19  O   UNL     1     -12.938  10.591  71.625  1.00  0.00    -0.412 OA 
HETATM   20  C   UNL     1     -12.137   7.130  71.690  1.00  0.00    -0.371 C  
HETATM   21  C   UNL     1     -11.383   7.066  70.394  1.00  0.00    -0.354 A  
HETATM   22  C   UNL     1     -10.994   5.807  69.911  1.00  0.00    -0.389 A  
HETATM   23  C   UNL     1     -10.385   5.674  68.664  1.00  0.00    -0.277 A  
HETATM   24  C   UNL     1     -10.190   6.802  67.875  1.00  0.00    -0.171 A  
HETATM   25  C   UNL     1     -10.567   8.061  68.362  1.00  0.00    -0.150 A  
HETATM   26  C   UNL     1     -11.144   8.222  69.632  1.00  0.00    -0.001 A  
BRANCH  24  27
HETATM   27  O   UNL     1      -9.609   6.804  66.634  1.00  0.00    -0.165 OA 
BRANCH  27  28
HETATM   28  C   UNL     1      -9.468   5.532  65.997  1.00  0.00    -0.130 C  
BRANCH  28  29
HETATM   29  C   UNL     1      -8.146   5.507  65.227  1.00  0.00    -0.122 C  
BRANCH  29  30
HETATM   30  C   UNL     1      -7.156   4.490  65.815  1.00  0.00    -0.067 C  
BRANCH  30  31
HETATM   31  C   UNL     1      -7.787   3.568  66.879  1.00  0.00    -0.080 C  
BRANCH  31  32
HETATM   32  N   UNL     1      -6.854   3.180  67.944  1.00  0.00    -0.048 NA 
HETATM   33  C   UNL     1      -5.956   4.274  68.369  1.00  0.00    -0.027 C  
HETATM   34  C   UNL     1      -6.650   5.348  69.229  1.00  0.00    -0.047 C  
HETATM   35  N   UNL     1      -7.123   4.723  70.476  1.00  0.00    -0.047 NA 
HETATM   36  C   UNL     1      -8.060   3.608  70.233  1.00  0.00    -0.049 C  
HETATM   37  C   UNL     1      -7.541   2.628  69.135  1.00  0.00    -0.043 C  
BRANCH  35  38
HETATM   38  C   UNL     1      -6.795   5.253  71.720  1.00  0.00    -0.064 A  
HETATM   39  C   UNL     1      -7.193   6.516  72.238  1.00  0.00    -0.086 A  
HETATM   40 CL   UNL     1      -8.056   7.680  71.265  1.00  0.00    -0.094 Cl 
HETATM   41  C   UNL     1      -6.815   6.918  73.543  1.00  0.00    -0.074 A  
HETATM   42  C   UNL     1      -5.999   6.113  74.338  1.00  0.00    -0.064 A  
HETATM   43 CL   UNL     1      -7.324   8.419  74.254  1.00  0.00    -0.234 Cl 
HETATM   44  C   UNL     1      -5.580   4.887  73.856  1.00  0.00    -0.018 A  
HETATM   45  C   UNL     1      -5.995   4.467  72.589  1.00  0.00    -0.016 A  
ENDBRANCH  35  38
ENDBRANCH  31  32
ENDBRANCH  30  31
ENDBRANCH  29  30
ENDBRANCH  28  29
ENDBRANCH  27  28
ENDBRANCH  24  27
ENDBRANCH  15  16
ENDBRANCH  14  15
ENDBRANCH  12  14
ENDBRANCH  11  12
ENDBRANCH  10  11
ENDBRANCH   9  10
ENDBRANCH   8   9
ENDBRANCH   7   8
ENDBRANCH   6   7
ENDBRANCH   5   6
ENDBRANCH   4   5
ENDBRANCH   3   4
ENDBRANCH   2   3
TORSDOF 20
ENDMDL
MODEL       70
REMARK 921   NORMALIZED FREE ENERGY PREDICTED BY IDOCK:   -4.19 KCAL/MOL
REMARK 922        TOTAL FREE ENERGY PREDICTED BY IDOCK:  -12.92 KCAL/MOL
REMARK 923 INTER-LIGAND FREE ENERGY PREDICTED BY IDOCK:   -9.95 KCAL/MOL
REMARK 924 INTRA-LIGAND FREE ENERGY PREDICTED BY IDOCK:   -2.98 KCAL/MOL
REMARK 927      BINDING AFFINITY PREDICTED BY RF-SCORE:    0.00 PKD
ROOT
HETATM    1  C   UNL     1     -11.320   5.829  72.480  1.00  0.00    -0.358 C  
HETATM    2  C   UNL     1     -10.699   5.469  71.140  1.00  0.00    -0.280 C  
ENDROOT
BRANCH   2   3
HETATM    3  C   UNL     1      -9.379   6.208  70.923  1.00  0.00    -0.170 C  
BRANCH   3   4
HETATM    4  C   UNL     1      -8.362   5.861  72.009  1.00  0.00    -0.115 C  
BRANCH   4   5
HETATM    5  C   UNL     1      -7.410   7.029  72.265  1.00  0.00    -0.085 C  
BRANCH   5   6
HETATM    6  C   UNL     1      -5.960   6.631  71.993  1.00  0.00    -0.038 C  
BRANCH   6   7
HETATM    7  C   UNL     1      -5.206   7.745  71.267  1.00  0.00    -0.027 C  
BRANCH   7   8
HETATM    8  C   UNL     1      -6.076   8.994  71.130  1.00  0.00    -0.058 C  
BRANCH   8   9
HETATM    9  C   UNL     1      -5.458  10.000  70.158  1.00  0.00    -0.044 C  
BRANCH   9  10
HETATM   10  C   UNL     1      -6.373  11.213  69.976  1.00  0.00    -0.147 C  
BRANCH  10  11
HETATM   11  C   UNL     1      -7.425  10.998  68.891  1.00  0.00    -0.123 C  
BRANCH  11  12
HETATM   12  C   UNL     1      -7.602  12.198  67.990  1.00  0.00    -0.123 C  
HETATM   13  O   UNL     1      -6.838  13.148  67.918  1.00  0.00    -0.101 OA 
BRANCH  12  14
HETATM   14  O   UNL     1      -8.736  12.037  67.255  1.00  0.00    -0.161 OA 
BRANCH  14  15
HETATM   15  C   UNL     1      -8.559  11.924  65.836  1.00  0.00     0.215 C  
BRANCH  15  16
HETATM   16  N   UNL     1      -9.800  12.091  65.095  1.00  0.00    -0.233 N  
HETATM   17  C   UNL     1     -10.414  10.902  64.708  1.00  0.00    -0.303 C  
HETATM   18  C   UNL     1     -11.343  11.000  63.529  1.00  0.00     0.385 C  
HETATM   19  O   UNL     1     -10.145   9.809  65.200  1.00  0.00    -0.262 OA 
HETATM   20  C   UNL     1     -12.288  12.170  63.633  1.00  0.00    -0.673 C  
HETATM   21  C   UNL     1     -11.602  13.420  64.105  1.00  0.00    -0.440 A  
HETATM   22  C   UNL     1     -12.217  14.655  63.848  1.00  0.00    -0.073 A  
HETATM   23  C   UNL     1     -11.684  15.840  64.352  1.00  0.00    -0.201 A  
HETATM   24  C   UNL     1     -10.545  15.793  65.148  1.00  0.00    -0.411 A  
HETATM   25  C   UNL     1      -9.924  14.562  65.395  1.00  0.00    -0.352 A  
HETATM   26  C   UNL     1     -10.421  13.360  64.863  1.00  0.00    -0.390 A  
BRANCH  24  27
HETATM   27  O   UNL     1      -9.928  16.882  65.705  1.00  0.00    -0.552 OA 
BRANCH  27  28
HETATM   28  C   UNL     1      -8.723  16.626  66.431  1.00  0.00    -0.310 C  
BRANCH  28  29
HETATM   29  C   UNL     1      -8.964  16.926  67.912  1.00  0.00    -0.225 C  
BRANCH  29  30
HETATM   30  C   UNL     1     -10.417  17.345  68.186  1.00  0.00    -0.389 C  
BRANCH  30  31
HETATM   31  C   UNL     1     -10.982  16.766  69.499  1.00  0.00    -0.158 C  
BRANCH  31  32
HETATM   32  N   UNL     1     -12.102  15.839  69.294  1.00  0.00    -0.297 NA 
HETATM   33  C   UNL     1     -11.762  14.682  68.440  1.00  0.00    -0.320 C  
HETATM   34  C   UNL     1     -10.885  13.628  69.142  1.00  0.00    -0.152 C  
HETATM   35  N   UNL     1     -11.637  13.068  70.278  1.00  0.00    -0.085 NA 
HETATM   36  C   UNL     1     -12.042  14.097  71.255  1.00  0.00    -0.284 C  
HETATM   37  C   UNL     1     -12.679  15.346  70.567  1.00  0.00    -0.405 C  
BRANCH  35  38
HETATM   38  C   UNL     1     -11.800  11.694  70.430  1.00  0.00    -0.293 A  
HETATM   39  C   UNL     1     -12.754  11.037  71.256  1.00  0.00    -0.432 A  
HETATM   40 CL   UNL     1     -13.784  11.919  72.354  1.00  0.00    -0.105 Cl 
HETATM   41  C   UNL     1     -12.835   9.623  71.288  1.00  0.00    -0.350 A  
HETATM   42  C   UNL     1     -11.950   8.832  70.554  1.00  0.00     0.025 A  
HETATM   43 CL   UNL     1     -14.019   8.766  72.226  1.00  0.00    -0.494 Cl 
HETATM   44  C   UNL     1     -11.000   9.441  69.756  1.00  0.00    -0.234 A  
HETATM   45  C   UNL     1     -10.952  10.836  69.683  1.00  0.00    -0.320 A  
ENDBRANCH  35  38
ENDBRANCH  31  32
ENDBRANCH  30  31
ENDBRANCH  29  30
ENDBRANCH  28  29
ENDBRANCH  27  28
ENDBRANCH  24  27
ENDBRANCH  15  16
ENDBRANCH  14  15
ENDBRANCH  12  14
ENDBRANCH  11  12
ENDBRANCH  10  11
ENDBRANCH   9  10
ENDBRANCH   8   9
ENDBRANCH   7   8
ENDBRANCH   6   7
ENDBRANCH   5   6
ENDBRANCH   4   5
ENDBRANCH   3   4
ENDBRANCH   2   3
TORSDOF 20
ENDMDL
MODEL       71
REMARK 921   NORMALIZED FREE ENERGY PREDICTED BY IDOCK:   -4.15 KCAL/MOL
REMARK 922        TOTAL FREE ENERGY PREDICTED BY IDOCK:  -12.84 KCAL/MOL
REMARK 923 INTER-LIGAND FREE ENERGY PREDICTED BY IDOCK:   -9.18 KCAL/MOL
REMARK 924 INTRA-LIGAND FREE ENERGY PREDICTED BY IDOCK:   -3.66 KCAL/MOL
REMARK 927      BINDING AFFINITY PREDICTED BY RF-SCORE:    0.00 PKD
ROOT
HETATM    1  C   UNL     1     -10.469  20.182  67.221  1.00  0.00    -0.430 C  
HETATM    2  C   UNL     1      -9.294  19.643  66.422  1.00  0.00    -0.463 C  
ENDROOT
BRANCH   2   3
HETATM    3  C   UNL     1      -9.337  18.118  66.330  1.00  0.00    -0.274 C  
BRANCH   3   4
HETATM    4  C   UNL     1      -9.905  17.500  67.607  1.00  0.00    -0.291 C  
BRANCH   4   5
HETATM    5  C   UNL     1      -8.878  16.588  68.280  1.00  0.00    -0.210 C  
BRANCH   5   6
HETATM    6  C   UNL     1      -9.501  15.248  68.669  1.00  0.00    -0.204 C  
BRANCH   6   7
HETATM    7  C   UNL     1      -9.838  14.414  67.433  1.00  0.00    -0.224 C  
BRANCH   7   8
HETATM    8  C   UNL     1     -11.339  14.144  67.348  1.00  0.00    -0.346 C  
BRANCH   8   9
HETATM    9  C   UNL     1     -11.783  13.130  68.404  1.00  0.00    -0.386 C  
BRANCH   9  10
HETATM   10  C   UNL     1     -10.777  11.981  68.512  1.00  0.00    -0.261 C  
BRANCH  10  11
HETATM   11  C   UNL     1     -11.283  10.694  67.867  1.00  0.00    -0.376 C  
BRANCH  11  12
HETATM   12  C   UNL     1     -10.195   9.914  67.166  1.00  0.00    -0.228 C  
HETATM   13  O   UNL     1     -10.091   9.773  65.957  1.00  0.00    -0.276 OA 
BRANCH  12  14
HETATM   14  O   UNL     1      -9.337   9.415  68.097  1.00  0.00    -0.134 OA 
BRANCH  14  15
HETATM   15  C   UNL     1      -7.946   9.432  67.749  1.00  0.00    -0.096 C  
BRANCH  15  16
HETATM   16  N   UNL     1      -7.391   8.100  67.564  1.00  0.00    -0.091 N  
HETATM   17  C   UNL     1      -7.078   7.775  66.245  1.00  0.00    -0.070 C  
HETATM   18  C   UNL     1      -7.029   6.306  65.929  1.00  0.00    -0.061 C  
HETATM   19  O   UNL     1      -6.961   8.609  65.351  1.00  0.00    -0.073 OA 
HETATM   20  C   UNL     1      -6.253   5.518  66.954  1.00  0.00    -0.035 C  
HETATM   21  C   UNL     1      -6.575   5.934  68.360  1.00  0.00    -0.052 A  
HETATM   22  C   UNL     1      -6.280   5.041  69.403  1.00  0.00    -0.033 A  
HETATM   23  C   UNL     1      -6.459   5.411  70.735  1.00  0.00    -0.035 A  
HETATM   24  C   UNL     1      -6.904   6.693  71.035  1.00  0.00    -0.062 A  
HETATM   25  C   UNL     1      -7.210   7.580  69.994  1.00  0.00    -0.069 A  
HETATM   26  C   UNL     1      -7.078   7.214  68.644  1.00  0.00    -0.085 A  
BRANCH  24  27
HETATM   27  O   UNL     1      -7.115   7.178  72.298  1.00  0.00    -0.067 OA 
BRANCH  27  28
HETATM   28  C   UNL     1      -8.226   8.064  72.461  1.00  0.00    -0.146 C  
BRANCH  28  29
HETATM   29  C   UNL     1      -8.760   7.932  73.889  1.00  0.00    -0.332 C  
BRANCH  29  30
HETATM   30  C   UNL     1     -10.180   7.348  73.920  1.00  0.00    -0.218 C  
BRANCH  30  31
HETATM   31  C   UNL     1     -11.055   7.805  72.736  1.00  0.00    -0.398 C  
BRANCH  31  32
HETATM   32  N   UNL     1     -11.745   6.701  72.057  1.00  0.00    -0.300 NA 
HETATM   33  C   UNL     1     -11.876   6.895  70.599  1.00  0.00    -0.368 C  
HETATM   34  C   UNL     1     -10.561   6.684  69.824  1.00  0.00    -0.228 C  
HETATM   35  N   UNL     1     -10.130   5.286  69.995  1.00  0.00    -0.243 NA 
HETATM   36  C   UNL     1      -9.927   4.924  71.412  1.00  0.00    -0.197 C  
HETATM   37  C   UNL     1     -11.114   5.385  72.316  1.00  0.00    -0.196 C  
BRANCH  35  38
HETATM   38  C   UNL     1      -9.831   4.482  68.899  1.00  0.00    -0.120 A  
HETATM   39  C   UNL     1     -10.007   4.815  67.528  1.00  0.00    -0.144 A  
HETATM   40 CL   UNL     1     -10.803   6.286  67.031  1.00  0.00    -0.435 Cl 
HETATM   41  C   UNL     1      -9.625   3.910  66.507  1.00  0.00    -0.192 A  
HETATM   42  C   UNL     1      -9.115   2.647  66.814  1.00  0.00    -0.149 A  
HETATM   43 CL   UNL     1      -9.754   4.284  64.815  1.00  0.00    -0.176 Cl 
HETATM   44  C   UNL     1      -8.951   2.287  68.138  1.00  0.00    -0.190 A  
HETATM   45  C   UNL     1      -9.279   3.199  69.146  1.00  0.00    -0.222 A  
ENDBRANCH  35  38
ENDBRANCH  31  32
ENDBRANCH  30  31
ENDBRANCH  29  30
ENDBRANCH  28  29
ENDBRANCH  27  28
ENDBRANCH  24  27
ENDBRANCH  15  16
ENDBRANCH  14  15
ENDBRANCH  12  14
ENDBRANCH  11  12
ENDBRANCH  10  11
ENDBRANCH   9  10
ENDBRANCH   8   9
ENDBRANCH   7   8
ENDBRANCH   6   7
ENDBRANCH   5   6
ENDBRANCH   4   5
ENDBRANCH   3   4
ENDBRANCH   2   3
TORSDOF 20
ENDMDL
MODEL       72
REMARK 921   NORMALIZED FREE ENERGY PREDICTED BY IDOCK:   -4.12 KCAL/MOL
REMARK 922        TOTAL FREE ENERGY PREDICTED BY IDOCK:  -12.79 KCAL/MOL
REMARK 923 INTER-LIGAND FREE ENERGY PREDICTED BY IDOCK:  -10.02 KCAL/MOL
REMARK 924 INTRA-LIGAND FREE ENERGY PREDICTED BY IDOCK:   -2.77 KCAL/MOL
REMARK 927      BINDING AFFINITY PREDICTED BY RF-SCORE:    0.00 PKD
ROOT
HETATM    1  C   UNL     1     -11.515   6.386  69.507  1.00  0.00    -0.412 C  
HETATM    2  C   UNL     1     -10.335   5.436  69.629  1.00  0.00    -0.361 C  
ENDROOT
BRANCH   2   3
HETATM    3  C   UNL     1      -9.277   5.723  68.564  1.00  0.00    -0.126 C  
BRANCH   3   4
HETATM    4  C   UNL     1      -9.918   6.003  67.205  1.00  0.00    -0.177 C  
BRANCH   4   5
HETATM    5  C   UNL     1      -9.187   5.259  66.088  1.00  0.00    -0.158 C  
BRANCH   5   6
HETATM    6  C   UNL     1      -8.548   6.234  65.100  1.00  0.00    -0.030 C  
BRANCH   6   7
HETATM    7  C   UNL     1      -7.335   6.932  65.717  1.00  0.00    -0.079 C  
BRANCH   7   8
HETATM    8  C   UNL     1      -7.419   8.446  65.524  1.00  0.00    -0.085 C  
BRANCH   8   9
HETATM    9  C   UNL     1      -8.731   8.850  64.851  1.00  0.00    -0.184 C  
BRANCH   9  10
HETATM   10  C   UNL     1      -9.556   9.756  65.769  1.00  0.00    -0.318 C  
BRANCH  10  11
HETATM   11  C   UNL     1      -9.201   9.580  67.243  1.00  0.00    -0.154 C  
BRANCH  11  12
HETATM   12  C   UNL     1      -9.130  10.887  67.996  1.00  0.00    -0.152 C  
HETATM   13  O   UNL     1      -9.544  11.074  69.131  1.00  0.00    -0.166 OA 
BRANCH  12  14
HETATM   14  O   UNL     1      -8.511  11.815  67.218  1.00  0.00    -0.147 OA 
BRANCH  14  15
HETATM   15  C   UNL     1      -7.078  11.765  67.194  1.00  0.00    -0.146 C  
BRANCH  15  16
HETATM   16  N   UNL     1      -6.481  11.993  68.501  1.00  0.00    -0.055 N  
HETATM   17  C   UNL     1      -6.022  10.844  69.142  1.00  0.00    -0.042 C  
HETATM   18  C   UNL     1      -5.912  10.931  70.640  1.00  0.00    -0.087 C  
HETATM   19  O   UNL     1      -5.826   9.778  68.564  1.00  0.00    -0.040 OA 
HETATM   20  C   UNL     1      -5.234  12.198  71.097  1.00  0.00    -0.123 C  
HETATM   21  C   UNL     1      -5.713  13.407  70.347  1.00  0.00    -0.164 A  
HETATM   22  C   UNL     1      -5.515  14.671  70.924  1.00  0.00    -0.151 A  
HETATM   23  C   UNL     1      -5.842  15.835  70.230  1.00  0.00    -0.126 A  
HETATM   24  C   UNL     1      -6.341  15.742  68.936  1.00  0.00    -0.116 A  
HETATM   25  C   UNL     1      -6.551  14.480  68.364  1.00  0.00    -0.103 A  
HETATM   26  C   UNL     1      -6.268  13.293  69.061  1.00  0.00    -0.093 A  
BRANCH  24  27
HETATM   27  O   UNL     1      -6.695  16.806  68.150  1.00  0.00    -0.142 OA 
BRANCH  27  28
HETATM   28  C   UNL     1      -6.318  18.100  68.627  1.00  0.00    -0.209 C  
BRANCH  28  29
HETATM   29  C   UNL     1      -6.637  19.138  67.549  1.00  0.00    -0.211 C  
BRANCH  29  30
HETATM   30  C   UNL     1      -7.781  20.073  67.971  1.00  0.00    -0.301 C  
BRANCH  30  31
HETATM   31  C   UNL     1      -8.780  20.367  66.834  1.00  0.00    -0.247 C  
BRANCH  31  32
HETATM   32  N   UNL     1     -10.133  19.863  67.100  1.00  0.00    -0.409 NA 
HETATM   33  C   UNL     1     -10.606  18.885  66.099  1.00  0.00    -0.407 C  
HETATM   34  C   UNL     1      -9.953  17.496  66.231  1.00  0.00    -0.308 C  
HETATM   35  N   UNL     1     -10.317  16.924  67.539  1.00  0.00    -0.310 NA 
HETATM   36  C   UNL     1      -9.894  17.774  68.669  1.00  0.00    -0.359 C  
HETATM   37  C   UNL     1     -10.270  19.274  68.453  1.00  0.00    -0.411 C  
BRANCH  35  38
HETATM   38  C   UNL     1     -10.877  15.654  67.642  1.00  0.00    -0.307 A  
HETATM   39  C   UNL     1     -11.101  14.735  66.579  1.00  0.00    -0.334 A  
HETATM   40 CL   UNL     1     -10.829  15.171  64.912  1.00  0.00    -0.438 Cl 
HETATM   41  C   UNL     1     -11.649  13.453  66.832  1.00  0.00    -0.365 A  
HETATM   42  C   UNL     1     -12.036  13.074  68.118  1.00  0.00    -0.322 A  
HETATM   43 CL   UNL     1     -11.885  12.265  65.588  1.00  0.00    -0.457 Cl 
HETATM   44  C   UNL     1     -11.849  13.953  69.168  1.00  0.00    -0.401 A  
HETATM   45  C   UNL     1     -11.260  15.198  68.929  1.00  0.00    -0.292 A  
ENDBRANCH  35  38
ENDBRANCH  31  32
ENDBRANCH  30  31
ENDBRANCH  29  30
ENDBRANCH  28  29
ENDBRANCH  27  28
ENDBRANCH  24  27
ENDBRANCH  15  16
ENDBRANCH  14  15
ENDBRANCH  12  14
ENDBRANCH  11  12
ENDBRANCH  10  11
ENDBRANCH   9  10
ENDBRANCH   8   9
ENDBRANCH   7   8
ENDBRANCH   6   7
ENDBRANCH   5   6
ENDBRANCH   4   5
ENDBRANCH   3   4
ENDBRANCH   2   3
TORSDOF 20
ENDMDL
MODEL       73
REMARK 921   NORMALIZED FREE ENERGY PREDICTED BY IDOCK:   -4.10 KCAL/MOL
REMARK 922        TOTAL FREE ENERGY PREDICTED BY IDOCK:  -12.73 KCAL/MOL
REMARK 923 INTER-LIGAND FREE ENERGY PREDICTED BY IDOCK:   -9.45 KCAL/MOL
REMARK 924 INTRA-LIGAND FREE ENERGY PREDICTED BY IDOCK:   -3.28 KCAL/MOL
REMARK 927      BINDING AFFINITY PREDICTED BY RF-SCORE:    0.00 PKD
ROOT
HETATM    1  C   UNL     1     -12.072  13.346  68.781  1.00  0.00    -0.281 C  
HETATM    2  C   UNL     1     -12.255  13.968  70.157  1.00  0.00    -0.425 C  
ENDROOT
BRANCH   2   3
HETATM    3  C   UNL     1     -12.520  12.901  71.218  1.00  0.00    -0.298 C  
BRANCH   3   4
HETATM    4  C   UNL     1     -12.740  11.528  70.584  1.00  0.00    -0.259 C  
BRANCH   4   5
HETATM    5  C   UNL     1     -12.375  10.408  71.558  1.00  0.00    -0.468 C  
BRANCH   5   6
HETATM    6  C   UNL     1     -11.397   9.420  70.923  1.00  0.00    -0.386 C  
BRANCH   6   7
HETATM    7  C   UNL     1     -10.437   8.845  71.965  1.00  0.00    -0.383 C  
BRANCH   7   8
HETATM    8  C   UNL     1     -11.127   7.776  72.812  1.00  0.00    -0.457 C  
BRANCH   8   9
HETATM    9  C   UNL     1     -10.133   7.069  73.734  1.00  0.00    -0.390 C  
BRANCH   9  10
HETATM   10  C   UNL     1     -10.476   5.582  73.864  1.00  0.00    -0.308 C  
BRANCH  10  11
HETATM   11  C   UNL     1     -11.286   5.060  72.681  1.00  0.00    -0.239 C  
BRANCH  11  12
HETATM   12  C   UNL     1     -10.433   4.730  71.478  1.00  0.00    -0.072 C  
HETATM   13  O   UNL     1     -10.625   5.135  70.341  1.00  0.00    -0.249 OA 
BRANCH  12  14
HETATM   14  O   UNL     1      -9.404   3.931  71.869  1.00  0.00    -0.117 OA 
BRANCH  14  15
HETATM   15  C   UNL     1      -8.116   4.245  71.321  1.00  0.00    -0.081 C  
BRANCH  15  16
HETATM   16  N   UNL     1      -7.416   5.278  72.069  1.00  0.00    -0.094 N  
HETATM   17  C   UNL     1      -6.803   4.837  73.241  1.00  0.00    -0.069 C  
HETATM   18  C   UNL     1      -6.556   5.890  74.285  1.00  0.00    -0.076 C  
HETATM   19  O   UNL     1      -6.575   3.654  73.482  1.00  0.00    -0.031 OA 
HETATM   20  C   UNL     1      -5.946   7.144  73.710  1.00  0.00    -0.058 C  
HETATM   21  C   UNL     1      -6.596   7.557  72.421  1.00  0.00    -0.055 A  
HETATM   22  C   UNL     1      -6.449   8.888  71.999  1.00  0.00    -0.030 A  
HETATM   23  C   UNL     1      -6.939   9.305  70.762  1.00  0.00    -0.110 A  
HETATM   24  C   UNL     1      -7.551   8.382  69.923  1.00  0.00    -0.076 A  
HETATM   25  C   UNL     1      -7.709   7.056  70.349  1.00  0.00    -0.096 A  
HETATM   26  C   UNL     1      -7.260   6.624  71.609  1.00  0.00    -0.085 A  
BRANCH  24  27
HETATM   27  O   UNL     1      -8.068   8.663  68.686  1.00  0.00    -0.113 OA 
BRANCH  27  28
HETATM   28  C   UNL     1      -7.561   7.891  67.595  1.00  0.00    -0.109 C  
BRANCH  28  29
HETATM   29  C   UNL     1      -7.714   8.697  66.303  1.00  0.00    -0.098 C  
BRANCH  29  30
HETATM   30  C   UNL     1      -9.168   8.720  65.808  1.00  0.00    -0.269 C  
BRANCH  30  31
HETATM   31  C   UNL     1      -9.563  10.051  65.138  1.00  0.00    -0.291 C  
BRANCH  31  32
HETATM   32  N   UNL     1     -10.390  10.913  65.992  1.00  0.00    -0.249 NA 
HETATM   33  C   UNL     1      -9.663  11.462  67.156  1.00  0.00    -0.182 C  
HETATM   34  C   UNL     1      -8.677  12.591  66.797  1.00  0.00    -0.147 C  
HETATM   35  N   UNL     1      -9.437  13.723  66.241  1.00  0.00    -0.243 NA 
HETATM   36  C   UNL     1     -10.216  13.352  65.043  1.00  0.00    -0.307 C  
HETATM   37  C   UNL     1     -11.018  12.028  65.246  1.00  0.00    -0.308 C  
BRANCH  35  38
HETATM   38  C   UNL     1      -9.293  15.010  66.751  1.00  0.00    -0.251 A  
HETATM   39  C   UNL     1     -10.097  16.142  66.441  1.00  0.00    -0.308 A  
HETATM   40 CL   UNL     1     -11.326  16.089  65.204  1.00  0.00    -0.142 Cl 
HETATM   41  C   UNL     1      -9.860  17.393  67.065  1.00  0.00    -0.286 A  
HETATM   42  C   UNL     1      -8.803  17.565  67.958  1.00  0.00    -0.258 A  
HETATM   43 CL   UNL     1     -10.847  18.793  66.777  1.00  0.00    -0.345 Cl 
HETATM   44  C   UNL     1      -7.992  16.489  68.265  1.00  0.00    -0.177 A  
HETATM   45  C   UNL     1      -8.256  15.242  67.691  1.00  0.00    -0.175 A  
ENDBRANCH  35  38
ENDBRANCH  31  32
ENDBRANCH  30  31
ENDBRANCH  29  30
ENDBRANCH  28  29
ENDBRANCH  27  28
ENDBRANCH  24  27
ENDBRANCH  15  16
ENDBRANCH  14  15
ENDBRANCH  12  14
ENDBRANCH  11  12
ENDBRANCH  10  11
ENDBRANCH   9  10
ENDBRANCH   8   9
ENDBRANCH   7   8
ENDBRANCH   6   7
ENDBRANCH   5   6
ENDBRANCH   4   5
ENDBRANCH   3   4
ENDBRANCH   2   3
TORSDOF 20
ENDMDL
MODEL       74
REMARK 921   NORMALIZED FREE ENERGY PREDICTED BY IDOCK:   -4.10 KCAL/MOL
REMARK 922        TOTAL FREE ENERGY PREDICTED BY IDOCK:  -12.73 KCAL/MOL
REMARK 923 INTER-LIGAND FREE ENERGY PREDICTED BY IDOCK:  -10.14 KCAL/MOL
REMARK 924 INTRA-LIGAND FREE ENERGY PREDICTED BY IDOCK:   -2.59 KCAL/MOL
REMARK 927      BINDING AFFINITY PREDICTED BY RF-SCORE:    0.00 PKD
ROOT
HETATM    1  C   UNL     1      -7.080   7.437  74.098  1.00  0.00    -0.103 C  
HETATM    2  C   UNL     1      -8.384   6.792  73.658  1.00  0.00    -0.131 C  
ENDROOT
BRANCH   2   3
HETATM    3  C   UNL     1      -9.535   7.797  73.673  1.00  0.00    -0.312 C  
BRANCH   3   4
HETATM    4  C   UNL     1     -10.745   7.267  72.906  1.00  0.00    -0.365 C  
BRANCH   4   5
HETATM    5  C   UNL     1     -11.661   8.410  72.466  1.00  0.00    -0.429 C  
BRANCH   5   6
HETATM    6  C   UNL     1     -11.442   8.758  70.995  1.00  0.00    -0.337 C  
BRANCH   6   7
HETATM    7  C   UNL     1     -11.272  10.266  70.803  1.00  0.00    -0.373 C  
BRANCH   7   8
HETATM    8  C   UNL     1     -12.278  10.804  69.786  1.00  0.00    -0.359 C  
BRANCH   8   9
HETATM    9  C   UNL     1     -11.969  12.254  69.410  1.00  0.00    -0.318 C  
BRANCH   9  10
HETATM   10  C   UNL     1     -12.140  13.177  70.620  1.00  0.00    -0.346 C  
BRANCH  10  11
HETATM   11  C   UNL     1     -12.471  14.613  70.221  1.00  0.00    -0.401 C  
BRANCH  11  12
HETATM   12  C   UNL     1     -11.337  15.577  70.483  1.00  0.00    -0.351 C  
HETATM   13  O   UNL     1     -11.418  16.600  71.147  1.00  0.00    -0.238 OA 
BRANCH  12  14
HETATM   14  O   UNL     1     -10.210  15.110  69.882  1.00  0.00    -0.234 OA 
BRANCH  14  15
HETATM   15  C   UNL     1      -9.289  16.103  69.408  1.00  0.00    -0.186 C  
BRANCH  15  16
HETATM   16  N   UNL     1      -9.719  16.728  68.167  1.00  0.00    -0.240 N  
HETATM   17  C   UNL     1      -9.531  18.108  68.111  1.00  0.00    -0.294 C  
HETATM   18  C   UNL     1     -10.413  18.849  67.145  1.00  0.00    -0.509 C  
HETATM   19  O   UNL     1      -8.787  18.721  68.872  1.00  0.00    -0.298 OA 
HETATM   20  C   UNL     1     -10.475  18.186  65.792  1.00  0.00    -0.215 C  
HETATM   21  C   UNL     1     -10.622  16.695  65.891  1.00  0.00    -0.257 A  
HETATM   22  C   UNL     1     -11.116  15.999  64.776  1.00  0.00    -0.378 A  
HETATM   23  C   UNL     1     -11.176  14.606  64.770  1.00  0.00    -0.395 A  
HETATM   24  C   UNL     1     -10.711  13.898  65.871  1.00  0.00    -0.286 A  
HETATM   25  C   UNL     1     -10.230  14.592  66.989  1.00  0.00    -0.261 A  
HETATM   26  C   UNL     1     -10.199  15.996  67.034  1.00  0.00    -0.282 A  
BRANCH  24  27
HETATM   27  O   UNL     1     -10.712  12.532  65.987  1.00  0.00    -0.254 OA 
BRANCH  27  28
HETATM   28  C   UNL     1      -9.467  11.925  66.340  1.00  0.00    -0.228 C  
BRANCH  28  29
HETATM   29  C   UNL     1      -9.744  10.566  66.987  1.00  0.00    -0.212 C  
BRANCH  29  30
HETATM   30  C   UNL     1      -8.878  10.334  68.234  1.00  0.00    -0.126 C  
BRANCH  30  31
HETATM   31  C   UNL     1      -7.441  10.875  68.088  1.00  0.00    -0.091 C  
BRANCH  31  32
HETATM   32  N   UNL     1      -6.414   9.945  68.576  1.00  0.00    -0.050 NA 
HETATM   33  C   UNL     1      -6.562   9.598  70.004  1.00  0.00    -0.072 C  
HETATM   34  C   UNL     1      -7.723   8.625  70.290  1.00  0.00    -0.083 C  
HETATM   35  N   UNL     1      -7.452   7.351  69.604  1.00  0.00    -0.091 NA 
HETATM   36  C   UNL     1      -7.295   7.512  68.145  1.00  0.00    -0.096 C  
HETATM   37  C   UNL     1      -6.346   8.697  67.779  1.00  0.00    -0.057 C  
BRANCH  35  38
HETATM   38  C   UNL     1      -7.484   6.140  70.289  1.00  0.00    -0.090 A  
HETATM   39  C   UNL     1      -8.611   5.289  70.458  1.00  0.00    -0.120 A  
HETATM   40 CL   UNL     1     -10.208   5.759  69.933  1.00  0.00    -0.276 Cl 
HETATM   41  C   UNL     1      -8.495   4.059  71.152  1.00  0.00    -0.076 A  
HETATM   42  C   UNL     1      -7.288   3.671  71.735  1.00  0.00    -0.051 A  
HETATM   43 CL   UNL     1      -9.818   2.948  71.335  1.00  0.00    -0.220 Cl 
HETATM   44  C   UNL     1      -6.180   4.485  71.604  1.00  0.00    -0.018 A  
HETATM   45  C   UNL     1      -6.279   5.674  70.876  1.00  0.00    -0.031 A  
ENDBRANCH  35  38
ENDBRANCH  31  32
ENDBRANCH  30  31
ENDBRANCH  29  30
ENDBRANCH  28  29
ENDBRANCH  27  28
ENDBRANCH  24  27
ENDBRANCH  15  16
ENDBRANCH  14  15
ENDBRANCH  12  14
ENDBRANCH  11  12
ENDBRANCH  10  11
ENDBRANCH   9  10
ENDBRANCH   8   9
ENDBRANCH   7   8
ENDBRANCH   6   7
ENDBRANCH   5   6
ENDBRANCH   4   5
ENDBRANCH   3   4
ENDBRANCH   2   3
TORSDOF 20
ENDMDL
MODEL       75
REMARK 921   NORMALIZED FREE ENERGY PREDICTED BY IDOCK:   -4.06 KCAL/MOL
REMARK 922        TOTAL FREE ENERGY PREDICTED BY IDOCK:  -12.65 KCAL/MOL
REMARK 923 INTER-LIGAND FREE ENERGY PREDICTED BY IDOCK:  -10.50 KCAL/MOL
REMARK 924 INTRA-LIGAND FREE ENERGY PREDICTED BY IDOCK:   -2.15 KCAL/MOL
REMARK 927      BINDING AFFINITY PREDICTED BY RF-SCORE:    0.00 PKD
ROOT
HETATM    1  C   UNL     1     -12.509  15.658  74.108  1.00  0.00    -0.804 C  
HETATM    2  C   UNL     1     -11.850  15.778  72.744  1.00  0.00    -0.584 C  
ENDROOT
BRANCH   2   3
HETATM    3  C   UNL     1     -12.452  14.790  71.746  1.00  0.00    -0.410 C  
BRANCH   3   4
HETATM    4  C   UNL     1     -12.729  15.458  70.400  1.00  0.00    -0.407 C  
BRANCH   4   5
HETATM    5  C   UNL     1     -11.596  15.189  69.409  1.00  0.00    -0.343 C  
BRANCH   5   6
HETATM    6  C   UNL     1     -11.374  16.385  68.484  1.00  0.00    -0.289 C  
BRANCH   6   7
HETATM    7  C   UNL     1     -10.323  17.338  69.053  1.00  0.00    -0.330 C  
BRANCH   7   8
HETATM    8  C   UNL     1     -10.197  18.592  68.189  1.00  0.00    -0.412 C  
BRANCH   8   9
HETATM    9  C   UNL     1      -8.789  19.183  68.267  1.00  0.00    -0.377 C  
BRANCH   9  10
HETATM   10  C   UNL     1      -7.736  18.074  68.334  1.00  0.00    -0.291 C  
BRANCH  10  11
HETATM   11  C   UNL     1      -7.237  17.652  66.954  1.00  0.00    -0.233 C  
BRANCH  11  12
HETATM   12  C   UNL     1      -7.925  16.414  66.428  1.00  0.00    -0.294 C  
HETATM   13  O   UNL     1      -8.883  16.405  65.670  1.00  0.00    -0.406 OA 
BRANCH  12  14
HETATM   14  O   UNL     1      -7.290  15.314  66.914  1.00  0.00    -0.137 OA 
BRANCH  14  15
HETATM   15  C   UNL     1      -7.493  15.030  68.306  1.00  0.00    -0.107 C  
BRANCH  15  16
HETATM   16  N   UNL     1      -7.640  13.609  68.579  1.00  0.00    -0.127 N  
HETATM   17  C   UNL     1      -6.737  13.096  69.508  1.00  0.00     0.023 C  
HETATM   18  C   UNL     1      -6.483  11.616  69.423  1.00  0.00    -0.113 C  
HETATM   19  O   UNL     1      -6.085  13.796  70.278  1.00  0.00    -0.148 OA 
HETATM   20  C   UNL     1      -7.756  10.816  69.303  1.00  0.00    -0.129 C  
HETATM   21  C   UNL     1      -8.728  11.429  68.336  1.00  0.00    -0.157 A  
HETATM   22  C   UNL     1      -9.736  10.614  67.799  1.00  0.00    -0.179 A  
HETATM   23  C   UNL     1     -10.730  11.149  66.980  1.00  0.00    -0.316 A  
HETATM   24  C   UNL     1     -10.738  12.513  66.718  1.00  0.00    -0.236 A  
HETATM   25  C   UNL     1      -9.725  13.326  67.244  1.00  0.00    -0.231 A  
HETATM   26  C   UNL     1      -8.691  12.801  68.038  1.00  0.00    -0.194 A  
BRANCH  24  27
HETATM   27  O   UNL     1     -11.659  13.159  65.936  1.00  0.00    -0.326 OA 
BRANCH  27  28
HETATM   28  C   UNL     1     -12.062  12.484  64.742  1.00  0.00    -0.434 C  
BRANCH  28  29
HETATM   29  C   UNL     1     -10.883  12.455  63.766  1.00  0.00    -0.500 C  
BRANCH  29  30
HETATM   30  C   UNL     1     -10.368  11.028  63.527  1.00  0.00    -0.402 C  
BRANCH  30  31
HETATM   31  C   UNL     1      -9.203  10.960  62.519  1.00  0.00    -0.304 C  
BRANCH  31  32
HETATM   32  N   UNL     1      -7.936  10.520  63.118  1.00  0.00    -0.123 NA 
HETATM   33  C   UNL     1      -8.045  10.192  64.554  1.00  0.00    -0.160 C  
HETATM   34  C   UNL     1      -8.759   8.855  64.833  1.00  0.00    -0.149 C  
HETATM   35  N   UNL     1      -7.968   7.763  64.241  1.00  0.00    -0.135 NA 
HETATM   36  C   UNL     1      -7.778   7.923  62.786  1.00  0.00    -0.131 C  
HETATM   37  C   UNL     1      -7.334   9.370  62.403  1.00  0.00    -0.101 C  
BRANCH  35  38
HETATM   38  C   UNL     1      -7.582   6.658  64.995  1.00  0.00    -0.099 A  
HETATM   39  C   UNL     1      -6.651   6.646  66.070  1.00  0.00    -0.044 A  
HETATM   40 CL   UNL     1      -5.714   8.056  66.494  1.00  0.00    -0.039 Cl 
HETATM   41  C   UNL     1      -6.377   5.450  66.779  1.00  0.00    -0.039 A  
HETATM   42  C   UNL     1      -6.970   4.241  66.413  1.00  0.00    -0.059 A  
HETATM   43 CL   UNL     1      -5.300   5.385  68.140  1.00  0.00    -0.007 Cl 
HETATM   44  C   UNL     1      -7.865   4.218  65.360  1.00  0.00    -0.086 A  
HETATM   45  C   UNL     1      -8.176   5.406  64.693  1.00  0.00    -0.133 A  
ENDBRANCH  35  38
ENDBRANCH  31  32
ENDBRANCH  30  31
ENDBRANCH  29  30
ENDBRANCH  28  29
ENDBRANCH  27  28
ENDBRANCH  24  27
ENDBRANCH  15  16
ENDBRANCH  14  15
ENDBRANCH  12  14
ENDBRANCH  11  12
ENDBRANCH  10  11
ENDBRANCH   9  10
ENDBRANCH   8   9
ENDBRANCH   7   8
ENDBRANCH   6   7
ENDBRANCH   5   6
ENDBRANCH   4   5
ENDBRANCH   3   4
ENDBRANCH   2   3
TORSDOF 20
ENDMDL
MODEL       76
REMARK 921   NORMALIZED FREE ENERGY PREDICTED BY IDOCK:   -4.05 KCAL/MOL
REMARK 922        TOTAL FREE ENERGY PREDICTED BY IDOCK:  -12.63 KCAL/MOL
REMARK 923 INTER-LIGAND FREE ENERGY PREDICTED BY IDOCK:   -9.45 KCAL/MOL
REMARK 924 INTRA-LIGAND FREE ENERGY PREDICTED BY IDOCK:   -3.18 KCAL/MOL
REMARK 927      BINDING AFFINITY PREDICTED BY RF-SCORE:    0.00 PKD
ROOT
HETATM    1  C   UNL     1      -9.488   4.618  65.735  1.00  0.00    -0.176 C  
HETATM    2  C   UNL     1      -8.181   3.908  65.423  1.00  0.00    -0.101 C  
ENDROOT
BRANCH   2   3
HETATM    3  C   UNL     1      -7.311   4.733  64.476  1.00  0.00    -0.067 C  
BRANCH   3   4
HETATM    4  C   UNL     1      -8.105   5.881  63.852  1.00  0.00    -0.098 C  
BRANCH   4   5
HETATM    5  C   UNL     1      -7.202   7.081  63.566  1.00  0.00    -0.071 C  
BRANCH   5   6
HETATM    6  C   UNL     1      -7.701   7.872  62.357  1.00  0.00    -0.122 C  
BRANCH   6   7
HETATM    7  C   UNL     1      -8.203   9.256  62.770  1.00  0.00    -0.172 C  
BRANCH   7   8
HETATM    8  C   UNL     1      -8.325   9.363  64.289  1.00  0.00    -0.176 C  
BRANCH   8   9
HETATM    9  C   UNL     1      -8.384  10.822  64.743  1.00  0.00     0.004 C  
BRANCH   9  10
HETATM   10  C   UNL     1      -9.762  11.425  64.456  1.00  0.00    -0.268 C  
BRANCH  10  11
HETATM   11  C   UNL     1     -10.398  12.053  65.694  1.00  0.00    -0.288 C  
BRANCH  11  12
HETATM   12  C   UNL     1     -10.849  11.032  66.711  1.00  0.00    -0.251 C  
HETATM   13  O   UNL     1     -10.818   9.819  66.559  1.00  0.00    -0.045 OA 
BRANCH  12  14
HETATM   14  O   UNL     1     -11.271  11.678  67.831  1.00  0.00    -0.229 OA 
BRANCH  14  15
HETATM   15  C   UNL     1     -10.408  12.710  68.329  1.00  0.00    -0.241 C  
BRANCH  15  16
HETATM   16  N   UNL     1     -11.131  13.779  69.001  1.00  0.00    -0.256 N  
HETATM   17  C   UNL     1     -11.030  15.027  68.389  1.00  0.00    -0.264 C  
HETATM   18  C   UNL     1     -11.273  16.213  69.281  1.00  0.00    -0.337 C  
HETATM   19  O   UNL     1     -10.653  15.186  67.231  1.00  0.00    -0.274 OA 
HETATM   20  C   UNL     1     -12.502  16.050  70.139  1.00  0.00     0.094 C  
HETATM   21  C   UNL     1     -12.606  14.677  70.736  1.00  0.00    -0.415 A  
HETATM   22  C   UNL     1     -13.423  14.501  71.864  1.00  0.00    -0.466 A  
HETATM   23  C   UNL     1     -13.642  13.233  72.399  1.00  0.00    -0.694 A  
HETATM   24  C   UNL     1     -13.070  12.124  71.787  1.00  0.00    -0.352 A  
HETATM   25  C   UNL     1     -12.245  12.300  70.668  1.00  0.00    -0.378 A  
HETATM   26  C   UNL     1     -11.976  13.573  70.138  1.00  0.00    -0.329 A  
BRANCH  24  27
HETATM   27  O   UNL     1     -13.212  10.829  72.211  1.00  0.00    -0.402 OA 
BRANCH  27  28
HETATM   28  C   UNL     1     -12.850   9.811  71.275  1.00  0.00    -0.377 C  
BRANCH  28  29
HETATM   29  C   UNL     1     -13.571   8.515  71.649  1.00  0.00    -0.393 C  
BRANCH  29  30
HETATM   30  C   UNL     1     -12.587   7.374  71.948  1.00  0.00    -0.322 C  
BRANCH  30  31
HETATM   31  C   UNL     1     -12.235   6.531  70.705  1.00  0.00    -0.135 C  
BRANCH  31  32
HETATM   32  N   UNL     1     -10.799   6.247  70.579  1.00  0.00    -0.266 NA 
HETATM   33  C   UNL     1     -10.297   6.356  69.194  1.00  0.00    -0.208 C  
HETATM   34  C   UNL     1     -10.157   7.807  68.696  1.00  0.00    -0.199 C  
HETATM   35  N   UNL     1      -9.160   8.500  69.529  1.00  0.00    -0.149 NA 
HETATM   36  C   UNL     1      -9.521   8.505  70.961  1.00  0.00    -0.186 C  
HETATM   37  C   UNL     1      -9.967   7.096  71.463  1.00  0.00    -0.182 C  
BRANCH  35  38
HETATM   38  C   UNL     1      -8.084   9.174  68.959  1.00  0.00    -0.102 A  
HETATM   39  C   UNL     1      -7.240   8.700  67.917  1.00  0.00    -0.088 A  
HETATM   40 CL   UNL     1      -7.361   7.071  67.302  1.00  0.00    -0.089 Cl 
HETATM   41  C   UNL     1      -6.197   9.510  67.403  1.00  0.00    -0.060 A  
HETATM   42  C   UNL     1      -5.932  10.771  67.937  1.00  0.00    -0.042 A  
HETATM   43 CL   UNL     1      -5.176   9.013  66.089  1.00  0.00    -0.033 Cl 
HETATM   44  C   UNL     1      -6.723  11.252  68.964  1.00  0.00    -0.089 A  
HETATM   45  C   UNL     1      -7.785  10.476  69.437  1.00  0.00    -0.157 A  
ENDBRANCH  35  38
ENDBRANCH  31  32
ENDBRANCH  30  31
ENDBRANCH  29  30
ENDBRANCH  28  29
ENDBRANCH  27  28
ENDBRANCH  24  27
ENDBRANCH  15  16
ENDBRANCH  14  15
ENDBRANCH  12  14
ENDBRANCH  11  12
ENDBRANCH  10  11
ENDBRANCH   9  10
ENDBRANCH   8   9
ENDBRANCH   7   8
ENDBRANCH   6   7
ENDBRANCH   5   6
ENDBRANCH   4   5
ENDBRANCH   3   4
ENDBRANCH   2   3
TORSDOF 20
ENDMDL
MODEL       77
REMARK 921   NORMALIZED FREE ENERGY PREDICTED BY IDOCK:   -4.04 KCAL/MOL
REMARK 922        TOTAL FREE ENERGY PREDICTED BY IDOCK:  -12.61 KCAL/MOL
REMARK 923 INTER-LIGAND FREE ENERGY PREDICTED BY IDOCK:   -9.29 KCAL/MOL
REMARK 924 INTRA-LIGAND FREE ENERGY PREDICTED BY IDOCK:   -3.32 KCAL/MOL
REMARK 927      BINDING AFFINITY PREDICTED BY RF-SCORE:    0.00 PKD
ROOT
HETATM    1  C   UNL     1     -11.031   4.456  73.337  1.00  0.00    -0.375 C  
HETATM    2  C   UNL     1      -9.562   4.085  73.208  1.00  0.00    -0.140 C  
ENDROOT
BRANCH   2   3
HETATM    3  C   UNL     1      -8.667   5.320  73.303  1.00  0.00    -0.115 C  
BRANCH   3   4
HETATM    4  C   UNL     1      -9.328   6.424  74.127  1.00  0.00    -0.193 C  
BRANCH   4   5
HETATM    5  C   UNL     1      -8.850   7.806  73.678  1.00  0.00    -0.323 C  
BRANCH   5   6
HETATM    6  C   UNL     1      -7.581   8.220  74.422  1.00  0.00    -0.275 C  
BRANCH   6   7
HETATM    7  C   UNL     1      -6.461   8.583  73.446  1.00  0.00    -0.103 C  
BRANCH   7   8
HETATM    8  C   UNL     1      -7.014   8.807  72.039  1.00  0.00    -0.041 C  
BRANCH   8   9
HETATM    9  C   UNL     1      -5.944   9.371  71.104  1.00  0.00    -0.072 C  
BRANCH   9  10
HETATM   10  C   UNL     1      -6.363  10.741  70.562  1.00  0.00    -0.053 C  
BRANCH  10  11
HETATM   11  C   UNL     1      -6.403  10.782  69.036  1.00  0.00    -0.048 C  
BRANCH  11  12
HETATM   12  C   UNL     1      -7.349  11.829  68.496  1.00  0.00    -0.103 C  
HETATM   13  O   UNL     1      -7.351  13.010  68.810  1.00  0.00    -0.105 OA 
BRANCH  12  14
HETATM   14  O   UNL     1      -8.180  11.250  67.588  1.00  0.00    -0.115 OA 
BRANCH  14  15
HETATM   15  C   UNL     1      -8.118  11.770  66.253  1.00  0.00     0.115 C  
BRANCH  15  16
HETATM   16  N   UNL     1      -9.402  11.737  65.570  1.00  0.00    -0.171 N  
HETATM   17  C   UNL     1      -9.674  10.549  64.894  1.00  0.00    -0.300 C  
HETATM   18  C   UNL     1     -10.671  10.650  63.773  1.00  0.00     0.244 C  
HETATM   19  O   UNL     1      -9.069   9.500  65.097  1.00  0.00    -0.201 OA 
HETATM   20  C   UNL     1     -11.903  11.427  64.162  1.00  0.00     0.046 C  
HETATM   21  C   UNL     1     -11.575  12.671  64.937  1.00  0.00    -0.376 A  
HETATM   22  C   UNL     1     -12.535  13.693  64.994  1.00  0.00    -0.454 A  
HETATM   23  C   UNL     1     -12.331  14.824  65.783  1.00  0.00    -0.011 A  
HETATM   24  C   UNL     1     -11.175  14.925  66.547  1.00  0.00    -0.335 A  
HETATM   25  C   UNL     1     -10.210  13.911  66.481  1.00  0.00    -0.280 A  
HETATM   26  C   UNL     1     -10.376  12.782  65.661  1.00  0.00    -0.279 A  
BRANCH  24  27
HETATM   27  O   UNL     1     -10.860  15.979  67.363  1.00  0.00    -0.319 OA 
BRANCH  27  28
HETATM   28  C   UNL     1      -9.601  15.907  68.037  1.00  0.00    -0.211 C  
BRANCH  28  29
HETATM   29  C   UNL     1      -9.839  16.011  69.544  1.00  0.00    -0.235 C  
BRANCH  29  30
HETATM   30  C   UNL     1     -11.334  15.987  69.895  1.00  0.00    -0.340 C  
BRANCH  30  31
HETATM   31  C   UNL     1     -11.706  14.888  70.911  1.00  0.00    -0.323 C  
BRANCH  31  32
HETATM   32  N   UNL     1     -12.756  13.980  70.432  1.00  0.00    -0.300 NA 
HETATM   33  C   UNL     1     -12.254  12.917  69.537  1.00  0.00    -0.119 C  
HETATM   34  C   UNL     1     -11.482  11.802  70.269  1.00  0.00     0.016 C  
HETATM   35  N   UNL     1     -12.399  11.127  71.203  1.00  0.00    -0.364 NA 
HETATM   36  C   UNL     1     -12.983  12.051  72.195  1.00  0.00    -0.151 C  
HETATM   37  C   UNL     1     -13.524  13.359  71.536  1.00  0.00    -0.211 C  
BRANCH  35  38
HETATM   38  C   UNL     1     -12.555   9.744  71.189  1.00  0.00    -0.345 A  
HETATM   39  C   UNL     1     -11.597   8.784  70.760  1.00  0.00    -0.251 A  
HETATM   40 CL   UNL     1     -10.091   9.256  70.015  1.00  0.00    -0.219 Cl 
HETATM   41  C   UNL     1     -11.875   7.397  70.835  1.00  0.00    -0.290 A  
HETATM   42  C   UNL     1     -13.113   6.932  71.280  1.00  0.00    -0.273 A  
HETATM   43 CL   UNL     1     -10.722   6.177  70.387  1.00  0.00    -0.320 Cl 
HETATM   44  C   UNL     1     -14.072   7.840  71.685  1.00  0.00    -0.533 A  
HETATM   45  C   UNL     1     -13.781   9.207  71.662  1.00  0.00    -0.433 A  
ENDBRANCH  35  38
ENDBRANCH  31  32
ENDBRANCH  30  31
ENDBRANCH  29  30
ENDBRANCH  28  29
ENDBRANCH  27  28
ENDBRANCH  24  27
ENDBRANCH  15  16
ENDBRANCH  14  15
ENDBRANCH  12  14
ENDBRANCH  11  12
ENDBRANCH  10  11
ENDBRANCH   9  10
ENDBRANCH   8   9
ENDBRANCH   7   8
ENDBRANCH   6   7
ENDBRANCH   5   6
ENDBRANCH   4   5
ENDBRANCH   3   4
ENDBRANCH   2   3
TORSDOF 20
ENDMDL
MODEL       78
REMARK 921   NORMALIZED FREE ENERGY PREDICTED BY IDOCK:   -3.98 KCAL/MOL
REMARK 922        TOTAL FREE ENERGY PREDICTED BY IDOCK:  -12.49 KCAL/MOL
REMARK 923 INTER-LIGAND FREE ENERGY PREDICTED BY IDOCK:   -9.39 KCAL/MOL
REMARK 924 INTRA-LIGAND FREE ENERGY PREDICTED BY IDOCK:   -3.10 KCAL/MOL
REMARK 927      BINDING AFFINITY PREDICTED BY RF-SCORE:    0.00 PKD
ROOT
HETATM    1  C   UNL     1     -10.522  17.976  66.380  1.00  0.00    -0.345 C  
HETATM    2  C   UNL     1     -10.452  16.641  67.103  1.00  0.00    -0.300 C  
ENDROOT
BRANCH   2   3
HETATM    3  C   UNL     1     -10.243  15.488  66.122  1.00  0.00    -0.322 C  
BRANCH   3   4
HETATM    4  C   UNL     1     -11.238  15.555  64.965  1.00  0.00    -0.364 C  
BRANCH   4   5
HETATM    5  C   UNL     1     -12.231  14.395  65.025  1.00  0.00    -0.418 C  
BRANCH   5   6
HETATM    6  C   UNL     1     -12.145  13.528  63.769  1.00  0.00    -0.482 C  
BRANCH   6   7
HETATM    7  C   UNL     1     -12.220  12.041  64.116  1.00  0.00    -0.459 C  
BRANCH   7   8
HETATM    8  C   UNL     1     -10.865  11.364  63.915  1.00  0.00    -0.463 C  
BRANCH   8   9
HETATM    9  C   UNL     1      -9.951  11.577  65.123  1.00  0.00    -0.304 C  
BRANCH   9  10
HETATM   10  C   UNL     1     -10.273  10.571  66.232  1.00  0.00    -0.296 C  
BRANCH  10  11
HETATM   11  C   UNL     1     -11.086  11.189  67.367  1.00  0.00    -0.370 C  
BRANCH  11  12
HETATM   12  C   UNL     1     -10.230  11.672  68.515  1.00  0.00    -0.210 C  
HETATM   13  O   UNL     1      -9.532  12.675  68.504  1.00  0.00    -0.185 OA 
BRANCH  12  14
HETATM   14  O   UNL     1     -10.381  10.825  69.568  1.00  0.00    -0.215 OA 
BRANCH  14  15
HETATM   15  C   UNL     1     -11.582  10.041  69.582  1.00  0.00    -0.096 C  
BRANCH  15  16
HETATM   16  N   UNL     1     -11.480   8.861  70.427  1.00  0.00    -0.210 N  
HETATM   17  C   UNL     1     -11.995   9.017  71.713  1.00  0.00    -0.368 C  
HETATM   18  C   UNL     1     -11.449   8.079  72.753  1.00  0.00    -0.420 C  
HETATM   19  O   UNL     1     -12.755   9.927  72.033  1.00  0.00    -0.392 OA 
HETATM   20  C   UNL     1     -11.411   6.648  72.280  1.00  0.00    -0.319 C  
HETATM   21  C   UNL     1     -10.903   6.524  70.872  1.00  0.00    -0.302 A  
HETATM   22  C   UNL     1     -10.411   5.279  70.449  1.00  0.00    -0.322 A  
HETATM   23  C   UNL     1     -10.025   5.074  69.125  1.00  0.00    -0.267 A  
HETATM   24  C   UNL     1     -10.159   6.107  68.206  1.00  0.00    -0.158 A  
HETATM   25  C   UNL     1     -10.639   7.354  68.631  1.00  0.00    -0.182 A  
HETATM   26  C   UNL     1     -10.995   7.595  69.968  1.00  0.00    -0.228 A  
BRANCH  24  27
HETATM   27  O   UNL     1      -9.820   6.032  66.881  1.00  0.00    -0.141 OA 
BRANCH  27  28
HETATM   28  C   UNL     1      -9.400   4.750  66.405  1.00  0.00    -0.146 C  
BRANCH  28  29
HETATM   29  C   UNL     1      -8.575   4.941  65.131  1.00  0.00    -0.144 C  
BRANCH  29  30
HETATM   30  C   UNL     1      -7.074   4.728  65.380  1.00  0.00    -0.064 C  
BRANCH  30  31
HETATM   31  C   UNL     1      -6.714   4.611  66.875  1.00  0.00    -0.051 C  
BRANCH  31  32
HETATM   32  N   UNL     1      -5.578   5.454  67.270  1.00  0.00    -0.012 NA 
HETATM   33  C   UNL     1      -5.480   6.711  66.499  1.00  0.00    -0.014 C  
HETATM   34  C   UNL     1      -6.531   7.766  66.895  1.00  0.00    -0.055 C  
HETATM   35  N   UNL     1      -6.311   8.150  68.299  1.00  0.00    -0.050 NA 
HETATM   36  C   UNL     1      -6.397   7.002  69.223  1.00  0.00    -0.035 C  
HETATM   37  C   UNL     1      -5.577   5.773  68.717  1.00  0.00    -0.011 C  
BRANCH  35  38
HETATM   38  C   UNL     1      -6.175   9.484  68.671  1.00  0.00    -0.044 A  
HETATM   39  C   UNL     1      -6.339  10.621  67.833  1.00  0.00    -0.058 A  
HETATM   40 CL   UNL     1      -6.591  10.469  66.113  1.00  0.00    -0.115 Cl 
HETATM   41  C   UNL     1      -6.207  11.932  68.353  1.00  0.00    -0.050 A  
HETATM   42  C   UNL     1      -5.859  12.148  69.687  1.00  0.00    -0.107 A  
HETATM   43 CL   UNL     1      -6.459  13.359  67.395  1.00  0.00    -0.119 Cl 
HETATM   44  C   UNL     1      -5.674  11.063  70.523  1.00  0.00    -0.133 A  
HETATM   45  C   UNL     1      -5.855   9.770  70.024  1.00  0.00    -0.044 A  
ENDBRANCH  35  38
ENDBRANCH  31  32
ENDBRANCH  30  31
ENDBRANCH  29  30
ENDBRANCH  28  29
ENDBRANCH  27  28
ENDBRANCH  24  27
ENDBRANCH  15  16
ENDBRANCH  14  15
ENDBRANCH  12  14
ENDBRANCH  11  12
ENDBRANCH  10  11
ENDBRANCH   9  10
ENDBRANCH   8   9
ENDBRANCH   7   8
ENDBRANCH   6   7
ENDBRANCH   5   6
ENDBRANCH   4   5
ENDBRANCH   3   4
ENDBRANCH   2   3
TORSDOF 20
ENDMDL
MODEL       79
REMARK 921   NORMALIZED FREE ENERGY PREDICTED BY IDOCK:   -3.96 KCAL/MOL
REMARK 922        TOTAL FREE ENERGY PREDICTED BY IDOCK:  -12.42 KCAL/MOL
REMARK 923 INTER-LIGAND FREE ENERGY PREDICTED BY IDOCK:   -8.80 KCAL/MOL
REMARK 924 INTRA-LIGAND FREE ENERGY PREDICTED BY IDOCK:   -3.62 KCAL/MOL
REMARK 927      BINDING AFFINITY PREDICTED BY RF-SCORE:    0.00 PKD
ROOT
HETATM    1  C   UNL     1      -6.760   6.432  66.586  1.00  0.00    -0.060 C  
HETATM    2  C   UNL     1      -5.701   5.743  67.432  1.00  0.00    -0.016 C  
ENDROOT
BRANCH   2   3
HETATM    3  C   UNL     1      -5.703   4.232  67.204  1.00  0.00    -0.022 C  
BRANCH   3   4
HETATM    4  C   UNL     1      -6.030   3.476  68.491  1.00  0.00    -0.024 C  
BRANCH   4   5
HETATM    5  C   UNL     1      -6.261   4.443  69.653  1.00  0.00    -0.027 C  
BRANCH   5   6
HETATM    6  C   UNL     1      -5.520   3.985  70.909  1.00  0.00    -0.008 C  
BRANCH   6   7
HETATM    7  C   UNL     1      -5.307   5.147  71.880  1.00  0.00    -0.005 C  
BRANCH   7   8
HETATM    8  C   UNL     1      -5.493   4.691  73.326  1.00  0.00    -0.009 C  
BRANCH   8   9
HETATM    9  C   UNL     1      -6.539   5.541  74.048  1.00  0.00    -0.075 C  
BRANCH   9  10
HETATM   10  C   UNL     1      -6.489   6.992  73.564  1.00  0.00    -0.066 C  
BRANCH  10  11
HETATM   11  C   UNL     1      -7.494   7.887  74.284  1.00  0.00    -0.209 C  
BRANCH  11  12
HETATM   12  C   UNL     1      -8.794   8.045  73.530  1.00  0.00    -0.268 C  
HETATM   13  O   UNL     1      -8.947   8.701  72.511  1.00  0.00    -0.337 OA 
BRANCH  12  14
HETATM   14  O   UNL     1      -9.760   7.319  74.156  1.00  0.00    -0.268 OA 
BRANCH  14  15
HETATM   15  C   UNL     1     -10.797   6.791  73.317  1.00  0.00    -0.272 C  
BRANCH  15  16
HETATM   16  N   UNL     1     -10.369   5.634  72.547  1.00  0.00    -0.194 N  
HETATM   17  C   UNL     1     -10.134   4.484  73.300  1.00  0.00    -0.160 C  
HETATM   18  C   UNL     1      -9.208   3.475  72.680  1.00  0.00    -0.140 C  
HETATM   19  O   UNL     1     -10.546   4.330  74.446  1.00  0.00    -0.239 OA 
HETATM   20  C   UNL     1      -9.534   3.202  71.233  1.00  0.00    -0.219 C  
HETATM   21  C   UNL     1      -9.835   4.457  70.467  1.00  0.00    -0.285 A  
HETATM   22  C   UNL     1      -9.732   4.424  69.067  1.00  0.00    -0.223 A  
HETATM   23  C   UNL     1     -10.100   5.526  68.296  1.00  0.00    -0.226 A  
HETATM   24  C   UNL     1     -10.605   6.659  68.920  1.00  0.00    -0.230 A  
HETATM   25  C   UNL     1     -10.696   6.698  70.318  1.00  0.00    -0.294 A  
HETATM   26  C   UNL     1     -10.292   5.615  71.117  1.00  0.00    -0.232 A  
BRANCH  24  27
HETATM   27  O   UNL     1     -11.004   7.801  68.276  1.00  0.00    -0.000 OA 
BRANCH  27  28
HETATM   28  C   UNL     1     -10.659   7.903  66.893  1.00  0.00    -0.263 C  
BRANCH  28  29
HETATM   29  C   UNL     1      -9.603   8.998  66.725  1.00  0.00    -0.259 C  
BRANCH  29  30
HETATM   30  C   UNL     1      -9.695  10.061  67.830  1.00  0.00    -0.168 C  
BRANCH  30  31
HETATM   31  C   UNL     1      -9.593  11.505  67.299  1.00  0.00    -0.172 C  
BRANCH  31  32
HETATM   32  N   UNL     1     -10.012  12.518  68.275  1.00  0.00    -0.226 NA 
HETATM   33  C   UNL     1      -9.021  13.597  68.468  1.00  0.00    -0.102 C  
HETATM   34  C   UNL     1      -8.960  14.600  67.301  1.00  0.00    -0.205 C  
HETATM   35  N   UNL     1     -10.262  15.280  67.193  1.00  0.00    -0.249 NA 
HETATM   36  C   UNL     1     -11.378  14.339  66.974  1.00  0.00    -0.341 C  
HETATM   37  C   UNL     1     -11.325  13.121  67.949  1.00  0.00    -0.286 C  
BRANCH  35  38
HETATM   38  C   UNL     1     -10.353  16.669  67.173  1.00  0.00    -0.300 A  
HETATM   39  C   UNL     1     -10.319  17.539  68.298  1.00  0.00    -0.379 A  
HETATM   40 CL   UNL     1     -10.314  16.932  69.934  1.00  0.00    -0.015 Cl 
HETATM   41  C   UNL     1     -10.385  18.945  68.130  1.00  0.00    -0.366 A  
HETATM   42  C   UNL     1     -10.540  19.514  66.866  1.00  0.00    -0.602 A  
HETATM   43 CL   UNL     1     -10.283  20.060  69.458  1.00  0.00    -0.208 Cl 
HETATM   44  C   UNL     1     -10.596  18.694  65.755  1.00  0.00    -0.290 A  
HETATM   45  C   UNL     1     -10.478  17.310  65.914  1.00  0.00    -0.267 A  
ENDBRANCH  35  38
ENDBRANCH  31  32
ENDBRANCH  30  31
ENDBRANCH  29  30
ENDBRANCH  28  29
ENDBRANCH  27  28
ENDBRANCH  24  27
ENDBRANCH  15  16
ENDBRANCH  14  15
ENDBRANCH  12  14
ENDBRANCH  11  12
ENDBRANCH  10  11
ENDBRANCH   9  10
ENDBRANCH   8   9
ENDBRANCH   7   8
ENDBRANCH   6   7
ENDBRANCH   5   6
ENDBRANCH   4   5
ENDBRANCH   3   4
ENDBRANCH   2   3
TORSDOF 20
ENDMDL
MODEL       80
REMARK 921   NORMALIZED FREE ENERGY PREDICTED BY IDOCK:   -3.95 KCAL/MOL
REMARK 922        TOTAL FREE ENERGY PREDICTED BY IDOCK:  -12.41 KCAL/MOL
REMARK 923 INTER-LIGAND FREE ENERGY PREDICTED BY IDOCK:   -9.13 KCAL/MOL
REMARK 924 INTRA-LIGAND FREE ENERGY PREDICTED BY IDOCK:   -3.28 KCAL/MOL
REMARK 927      BINDING AFFINITY PREDICTED BY RF-SCORE:    0.00 PKD
ROOT
HETATM    1  C   UNL     1      -9.051  17.750  68.005  1.00  0.00    -0.269 C  
HETATM    2  C   UNL     1     -10.327  17.413  67.250  1.00  0.00    -0.336 C  
ENDROOT
BRANCH   2   3
HETATM    3  C   UNL     1     -10.744  15.961  67.484  1.00  0.00    -0.318 C  
BRANCH   3   4
HETATM    4  C   UNL     1     -11.456  15.797  68.826  1.00  0.00    -0.391 C  
BRANCH   4   5
HETATM    5  C   UNL     1     -11.058  14.485  69.502  1.00  0.00    -0.285 C  
BRANCH   5   6
HETATM    6  C   UNL     1     -12.057  14.101  70.594  1.00  0.00    -0.421 C  
BRANCH   6   7
HETATM    7  C   UNL     1     -12.226  12.584  70.681  1.00  0.00    -0.365 C  
BRANCH   7   8
HETATM    8  C   UNL     1     -13.119  12.201  71.861  1.00  0.00    -0.475 C  
BRANCH   8   9
HETATM    9  C   UNL     1     -13.281  10.684  71.967  1.00  0.00    -0.473 C  
BRANCH   9  10
HETATM   10  C   UNL     1     -12.032   9.966  71.448  1.00  0.00    -0.489 C  
BRANCH  10  11
HETATM   11  C   UNL     1     -12.116   8.450  71.609  1.00  0.00    -0.359 C  
BRANCH  11  12
HETATM   12  C   UNL     1     -10.816   7.829  72.064  1.00  0.00    -0.245 C  
HETATM   13  O   UNL     1     -10.306   7.979  73.164  1.00  0.00    -0.332 OA 
BRANCH  12  14
HETATM   14  O   UNL     1     -10.318   7.058  71.060  1.00  0.00    -0.201 OA 
BRANCH  14  15
HETATM   15  C   UNL     1     -11.265   6.601  70.084  1.00  0.00    -0.360 C  
BRANCH  15  16
HETATM   16  N   UNL     1     -10.652   5.817  69.023  1.00  0.00    -0.270 N  
HETATM   17  C   UNL     1     -10.663   6.423  67.768  1.00  0.00    -0.303 C  
HETATM   18  C   UNL     1     -10.558   5.492  66.592  1.00  0.00    -0.365 C  
HETATM   19  O   UNL     1     -10.862   7.623  67.597  1.00  0.00    -0.197 OA 
HETATM   20  C   UNL     1      -9.470   4.462  66.764  1.00  0.00    -0.194 C  
HETATM   21  C   UNL     1      -9.454   3.871  68.144  1.00  0.00    -0.219 A  
HETATM   22  C   UNL     1      -8.815   2.635  68.333  1.00  0.00    -0.162 A  
HETATM   23  C   UNL     1      -8.676   2.088  69.607  1.00  0.00    -0.113 A  
HETATM   24  C   UNL     1      -9.148   2.791  70.709  1.00  0.00    -0.119 A  
HETATM   25  C   UNL     1      -9.798   4.018  70.520  1.00  0.00    -0.214 A  
HETATM   26  C   UNL     1      -9.986   4.569  69.241  1.00  0.00    -0.122 A  
BRANCH  24  27
HETATM   27  O   UNL     1      -9.069   2.364  72.008  1.00  0.00    -0.076 OA 
BRANCH  27  28
HETATM   28  C   UNL     1      -8.550   3.303  72.953  1.00  0.00    -0.081 C  
BRANCH  28  29
HETATM   29  C   UNL     1      -7.039   3.429  72.748  1.00  0.00    -0.044 C  
BRANCH  29  30
HETATM   30  C   UNL     1      -6.528   4.839  73.081  1.00  0.00    -0.051 C  
BRANCH  30  31
HETATM   31  C   UNL     1      -7.108   5.931  72.159  1.00  0.00    -0.087 C  
BRANCH  31  32
HETATM   32  N   UNL     1      -6.109   6.912  71.716  1.00  0.00    -0.038 NA 
HETATM   33  C   UNL     1      -5.877   6.900  70.257  1.00  0.00    -0.024 C  
HETATM   34  C   UNL     1      -7.017   7.540  69.441  1.00  0.00    -0.057 C  
HETATM   35  N   UNL     1      -7.120   8.962  69.808  1.00  0.00    -0.053 NA 
HETATM   36  C   UNL     1      -7.377   9.161  71.248  1.00  0.00    -0.025 C  
HETATM   37  C   UNL     1      -6.434   8.294  72.142  1.00  0.00    -0.069 C  
BRANCH  35  38
HETATM   38  C   UNL     1      -7.104   9.962  68.840  1.00  0.00    -0.071 A  
HETATM   39  C   UNL     1      -8.217  10.721  68.383  1.00  0.00    -0.129 A  
HETATM   40 CL   UNL     1      -9.847  10.365  68.895  1.00  0.00    -0.193 Cl 
HETATM   41  C   UNL     1      -8.052  11.739  67.412  1.00  0.00    -0.161 A  
HETATM   42  C   UNL     1      -6.806  11.993  66.837  1.00  0.00    -0.036 A  
HETATM   43 CL   UNL     1      -9.360  12.742  66.862  1.00  0.00    -0.228 Cl 
HETATM   44  C   UNL     1      -5.709  11.259  67.246  1.00  0.00    -0.069 A  
HETATM   45  C   UNL     1      -5.860  10.289  68.241  1.00  0.00    -0.041 A  
ENDBRANCH  35  38
ENDBRANCH  31  32
ENDBRANCH  30  31
ENDBRANCH  29  30
ENDBRANCH  28  29
ENDBRANCH  27  28
ENDBRANCH  24  27
ENDBRANCH  15  16
ENDBRANCH  14  15
ENDBRANCH  12  14
ENDBRANCH  11  12
ENDBRANCH  10  11
ENDBRANCH   9  10
ENDBRANCH   8   9
ENDBRANCH   7   8
ENDBRANCH   6   7
ENDBRANCH   5   6
ENDBRANCH   4   5
ENDBRANCH   3   4
ENDBRANCH   2   3
TORSDOF 20
ENDMDL
MODEL       81
REMARK 921   NORMALIZED FREE ENERGY PREDICTED BY IDOCK:   -3.92 KCAL/MOL
REMARK 922        TOTAL FREE ENERGY PREDICTED BY IDOCK:  -12.34 KCAL/MOL
REMARK 923 INTER-LIGAND FREE ENERGY PREDICTED BY IDOCK:  -11.15 KCAL/MOL
REMARK 924 INTRA-LIGAND FREE ENERGY PREDICTED BY IDOCK:   -1.19 KCAL/MOL
REMARK 927      BINDING AFFINITY PREDICTED BY RF-SCORE:    0.00 PKD
ROOT
HETATM    1  C   UNL     1      -8.536   7.892  73.926  1.00  0.00    -0.332 C  
HETATM    2  C   UNL     1      -9.301   6.649  73.503  1.00  0.00    -0.165 C  
ENDROOT
BRANCH   2   3
HETATM    3  C   UNL     1     -10.811   6.886  73.537  1.00  0.00    -0.265 C  
BRANCH   3   4
HETATM    4  C   UNL     1     -11.489   6.332  72.284  1.00  0.00    -0.351 C  
BRANCH   4   5
HETATM    5  C   UNL     1     -12.335   7.404  71.598  1.00  0.00    -0.373 C  
BRANCH   5   6
HETATM    6  C   UNL     1     -11.459   8.514  71.019  1.00  0.00    -0.313 C  
BRANCH   6   7
HETATM    7  C   UNL     1     -11.956   9.894  71.451  1.00  0.00    -0.489 C  
BRANCH   7   8
HETATM    8  C   UNL     1     -12.659  10.607  70.296  1.00  0.00    -0.333 C  
BRANCH   8   9
HETATM    9  C   UNL     1     -11.964  11.925  69.950  1.00  0.00    -0.398 C  
BRANCH   9  10
HETATM   10  C   UNL     1     -12.398  13.037  70.909  1.00  0.00    -0.376 C  
BRANCH  10  11
HETATM   11  C   UNL     1     -12.586  14.379  70.207  1.00  0.00    -0.380 C  
BRANCH  11  12
HETATM   12  C   UNL     1     -11.456  15.347  70.466  1.00  0.00    -0.327 C  
HETATM   13  O   UNL     1     -11.524  16.341  71.174  1.00  0.00    -0.420 OA 
BRANCH  12  14
HETATM   14  O   UNL     1     -10.346  14.921  69.804  1.00  0.00    -0.188 OA 
BRANCH  14  15
HETATM   15  C   UNL     1      -9.421  15.940  69.400  1.00  0.00    -0.248 C  
BRANCH  15  16
HETATM   16  N   UNL     1      -9.830  16.629  68.186  1.00  0.00    -0.244 N  
HETATM   17  C   UNL     1      -9.577  18.000  68.178  1.00  0.00    -0.301 C  
HETATM   18  C   UNL     1     -10.429  18.815  67.246  1.00  0.00    -0.489 C  
HETATM   19  O   UNL     1      -8.799  18.549  68.953  1.00  0.00    -0.270 OA 
HETATM   20  C   UNL     1     -10.532  18.205  65.871  1.00  0.00    -0.292 C  
HETATM   21  C   UNL     1     -10.750  16.720  65.919  1.00  0.00    -0.166 A  
HETATM   22  C   UNL     1     -11.283  16.088  64.785  1.00  0.00    -0.348 A  
HETATM   23  C   UNL     1     -11.409  14.701  64.730  1.00  0.00    -0.398 A  
HETATM   24  C   UNL     1     -10.971  13.932  65.801  1.00  0.00    -0.285 A  
HETATM   25  C   UNL     1     -10.450  14.563  66.939  1.00  0.00    -0.269 A  
HETATM   26  C   UNL     1     -10.352  15.961  67.032  1.00  0.00    -0.297 A  
BRANCH  24  27
HETATM   27  O   UNL     1     -11.036  12.565  65.868  1.00  0.00    -0.265 OA 
BRANCH  27  28
HETATM   28  C   UNL     1     -10.091  11.927  66.731  1.00  0.00    -0.202 C  
BRANCH  28  29
HETATM   29  C   UNL     1     -10.058  10.431  66.409  1.00  0.00    -0.287 C  
BRANCH  29  30
HETATM   30  C   UNL     1     -10.177   9.567  67.674  1.00  0.00    -0.273 C  
BRANCH  30  31
HETATM   31  C   UNL     1      -8.877   9.514  68.501  1.00  0.00    -0.124 C  
BRANCH  31  32
HETATM   32  N   UNL     1      -8.198   8.213  68.440  1.00  0.00    -0.128 NA 
HETATM   33  C   UNL     1      -9.110   7.084  68.161  1.00  0.00    -0.128 C  
HETATM   34  C   UNL     1      -9.587   7.018  66.697  1.00  0.00    -0.167 C  
HETATM   35  N   UNL     1      -8.418   6.801  65.828  1.00  0.00    -0.146 NA 
HETATM   36  C   UNL     1      -7.402   7.863  65.965  1.00  0.00    -0.074 C  
HETATM   37  C   UNL     1      -7.088   8.191  67.459  1.00  0.00    -0.083 C  
BRANCH  35  38
HETATM   38  C   UNL     1      -8.389   5.764  64.901  1.00  0.00    -0.127 A  
HETATM   39  C   UNL     1      -9.017   4.493  65.026  1.00  0.00    -0.149 A  
HETATM   40 CL   UNL     1      -9.810   4.000  66.501  1.00  0.00    -0.216 Cl 
HETATM   41  C   UNL     1      -8.937   3.537  63.984  1.00  0.00    -0.102 A  
HETATM   42  C   UNL     1      -8.197   3.790  62.828  1.00  0.00    -0.076 A  
HETATM   43 CL   UNL     1      -9.735   1.996  64.052  1.00  0.00    -0.134 Cl 
HETATM   44  C   UNL     1      -7.560   5.008  62.684  1.00  0.00    -0.057 A  
HETATM   45  C   UNL     1      -7.681   5.972  63.689  1.00  0.00    -0.100 A  
ENDBRANCH  35  38
ENDBRANCH  31  32
ENDBRANCH  30  31
ENDBRANCH  29  30
ENDBRANCH  28  29
ENDBRANCH  27  28
ENDBRANCH  24  27
ENDBRANCH  15  16
ENDBRANCH  14  15
ENDBRANCH  12  14
ENDBRANCH  11  12
ENDBRANCH  10  11
ENDBRANCH   9  10
ENDBRANCH   8   9
ENDBRANCH   7   8
ENDBRANCH   6   7
ENDBRANCH   5   6
ENDBRANCH   4   5
ENDBRANCH   3   4
ENDBRANCH   2   3
TORSDOF 20
ENDMDL
MODEL       82
REMARK 921   NORMALIZED FREE ENERGY PREDICTED BY IDOCK:   -3.91 KCAL/MOL
REMARK 922        TOTAL FREE ENERGY PREDICTED BY IDOCK:  -12.33 KCAL/MOL
REMARK 923 INTER-LIGAND FREE ENERGY PREDICTED BY IDOCK:   -8.45 KCAL/MOL
REMARK 924 INTRA-LIGAND FREE ENERGY PREDICTED BY IDOCK:   -3.88 KCAL/MOL
REMARK 927      BINDING AFFINITY PREDICTED BY RF-SCORE:    0.00 PKD
ROOT
HETATM    1  C   UNL     1     -10.050   3.137  72.200  1.00  0.00    -0.200 C  
HETATM    2  C   UNL     1      -8.608   3.516  71.903  1.00  0.00    -0.107 C  
ENDROOT
BRANCH   2   3
HETATM    3  C   UNL     1      -8.354   4.997  72.179  1.00  0.00    -0.124 C  
BRANCH   3   4
HETATM    4  C   UNL     1      -8.973   5.428  73.508  1.00  0.00    -0.125 C  
BRANCH   4   5
HETATM    5  C   UNL     1      -9.169   6.944  73.557  1.00  0.00    -0.179 C  
BRANCH   5   6
HETATM    6  C   UNL     1      -8.213   7.592  74.558  1.00  0.00    -0.258 C  
BRANCH   6   7
HETATM    7  C   UNL     1      -6.907   8.013  73.883  1.00  0.00    -0.141 C  
BRANCH   7   8
HETATM    8  C   UNL     1      -7.121   8.273  72.393  1.00  0.00    -0.117 C  
BRANCH   8   9
HETATM    9  C   UNL     1      -5.799   8.566  71.683  1.00  0.00    -0.045 C  
BRANCH   9  10
HETATM   10  C   UNL     1      -5.631  10.069  71.444  1.00  0.00    -0.036 C  
BRANCH  10  11
HETATM   11  C   UNL     1      -5.302  10.401  69.991  1.00  0.00    -0.041 C  
BRANCH  11  12
HETATM   12  C   UNL     1      -6.032  11.622  69.481  1.00  0.00    -0.090 C  
HETATM   13  O   UNL     1      -5.853  12.767  69.869  1.00  0.00    -0.111 OA 
BRANCH  12  14
HETATM   14  O   UNL     1      -6.901  11.244  68.506  1.00  0.00    -0.063 OA 
BRANCH  14  15
HETATM   15  C   UNL     1      -6.757  11.904  67.240  1.00  0.00    -0.138 C  
BRANCH  15  16
HETATM   16  N   UNL     1      -7.598  11.329  66.202  1.00  0.00    -0.036 N  
HETATM   17  C   UNL     1      -7.070  10.197  65.582  1.00  0.00    -0.133 C  
HETATM   18  C   UNL     1      -7.596   9.902  64.205  1.00  0.00    -0.139 C  
HETATM   19  O   UNL     1      -6.151   9.533  66.054  1.00  0.00    -0.061 OA 
HETATM   20  C   UNL     1      -9.098   9.997  64.125  1.00  0.00    -0.295 C  
HETATM   21  C   UNL     1      -9.635  11.198  64.850  1.00  0.00    -0.279 A  
HETATM   22  C   UNL     1     -10.919  11.657  64.518  1.00  0.00    -0.376 A  
HETATM   23  C   UNL     1     -11.513  12.700  65.228  1.00  0.00    -0.368 A  
HETATM   24  C   UNL     1     -10.835  13.270  66.299  1.00  0.00    -0.284 A  
HETATM   25  C   UNL     1      -9.548  12.821  66.622  1.00  0.00    -0.255 A  
HETATM   26  C   UNL     1      -8.914  11.800  65.895  1.00  0.00    -0.059 A  
BRANCH  24  27
HETATM   27  O   UNL     1     -11.310  14.295  67.075  1.00  0.00    -0.314 OA 
BRANCH  27  28
HETATM   28  C   UNL     1     -10.462  14.728  68.141  1.00  0.00    -0.239 C  
BRANCH  28  29
HETATM   29  C   UNL     1     -11.287  14.815  69.427  1.00  0.00    -0.312 C  
BRANCH  29  30
HETATM   30  C   UNL     1     -12.364  13.721  69.495  1.00  0.00    -0.258 C  
BRANCH  30  31
HETATM   31  C   UNL     1     -11.960  12.521  70.374  1.00  0.00    -0.251 C  
BRANCH  31  32
HETATM   32  N   UNL     1     -12.331  11.222  69.798  1.00  0.00    -0.250 NA 
HETATM   33  C   UNL     1     -11.548  10.865  68.597  1.00  0.00    -0.303 C  
HETATM   34  C   UNL     1     -10.102  10.429  68.905  1.00  0.00    -0.201 C  
HETATM   35  N   UNL     1     -10.141   9.206  69.725  1.00  0.00    -0.191 NA 
HETATM   36  C   UNL     1     -10.877   9.394  70.991  1.00  0.00    -0.336 C  
HETATM   37  C   UNL     1     -12.246  10.114  70.778  1.00  0.00    -0.338 C  
BRANCH  35  38
HETATM   38  C   UNL     1      -9.430   8.067  69.359  1.00  0.00    -0.159 A  
HETATM   39  C   UNL     1      -9.930   6.737  69.292  1.00  0.00    -0.160 A  
HETATM   40 CL   UNL     1     -11.536   6.329  69.838  1.00  0.00    -0.472 Cl 
HETATM   41  C   UNL     1      -9.101   5.671  68.866  1.00  0.00    -0.115 A  
HETATM   42  C   UNL     1      -7.758   5.882  68.552  1.00  0.00    -0.094 A  
HETATM   43 CL   UNL     1      -9.671   4.038  68.702  1.00  0.00    -0.187 Cl 
HETATM   44  C   UNL     1      -7.237   7.160  68.626  1.00  0.00    -0.094 A  
HETATM   45  C   UNL     1      -8.067   8.222  68.996  1.00  0.00    -0.117 A  
ENDBRANCH  35  38
ENDBRANCH  31  32
ENDBRANCH  30  31
ENDBRANCH  29  30
ENDBRANCH  28  29
ENDBRANCH  27  28
ENDBRANCH  24  27
ENDBRANCH  15  16
ENDBRANCH  14  15
ENDBRANCH  12  14
ENDBRANCH  11  12
ENDBRANCH  10  11
ENDBRANCH   9  10
ENDBRANCH   8   9
ENDBRANCH   7   8
ENDBRANCH   6   7
ENDBRANCH   5   6
ENDBRANCH   4   5
ENDBRANCH   3   4
ENDBRANCH   2   3
TORSDOF 20
ENDMDL
MODEL       83
REMARK 921   NORMALIZED FREE ENERGY PREDICTED BY IDOCK:   -3.89 KCAL/MOL
REMARK 922        TOTAL FREE ENERGY PREDICTED BY IDOCK:  -12.29 KCAL/MOL
REMARK 923 INTER-LIGAND FREE ENERGY PREDICTED BY IDOCK:   -9.38 KCAL/MOL
REMARK 924 INTRA-LIGAND FREE ENERGY PREDICTED BY IDOCK:   -2.91 KCAL/MOL
REMARK 927      BINDING AFFINITY PREDICTED BY RF-SCORE:    0.00 PKD
ROOT
HETATM    1  C   UNL     1      -9.058   1.493  69.290  1.00  0.00    -0.155 C  
HETATM    2  C   UNL     1      -9.150   1.980  70.727  1.00  0.00    -0.159 C  
ENDROOT
BRANCH   2   3
HETATM    3  C   UNL     1      -9.689   3.408  70.796  1.00  0.00    -0.190 C  
BRANCH   3   4
HETATM    4  C   UNL     1      -9.778   3.900  72.240  1.00  0.00    -0.217 C  
BRANCH   4   5
HETATM    5  C   UNL     1      -9.571   5.413  72.320  1.00  0.00    -0.179 C  
BRANCH   5   6
HETATM    6  C   UNL     1     -10.896   6.140  72.549  1.00  0.00    -0.275 C  
BRANCH   6   7
HETATM    7  C   UNL     1     -10.667   7.543  73.110  1.00  0.00    -0.452 C  
BRANCH   7   8
HETATM    8  C   UNL     1     -11.038   8.610  72.081  1.00  0.00    -0.434 C  
BRANCH   8   9
HETATM    9  C   UNL     1      -9.855   8.941  71.170  1.00  0.00    -0.345 C  
BRANCH   9  10
HETATM   10  C   UNL     1     -10.206   8.672  69.704  1.00  0.00    -0.208 C  
BRANCH  10  11
HETATM   11  C   UNL     1      -9.755   7.290  69.235  1.00  0.00    -0.161 C  
BRANCH  11  12
HETATM   12  C   UNL     1     -10.906   6.387  68.858  1.00  0.00    -0.325 C  
HETATM   13  O   UNL     1     -12.010   6.390  69.382  1.00  0.00    -0.048 OA 
BRANCH  12  14
HETATM   14  O   UNL     1     -10.523   5.590  67.824  1.00  0.00    -0.205 OA 
BRANCH  14  15
HETATM   15  C   UNL     1     -10.477   6.208  66.531  1.00  0.00    -0.128 C  
BRANCH  15  16
HETATM   16  N   UNL     1      -9.434   5.662  65.678  1.00  0.00    -0.029 N  
HETATM   17  C   UNL     1      -9.828   4.582  64.890  1.00  0.00    -0.081 C  
HETATM   18  C   UNL     1      -8.723   3.670  64.432  1.00  0.00    -0.105 C  
HETATM   19  O   UNL     1     -11.002   4.298  64.668  1.00  0.00    -0.236 OA 
HETATM   20  C   UNL     1      -7.540   4.426  63.883  1.00  0.00    -0.070 C  
HETATM   21  C   UNL     1      -7.178   5.614  64.726  1.00  0.00    -0.065 A  
HETATM   22  C   UNL     1      -5.886   6.148  64.605  1.00  0.00    -0.025 A  
HETATM   23  C   UNL     1      -5.525   7.313  65.282  1.00  0.00    -0.032 A  
HETATM   24  C   UNL     1      -6.470   7.971  66.061  1.00  0.00    -0.046 A  
HETATM   25  C   UNL     1      -7.756   7.431  66.192  1.00  0.00    -0.094 A  
HETATM   26  C   UNL     1      -8.128   6.237  65.553  1.00  0.00    -0.129 A  
BRANCH  24  27
HETATM   27  O   UNL     1      -6.243   9.121  66.770  1.00  0.00    -0.063 OA 
BRANCH  27  28
HETATM   28  C   UNL     1      -6.680  10.338  66.161  1.00  0.00    -0.110 C  
BRANCH  28  29
HETATM   29  C   UNL     1      -7.352  11.210  67.223  1.00  0.00    -0.118 C  
BRANCH  29  30
HETATM   30  C   UNL     1      -8.883  11.185  67.105  1.00  0.00    -0.143 C  
BRANCH  30  31
HETATM   31  C   UNL     1      -9.430  12.163  66.046  1.00  0.00    -0.207 C  
BRANCH  31  32
HETATM   32  N   UNL     1     -10.419  13.109  66.578  1.00  0.00    -0.276 NA 
HETATM   33  C   UNL     1      -9.953  13.837  67.776  1.00  0.00    -0.242 C  
HETATM   34  C   UNL     1      -8.917  14.936  67.470  1.00  0.00    -0.185 C  
HETATM   35  N   UNL     1      -9.546  15.955  66.613  1.00  0.00    -0.232 NA 
HETATM   36  C   UNL     1     -10.055  15.395  65.345  1.00  0.00    -0.359 C  
HETATM   37  C   UNL     1     -10.880  14.088  65.566  1.00  0.00    -0.309 C  
BRANCH  35  38
HETATM   38  C   UNL     1      -9.514  17.304  66.951  1.00  0.00    -0.257 A  
HETATM   39  C   UNL     1      -8.431  18.205  66.755  1.00  0.00    -0.259 A  
HETATM   40 CL   UNL     1      -6.876  17.664  66.179  1.00  0.00    -0.315 Cl 
HETATM   41  C   UNL     1      -8.548  19.570  67.116  1.00  0.00    -0.297 A  
HETATM   42  C   UNL     1      -9.706  20.061  67.721  1.00  0.00    -0.528 A  
HETATM   43 CL   UNL     1      -7.285  20.731  66.841  1.00  0.00    -0.355 Cl 
HETATM   44  C   UNL     1     -10.768  19.206  67.943  1.00  0.00    -0.396 A  
HETATM   45  C   UNL     1     -10.674  17.870  67.541  1.00  0.00    -0.333 A  
ENDBRANCH  35  38
ENDBRANCH  31  32
ENDBRANCH  30  31
ENDBRANCH  29  30
ENDBRANCH  28  29
ENDBRANCH  27  28
ENDBRANCH  24  27
ENDBRANCH  15  16
ENDBRANCH  14  15
ENDBRANCH  12  14
ENDBRANCH  11  12
ENDBRANCH  10  11
ENDBRANCH   9  10
ENDBRANCH   8   9
ENDBRANCH   7   8
ENDBRANCH   6   7
ENDBRANCH   5   6
ENDBRANCH   4   5
ENDBRANCH   3   4
ENDBRANCH   2   3
TORSDOF 20
ENDMDL
MODEL       84
REMARK 921   NORMALIZED FREE ENERGY PREDICTED BY IDOCK:   -3.84 KCAL/MOL
REMARK 922        TOTAL FREE ENERGY PREDICTED BY IDOCK:  -12.18 KCAL/MOL
REMARK 923 INTER-LIGAND FREE ENERGY PREDICTED BY IDOCK:   -9.91 KCAL/MOL
REMARK 924 INTRA-LIGAND FREE ENERGY PREDICTED BY IDOCK:   -2.26 KCAL/MOL
REMARK 927      BINDING AFFINITY PREDICTED BY RF-SCORE:    0.00 PKD
ROOT
HETATM    1  C   UNL     1      -8.330   8.610  70.664  1.00  0.00    -0.157 C  
HETATM    2  C   UNL     1      -9.537   8.857  71.554  1.00  0.00    -0.362 C  
ENDROOT
BRANCH   2   3
HETATM    3  C   UNL     1     -10.828   8.909  70.738  1.00  0.00    -0.294 C  
BRANCH   3   4
HETATM    4  C   UNL     1     -11.783   7.784  71.136  1.00  0.00    -0.304 C  
BRANCH   4   5
HETATM    5  C   UNL     1     -11.592   7.393  72.602  1.00  0.00    -0.295 C  
BRANCH   5   6
HETATM    6  C   UNL     1     -11.443   5.880  72.755  1.00  0.00    -0.274 C  
BRANCH   6   7
HETATM    7  C   UNL     1     -10.020   5.427  72.427  1.00  0.00    -0.208 C  
BRANCH   7   8
HETATM    8  C   UNL     1     -10.028   4.088  71.691  1.00  0.00    -0.232 C  
BRANCH   8   9
HETATM    9  C   UNL     1      -9.359   4.202  70.321  1.00  0.00    -0.232 C  
BRANCH   9  10
HETATM   10  C   UNL     1     -10.139   5.155  69.411  1.00  0.00    -0.305 C  
BRANCH  10  11
HETATM   11  C   UNL     1      -9.284   5.717  68.278  1.00  0.00    -0.119 C  
BRANCH  11  12
HETATM   12  C   UNL     1      -9.440   4.954  66.983  1.00  0.00    -0.148 C  
HETATM   13  O   UNL     1      -9.899   3.827  66.877  1.00  0.00    -0.182 OA 
BRANCH  12  14
HETATM   14  O   UNL     1      -9.009   5.733  65.955  1.00  0.00    -0.154 OA 
BRANCH  14  15
HETATM   15  C   UNL     1      -7.862   6.553  66.219  1.00  0.00    -0.105 C  
BRANCH  15  16
HETATM   16  N   UNL     1      -7.354   7.219  65.030  1.00  0.00    -0.074 N  
HETATM   17  C   UNL     1      -6.348   6.528  64.357  1.00  0.00    -0.037 C  
HETATM   18  C   UNL     1      -5.445   7.366  63.495  1.00  0.00    -0.034 C  
HETATM   19  O   UNL     1      -6.115   5.334  64.528  1.00  0.00    -0.021 OA 
HETATM   20  C   UNL     1      -6.208   8.333  62.626  1.00  0.00    -0.087 C  
HETATM   21  C   UNL     1      -7.318   9.018  63.369  1.00  0.00    -0.097 A  
HETATM   22  C   UNL     1      -7.824  10.220  62.852  1.00  0.00    -0.151 A  
HETATM   23  C   UNL     1      -8.923  10.847  63.438  1.00  0.00    -0.175 A  
HETATM   24  C   UNL     1      -9.545  10.255  64.531  1.00  0.00    -0.316 A  
HETATM   25  C   UNL     1      -9.032   9.061  65.056  1.00  0.00    -0.198 A  
HETATM   26  C   UNL     1      -7.901   8.434  64.507  1.00  0.00    -0.136 A  
BRANCH  24  27
HETATM   27  O   UNL     1     -10.631  10.766  65.191  1.00  0.00    -0.259 OA 
BRANCH  27  28
HETATM   28  C   UNL     1     -11.071  12.063  64.781  1.00  0.00    -0.317 C  
BRANCH  28  29
HETATM   29  C   UNL     1     -12.011  12.627  65.847  1.00  0.00    -0.497 C  
BRANCH  29  30
HETATM   30  C   UNL     1     -12.444  14.067  65.529  1.00  0.00    -0.533 C  
BRANCH  30  31
HETATM   31  C   UNL     1     -11.994  15.088  66.593  1.00  0.00     0.031 C  
BRANCH  31  32
HETATM   32  N   UNL     1     -10.659  14.812  67.141  1.00  0.00    -0.280 NA 
HETATM   33  C   UNL     1      -9.558  15.319  66.297  1.00  0.00    -0.303 C  
HETATM   34  C   UNL     1      -9.379  16.848  66.361  1.00  0.00    -0.276 C  
HETATM   35  N   UNL     1      -9.021  17.225  67.739  1.00  0.00    -0.231 NA 
HETATM   36  C   UNL     1     -10.037  16.808  68.725  1.00  0.00    -0.286 C  
HETATM   37  C   UNL     1     -10.488  15.327  68.520  1.00  0.00    -0.235 C  
BRANCH  35  38
HETATM   38  C   UNL     1      -7.900  18.006  68.007  1.00  0.00    -0.256 A  
HETATM   39  C   UNL     1      -7.495  19.178  67.311  1.00  0.00    -0.228 A  
HETATM   40 CL   UNL     1      -8.310  19.720  65.866  1.00  0.00    -0.305 Cl 
HETATM   41  C   UNL     1      -6.345  19.901  67.714  1.00  0.00    -0.221 A  
HETATM   42  C   UNL     1      -5.547  19.457  68.769  1.00  0.00    -0.224 A  
HETATM   43 CL   UNL     1      -5.837  21.374  66.946  1.00  0.00    -0.369 Cl 
HETATM   44  C   UNL     1      -5.904  18.311  69.453  1.00  0.00    -0.237 A  
HETATM   45  C   UNL     1      -7.067  17.625  69.090  1.00  0.00    -0.189 A  
ENDBRANCH  35  38
ENDBRANCH  31  32
ENDBRANCH  30  31
ENDBRANCH  29  30
ENDBRANCH  28  29
ENDBRANCH  27  28
ENDBRANCH  24  27
ENDBRANCH  15  16
ENDBRANCH  14  15
ENDBRANCH  12  14
ENDBRANCH  11  12
ENDBRANCH  10  11
ENDBRANCH   9  10
ENDBRANCH   8   9
ENDBRANCH   7   8
ENDBRANCH   6   7
ENDBRANCH   5   6
ENDBRANCH   4   5
ENDBRANCH   3   4
ENDBRANCH   2   3
TORSDOF 20
ENDMDL
MODEL       85
REMARK 921   NORMALIZED FREE ENERGY PREDICTED BY IDOCK:   -3.83 KCAL/MOL
REMARK 922        TOTAL FREE ENERGY PREDICTED BY IDOCK:  -12.15 KCAL/MOL
REMARK 923 INTER-LIGAND FREE ENERGY PREDICTED BY IDOCK:  -10.48 KCAL/MOL
REMARK 924 INTRA-LIGAND FREE ENERGY PREDICTED BY IDOCK:   -1.66 KCAL/MOL
REMARK 927      BINDING AFFINITY PREDICTED BY RF-SCORE:    0.00 PKD
ROOT
HETATM    1  C   UNL     1      -6.781   8.578  63.296  1.00  0.00    -0.089 C  
HETATM    2  C   UNL     1      -6.709   8.106  64.739  1.00  0.00    -0.066 C  
ENDROOT
BRANCH   2   3
HETATM    3  C   UNL     1      -7.927   7.262  65.111  1.00  0.00    -0.128 C  
BRANCH   3   4
HETATM    4  C   UNL     1      -7.527   5.827  65.447  1.00  0.00    -0.078 C  
BRANCH   4   5
HETATM    5  C   UNL     1      -6.574   5.787  66.641  1.00  0.00    -0.056 C  
BRANCH   5   6
HETATM    6  C   UNL     1      -7.046   4.785  67.694  1.00  0.00    -0.062 C  
BRANCH   6   7
HETATM    7  C   UNL     1      -6.254   4.931  68.993  1.00  0.00    -0.031 C  
BRANCH   7   8
HETATM    8  C   UNL     1      -7.089   4.491  70.195  1.00  0.00    -0.049 C  
BRANCH   8   9
HETATM    9  C   UNL     1      -7.035   5.525  71.320  1.00  0.00    -0.066 C  
BRANCH   9  10
HETATM   10  C   UNL     1      -8.057   5.195  72.412  1.00  0.00    -0.110 C  
BRANCH  10  11
HETATM   11  C   UNL     1      -8.424   6.409  73.260  1.00  0.00    -0.123 C  
BRANCH  11  12
HETATM   12  C   UNL     1      -9.845   6.368  73.771  1.00  0.00    -0.212 C  
HETATM   13  O   UNL     1     -10.315   5.495  74.486  1.00  0.00    -0.269 OA 
BRANCH  12  14
HETATM   14  O   UNL     1     -10.509   7.469  73.328  1.00  0.00    -0.329 OA 
BRANCH  14  15
HETATM   15  C   UNL     1     -11.520   7.242  72.336  1.00  0.00    -0.287 C  
BRANCH  15  16
HETATM   16  N   UNL     1     -11.197   7.840  71.050  1.00  0.00    -0.262 N  
HETATM   17  C   UNL     1     -10.662   6.958  70.113  1.00  0.00    -0.237 C  
HETATM   18  C   UNL     1      -9.836   7.585  69.024  1.00  0.00    -0.170 C  
HETATM   19  O   UNL     1     -10.742   5.737  70.210  1.00  0.00    -0.276 OA 
HETATM   20  C   UNL     1     -10.502   8.793  68.415  1.00  0.00    -0.220 C  
HETATM   21  C   UNL     1     -11.115   9.692  69.450  1.00  0.00    -0.170 A  
HETATM   22  C   UNL     1     -11.379  11.026  69.102  1.00  0.00    -0.348 A  
HETATM   23  C   UNL     1     -12.043  11.878  69.983  1.00  0.00    -0.366 A  
HETATM   24  C   UNL     1     -12.475  11.391  71.210  1.00  0.00    -0.318 A  
HETATM   25  C   UNL     1     -12.200  10.063  71.564  1.00  0.00    -0.496 A  
HETATM   26  C   UNL     1     -11.497   9.198  70.708  1.00  0.00    -0.282 A  
BRANCH  24  27
HETATM   27  O   UNL     1     -13.139  12.123  72.159  1.00  0.00    -0.434 OA 
BRANCH  27  28
HETATM   28  C   UNL     1     -13.695  13.367  71.726  1.00  0.00    -0.254 C  
BRANCH  28  29
HETATM   29  C   UNL     1     -12.748  14.500  72.127  1.00  0.00    -0.407 C  
BRANCH  29  30
HETATM   30  C   UNL     1     -12.807  15.676  71.141  1.00  0.00    -0.540 C  
BRANCH  30  31
HETATM   31  C   UNL     1     -11.417  16.225  70.761  1.00  0.00    -0.297 C  
BRANCH  31  32
HETATM   32  N   UNL     1     -11.025  15.918  69.380  1.00  0.00    -0.283 NA 
HETATM   33  C   UNL     1     -11.000  17.101  68.496  1.00  0.00    -0.204 C  
HETATM   34  C   UNL     1      -9.795  18.031  68.739  1.00  0.00    -0.354 C  
HETATM   35  N   UNL     1      -8.558  17.292  68.437  1.00  0.00    -0.245 NA 
HETATM   36  C   UNL     1      -8.409  16.074  69.258  1.00  0.00    -0.217 C  
HETATM   37  C   UNL     1      -9.718  15.223  69.296  1.00  0.00    -0.254 C  
BRANCH  35  38
HETATM   38  C   UNL     1      -7.605  17.804  67.562  1.00  0.00    -0.204 A  
HETATM   39  C   UNL     1      -7.619  19.085  66.943  1.00  0.00    -0.232 A  
HETATM   40 CL   UNL     1      -8.982  20.165  67.093  1.00  0.00    -0.439 Cl 
HETATM   41  C   UNL     1      -6.559  19.494  66.097  1.00  0.00    -0.209 A  
HETATM   42  C   UNL     1      -5.499  18.636  65.801  1.00  0.00    -0.201 A  
HETATM   43 CL   UNL     1      -6.489  21.068  65.365  1.00  0.00    -0.191 Cl 
HETATM   44  C   UNL     1      -5.466  17.378  66.371  1.00  0.00    -0.228 A  
HETATM   45  C   UNL     1      -6.484  16.992  67.248  1.00  0.00    -0.194 A  
ENDBRANCH  35  38
ENDBRANCH  31  32
ENDBRANCH  30  31
ENDBRANCH  29  30
ENDBRANCH  28  29
ENDBRANCH  27  28
ENDBRANCH  24  27
ENDBRANCH  15  16
ENDBRANCH  14  15
ENDBRANCH  12  14
ENDBRANCH  11  12
ENDBRANCH  10  11
ENDBRANCH   9  10
ENDBRANCH   8   9
ENDBRANCH   7   8
ENDBRANCH   6   7
ENDBRANCH   5   6
ENDBRANCH   4   5
ENDBRANCH   3   4
ENDBRANCH   2   3
TORSDOF 20
ENDMDL
MODEL       86
REMARK 921   NORMALIZED FREE ENERGY PREDICTED BY IDOCK:   -3.82 KCAL/MOL
REMARK 922        TOTAL FREE ENERGY PREDICTED BY IDOCK:  -12.12 KCAL/MOL
REMARK 923 INTER-LIGAND FREE ENERGY PREDICTED BY IDOCK:   -9.53 KCAL/MOL
REMARK 924 INTRA-LIGAND FREE ENERGY PREDICTED BY IDOCK:   -2.60 KCAL/MOL
REMARK 927      BINDING AFFINITY PREDICTED BY RF-SCORE:    0.00 PKD
ROOT
HETATM    1  C   UNL     1      -8.672  19.667  66.219  1.00  0.00    -0.401 C  
HETATM    2  C   UNL     1      -9.033  19.796  67.689  1.00  0.00    -0.402 C  
ENDROOT
BRANCH   2   3
HETATM    3  C   UNL     1      -8.025  19.068  68.576  1.00  0.00    -0.381 C  
BRANCH   3   4
HETATM    4  C   UNL     1      -6.621  19.113  67.974  1.00  0.00    -0.258 C  
BRANCH   4   5
HETATM    5  C   UNL     1      -5.919  17.762  68.115  1.00  0.00    -0.165 C  
BRANCH   5   6
HETATM    6  C   UNL     1      -6.701  16.657  67.406  1.00  0.00    -0.199 C  
BRANCH   6   7
HETATM    7  C   UNL     1      -5.926  15.339  67.412  1.00  0.00     0.075 C  
BRANCH   7   8
HETATM    8  C   UNL     1      -6.864  14.154  67.635  1.00  0.00    -0.196 C  
BRANCH   8   9
HETATM    9  C   UNL     1      -6.131  12.823  67.464  1.00  0.00    -0.152 C  
BRANCH   9  10
HETATM   10  C   UNL     1      -7.125  11.660  67.392  1.00  0.00    -0.124 C  
BRANCH  10  11
HETATM   11  C   UNL     1      -8.081  11.630  68.582  1.00  0.00    -0.121 C  
BRANCH  11  12
HETATM   12  C   UNL     1      -8.543  10.236  68.937  1.00  0.00    -0.150 C  
HETATM   13  O   UNL     1      -8.323   9.665  69.995  1.00  0.00    -0.151 OA 
BRANCH  12  14
HETATM   14  O   UNL     1      -9.261   9.728  67.899  1.00  0.00    -0.125 OA 
BRANCH  14  15
HETATM   15  C   UNL     1     -10.671   9.993  67.916  1.00  0.00    -0.272 C  
BRANCH  15  16
HETATM   16  N   UNL     1     -11.023  11.232  67.240  1.00  0.00    -0.270 N  
HETATM   17  C   UNL     1     -11.490  12.243  68.078  1.00  0.00    -0.321 C  
HETATM   18  C   UNL     1     -12.348  13.290  67.423  1.00  0.00    -0.082 C  
HETATM   19  O   UNL     1     -11.327  12.243  69.295  1.00  0.00    -0.255 OA 
HETATM   20  C   UNL     1     -11.762  13.792  66.128  1.00  0.00    -0.392 C  
HETATM   21  C   UNL     1     -11.220  12.680  65.276  1.00  0.00    -0.335 A  
HETATM   22  C   UNL     1     -11.044  12.918  63.904  1.00  0.00    -0.454 A  
HETATM   23  C   UNL     1     -10.448  11.963  63.082  1.00  0.00    -0.327 A  
HETATM   24  C   UNL     1      -9.992  10.773  63.636  1.00  0.00    -0.345 A  
HETATM   25  C   UNL     1     -10.179  10.530  65.003  1.00  0.00    -0.365 A  
HETATM   26  C   UNL     1     -10.815  11.460  65.842  1.00  0.00    -0.234 A  
BRANCH  24  27
HETATM   27  O   UNL     1      -9.388   9.760  62.939  1.00  0.00    -0.273 OA 
BRANCH  27  28
HETATM   28  C   UNL     1      -8.272   9.130  63.574  1.00  0.00    -0.178 C  
BRANCH  28  29
HETATM   29  C   UNL     1      -8.015   7.781  62.900  1.00  0.00    -0.130 C  
BRANCH  29  30
HETATM   30  C   UNL     1      -7.294   6.799  63.835  1.00  0.00    -0.079 C  
BRANCH  30  31
HETATM   31  C   UNL     1      -8.248   6.057  64.794  1.00  0.00    -0.123 C  
BRANCH  31  32
HETATM   32  N   UNL     1      -8.527   6.799  66.030  1.00  0.00    -0.137 NA 
HETATM   33  C   UNL     1      -9.855   6.505  66.608  1.00  0.00    -0.148 C  
HETATM   34  C   UNL     1      -9.942   5.128  67.294  1.00  0.00    -0.186 C  
HETATM   35  N   UNL     1      -9.007   5.106  68.432  1.00  0.00    -0.105 NA 
HETATM   36  C   UNL     1      -7.611   5.364  68.026  1.00  0.00    -0.081 C  
HETATM   37  C   UNL     1      -7.491   6.593  67.069  1.00  0.00    -0.087 C  
BRANCH  35  38
HETATM   38  C   UNL     1      -9.429   4.744  69.707  1.00  0.00    -0.162 A  
HETATM   39  C   UNL     1     -10.274   5.496  70.569  1.00  0.00    -0.242 A  
HETATM   40 CL   UNL     1     -10.785   7.117  70.174  1.00  0.00    -0.250 Cl 
HETATM   41  C   UNL     1     -10.656   4.988  71.836  1.00  0.00    -0.154 A  
HETATM   42  C   UNL     1     -10.174   3.763  72.298  1.00  0.00    -0.201 A  
HETATM   43 CL   UNL     1     -11.737   5.830  72.904  1.00  0.00    -0.215 Cl 
HETATM   44  C   UNL     1      -9.336   3.017  71.491  1.00  0.00    -0.203 A  
HETATM   45  C   UNL     1      -8.999   3.492  70.221  1.00  0.00    -0.173 A  
ENDBRANCH  35  38
ENDBRANCH  31  32
ENDBRANCH  30  31
ENDBRANCH  29  30
ENDBRANCH  28  29
ENDBRANCH  27  28
ENDBRANCH  24  27
ENDBRANCH  15  16
ENDBRANCH  14  15
ENDBRANCH  12  14
ENDBRANCH  11  12
ENDBRANCH  10  11
ENDBRANCH   9  10
ENDBRANCH   8   9
ENDBRANCH   7   8
ENDBRANCH   6   7
ENDBRANCH   5   6
ENDBRANCH   4   5
ENDBRANCH   3   4
ENDBRANCH   2   3
TORSDOF 20
ENDMDL
MODEL       87
REMARK 921   NORMALIZED FREE ENERGY PREDICTED BY IDOCK:   -3.82 KCAL/MOL
REMARK 922        TOTAL FREE ENERGY PREDICTED BY IDOCK:  -12.12 KCAL/MOL
REMARK 923 INTER-LIGAND FREE ENERGY PREDICTED BY IDOCK:  -10.66 KCAL/MOL
REMARK 924 INTRA-LIGAND FREE ENERGY PREDICTED BY IDOCK:   -1.46 KCAL/MOL
REMARK 927      BINDING AFFINITY PREDICTED BY RF-SCORE:    0.00 PKD
ROOT
HETATM    1  C   UNL     1     -10.161  19.833  67.481  1.00  0.00    -0.554 C  
HETATM    2  C   UNL     1      -8.888  19.542  68.260  1.00  0.00    -0.383 C  
ENDROOT
BRANCH   2   3
HETATM    3  C   UNL     1      -7.645  19.799  67.409  1.00  0.00    -0.303 C  
BRANCH   3   4
HETATM    4  C   UNL     1      -7.674  18.977  66.121  1.00  0.00    -0.291 C  
BRANCH   4   5
HETATM    5  C   UNL     1      -6.819  17.717  66.254  1.00  0.00    -0.322 C  
BRANCH   5   6
HETATM    6  C   UNL     1      -7.557  16.628  67.031  1.00  0.00    -0.237 C  
BRANCH   6   7
HETATM    7  C   UNL     1      -8.746  16.088  66.235  1.00  0.00    -0.372 C  
BRANCH   7   8
HETATM    8  C   UNL     1      -9.105  14.671  66.682  1.00  0.00    -0.285 C  
BRANCH   8   9
HETATM    9  C   UNL     1      -9.292  13.740  65.484  1.00  0.00     0.316 C  
BRANCH   9  10
HETATM   10  C   UNL     1     -10.686  13.912  64.873  1.00  0.00    -0.422 C  
BRANCH  10  11
HETATM   11  C   UNL     1     -11.630  14.700  65.778  1.00  0.00    -0.328 C  
BRANCH  11  12
HETATM   12  C   UNL     1     -12.199  13.872  66.906  1.00  0.00    -0.377 C  
HETATM   13  O   UNL     1     -12.422  12.672  66.860  1.00  0.00    -0.301 OA 
BRANCH  12  14
HETATM   14  O   UNL     1     -12.399  14.673  67.987  1.00  0.00    -0.143 OA 
BRANCH  14  15
HETATM   15  C   UNL     1     -11.540  14.443  69.113  1.00  0.00    -0.307 C  
BRANCH  15  16
HETATM   16  N   UNL     1     -12.173  13.653  70.157  1.00  0.00    -0.345 N  
HETATM   17  C   UNL     1     -13.103  14.346  70.932  1.00  0.00    -0.328 C  
HETATM   18  C   UNL     1     -13.364  13.779  72.300  1.00  0.00    -0.617 C  
HETATM   19  O   UNL     1     -13.602  15.416  70.594  1.00  0.00    -0.341 OA 
HETATM   20  C   UNL     1     -13.578  12.287  72.278  1.00  0.00    -0.299 C  
HETATM   21  C   UNL     1     -12.594  11.581  71.391  1.00  0.00    -0.419 A  
HETATM   22  C   UNL     1     -12.384  10.207  71.591  1.00  0.00    -0.471 A  
HETATM   23  C   UNL     1     -11.564   9.476  70.733  1.00  0.00    -0.378 A  
HETATM   24  C   UNL     1     -10.972  10.109  69.647  1.00  0.00    -0.264 A  
HETATM   25  C   UNL     1     -11.172  11.483  69.454  1.00  0.00    -0.324 A  
HETATM   26  C   UNL     1     -11.961  12.248  70.329  1.00  0.00    -0.290 A  
BRANCH  24  27
HETATM   27  O   UNL     1     -10.152   9.503  68.732  1.00  0.00    -0.175 OA 
BRANCH  27  28
HETATM   28  C   UNL     1      -8.818   9.222  69.164  1.00  0.00    -0.141 C  
BRANCH  28  29
HETATM   29  C   UNL     1      -7.942  10.448  68.897  1.00  0.00    -0.123 C  
BRANCH  29  30
HETATM   30  C   UNL     1      -8.102  10.968  67.460  1.00  0.00    -0.117 C  
BRANCH  30  31
HETATM   31  C   UNL     1      -6.804  10.883  66.632  1.00  0.00    -0.127 C  
BRANCH  31  32
HETATM   32  N   UNL     1      -6.928  10.040  65.436  1.00  0.00    -0.120 NA 
HETATM   33  C   UNL     1      -6.172   8.774  65.524  1.00  0.00    -0.052 C  
HETATM   34  C   UNL     1      -6.819   7.728  66.452  1.00  0.00    -0.062 C  
HETATM   35  N   UNL     1      -8.135   7.359  65.905  1.00  0.00    -0.120 NA 
HETATM   36  C   UNL     1      -9.039   8.518  65.767  1.00  0.00    -0.167 C  
HETATM   37  C   UNL     1      -8.337   9.738  65.090  1.00  0.00    -0.142 C  
BRANCH  35  38
HETATM   38  C   UNL     1      -8.480   6.029  65.685  1.00  0.00    -0.151 A  
HETATM   39  C   UNL     1      -7.762   5.082  64.903  1.00  0.00    -0.084 A  
HETATM   40 CL   UNL     1      -6.375   5.539  63.947  1.00  0.00    -0.022 Cl 
HETATM   41  C   UNL     1      -8.210   3.742  64.793  1.00  0.00    -0.093 A  
HETATM   42  C   UNL     1      -9.392   3.324  65.404  1.00  0.00    -0.140 A  
HETATM   43 CL   UNL     1      -7.342   2.526  63.906  1.00  0.00    -0.056 Cl 
HETATM   44  C   UNL     1     -10.122   4.225  66.155  1.00  0.00    -0.210 A  
HETATM   45  C   UNL     1      -9.655   5.534  66.307  1.00  0.00    -0.173 A  
ENDBRANCH  35  38
ENDBRANCH  31  32
ENDBRANCH  30  31
ENDBRANCH  29  30
ENDBRANCH  28  29
ENDBRANCH  27  28
ENDBRANCH  24  27
ENDBRANCH  15  16
ENDBRANCH  14  15
ENDBRANCH  12  14
ENDBRANCH  11  12
ENDBRANCH  10  11
ENDBRANCH   9  10
ENDBRANCH   8   9
ENDBRANCH   7   8
ENDBRANCH   6   7
ENDBRANCH   5   6
ENDBRANCH   4   5
ENDBRANCH   3   4
ENDBRANCH   2   3
TORSDOF 20
ENDMDL
MODEL       88
REMARK 921   NORMALIZED FREE ENERGY PREDICTED BY IDOCK:   -3.75 KCAL/MOL
REMARK 922        TOTAL FREE ENERGY PREDICTED BY IDOCK:  -11.98 KCAL/MOL
REMARK 923 INTER-LIGAND FREE ENERGY PREDICTED BY IDOCK:  -10.82 KCAL/MOL
REMARK 924 INTRA-LIGAND FREE ENERGY PREDICTED BY IDOCK:   -1.16 KCAL/MOL
REMARK 927      BINDING AFFINITY PREDICTED BY RF-SCORE:    0.00 PKD
ROOT
HETATM    1  C   UNL     1      -8.734   7.053  74.494  1.00  0.00    -0.227 C  
HETATM    2  C   UNL     1      -9.138   5.739  73.845  1.00  0.00    -0.126 C  
ENDROOT
BRANCH   2   3
HETATM    3  C   UNL     1     -10.576   5.363  74.201  1.00  0.00    -0.278 C  
BRANCH   3   4
HETATM    4  C   UNL     1     -11.410   5.103  72.947  1.00  0.00    -0.354 C  
BRANCH   4   5
HETATM    5  C   UNL     1     -10.515   4.810  71.743  1.00  0.00    -0.182 C  
BRANCH   5   6
HETATM    6  C   UNL     1     -10.298   6.064  70.897  1.00  0.00    -0.277 C  
BRANCH   6   7
HETATM    7  C   UNL     1     -11.621   6.778  70.617  1.00  0.00    -0.422 C  
BRANCH   7   8
HETATM    8  C   UNL     1     -11.582   8.219  71.124  1.00  0.00    -0.310 C  
BRANCH   8   9
HETATM    9  C   UNL     1     -10.144   8.700  71.324  1.00  0.00    -0.312 C  
BRANCH   9  10
HETATM   10  C   UNL     1      -9.470   8.976  69.978  1.00  0.00    -0.202 C  
BRANCH  10  11
HETATM   11  C   UNL     1      -9.897  10.309  69.368  1.00  0.00    -0.247 C  
BRANCH  11  12
HETATM   12  C   UNL     1     -10.717  10.150  68.110  1.00  0.00    -0.244 C  
HETATM   13  O   UNL     1     -11.885  10.484  67.979  1.00  0.00    -0.425 OA 
BRANCH  12  14
HETATM   14  O   UNL     1      -9.939   9.598  67.140  1.00  0.00    -0.172 OA 
BRANCH  14  15
HETATM   15  C   UNL     1      -9.916   8.165  67.086  1.00  0.00    -0.236 C  
BRANCH  15  16
HETATM   16  N   UNL     1      -8.707   7.639  66.471  1.00  0.00    -0.142 N  
HETATM   17  C   UNL     1      -8.065   6.642  67.204  1.00  0.00    -0.113 C  
HETATM   18  C   UNL     1      -6.600   6.462  66.917  1.00  0.00    -0.055 C  
HETATM   19  O   UNL     1      -8.604   6.016  68.113  1.00  0.00    -0.115 OA 
HETATM   20  C   UNL     1      -6.299   6.425  65.440  1.00  0.00    -0.038 C  
HETATM   21  C   UNL     1      -7.050   7.478  64.676  1.00  0.00    -0.064 A  
HETATM   22  C   UNL     1      -6.571   7.851  63.411  1.00  0.00    -0.067 A  
HETATM   23  C   UNL     1      -7.283   8.743  62.610  1.00  0.00    -0.096 A  
HETATM   24  C   UNL     1      -8.498   9.245  63.060  1.00  0.00    -0.212 A  
HETATM   25  C   UNL     1      -8.970   8.883  64.328  1.00  0.00     0.089 A  
HETATM   26  C   UNL     1      -8.249   8.018  65.169  1.00  0.00    -0.144 A  
BRANCH  24  27
HETATM   27  O   UNL     1      -9.291  10.123  62.369  1.00  0.00    -0.283 OA 
BRANCH  27  28
HETATM   28  C   UNL     1      -9.256  11.485  62.801  1.00  0.00    -0.148 C  
BRANCH  28  29
HETATM   29  C   UNL     1     -10.165  11.642  64.022  1.00  0.00    -0.391 C  
BRANCH  29  30
HETATM   30  C   UNL     1     -11.507  12.297  63.661  1.00  0.00    -0.572 C  
BRANCH  30  31
HETATM   31  C   UNL     1     -12.456  12.449  64.866  1.00  0.00    -0.361 C  
BRANCH  31  32
HETATM   32  N   UNL     1     -12.713  13.846  65.237  1.00  0.00    -0.678 NA 
HETATM   33  C   UNL     1     -12.629  14.097  66.690  1.00  0.00    -0.051 C  
HETATM   34  C   UNL     1     -11.187  14.111  67.235  1.00  0.00    -0.316 C  
HETATM   35  N   UNL     1     -10.454  15.221  66.603  1.00  0.00    -0.284 NA 
HETATM   36  C   UNL     1     -10.420  15.116  65.131  1.00  0.00    -0.410 C  
HETATM   37  C   UNL     1     -11.826  14.799  64.529  1.00  0.00    -0.419 C  
BRANCH  35  38
HETATM   38  C   UNL     1      -9.772  16.165  67.367  1.00  0.00    -0.233 A  
HETATM   39  C   UNL     1      -8.386  16.159  67.687  1.00  0.00    -0.151 A  
HETATM   40 CL   UNL     1      -7.351  14.817  67.271  1.00  0.00    -0.204 Cl 
HETATM   41  C   UNL     1      -7.813  17.207  68.448  1.00  0.00    -0.244 A  
HETATM   42  C   UNL     1      -8.596  18.247  68.950  1.00  0.00    -0.153 A  
HETATM   43 CL   UNL     1      -6.117  17.289  68.816  1.00  0.00    -0.162 Cl 
HETATM   44  C   UNL     1      -9.949  18.271  68.671  1.00  0.00    -0.410 A  
HETATM   45  C   UNL     1     -10.508  17.265  67.877  1.00  0.00    -0.382 A  
ENDBRANCH  35  38
ENDBRANCH  31  32
ENDBRANCH  30  31
ENDBRANCH  29  30
ENDBRANCH  28  29
ENDBRANCH  27  28
ENDBRANCH  24  27
ENDBRANCH  15  16
ENDBRANCH  14  15
ENDBRANCH  12  14
ENDBRANCH  11  12
ENDBRANCH  10  11
ENDBRANCH   9  10
ENDBRANCH   8   9
ENDBRANCH   7   8
ENDBRANCH   6   7
ENDBRANCH   5   6
ENDBRANCH   4   5
ENDBRANCH   3   4
ENDBRANCH   2   3
TORSDOF 20
ENDMDL
MODEL       89
REMARK 921   NORMALIZED FREE ENERGY PREDICTED BY IDOCK:   -3.72 KCAL/MOL
REMARK 922        TOTAL FREE ENERGY PREDICTED BY IDOCK:  -11.91 KCAL/MOL
REMARK 923 INTER-LIGAND FREE ENERGY PREDICTED BY IDOCK:   -9.31 KCAL/MOL
REMARK 924 INTRA-LIGAND FREE ENERGY PREDICTED BY IDOCK:   -2.60 KCAL/MOL
REMARK 927      BINDING AFFINITY PREDICTED BY RF-SCORE:    0.00 PKD
ROOT
HETATM    1  C   UNL     1     -10.518  19.938  67.890  1.00  0.00    -0.505 C  
HETATM    2  C   UNL     1     -10.109  19.693  66.447  1.00  0.00    -0.573 C  
ENDROOT
BRANCH   2   3
HETATM    3  C   UNL     1      -8.872  18.799  66.364  1.00  0.00    -0.298 C  
BRANCH   3   4
HETATM    4  C   UNL     1      -8.714  17.950  67.625  1.00  0.00    -0.242 C  
BRANCH   4   5
HETATM    5  C   UNL     1      -7.364  18.204  68.294  1.00  0.00    -0.265 C  
BRANCH   5   6
HETATM    6  C   UNL     1      -6.908  16.987  69.099  1.00  0.00    -0.240 C  
BRANCH   6   7
HETATM    7  C   UNL     1      -6.227  15.953  68.202  1.00  0.00    -0.128 C  
BRANCH   7   8
HETATM    8  C   UNL     1      -6.517  14.533  68.686  1.00  0.00    -0.086 C  
BRANCH   8   9
HETATM    9  C   UNL     1      -7.414  13.781  67.703  1.00  0.00    -0.187 C  
BRANCH   9  10
HETATM   10  C   UNL     1      -8.840  13.664  68.247  1.00  0.00    -0.179 C  
BRANCH  10  11
HETATM   11  C   UNL     1      -9.866  14.368  67.363  1.00  0.00    -0.224 C  
BRANCH  11  12
HETATM   12  C   UNL     1     -10.903  13.427  66.794  1.00  0.00    -0.282 C  
HETATM   13  O   UNL     1     -12.096  13.668  66.688  1.00  0.00    -0.404 OA 
BRANCH  12  14
HETATM   14  O   UNL     1     -10.290  12.279  66.398  1.00  0.00    -0.221 OA 
BRANCH  14  15
HETATM   15  C   UNL     1     -10.992  11.059  66.676  1.00  0.00    -0.190 C  
BRANCH  15  16
HETATM   16  N   UNL     1     -10.703  10.527  67.999  1.00  0.00    -0.224 N  
HETATM   17  C   UNL     1     -11.618  10.888  68.986  1.00  0.00    -0.316 C  
HETATM   18  C   UNL     1     -11.105  10.841  70.399  1.00  0.00    -0.177 C  
HETATM   19  O   UNL     1     -12.736  11.334  68.744  1.00  0.00    -0.126 OA 
HETATM   20  C   UNL     1     -10.351   9.570  70.700  1.00  0.00    -0.369 C  
HETATM   21  C   UNL     1      -9.417   9.183  69.590  1.00  0.00    -0.178 A  
HETATM   22  C   UNL     1      -8.363   8.304  69.884  1.00  0.00    -0.125 A  
HETATM   23  C   UNL     1      -7.527   7.825  68.876  1.00  0.00    -0.095 A  
HETATM   24  C   UNL     1      -7.762   8.199  67.558  1.00  0.00    -0.102 A  
HETATM   25  C   UNL     1      -8.806   9.086  67.266  1.00  0.00    -0.126 A  
HETATM   26  C   UNL     1      -9.635   9.614  68.271  1.00  0.00    -0.140 A  
BRANCH  24  27
HETATM   27  O   UNL     1      -7.018   7.796  66.481  1.00  0.00    -0.064 OA 
BRANCH  27  28
HETATM   28  C   UNL     1      -7.521   8.158  65.192  1.00  0.00    -0.081 C  
BRANCH  28  29
HETATM   29  C   UNL     1      -7.794   6.883  64.391  1.00  0.00    -0.112 C  
BRANCH  29  30
HETATM   30  C   UNL     1      -7.450   5.616  65.190  1.00  0.00    -0.078 C  
BRANCH  30  31
HETATM   31  C   UNL     1      -8.013   4.326  64.560  1.00  0.00    -0.090 C  
BRANCH  31  32
HETATM   32  N   UNL     1      -8.961   3.617  65.428  1.00  0.00    -0.130 NA 
HETATM   33  C   UNL     1      -8.442   3.365  66.788  1.00  0.00    -0.108 C  
HETATM   34  C   UNL     1      -8.407   4.620  67.681  1.00  0.00    -0.103 C  
HETATM   35  N   UNL     1      -9.784   5.105  67.872  1.00  0.00    -0.139 NA 
HETATM   36  C   UNL     1     -10.454   5.429  66.597  1.00  0.00    -0.298 C  
HETATM   37  C   UNL     1     -10.270   4.305  65.530  1.00  0.00    -0.207 C  
BRANCH  35  38
HETATM   38  C   UNL     1     -10.299   5.339  69.144  1.00  0.00    -0.194 A  
HETATM   39  C   UNL     1      -9.838   4.772  70.365  1.00  0.00    -0.239 A  
HETATM   40 CL   UNL     1      -8.611   3.532  70.400  1.00  0.00    -0.098 Cl 
HETATM   41  C   UNL     1     -10.434   5.128  71.600  1.00  0.00    -0.185 A  
HETATM   42  C   UNL     1     -11.521   6.001  71.653  1.00  0.00    -0.293 A  
HETATM   43 CL   UNL     1      -9.875   4.520  73.128  1.00  0.00    -0.159 Cl 
HETATM   44  C   UNL     1     -12.004   6.553  70.481  1.00  0.00    -0.322 A  
HETATM   45  C   UNL     1     -11.384   6.244  69.267  1.00  0.00    -0.411 A  
ENDBRANCH  35  38
ENDBRANCH  31  32
ENDBRANCH  30  31
ENDBRANCH  29  30
ENDBRANCH  28  29
ENDBRANCH  27  28
ENDBRANCH  24  27
ENDBRANCH  15  16
ENDBRANCH  14  15
ENDBRANCH  12  14
ENDBRANCH  11  12
ENDBRANCH  10  11
ENDBRANCH   9  10
ENDBRANCH   8   9
ENDBRANCH   7   8
ENDBRANCH   6   7
ENDBRANCH   5   6
ENDBRANCH   4   5
ENDBRANCH   3   4
ENDBRANCH   2   3
TORSDOF 20
ENDMDL
MODEL       90
REMARK 921   NORMALIZED FREE ENERGY PREDICTED BY IDOCK:   -3.70 KCAL/MOL
REMARK 922        TOTAL FREE ENERGY PREDICTED BY IDOCK:  -11.88 KCAL/MOL
REMARK 923 INTER-LIGAND FREE ENERGY PREDICTED BY IDOCK:   -9.03 KCAL/MOL
REMARK 924 INTRA-LIGAND FREE ENERGY PREDICTED BY IDOCK:   -2.85 KCAL/MOL
REMARK 927      BINDING AFFINITY PREDICTED BY RF-SCORE:    0.00 PKD
ROOT
HETATM    1  C   UNL     1     -13.561   9.662  71.828  1.00  0.00    -0.424 C  
HETATM    2  C   UNL     1     -14.389   8.483  71.344  1.00  0.00    -0.387 C  
ENDROOT
BRANCH   2   3
HETATM    3  C   UNL     1     -13.747   7.153  71.739  1.00  0.00    -0.361 C  
BRANCH   3   4
HETATM    4  C   UNL     1     -12.391   6.968  71.060  1.00  0.00    -0.402 C  
BRANCH   4   5
HETATM    5  C   UNL     1     -11.264   6.902  72.091  1.00  0.00    -0.293 C  
BRANCH   5   6
HETATM    6  C   UNL     1     -10.823   5.460  72.336  1.00  0.00    -0.297 C  
BRANCH   6   7
HETATM    7  C   UNL     1     -10.029   4.914  71.149  1.00  0.00    -0.278 C  
BRANCH   7   8
HETATM    8  C   UNL     1      -8.539   4.834  71.478  1.00  0.00    -0.125 C  
BRANCH   8   9
HETATM    9  C   UNL     1      -8.240   5.427  72.856  1.00  0.00    -0.109 C  
BRANCH   9  10
HETATM   10  C   UNL     1      -7.495   6.758  72.726  1.00  0.00    -0.090 C  
BRANCH  10  11
HETATM   11  C   UNL     1      -7.292   7.178  71.272  1.00  0.00    -0.079 C  
BRANCH  11  12
HETATM   12  C   UNL     1      -7.936   8.505  70.942  1.00  0.00    -0.110 C  
HETATM   13  O   UNL     1      -8.902   8.660  70.211  1.00  0.00    -0.138 OA 
BRANCH  12  14
HETATM   14  O   UNL     1      -7.280   9.493  71.609  1.00  0.00    -0.307 OA 
BRANCH  14  15
HETATM   15  C   UNL     1      -5.915   9.714  71.229  1.00  0.00    -0.053 C  
BRANCH  15  16
HETATM   16  N   UNL     1      -5.743  10.891  70.391  1.00  0.00    -0.103 N  
HETATM   17  C   UNL     1      -5.504  12.075  71.088  1.00  0.00    -0.029 C  
HETATM   18  C   UNL     1      -5.854  13.343  70.359  1.00  0.00    -0.162 C  
HETATM   19  O   UNL     1      -5.146  12.110  72.262  1.00  0.00    -0.354 OA 
HETATM   20  C   UNL     1      -5.344  13.355  68.940  1.00  0.00    -0.073 C  
HETATM   21  C   UNL     1      -5.568  12.046  68.239  1.00  0.00    -0.051 A  
HETATM   22  C   UNL     1      -5.550  12.030  66.836  1.00  0.00    -0.066 A  
HETATM   23  C   UNL     1      -5.646  10.831  66.132  1.00  0.00    -0.120 A  
HETATM   24  C   UNL     1      -5.729   9.633  66.831  1.00  0.00    -0.051 A  
HETATM   25  C   UNL     1      -5.760   9.649  68.231  1.00  0.00    -0.040 A  
HETATM   26  C   UNL     1      -5.706  10.848  68.961  1.00  0.00    -0.040 A  
BRANCH  24  27
HETATM   27  O   UNL     1      -5.824   8.392  66.258  1.00  0.00    -0.042 OA 
BRANCH  27  28
HETATM   28  C   UNL     1      -6.796   7.506  66.820  1.00  0.00    -0.070 C  
BRANCH  28  29
HETATM   29  C   UNL     1      -8.194   8.055  66.530  1.00  0.00    -0.115 C  
BRANCH  29  30
HETATM   30  C   UNL     1      -8.365   8.443  65.053  1.00  0.00    -0.169 C  
BRANCH  30  31
HETATM   31  C   UNL     1      -8.826   9.902  64.855  1.00  0.00    -0.193 C  
BRANCH  31  32
HETATM   32  N   UNL     1     -10.095  10.210  65.527  1.00  0.00    -0.289 NA 
HETATM   33  C   UNL     1      -9.956  10.420  66.982  1.00  0.00    -0.206 C  
HETATM   34  C   UNL     1      -9.313  11.770  67.357  1.00  0.00    -0.174 C  
HETATM   35  N   UNL     1     -10.187  12.857  66.886  1.00  0.00    -0.240 NA 
HETATM   36  C   UNL     1     -10.418  12.812  65.429  1.00  0.00    -0.286 C  
HETATM   37  C   UNL     1     -10.789  11.378  64.934  1.00  0.00    -0.257 C  
BRANCH  35  38
HETATM   38  C   UNL     1     -10.611  13.867  67.745  1.00  0.00    -0.246 A  
HETATM   39  C   UNL     1     -10.100  15.193  67.816  1.00  0.00    -0.230 A  
HETATM   40 CL   UNL     1      -8.704  15.693  66.896  1.00  0.00    -0.257 Cl 
HETATM   41  C   UNL     1     -10.651  16.136  68.718  1.00  0.00    -0.279 A  
HETATM   42  C   UNL     1     -11.673  15.781  69.599  1.00  0.00    -0.363 A  
HETATM   43 CL   UNL     1     -10.114  17.786  68.806  1.00  0.00    -0.375 Cl 
HETATM   44  C   UNL     1     -12.178  14.494  69.568  1.00  0.00    -0.306 A  
HETATM   45  C   UNL     1     -11.671  13.577  68.643  1.00  0.00    -0.389 A  
ENDBRANCH  35  38
ENDBRANCH  31  32
ENDBRANCH  30  31
ENDBRANCH  29  30
ENDBRANCH  28  29
ENDBRANCH  27  28
ENDBRANCH  24  27
ENDBRANCH  15  16
ENDBRANCH  14  15
ENDBRANCH  12  14
ENDBRANCH  11  12
ENDBRANCH  10  11
ENDBRANCH   9  10
ENDBRANCH   8   9
ENDBRANCH   7   8
ENDBRANCH   6   7
ENDBRANCH   5   6
ENDBRANCH   4   5
ENDBRANCH   3   4
ENDBRANCH   2   3
TORSDOF 20
ENDMDL
MODEL       91
REMARK 921   NORMALIZED FREE ENERGY PREDICTED BY IDOCK:   -3.70 KCAL/MOL
REMARK 922        TOTAL FREE ENERGY PREDICTED BY IDOCK:  -11.87 KCAL/MOL
REMARK 923 INTER-LIGAND FREE ENERGY PREDICTED BY IDOCK:   -9.48 KCAL/MOL
REMARK 924 INTRA-LIGAND FREE ENERGY PREDICTED BY IDOCK:   -2.39 KCAL/MOL
REMARK 927      BINDING AFFINITY PREDICTED BY RF-SCORE:    0.00 PKD
ROOT
HETATM    1  C   UNL     1     -10.352  17.446  68.163  1.00  0.00    -0.366 C  
HETATM    2  C   UNL     1     -11.290  16.261  68.327  1.00  0.00    -0.280 C  
ENDROOT
BRANCH   2   3
HETATM    3  C   UNL     1     -11.005  15.178  67.287  1.00  0.00    -0.327 C  
BRANCH   3   4
HETATM    4  C   UNL     1     -10.727  15.786  65.913  1.00  0.00    -0.320 C  
BRANCH   4   5
HETATM    5  C   UNL     1     -11.267  14.893  64.796  1.00  0.00    -0.393 C  
BRANCH   5   6
HETATM    6  C   UNL     1     -12.370  13.970  65.313  1.00  0.00    -0.480 C  
BRANCH   6   7
HETATM    7  C   UNL     1     -12.115  12.519  64.904  1.00  0.00    -0.499 C  
BRANCH   7   8
HETATM    8  C   UNL     1     -11.490  12.446  63.511  1.00  0.00    -0.561 C  
BRANCH   8   9
HETATM    9  C   UNL     1     -10.289  11.500  63.487  1.00  0.00    -0.484 C  
BRANCH   9  10
HETATM   10  C   UNL     1      -9.603  11.460  64.856  1.00  0.00    -0.244 C  
BRANCH  10  11
HETATM   11  C   UNL     1      -9.565  10.055  65.453  1.00  0.00    -0.342 C  
BRANCH  11  12
HETATM   12  C   UNL     1      -8.164   9.506  65.589  1.00  0.00    -0.120 C  
HETATM   13  O   UNL     1      -7.201  10.122  66.020  1.00  0.00    -0.105 OA 
BRANCH  12  14
HETATM   14  O   UNL     1      -8.155   8.209  65.178  1.00  0.00    -0.124 OA 
BRANCH  14  15
HETATM   15  C   UNL     1      -6.941   7.481  65.411  1.00  0.00    -0.059 C  
BRANCH  15  16
HETATM   16  N   UNL     1      -6.945   6.161  64.800  1.00  0.00    -0.053 N  
HETATM   17  C   UNL     1      -6.624   6.144  63.443  1.00  0.00    -0.033 C  
HETATM   18  C   UNL     1      -7.127   4.957  62.669  1.00  0.00    -0.034 C  
HETATM   19  O   UNL     1      -6.073   7.077  62.866  1.00  0.00    -0.039 OA 
HETATM   20  C   UNL     1      -6.864   3.651  63.375  1.00  0.00    -0.043 C  
HETATM   21  C   UNL     1      -7.169   3.723  64.844  1.00  0.00    -0.067 A  
HETATM   22  C   UNL     1      -7.388   2.523  65.538  1.00  0.00    -0.067 A  
HETATM   23  C   UNL     1      -7.570   2.518  66.921  1.00  0.00    -0.070 A  
HETATM   24  C   UNL     1      -7.501   3.715  67.623  1.00  0.00    -0.066 A  
HETATM   25  C   UNL     1      -7.294   4.915  66.929  1.00  0.00    -0.085 A  
HETATM   26  C   UNL     1      -7.150   4.948  65.532  1.00  0.00    -0.067 A  
BRANCH  24  27
HETATM   27  O   UNL     1      -7.658   3.843  68.978  1.00  0.00    -0.054 OA 
BRANCH  27  28
HETATM   28  C   UNL     1      -7.150   2.773  69.780  1.00  0.00    -0.040 C  
BRANCH  28  29
HETATM   29  C   UNL     1      -8.173   2.441  70.868  1.00  0.00    -0.068 C  
BRANCH  29  30
HETATM   30  C   UNL     1      -8.220   3.518  71.962  1.00  0.00    -0.071 C  
BRANCH  30  31
HETATM   31  C   UNL     1      -9.621   4.133  72.154  1.00  0.00    -0.147 C  
BRANCH  31  32
HETATM   32  N   UNL     1      -9.595   5.465  72.772  1.00  0.00    -0.149 NA 
HETATM   33  C   UNL     1      -8.844   6.466  71.986  1.00  0.00    -0.134 C  
HETATM   34  C   UNL     1      -9.587   6.952  70.728  1.00  0.00    -0.165 C  
HETATM   35  N   UNL     1     -10.826   7.632  71.143  1.00  0.00    -0.232 NA 
HETATM   36  C   UNL     1     -11.717   6.757  71.931  1.00  0.00    -0.310 C  
HETATM   37  C   UNL     1     -10.951   5.992  73.056  1.00  0.00    -0.257 C  
BRANCH  35  38
HETATM   38  C   UNL     1     -11.132   8.915  70.698  1.00  0.00    -0.262 A  
HETATM   39  C   UNL     1     -12.000   9.849  71.328  1.00  0.00    -0.402 A  
HETATM   40 CL   UNL     1     -12.958   9.421  72.722  1.00  0.00    -0.209 Cl 
HETATM   41  C   UNL     1     -12.193  11.142  70.782  1.00  0.00    -0.385 A  
HETATM   42  C   UNL     1     -11.582  11.520  69.586  1.00  0.00    -0.403 A  
HETATM   43 CL   UNL     1     -13.189  12.347  71.539  1.00  0.00    -0.380 Cl 
HETATM   44  C   UNL     1     -10.748  10.627  68.940  1.00  0.00    -0.254 A  
HETATM   45  C   UNL     1     -10.515   9.370  69.504  1.00  0.00    -0.229 A  
ENDBRANCH  35  38
ENDBRANCH  31  32
ENDBRANCH  30  31
ENDBRANCH  29  30
ENDBRANCH  28  29
ENDBRANCH  27  28
ENDBRANCH  24  27
ENDBRANCH  15  16
ENDBRANCH  14  15
ENDBRANCH  12  14
ENDBRANCH  11  12
ENDBRANCH  10  11
ENDBRANCH   9  10
ENDBRANCH   8   9
ENDBRANCH   7   8
ENDBRANCH   6   7
ENDBRANCH   5   6
ENDBRANCH   4   5
ENDBRANCH   3   4
ENDBRANCH   2   3
TORSDOF 20
ENDMDL
MODEL       92
REMARK 921   NORMALIZED FREE ENERGY PREDICTED BY IDOCK:   -3.69 KCAL/MOL
REMARK 922        TOTAL FREE ENERGY PREDICTED BY IDOCK:  -11.85 KCAL/MOL
REMARK 923 INTER-LIGAND FREE ENERGY PREDICTED BY IDOCK:   -8.37 KCAL/MOL
REMARK 924 INTRA-LIGAND FREE ENERGY PREDICTED BY IDOCK:   -3.48 KCAL/MOL
REMARK 927      BINDING AFFINITY PREDICTED BY RF-SCORE:    0.00 PKD
ROOT
HETATM    1  C   UNL     1      -9.947  16.499  66.166  1.00  0.00    -0.363 C  
HETATM    2  C   UNL     1     -11.280  15.835  66.471  1.00  0.00     0.023 C  
ENDROOT
BRANCH   2   3
HETATM    3  C   UNL     1     -11.232  14.334  66.187  1.00  0.00    -0.331 C  
BRANCH   3   4
HETATM    4  C   UNL     1     -10.734  14.053  64.769  1.00  0.00    -0.442 C  
BRANCH   4   5
HETATM    5  C   UNL     1     -11.719  13.167  64.006  1.00  0.00    -0.496 C  
BRANCH   5   6
HETATM    6  C   UNL     1     -11.069  11.848  63.591  1.00  0.00    -0.517 C  
BRANCH   6   7
HETATM    7  C   UNL     1     -10.612  11.048  64.811  1.00  0.00    -0.350 C  
BRANCH   7   8
HETATM    8  C   UNL     1      -9.362  10.229  64.490  1.00  0.00    -0.328 C  
BRANCH   8   9
HETATM    9  C   UNL     1      -8.254  10.478  65.514  1.00  0.00    -0.162 C  
BRANCH   9  10
HETATM   10  C   UNL     1      -8.716  11.471  66.584  1.00  0.00    -0.182 C  
BRANCH  10  11
HETATM   11  C   UNL     1      -7.761  11.541  67.773  1.00  0.00    -0.124 C  
BRANCH  11  12
HETATM   12  C   UNL     1      -7.701  10.254  68.562  1.00  0.00    -0.091 C  
HETATM   13  O   UNL     1      -6.927   9.331  68.355  1.00  0.00    -0.066 OA 
BRANCH  12  14
HETATM   14  O   UNL     1      -8.630  10.300  69.555  1.00  0.00    -0.169 OA 
BRANCH  14  15
HETATM   15  C   UNL     1      -9.997  10.139  69.150  1.00  0.00    -0.210 C  
BRANCH  15  16
HETATM   16  N   UNL     1     -10.541   8.835  69.497  1.00  0.00    -0.227 N  
HETATM   17  C   UNL     1     -11.337   8.820  70.642  1.00  0.00    -0.254 C  
HETATM   18  C   UNL     1     -11.463   7.489  71.331  1.00  0.00    -0.291 C  
HETATM   19  O   UNL     1     -11.818   9.831  71.146  1.00  0.00    -0.322 OA 
HETATM   20  C   UNL     1     -11.754   6.365  70.369  1.00  0.00    -0.389 C  
HETATM   21  C   UNL     1     -10.919   6.445  69.124  1.00  0.00    -0.416 A  
HETATM   22  C   UNL     1     -10.756   5.282  68.355  1.00  0.00     0.030 A  
HETATM   23  C   UNL     1     -10.081   5.318  67.136  1.00  0.00    -0.239 A  
HETATM   24  C   UNL     1      -9.591   6.529  66.662  1.00  0.00    -0.160 A  
HETATM   25  C   UNL     1      -9.741   7.687  67.435  1.00  0.00    -0.208 A  
HETATM   26  C   UNL     1     -10.382   7.667  68.686  1.00  0.00    -0.200 A  
BRANCH  24  27
HETATM   27  O   UNL     1      -8.916   6.697  65.482  1.00  0.00    -0.048 OA 
BRANCH  27  28
HETATM   28  C   UNL     1      -7.951   5.694  65.153  1.00  0.00    -0.113 C  
BRANCH  28  29
HETATM   29  C   UNL     1      -6.570   6.345  65.063  1.00  0.00    -0.039 C  
BRANCH  29  30
HETATM   30  C   UNL     1      -5.741   6.118  66.336  1.00  0.00    -0.017 C  
BRANCH  30  31
HETATM   31  C   UNL     1      -5.721   4.647  66.797  1.00  0.00    -0.018 C  
BRANCH  31  32
HETATM   32  N   UNL     1      -5.430   4.486  68.227  1.00  0.00    -0.015 NA 
HETATM   33  C   UNL     1      -5.959   5.582  69.064  1.00  0.00    -0.024 C  
HETATM   34  C   UNL     1      -7.486   5.529  69.265  1.00  0.00    -0.078 C  
HETATM   35  N   UNL     1      -7.826   4.290  69.984  1.00  0.00    -0.052 NA 
HETATM   36  C   UNL     1      -7.383   3.077  69.268  1.00  0.00    -0.045 C  
HETATM   37  C   UNL     1      -5.908   3.191  68.768  1.00  0.00    -0.023 C  
BRANCH  35  38
HETATM   38  C   UNL     1      -8.599   4.314  71.141  1.00  0.00    -0.093 A  
HETATM   39  C   UNL     1      -8.648   5.355  72.109  1.00  0.00    -0.126 A  
HETATM   40 CL   UNL     1      -7.573   6.728  72.041  1.00  0.00    -0.094 Cl 
HETATM   41  C   UNL     1      -9.512   5.266  73.228  1.00  0.00    -0.141 A  
HETATM   42  C   UNL     1     -10.300   4.135  73.443  1.00  0.00    -0.232 A  
HETATM   43 CL   UNL     1      -9.663   6.531  74.409  1.00  0.00    -0.295 Cl 
HETATM   44  C   UNL     1     -10.261   3.098  72.530  1.00  0.00    -0.216 A  
HETATM   45  C   UNL     1      -9.448   3.207  71.398  1.00  0.00    -0.219 A  
ENDBRANCH  35  38
ENDBRANCH  31  32
ENDBRANCH  30  31
ENDBRANCH  29  30
ENDBRANCH  28  29
ENDBRANCH  27  28
ENDBRANCH  24  27
ENDBRANCH  15  16
ENDBRANCH  14  15
ENDBRANCH  12  14
ENDBRANCH  11  12
ENDBRANCH  10  11
ENDBRANCH   9  10
ENDBRANCH   8   9
ENDBRANCH   7   8
ENDBRANCH   6   7
ENDBRANCH   5   6
ENDBRANCH   4   5
ENDBRANCH   3   4
ENDBRANCH   2   3
TORSDOF 20
ENDMDL
MODEL       93
REMARK 921   NORMALIZED FREE ENERGY PREDICTED BY IDOCK:   -3.62 KCAL/MOL
REMARK 922        TOTAL FREE ENERGY PREDICTED BY IDOCK:  -11.69 KCAL/MOL
REMARK 923 INTER-LIGAND FREE ENERGY PREDICTED BY IDOCK:   -8.47 KCAL/MOL
REMARK 924 INTRA-LIGAND FREE ENERGY PREDICTED BY IDOCK:   -3.22 KCAL/MOL
REMARK 927      BINDING AFFINITY PREDICTED BY RF-SCORE:    0.00 PKD
ROOT
HETATM    1  C   UNL     1     -11.397  15.977  70.943  1.00  0.00    -0.421 C  
HETATM    2  C   UNL     1     -11.405  15.999  69.423  1.00  0.00    -0.355 C  
ENDROOT
BRANCH   2   3
HETATM    3  C   UNL     1     -10.424  14.979  68.846  1.00  0.00    -0.241 C  
BRANCH   3   4
HETATM    4  C   UNL     1      -8.991  15.279  69.283  1.00  0.00    -0.241 C  
BRANCH   4   5
HETATM    5  C   UNL     1      -8.335  16.299  68.352  1.00  0.00    -0.190 C  
BRANCH   5   6
HETATM    6  C   UNL     1      -7.234  17.077  69.073  1.00  0.00    -0.229 C  
BRANCH   6   7
HETATM    7  C   UNL     1      -7.370  18.581  68.833  1.00  0.00    -0.289 C  
BRANCH   7   8
HETATM    8  C   UNL     1      -8.822  18.958  68.542  1.00  0.00    -0.387 C  
BRANCH   8   9
HETATM    9  C   UNL     1      -8.922  19.907  67.346  1.00  0.00    -0.422 C  
BRANCH   9  10
HETATM   10  C   UNL     1      -9.465  19.175  66.116  1.00  0.00    -0.289 C  
BRANCH  10  11
HETATM   11  C   UNL     1     -10.723  18.366  66.420  1.00  0.00    -0.214 C  
BRANCH  11  12
HETATM   12  C   UNL     1     -10.965  17.251  65.430  1.00  0.00     0.078 C  
HETATM   13  O   UNL     1     -11.411  17.391  64.301  1.00  0.00    -0.849 OA 
BRANCH  12  14
HETATM   14  O   UNL     1     -10.583  16.071  65.990  1.00  0.00    -0.323 OA 
BRANCH  14  15
HETATM   15  C   UNL     1      -9.939  15.135  65.114  1.00  0.00    -0.231 C  
BRANCH  15  16
HETATM   16  N   UNL     1     -10.450  13.780  65.258  1.00  0.00    -0.343 N  
HETATM   17  C   UNL     1     -11.571  13.492  64.481  1.00  0.00    -0.381 C  
HETATM   18  C   UNL     1     -12.432  12.361  64.971  1.00  0.00    -0.393 C  
HETATM   19  O   UNL     1     -11.924  14.174  63.522  1.00  0.00    -0.281 OA 
HETATM   20  C   UNL     1     -11.627  11.146  65.356  1.00  0.00     0.439 C  
HETATM   21  C   UNL     1     -10.399  11.498  66.144  1.00  0.00    -0.287 A  
HETATM   22  C   UNL     1      -9.798  10.498  66.925  1.00  0.00    -0.235 A  
HETATM   23  C   UNL     1      -8.598  10.735  67.594  1.00  0.00    -0.123 A  
HETATM   24  C   UNL     1      -7.973  11.969  67.460  1.00  0.00    -0.159 A  
HETATM   25  C   UNL     1      -8.579  12.972  66.691  1.00  0.00     0.027 A  
HETATM   26  C   UNL     1      -9.808  12.769  66.042  1.00  0.00    -0.255 A  
BRANCH  24  27
HETATM   27  O   UNL     1      -6.794  12.324  68.060  1.00  0.00    -0.068 OA 
BRANCH  27  28
HETATM   28  C   UNL     1      -6.699  12.079  69.466  1.00  0.00    -0.035 C  
BRANCH  28  29
HETATM   29  C   UNL     1      -5.409  11.306  69.747  1.00  0.00    -0.054 C  
BRANCH  29  30
HETATM   30  C   UNL     1      -5.690   9.889  70.271  1.00  0.00    -0.051 C  
BRANCH  30  31
HETATM   31  C   UNL     1      -7.191   9.600  70.473  1.00  0.00    -0.136 C  
BRANCH  31  32
HETATM   32  N   UNL     1      -7.477   8.198  70.804  1.00  0.00    -0.063 NA 
HETATM   33  C   UNL     1      -8.787   7.730  70.307  1.00  0.00    -0.144 C  
HETATM   34  C   UNL     1      -8.824   7.485  68.786  1.00  0.00    -0.131 C  
HETATM   35  N   UNL     1      -7.874   6.409  68.457  1.00  0.00    -0.104 NA 
HETATM   36  C   UNL     1      -6.493   6.724  68.870  1.00  0.00    -0.036 C  
HETATM   37  C   UNL     1      -6.422   7.270  70.331  1.00  0.00    -0.042 C  
BRANCH  35  38
HETATM   38  C   UNL     1      -8.269   5.298  67.718  1.00  0.00    -0.099 A  
HETATM   39  C   UNL     1      -8.115   5.111  66.316  1.00  0.00    -0.108 A  
HETATM   40 CL   UNL     1      -7.522   6.382  65.277  1.00  0.00    -0.077 Cl 
HETATM   41  C   UNL     1      -8.531   3.908  65.694  1.00  0.00    -0.110 A  
HETATM   42  C   UNL     1      -9.152   2.895  66.424  1.00  0.00    -0.146 A  
HETATM   43 CL   UNL     1      -8.310   3.596  63.999  1.00  0.00    -0.090 Cl 
HETATM   44  C   UNL     1      -9.334   3.054  67.785  1.00  0.00    -0.251 A  
HETATM   45  C   UNL     1      -8.876   4.218  68.409  1.00  0.00    -0.135 A  
ENDBRANCH  35  38
ENDBRANCH  31  32
ENDBRANCH  30  31
ENDBRANCH  29  30
ENDBRANCH  28  29
ENDBRANCH  27  28
ENDBRANCH  24  27
ENDBRANCH  15  16
ENDBRANCH  14  15
ENDBRANCH  12  14
ENDBRANCH  11  12
ENDBRANCH  10  11
ENDBRANCH   9  10
ENDBRANCH   8   9
ENDBRANCH   7   8
ENDBRANCH   6   7
ENDBRANCH   5   6
ENDBRANCH   4   5
ENDBRANCH   3   4
ENDBRANCH   2   3
TORSDOF 20
ENDMDL
MODEL       94
REMARK 921   NORMALIZED FREE ENERGY PREDICTED BY IDOCK:   -3.62 KCAL/MOL
REMARK 922        TOTAL FREE ENERGY PREDICTED BY IDOCK:  -11.69 KCAL/MOL
REMARK 923 INTER-LIGAND FREE ENERGY PREDICTED BY IDOCK:   -9.44 KCAL/MOL
REMARK 924 INTRA-LIGAND FREE ENERGY PREDICTED BY IDOCK:   -2.25 KCAL/MOL
REMARK 927      BINDING AFFINITY PREDICTED BY RF-SCORE:    0.00 PKD
ROOT
HETATM    1  C   UNL     1     -12.342   7.162  71.336  1.00  0.00    -0.415 C  
HETATM    2  C   UNL     1     -10.976   6.508  71.213  1.00  0.00    -0.309 C  
ENDROOT
BRANCH   2   3
HETATM    3  C   UNL     1     -10.275   6.922  69.920  1.00  0.00    -0.214 C  
BRANCH   3   4
HETATM    4  C   UNL     1     -10.993   6.362  68.693  1.00  0.00    -0.404 C  
BRANCH   4   5
HETATM    5  C   UNL     1     -10.168   5.260  68.028  1.00  0.00    -0.204 C  
BRANCH   5   6
HETATM    6  C   UNL     1      -9.700   5.683  66.637  1.00  0.00    -0.176 C  
BRANCH   6   7
HETATM    7  C   UNL     1      -8.210   6.027  66.635  1.00  0.00    -0.106 C  
BRANCH   7   8
HETATM    8  C   UNL     1      -7.980   7.458  66.152  1.00  0.00    -0.112 C  
BRANCH   8   9
HETATM    9  C   UNL     1      -9.198   7.995  65.397  1.00  0.00     0.197 C  
BRANCH   9  10
HETATM   10  C   UNL     1      -9.659   9.329  65.989  1.00  0.00    -0.338 C  
BRANCH  10  11
HETATM   11  C   UNL     1      -9.146   9.551  67.409  1.00  0.00    -0.144 C  
BRANCH  11  12
HETATM   12  C   UNL     1      -8.751  10.985  67.680  1.00  0.00    -0.128 C  
HETATM   13  O   UNL     1      -9.085  11.638  68.657  1.00  0.00    -0.173 OA 
BRANCH  12  14
HETATM   14  O   UNL     1      -7.946  11.420  66.673  1.00  0.00    -0.156 OA 
BRANCH  14  15
HETATM   15  C   UNL     1      -6.537  11.241  66.869  1.00  0.00    -0.130 C  
BRANCH  15  16
HETATM   16  N   UNL     1      -6.134  11.386  68.260  1.00  0.00    -0.045 N  
HETATM   17  C   UNL     1      -5.732  10.204  68.878  1.00  0.00    -0.034 C  
HETATM   18  C   UNL     1      -5.834  10.184  70.378  1.00  0.00    -0.080 C  
HETATM   19  O   UNL     1      -5.425   9.187  68.261  1.00  0.00    -0.037 OA 
HETATM   20  C   UNL     1      -5.267  11.429  71.013  1.00  0.00    -0.116 C  
HETATM   21  C   UNL     1      -5.675  12.679  70.288  1.00  0.00    -0.164 A  
HETATM   22  C   UNL     1      -5.599  13.901  70.973  1.00  0.00    -0.206 A  
HETATM   23  C   UNL     1      -5.863  15.105  70.321  1.00  0.00    -0.147 A  
HETATM   24  C   UNL     1      -6.175  15.096  68.967  1.00  0.00    -0.099 A  
HETATM   25  C   UNL     1      -6.264  13.875  68.286  1.00  0.00    -0.111 A  
HETATM   26  C   UNL     1      -6.042  12.647  68.932  1.00  0.00    -0.079 A  
BRANCH  24  27
HETATM   27  O   UNL     1      -6.450  16.207  68.215  1.00  0.00    -0.120 OA 
BRANCH  27  28
HETATM   28  C   UNL     1      -6.496  17.452  68.915  1.00  0.00    -0.208 C  
BRANCH  28  29
HETATM   29  C   UNL     1      -6.606  18.589  67.897  1.00  0.00    -0.212 C  
BRANCH  29  30
HETATM   30  C   UNL     1      -8.054  19.075  67.730  1.00  0.00    -0.297 C  
BRANCH  30  31
HETATM   31  C   UNL     1      -8.655  18.738  66.351  1.00  0.00    -0.284 C  
BRANCH  31  32
HETATM   32  N   UNL     1     -10.051  18.286  66.416  1.00  0.00    -0.378 NA 
HETATM   33  C   UNL     1     -10.228  16.866  66.051  1.00  0.00    -0.336 C  
HETATM   34  C   UNL     1      -9.752  15.881  67.137  1.00  0.00    -0.224 C  
HETATM   35  N   UNL     1     -10.570  16.080  68.346  1.00  0.00    -0.258 NA 
HETATM   36  C   UNL     1     -10.490  17.459  68.866  1.00  0.00    -0.312 C  
HETATM   37  C   UNL     1     -10.670  18.526  67.740  1.00  0.00    -0.339 C  
BRANCH  35  38
HETATM   38  C   UNL     1     -11.217  15.014  68.963  1.00  0.00    -0.268 A  
HETATM   39  C   UNL     1     -11.737  14.986  70.287  1.00  0.00    -0.294 A  
HETATM   40 CL   UNL     1     -11.475  16.298  71.407  1.00  0.00    -0.441 Cl 
HETATM   41  C   UNL     1     -12.409  13.840  70.779  1.00  0.00    -0.379 A  
HETATM   42  C   UNL     1     -12.536  12.688  70.003  1.00  0.00    -0.051 A  
HETATM   43 CL   UNL     1     -13.121  13.770  72.362  1.00  0.00    -0.513 Cl 
HETATM   44  C   UNL     1     -12.024  12.677  68.719  1.00  0.00    -0.279 A  
HETATM   45  C   UNL     1     -11.406  13.824  68.213  1.00  0.00    -0.317 A  
ENDBRANCH  35  38
ENDBRANCH  31  32
ENDBRANCH  30  31
ENDBRANCH  29  30
ENDBRANCH  28  29
ENDBRANCH  27  28
ENDBRANCH  24  27
ENDBRANCH  15  16
ENDBRANCH  14  15
ENDBRANCH  12  14
ENDBRANCH  11  12
ENDBRANCH  10  11
ENDBRANCH   9  10
ENDBRANCH   8   9
ENDBRANCH   7   8
ENDBRANCH   6   7
ENDBRANCH   5   6
ENDBRANCH   4   5
ENDBRANCH   3   4
ENDBRANCH   2   3
TORSDOF 20
ENDMDL
MODEL       95
REMARK 921   NORMALIZED FREE ENERGY PREDICTED BY IDOCK:   -3.59 KCAL/MOL
REMARK 922        TOTAL FREE ENERGY PREDICTED BY IDOCK:  -11.64 KCAL/MOL
REMARK 923 INTER-LIGAND FREE ENERGY PREDICTED BY IDOCK:   -9.55 KCAL/MOL
REMARK 924 INTRA-LIGAND FREE ENERGY PREDICTED BY IDOCK:   -2.09 KCAL/MOL
REMARK 927      BINDING AFFINITY PREDICTED BY RF-SCORE:    0.00 PKD
ROOT
HETATM    1  C   UNL     1     -10.818  11.350  63.583  1.00  0.00    -0.459 C  
HETATM    2  C   UNL     1     -11.848  12.427  63.883  1.00  0.00    -0.551 C  
ENDROOT
BRANCH   2   3
HETATM    3  C   UNL     1     -11.445  13.259  65.099  1.00  0.00    -0.319 C  
BRANCH   3   4
HETATM    4  C   UNL     1     -11.886  14.715  64.948  1.00  0.00    -0.403 C  
BRANCH   4   5
HETATM    5  C   UNL     1     -10.734  15.673  65.254  1.00  0.00    -0.444 C  
BRANCH   5   6
HETATM    6  C   UNL     1     -10.717  16.062  66.731  1.00  0.00    -0.259 C  
BRANCH   6   7
HETATM    7  C   UNL     1      -9.756  15.178  67.526  1.00  0.00    -0.205 C  
BRANCH   7   8
HETATM    8  C   UNL     1     -10.308  14.886  68.921  1.00  0.00    -0.244 C  
BRANCH   8   9
HETATM    9  C   UNL     1     -11.685  14.225  68.847  1.00  0.00    -0.363 C  
BRANCH   9  10
HETATM   10  C   UNL     1     -12.131  13.744  70.231  1.00  0.00    -0.425 C  
BRANCH  10  11
HETATM   11  C   UNL     1     -11.990  12.234  70.401  1.00  0.00    -0.349 C  
BRANCH  11  12
HETATM   12  C   UNL     1     -12.894  11.671  71.473  1.00  0.00    -0.364 C  
HETATM   13  O   UNL     1     -13.521  12.331  72.289  1.00  0.00    -0.520 OA 
BRANCH  12  14
HETATM   14  O   UNL     1     -12.916  10.315  71.368  1.00  0.00    -0.373 OA 
BRANCH  14  15
HETATM   15  C   UNL     1     -11.665   9.644  71.573  1.00  0.00    -0.400 C  
BRANCH  15  16
HETATM   16  N   UNL     1     -11.446   8.553  70.636  1.00  0.00    -0.260 N  
HETATM   17  C   UNL     1     -12.041   7.345  70.995  1.00  0.00    -0.298 C  
HETATM   18  C   UNL     1     -11.425   6.111  70.397  1.00  0.00    -0.342 C  
HETATM   19  O   UNL     1     -12.933   7.253  71.834  1.00  0.00    -0.312 OA 
HETATM   20  C   UNL     1     -11.170   6.250  68.917  1.00  0.00    -0.387 C  
HETATM   21  C   UNL     1     -10.581   7.584  68.561  1.00  0.00    -0.172 A  
HETATM   22  C   UNL     1      -9.903   7.707  67.337  1.00  0.00    -0.226 A  
HETATM   23  C   UNL     1      -9.427   8.943  66.904  1.00  0.00    -0.230 A  
HETATM   24  C   UNL     1      -9.654  10.074  67.679  1.00  0.00    -0.148 A  
HETATM   25  C   UNL     1     -10.319   9.949  68.906  1.00  0.00    -0.221 A  
HETATM   26  C   UNL     1     -10.771   8.707  69.382  1.00  0.00    -0.158 A  
BRANCH  24  27
HETATM   27  O   UNL     1      -9.243  11.342  67.363  1.00  0.00    -0.159 OA 
BRANCH  27  28
HETATM   28  C   UNL     1      -8.441  11.474  66.186  1.00  0.00    -0.060 C  
BRANCH  28  29
HETATM   29  C   UNL     1      -6.969  11.302  66.567  1.00  0.00    -0.100 C  
BRANCH  29  30
HETATM   30  C   UNL     1      -6.119  10.826  65.380  1.00  0.00    -0.035 C  
BRANCH  30  31
HETATM   31  C   UNL     1      -5.528   9.415  65.578  1.00  0.00    -0.044 C  
BRANCH  31  32
HETATM   32  N   UNL     1      -6.513   8.429  66.041  1.00  0.00    -0.053 NA 
HETATM   33  C   UNL     1      -7.267   7.788  64.945  1.00  0.00    -0.066 C  
HETATM   34  C   UNL     1      -6.449   6.750  64.153  1.00  0.00    -0.038 C  
HETATM   35  N   UNL     1      -6.071   5.653  65.060  1.00  0.00    -0.022 NA 
HETATM   36  C   UNL     1      -5.282   6.120  66.217  1.00  0.00    -0.012 C  
HETATM   37  C   UNL     1      -5.913   7.377  66.895  1.00  0.00    -0.038 C  
BRANCH  35  38
HETATM   38  C   UNL     1      -6.340   4.326  64.741  1.00  0.00    -0.034 A  
HETATM   39  C   UNL     1      -7.623   3.723  64.620  1.00  0.00    -0.080 A  
HETATM   40 CL   UNL     1      -9.086   4.582  65.030  1.00  0.00    -0.148 Cl 
HETATM   41  C   UNL     1      -7.753   2.361  64.252  1.00  0.00    -0.072 A  
HETATM   42  C   UNL     1      -6.631   1.557  64.049  1.00  0.00    -0.022 A  
HETATM   43 CL   UNL     1      -9.292   1.587  64.025  1.00  0.00    -0.116 Cl 
HETATM   44  C   UNL     1      -5.371   2.109  64.178  1.00  0.00    -0.008 A  
HETATM   45  C   UNL     1      -5.240   3.465  64.491  1.00  0.00    -0.009 A  
ENDBRANCH  35  38
ENDBRANCH  31  32
ENDBRANCH  30  31
ENDBRANCH  29  30
ENDBRANCH  28  29
ENDBRANCH  27  28
ENDBRANCH  24  27
ENDBRANCH  15  16
ENDBRANCH  14  15
ENDBRANCH  12  14
ENDBRANCH  11  12
ENDBRANCH  10  11
ENDBRANCH   9  10
ENDBRANCH   8   9
ENDBRANCH   7   8
ENDBRANCH   6   7
ENDBRANCH   5   6
ENDBRANCH   4   5
ENDBRANCH   3   4
ENDBRANCH   2   3
TORSDOF 20
ENDMDL
MODEL       96
REMARK 921   NORMALIZED FREE ENERGY PREDICTED BY IDOCK:   -3.56 KCAL/MOL
REMARK 922        TOTAL FREE ENERGY PREDICTED BY IDOCK:  -11.57 KCAL/MOL
REMARK 923 INTER-LIGAND FREE ENERGY PREDICTED BY IDOCK:   -9.80 KCAL/MOL
REMARK 924 INTRA-LIGAND FREE ENERGY PREDICTED BY IDOCK:   -1.77 KCAL/MOL
REMARK 927      BINDING AFFINITY PREDICTED BY RF-SCORE:    0.00 PKD
ROOT
HETATM    1  C   UNL     1     -11.071  15.579  64.940  1.00  0.00    -0.428 C  
HETATM    2  C   UNL     1     -12.149  14.683  64.352  1.00  0.00    -0.481 C  
ENDROOT
BRANCH   2   3
HETATM    3  C   UNL     1     -12.752  13.767  65.416  1.00  0.00    -0.513 C  
BRANCH   3   4
HETATM    4  C   UNL     1     -12.175  12.355  65.325  1.00  0.00    -0.418 C  
BRANCH   4   5
HETATM    5  C   UNL     1     -10.818  12.359  64.622  1.00  0.00    -0.346 C  
BRANCH   5   6
HETATM    6  C   UNL     1     -10.739  11.256  63.567  1.00  0.00    -0.408 C  
BRANCH   6   7
HETATM    7  C   UNL     1      -9.613  10.270  63.881  1.00  0.00    -0.354 C  
BRANCH   7   8
HETATM    8  C   UNL     1      -9.731   9.744  65.311  1.00  0.00    -0.371 C  
BRANCH   8   9
HETATM    9  C   UNL     1      -8.570   8.810  65.658  1.00  0.00    -0.195 C  
BRANCH   9  10
HETATM   10  C   UNL     1      -9.053   7.639  66.518  1.00  0.00    -0.203 C  
BRANCH  10  11
HETATM   11  C   UNL     1     -10.184   8.033  67.465  1.00  0.00    -0.311 C  
BRANCH  11  12
HETATM   12  C   UNL     1     -10.583   6.920  68.407  1.00  0.00    -0.210 C  
HETATM   13  O   UNL     1     -11.620   6.877  69.052  1.00  0.00     0.010 OA 
BRANCH  12  14
HETATM   14  O   UNL     1      -9.614   5.965  68.401  1.00  0.00    -0.118 OA 
BRANCH  14  15
HETATM   15  C   UNL     1     -10.041   4.630  68.704  1.00  0.00    -0.006 C  
BRANCH  15  16
HETATM   16  N   UNL     1      -9.308   4.038  69.813  1.00  0.00    -0.154 N  
HETATM   17  C   UNL     1      -8.636   2.857  69.505  1.00  0.00    -0.067 C  
HETATM   18  C   UNL     1      -8.340   1.952  70.669  1.00  0.00    -0.074 C  
HETATM   19  O   UNL     1      -8.393   2.495  68.357  1.00  0.00    -0.062 OA 
HETATM   20  C   UNL     1      -7.763   2.694  71.848  1.00  0.00    -0.048 C  
HETATM   21  C   UNL     1      -8.477   3.987  72.115  1.00  0.00    -0.109 A  
HETATM   22  C   UNL     1      -8.355   4.564  73.389  1.00  0.00    -0.102 A  
HETATM   23  C   UNL     1      -8.906   5.815  73.665  1.00  0.00    -0.121 A  
HETATM   24  C   UNL     1      -9.557   6.513  72.655  1.00  0.00    -0.150 A  
HETATM   25  C   UNL     1      -9.690   5.932  71.387  1.00  0.00    -0.196 A  
HETATM   26  C   UNL     1      -9.178   4.655  71.098  1.00  0.00    -0.139 A  
BRANCH  24  27
HETATM   27  O   UNL     1     -10.135   7.746  72.797  1.00  0.00    -0.231 OA 
BRANCH  27  28
HETATM   28  C   UNL     1     -11.085   8.121  71.796  1.00  0.00    -0.270 C  
BRANCH  28  29
HETATM   29  C   UNL     1     -10.704   9.494  71.240  1.00  0.00    -0.386 C  
BRANCH  29  30
HETATM   30  C   UNL     1     -11.885  10.177  70.533  1.00  0.00    -0.408 C  
BRANCH  30  31
HETATM   31  C   UNL     1     -12.210  11.574  71.100  1.00  0.00    -0.182 C  
BRANCH  31  32
HETATM   32  N   UNL     1     -12.622  12.540  70.074  1.00  0.00     0.076 NA 
HETATM   33  C   UNL     1     -12.572  13.944  70.531  1.00  0.00    -0.312 C  
HETATM   34  C   UNL     1     -11.144  14.512  70.637  1.00  0.00     0.105 C  
HETATM   35  N   UNL     1     -10.535  14.516  69.296  1.00  0.00    -0.212 NA 
HETATM   36  C   UNL     1     -10.484  13.170  68.691  1.00  0.00    -0.227 C  
HETATM   37  C   UNL     1     -11.843  12.412  68.820  1.00  0.00    -0.311 C  
BRANCH  35  38
HETATM   38  C   UNL     1      -9.966  15.669  68.764  1.00  0.00    -0.213 A  
HETATM   39  C   UNL     1      -8.597  15.865  68.429  1.00  0.00    -0.178 A  
HETATM   40 CL   UNL     1      -7.377  14.678  68.810  1.00  0.00    -0.124 Cl 
HETATM   41  C   UNL     1      -8.158  17.084  67.857  1.00  0.00    -0.195 A  
HETATM   42  C   UNL     1      -9.040  18.146  67.654  1.00  0.00    -0.260 A  
HETATM   43 CL   UNL     1      -6.514  17.360  67.368  1.00  0.00    -0.160 Cl 
HETATM   44  C   UNL     1     -10.372  17.993  67.986  1.00  0.00    -0.397 A  
HETATM   45  C   UNL     1     -10.818  16.773  68.502  1.00  0.00    -0.345 A  
ENDBRANCH  35  38
ENDBRANCH  31  32
ENDBRANCH  30  31
ENDBRANCH  29  30
ENDBRANCH  28  29
ENDBRANCH  27  28
ENDBRANCH  24  27
ENDBRANCH  15  16
ENDBRANCH  14  15
ENDBRANCH  12  14
ENDBRANCH  11  12
ENDBRANCH  10  11
ENDBRANCH   9  10
ENDBRANCH   8   9
ENDBRANCH   7   8
ENDBRANCH   6   7
ENDBRANCH   5   6
ENDBRANCH   4   5
ENDBRANCH   3   4
ENDBRANCH   2   3
TORSDOF 20
ENDMDL
MODEL       97
REMARK 921   NORMALIZED FREE ENERGY PREDICTED BY IDOCK:   -3.56 KCAL/MOL
REMARK 922        TOTAL FREE ENERGY PREDICTED BY IDOCK:  -11.57 KCAL/MOL
REMARK 923 INTER-LIGAND FREE ENERGY PREDICTED BY IDOCK:   -9.81 KCAL/MOL
REMARK 924 INTRA-LIGAND FREE ENERGY PREDICTED BY IDOCK:   -1.76 KCAL/MOL
REMARK 927      BINDING AFFINITY PREDICTED BY RF-SCORE:    0.00 PKD
ROOT
HETATM    1  C   UNL     1     -10.599  17.032  68.488  1.00  0.00    -0.370 C  
HETATM    2  C   UNL     1     -11.473  15.791  68.408  1.00  0.00    -0.367 C  
ENDROOT
BRANCH   2   3
HETATM    3  C   UNL     1     -10.971  14.826  67.335  1.00  0.00    -0.313 C  
BRANCH   3   4
HETATM    4  C   UNL     1     -10.657  15.558  66.031  1.00  0.00    -0.333 C  
BRANCH   4   5
HETATM    5  C   UNL     1     -11.277  14.839  64.833  1.00  0.00    -0.411 C  
BRANCH   5   6
HETATM    6  C   UNL     1     -12.378  13.876  65.277  1.00  0.00    -0.485 C  
BRANCH   6   7
HETATM    7  C   UNL     1     -11.870  12.435  65.318  1.00  0.00    -0.451 C  
BRANCH   7   8
HETATM    8  C   UNL     1     -11.544  11.930  63.913  1.00  0.00    -0.515 C  
BRANCH   8   9
HETATM    9  C   UNL     1     -10.246  11.122  63.898  1.00  0.00    -0.420 C  
BRANCH   9  10
HETATM   10  C   UNL     1      -9.711  10.926  65.319  1.00  0.00    -0.296 C  
BRANCH  10  11
HETATM   11  C   UNL     1      -9.838   9.483  65.802  1.00  0.00    -0.363 C  
BRANCH  11  12
HETATM   12  C   UNL     1      -8.626   8.641  65.477  1.00  0.00    -0.175 C  
HETATM   13  O   UNL     1      -7.470   9.035  65.476  1.00  0.00    -0.085 OA 
BRANCH  12  14
HETATM   14  O   UNL     1      -9.029   7.369  65.211  1.00  0.00     0.080 OA 
BRANCH  14  15
HETATM   15  C   UNL     1      -7.986   6.406  65.002  1.00  0.00    -0.120 C  
BRANCH  15  16
HETATM   16  N   UNL     1      -8.482   5.042  64.916  1.00  0.00    -0.142 N  
HETATM   17  C   UNL     1      -8.827   4.625  63.632  1.00  0.00    -0.129 C  
HETATM   18  C   UNL     1      -9.812   3.492  63.555  1.00  0.00    -0.154 C  
HETATM   19  O   UNL     1      -8.460   5.201  62.611  1.00  0.00    -0.107 OA 
HETATM   20  C   UNL     1      -9.469   2.362  64.493  1.00  0.00    -0.128 C  
HETATM   21  C   UNL     1      -9.050   2.850  65.849  1.00  0.00    -0.132 A  
HETATM   22  C   UNL     1      -9.117   1.956  66.929  1.00  0.00    -0.092 A  
HETATM   23  C   UNL     1      -8.642   2.318  68.189  1.00  0.00    -0.109 A  
HETATM   24  C   UNL     1      -8.067   3.570  68.369  1.00  0.00    -0.070 A  
HETATM   25  C   UNL     1      -8.011   4.468  67.295  1.00  0.00    -0.101 A  
HETATM   26  C   UNL     1      -8.521   4.140  66.027  1.00  0.00    -0.109 A  
BRANCH  24  27
HETATM   27  O   UNL     1      -7.562   4.042  69.552  1.00  0.00    -0.053 OA 
BRANCH  27  28
HETATM   28  C   UNL     1      -6.273   3.555  69.932  1.00  0.00    -0.028 C  
BRANCH  28  29
HETATM   29  C   UNL     1      -6.411   2.735  71.216  1.00  0.00    -0.019 C  
BRANCH  29  30
HETATM   30  C   UNL     1      -6.795   3.610  72.419  1.00  0.00    -0.040 C  
BRANCH  30  31
HETATM   31  C   UNL     1      -8.225   3.346  72.934  1.00  0.00    -0.081 C  
BRANCH  31  32
HETATM   32  N   UNL     1      -8.783   4.463  73.707  1.00  0.00    -0.105 NA 
HETATM   33  C   UNL     1      -8.593   5.779  73.063  1.00  0.00    -0.121 C  
HETATM   34  C   UNL     1      -9.519   6.020  71.856  1.00  0.00    -0.150 C  
HETATM   35  N   UNL     1     -10.916   6.010  72.321  1.00  0.00    -0.250 NA 
HETATM   36  C   UNL     1     -11.288   4.742  72.979  1.00  0.00    -0.240 C  
HETATM   37  C   UNL     1     -10.220   4.282  74.021  1.00  0.00    -0.193 C  
BRANCH  35  38
HETATM   38  C   UNL     1     -11.784   7.058  72.026  1.00  0.00    -0.295 A  
HETATM   39  C   UNL     1     -11.438   8.429  71.867  1.00  0.00    -0.318 A  
HETATM   40 CL   UNL     1      -9.828   9.017  72.192  1.00  0.00    -0.250 Cl 
HETATM   41  C   UNL     1     -12.422   9.391  71.529  1.00  0.00    -0.366 A  
HETATM   42  C   UNL     1     -13.765   9.034  71.395  1.00  0.00    -0.323 A  
HETATM   43 CL   UNL     1     -12.052  11.066  71.257  1.00  0.00    -0.353 Cl 
HETATM   44  C   UNL     1     -14.135   7.713  71.563  1.00  0.00    -0.535 A  
HETATM   45  C   UNL     1     -13.158   6.754  71.845  1.00  0.00    -0.195 A  
ENDBRANCH  35  38
ENDBRANCH  31  32
ENDBRANCH  30  31
ENDBRANCH  29  30
ENDBRANCH  28  29
ENDBRANCH  27  28
ENDBRANCH  24  27
ENDBRANCH  15  16
ENDBRANCH  14  15
ENDBRANCH  12  14
ENDBRANCH  11  12
ENDBRANCH  10  11
ENDBRANCH   9  10
ENDBRANCH   8   9
ENDBRANCH   7   8
ENDBRANCH   6   7
ENDBRANCH   5   6
ENDBRANCH   4   5
ENDBRANCH   3   4
ENDBRANCH   2   3
TORSDOF 20
ENDMDL
MODEL       98
REMARK 921   NORMALIZED FREE ENERGY PREDICTED BY IDOCK:   -3.55 KCAL/MOL
REMARK 922        TOTAL FREE ENERGY PREDICTED BY IDOCK:  -11.54 KCAL/MOL
REMARK 923 INTER-LIGAND FREE ENERGY PREDICTED BY IDOCK:   -8.71 KCAL/MOL
REMARK 924 INTRA-LIGAND FREE ENERGY PREDICTED BY IDOCK:   -2.82 KCAL/MOL
REMARK 927      BINDING AFFINITY PREDICTED BY RF-SCORE:    0.00 PKD
ROOT
HETATM    1  C   UNL     1      -6.016   5.388  70.239  1.00  0.00    -0.021 C  
HETATM    2  C   UNL     1      -6.853   5.968  71.367  1.00  0.00    -0.067 C  
ENDROOT
BRANCH   2   3
HETATM    3  C   UNL     1      -6.451   5.378  72.718  1.00  0.00    -0.064 C  
BRANCH   3   4
HETATM    4  C   UNL     1      -7.674   4.913  73.508  1.00  0.00    -0.096 C  
BRANCH   4   5
HETATM    5  C   UNL     1      -8.969   5.327  72.809  1.00  0.00    -0.122 C  
BRANCH   5   6
HETATM    6  C   UNL     1      -9.855   4.115  72.525  1.00  0.00    -0.213 C  
BRANCH   6   7
HETATM    7  C   UNL     1      -9.019   2.901  72.118  1.00  0.00    -0.129 C  
BRANCH   7   8
HETATM    8  C   UNL     1      -9.131   2.639  70.617  1.00  0.00    -0.187 C  
BRANCH   8   9
HETATM    9  C   UNL     1      -9.638   3.874  69.872  1.00  0.00    -0.270 C  
BRANCH   9  10
HETATM   10  C   UNL     1      -8.839   4.099  68.585  1.00  0.00    -0.141 C  
BRANCH  10  11
HETATM   11  C   UNL     1      -9.645   3.779  67.329  1.00  0.00    -0.213 C  
BRANCH  11  12
HETATM   12  C   UNL     1     -10.404   4.970  66.792  1.00  0.00    -0.244 C  
HETATM   13  O   UNL     1     -11.289   4.925  65.950  1.00  0.00     0.094 OA 
BRANCH  12  14
HETATM   14  O   UNL     1      -9.960   6.096  67.413  1.00  0.00    -0.123 OA 
BRANCH  14  15
HETATM   15  C   UNL     1     -10.964   6.919  68.023  1.00  0.00    -0.166 C  
BRANCH  15  16
HETATM   16  N   UNL     1     -10.520   7.527  69.268  1.00  0.00    -0.213 N  
HETATM   17  C   UNL     1     -11.331   7.260  70.370  1.00  0.00    -0.271 C  
HETATM   18  C   UNL     1     -11.248   8.253  71.497  1.00  0.00    -0.316 C  
HETATM   19  O   UNL     1     -12.155   6.351  70.400  1.00  0.00    -0.305 OA 
HETATM   20  C   UNL     1      -9.826   8.605  71.855  1.00  0.00    -0.384 C  
HETATM   21  C   UNL     1      -8.969   8.831  70.643  1.00  0.00    -0.219 A  
HETATM   22  C   UNL     1      -7.782   9.565  70.793  1.00  0.00    -0.094 A  
HETATM   23  C   UNL     1      -6.894   9.717  69.729  1.00  0.00    -0.070 A  
HETATM   24  C   UNL     1      -7.174   9.106  68.513  1.00  0.00    -0.073 A  
HETATM   25  C   UNL     1      -8.365   8.384  68.358  1.00  0.00    -0.131 A  
HETATM   26  C   UNL     1      -9.294   8.253  69.404  1.00  0.00    -0.155 A  
BRANCH  24  27
HETATM   27  O   UNL     1      -6.383   9.177  67.396  1.00  0.00    -0.058 OA 
BRANCH  27  28
HETATM   28  C   UNL     1      -7.016   8.875  66.150  1.00  0.00    -0.081 C  
BRANCH  28  29
HETATM   29  C   UNL     1      -7.215  10.174  65.368  1.00  0.00    -0.144 C  
BRANCH  29  30
HETATM   30  C   UNL     1      -7.764  11.302  66.255  1.00  0.00    -0.053 C  
BRANCH  30  31
HETATM   31  C   UNL     1      -9.275  11.548  66.065  1.00  0.00    -0.217 C  
BRANCH  31  32
HETATM   32  N   UNL     1      -9.860  12.418  67.093  1.00  0.00    -0.203 NA 
HETATM   33  C   UNL     1      -8.878  13.318  67.732  1.00  0.00    -0.197 C  
HETATM   34  C   UNL     1      -8.443  14.496  66.839  1.00  0.00    -0.150 C  
HETATM   35  N   UNL     1      -9.619  15.336  66.557  1.00  0.00    -0.253 NA 
HETATM   36  C   UNL     1     -10.704  14.590  65.890  1.00  0.00    -0.305 C  
HETATM   37  C   UNL     1     -10.996  13.223  66.585  1.00  0.00    -0.283 C  
BRANCH  35  38
HETATM   38  C   UNL     1      -9.601  16.708  66.794  1.00  0.00    -0.257 A  
HETATM   39  C   UNL     1      -8.857  17.388  67.797  1.00  0.00    -0.232 A  
HETATM   40 CL   UNL     1      -7.951  16.526  69.015  1.00  0.00    -0.241 Cl 
HETATM   41  C   UNL     1      -8.903  18.800  67.904  1.00  0.00    -0.296 A  
HETATM   42  C   UNL     1      -9.719  19.560  67.065  1.00  0.00    -0.450 A  
HETATM   43 CL   UNL     1      -7.968  19.691  69.065  1.00  0.00    -0.318 Cl 
HETATM   44  C   UNL     1     -10.469  18.927  66.093  1.00  0.00    -0.521 A  
HETATM   45  C   UNL     1     -10.384  17.539  65.952  1.00  0.00    -0.265 A  
ENDBRANCH  35  38
ENDBRANCH  31  32
ENDBRANCH  30  31
ENDBRANCH  29  30
ENDBRANCH  28  29
ENDBRANCH  27  28
ENDBRANCH  24  27
ENDBRANCH  15  16
ENDBRANCH  14  15
ENDBRANCH  12  14
ENDBRANCH  11  12
ENDBRANCH  10  11
ENDBRANCH   9  10
ENDBRANCH   8   9
ENDBRANCH   7   8
ENDBRANCH   6   7
ENDBRANCH   5   6
ENDBRANCH   4   5
ENDBRANCH   3   4
ENDBRANCH   2   3
TORSDOF 20
ENDMDL
MODEL       99
REMARK 921   NORMALIZED FREE ENERGY PREDICTED BY IDOCK:   -3.49 KCAL/MOL
REMARK 922        TOTAL FREE ENERGY PREDICTED BY IDOCK:  -11.42 KCAL/MOL
REMARK 923 INTER-LIGAND FREE ENERGY PREDICTED BY IDOCK:   -9.26 KCAL/MOL
REMARK 924 INTRA-LIGAND FREE ENERGY PREDICTED BY IDOCK:   -2.17 KCAL/MOL
REMARK 927      BINDING AFFINITY PREDICTED BY RF-SCORE:    0.00 PKD
ROOT
HETATM    1  C   UNL     1     -10.924  11.537  64.789  1.00  0.00    -0.338 C  
HETATM    2  C   UNL     1     -10.369  11.838  63.406  1.00  0.00    -0.481 C  
ENDROOT
BRANCH   2   3
HETATM    3  C   UNL     1      -9.146  10.975  63.098  1.00  0.00    -0.262 C  
BRANCH   3   4
HETATM    4  C   UNL     1      -9.123   9.714  63.961  1.00  0.00    -0.246 C  
BRANCH   4   5
HETATM    5  C   UNL     1      -7.864   9.662  64.826  1.00  0.00    -0.128 C  
BRANCH   5   6
HETATM    6  C   UNL     1      -7.969   8.571  65.890  1.00  0.00    -0.105 C  
BRANCH   6   7
HETATM    7  C   UNL     1      -9.428   8.210  66.171  1.00  0.00    -0.217 C  
BRANCH   7   8
HETATM    8  C   UNL     1      -9.532   7.212  67.324  1.00  0.00    -0.169 C  
BRANCH   8   9
HETATM    9  C   UNL     1      -8.180   6.560  67.620  1.00  0.00    -0.122 C  
BRANCH   9  10
HETATM   10  C   UNL     1      -8.112   5.153  67.021  1.00  0.00    -0.104 C  
BRANCH  10  11
HETATM   11  C   UNL     1      -8.706   4.092  67.945  1.00  0.00    -0.118 C  
BRANCH  11  12
HETATM   12  C   UNL     1      -7.729   3.599  68.987  1.00  0.00    -0.052 C  
HETATM   13  O   UNL     1      -6.511   3.637  68.890  1.00  0.00    -0.032 OA 
BRANCH  12  14
HETATM   14  O   UNL     1      -8.423   3.129  70.058  1.00  0.00    -0.048 OA 
BRANCH  14  15
HETATM   15  C   UNL     1      -9.683   3.761  70.322  1.00  0.00    -0.152 C  
BRANCH  15  16
HETATM   16  N   UNL     1      -9.788   4.273  71.680  1.00  0.00    -0.180 N  
HETATM   17  C   UNL     1      -9.860   3.294  72.670  1.00  0.00    -0.143 C  
HETATM   18  C   UNL     1     -10.495   3.720  73.964  1.00  0.00    -0.262 C  
HETATM   19  O   UNL     1      -9.543   2.122  72.487  1.00  0.00    -0.085 OA 
HETATM   20  C   UNL     1      -9.975   5.048  74.455  1.00  0.00    -0.236 C  
HETATM   21  C   UNL     1      -9.859   6.060  73.352  1.00  0.00    -0.166 A  
HETATM   22  C   UNL     1      -9.810   7.420  73.698  1.00  0.00    -0.365 A  
HETATM   23  C   UNL     1      -9.597   8.399  72.728  1.00  0.00    -0.308 A  
HETATM   24  C   UNL     1      -9.398   8.019  71.406  1.00  0.00    -0.144 A  
HETATM   25  C   UNL     1      -9.458   6.663  71.058  1.00  0.00    -0.168 A  
HETATM   26  C   UNL     1      -9.713   5.663  72.012  1.00  0.00    -0.155 A  
BRANCH  24  27
HETATM   27  O   UNL     1      -9.175   8.881  70.365  1.00  0.00    -0.165 OA 
BRANCH  27  28
HETATM   28  C   UNL     1      -7.882   9.488  70.308  1.00  0.00    -0.168 C  
BRANCH  28  29
HETATM   29  C   UNL     1      -7.797  10.358  69.053  1.00  0.00    -0.120 C  
BRANCH  29  30
HETATM   30  C   UNL     1      -9.184  10.646  68.457  1.00  0.00    -0.170 C  
BRANCH  30  31
HETATM   31  C   UNL     1      -9.600  12.127  68.568  1.00  0.00    -0.133 C  
BRANCH  31  32
HETATM   32  N   UNL     1      -8.963  12.990  67.564  1.00  0.00    -0.183 NA 
HETATM   33  C   UNL     1      -9.794  14.144  67.167  1.00  0.00    -0.253 C  
HETATM   34  C   UNL     1      -9.860  15.258  68.230  1.00  0.00    -0.218 C  
HETATM   35  N   UNL     1      -8.506  15.801  68.431  1.00  0.00    -0.164 NA 
HETATM   36  C   UNL     1      -7.538  14.772  68.858  1.00  0.00    -0.144 C  
HETATM   37  C   UNL     1      -7.630  13.477  67.990  1.00  0.00    -0.143 C  
BRANCH  35  38
HETATM   38  C   UNL     1      -8.255  17.167  68.344  1.00  0.00    -0.253 A  
HETATM   39  C   UNL     1      -9.088  18.148  67.737  1.00  0.00    -0.263 A  
HETATM   40 CL   UNL     1     -10.524  17.713  66.846  1.00  0.00    -0.318 Cl 
HETATM   41  C   UNL     1      -8.726  19.517  67.751  1.00  0.00    -0.319 A  
HETATM   42  C   UNL     1      -7.520  19.939  68.312  1.00  0.00    -0.319 A  
HETATM   43 CL   UNL     1      -9.731  20.767  67.085  1.00  0.00    -0.561 Cl 
HETATM   44  C   UNL     1      -6.680  19.008  68.893  1.00  0.00    -0.321 A  
HETATM   45  C   UNL     1      -7.060  17.663  68.926  1.00  0.00    -0.254 A  
ENDBRANCH  35  38
ENDBRANCH  31  32
ENDBRANCH  30  31
ENDBRANCH  29  30
ENDBRANCH  28  29
ENDBRANCH  27  28
ENDBRANCH  24  27
ENDBRANCH  15  16
ENDBRANCH  14  15
ENDBRANCH  12  14
ENDBRANCH  11  12
ENDBRANCH  10  11
ENDBRANCH   9  10
ENDBRANCH   8   9
ENDBRANCH   7   8
ENDBRANCH   6   7
ENDBRANCH   5   6
ENDBRANCH   4   5
ENDBRANCH   3   4
ENDBRANCH   2   3
TORSDOF 20
ENDMDL
MODEL      100
REMARK 921   NORMALIZED FREE ENERGY PREDICTED BY IDOCK:   -3.45 KCAL/MOL
REMARK 922        TOTAL FREE ENERGY PREDICTED BY IDOCK:  -11.33 KCAL/MOL
REMARK 923 INTER-LIGAND FREE ENERGY PREDICTED BY IDOCK:   -9.78 KCAL/MOL
REMARK 924 INTRA-LIGAND FREE ENERGY PREDICTED BY IDOCK:   -1.55 KCAL/MOL
REMARK 927      BINDING AFFINITY PREDICTED BY RF-SCORE:    0.00 PKD
ROOT
HETATM    1  C   UNL     1     -13.117  11.219  72.127  1.00  0.00    -0.272 C  
HETATM    2  C   UNL     1     -13.457  10.079  71.180  1.00  0.00    -0.299 C  
ENDROOT
BRANCH   2   3
HETATM    3  C   UNL     1     -13.618   8.759  71.934  1.00  0.00    -0.467 C  
BRANCH   3   4
HETATM    4  C   UNL     1     -12.262   8.169  72.317  1.00  0.00    -0.397 C  
BRANCH   4   5
HETATM    5  C   UNL     1     -11.380   7.971  71.084  1.00  0.00    -0.292 C  
BRANCH   5   6
HETATM    6  C   UNL     1     -11.665   6.629  70.410  1.00  0.00    -0.446 C  
BRANCH   6   7
HETATM    7  C   UNL     1     -10.373   5.963  69.935  1.00  0.00    -0.307 C  
BRANCH   7   8
HETATM    8  C   UNL     1     -10.648   5.000  68.781  1.00  0.00     0.083 C  
BRANCH   8   9
HETATM    9  C   UNL     1      -9.388   4.226  68.389  1.00  0.00    -0.209 C  
BRANCH   9  10
HETATM   10  C   UNL     1      -9.128   4.336  66.885  1.00  0.00    -0.144 C  
BRANCH  10  11
HETATM   11  C   UNL     1      -7.770   4.958  66.567  1.00  0.00    -0.095 C  
BRANCH  11  12
HETATM   12  C   UNL     1      -7.558   6.294  67.240  1.00  0.00    -0.093 C  
HETATM   13  O   UNL     1      -6.823   6.496  68.196  1.00  0.00    -0.068 OA 
BRANCH  12  14
HETATM   14  O   UNL     1      -8.296   7.237  66.596  1.00  0.00    -0.114 OA 
BRANCH  14  15
HETATM   15  C   UNL     1      -7.570   8.354  66.064  1.00  0.00    -0.085 C  
BRANCH  15  16
HETATM   16  N   UNL     1      -8.181   8.909  64.866  1.00  0.00    -0.151 N  
HETATM   17  C   UNL     1      -7.792   8.299  63.675  1.00  0.00    -0.152 C  
HETATM   18  C   UNL     1      -7.942   9.135  62.434  1.00  0.00    -0.129 C  
HETATM   19  O   UNL     1      -7.248   7.199  63.623  1.00  0.00    -0.064 OA 
HETATM   20  C   UNL     1      -9.281   9.824  62.358  1.00  0.00    -0.294 C  
HETATM   21  C   UNL     1      -9.692  10.421  63.673  1.00  0.00    -0.338 A  
HETATM   22  C   UNL     1     -10.665  11.433  63.670  1.00  0.00    -0.470 A  
HETATM   23  C   UNL     1     -11.164  11.952  64.864  1.00  0.00    -0.350 A  
HETATM   24  C   UNL     1     -10.714  11.436  66.073  1.00  0.00    -0.263 A  
HETATM   25  C   UNL     1      -9.734  10.435  66.078  1.00  0.00    -0.265 A  
HETATM   26  C   UNL     1      -9.188   9.927  64.887  1.00  0.00    -0.246 A  
BRANCH  24  27
HETATM   27  O   UNL     1     -11.127  11.856  67.310  1.00  0.00    -0.254 OA 
BRANCH  27  28
HETATM   28  C   UNL     1     -10.356  12.894  67.919  1.00  0.00    -0.231 C  
BRANCH  28  29
HETATM   29  C   UNL     1      -8.990  12.330  68.313  1.00  0.00    -0.182 C  
BRANCH  29  30
HETATM   30  C   UNL     1      -7.849  13.308  67.994  1.00  0.00    -0.148 C  
BRANCH  30  31
HETATM   31  C   UNL     1      -6.932  13.592  69.202  1.00  0.00    -0.055 C  
BRANCH  31  32
HETATM   32  N   UNL     1      -7.201  14.883  69.849  1.00  0.00    -0.140 NA 
HETATM   33  C   UNL     1      -5.990  15.703  70.054  1.00  0.00    -0.155 C  
HETATM   34  C   UNL     1      -5.450  16.348  68.763  1.00  0.00    -0.116 C  
HETATM   35  N   UNL     1      -6.466  17.275  68.237  1.00  0.00    -0.163 NA 
HETATM   36  C   UNL     1      -7.751  16.608  67.951  1.00  0.00    -0.161 C  
HETATM   37  C   UNL     1      -8.213  15.687  69.125  1.00  0.00    -0.248 C  
BRANCH  35  38
HETATM   38  C   UNL     1      -6.151  18.597  67.935  1.00  0.00    -0.191 A  
HETATM   39  C   UNL     1      -5.960  19.151  66.639  1.00  0.00    -0.165 A  
HETATM   40 CL   UNL     1      -5.943  18.156  65.205  1.00  0.00    -0.202 Cl 
HETATM   41  C   UNL     1      -5.677  20.529  66.473  1.00  0.00    -0.181 A  
HETATM   42  C   UNL     1      -5.525  21.373  67.574  1.00  0.00    -0.387 A  
HETATM   43 CL   UNL     1      -5.498  21.276  64.915  1.00  0.00    -0.218 Cl 
HETATM   44  C   UNL     1      -5.685  20.860  68.848  1.00  0.00    -0.379 A  
HETATM   45  C   UNL     1      -6.015  19.512  69.011  1.00  0.00    -0.276 A  
ENDBRANCH  35  38
ENDBRANCH  31  32
ENDBRANCH  30  31
ENDBRANCH  29  30
ENDBRANCH  28  29
ENDBRANCH  27  28
ENDBRANCH  24  27
ENDBRANCH  15  16
ENDBRANCH  14  15
ENDBRANCH  12  14
ENDBRANCH  11  12
ENDBRANCH  10  11
ENDBRANCH   9  10
ENDBRANCH   8   9
ENDBRANCH   7   8
ENDBRANCH   6   7
ENDBRANCH   5   6
ENDBRANCH   4   5
ENDBRANCH   3   4
ENDBRANCH   2   3
TORSDOF 20
ENDMDL
MODEL      101
REMARK 921   NORMALIZED FREE ENERGY PREDICTED BY IDOCK:   -3.42 KCAL/MOL
REMARK 922        TOTAL FREE ENERGY PREDICTED BY IDOCK:  -11.27 KCAL/MOL
REMARK 923 INTER-LIGAND FREE ENERGY PREDICTED BY IDOCK:   -8.85 KCAL/MOL
REMARK 924 INTRA-LIGAND FREE ENERGY PREDICTED BY IDOCK:   -2.41 KCAL/MOL
REMARK 927      BINDING AFFINITY PREDICTED BY RF-SCORE:    0.00 PKD
ROOT
HETATM    1  C   UNL     1     -10.212   3.800  64.608  1.00  0.00    -0.185 C  
HETATM    2  C   UNL     1      -8.983   3.563  65.470  1.00  0.00    -0.141 C  
ENDROOT
BRANCH   2   3
HETATM    3  C   UNL     1      -8.114   4.817  65.556  1.00  0.00    -0.111 C  
BRANCH   3   4
HETATM    4  C   UNL     1      -8.468   5.816  64.455  1.00  0.00    -0.040 C  
BRANCH   4   5
HETATM    5  C   UNL     1      -7.930   7.209  64.783  1.00  0.00    -0.122 C  
BRANCH   5   6
HETATM    6  C   UNL     1      -7.764   8.049  63.517  1.00  0.00    -0.140 C  
BRANCH   6   7
HETATM    7  C   UNL     1      -8.497   9.385  63.638  1.00  0.00    -0.203 C  
BRANCH   7   8
HETATM    8  C   UNL     1      -8.910   9.652  65.085  1.00  0.00    -0.215 C  
BRANCH   8   9
HETATM    9  C   UNL     1      -9.035  11.151  65.361  1.00  0.00    -0.154 C  
BRANCH   9  10
HETATM   10  C   UNL     1     -10.503  11.586  65.341  1.00  0.00    -0.333 C  
BRANCH  10  11
HETATM   11  C   UNL     1     -11.010  12.007  66.718  1.00  0.00    -0.329 C  
BRANCH  11  12
HETATM   12  C   UNL     1     -11.063  10.864  67.705  1.00  0.00    -0.313 C  
HETATM   13  O   UNL     1     -11.519   9.753  67.477  1.00  0.00     0.030 OA 
BRANCH  12  14
HETATM   14  O   UNL     1     -10.501  11.263  68.877  1.00  0.00    -0.201 OA 
BRANCH  14  15
HETATM   15  C   UNL     1     -11.350  11.222  70.032  1.00  0.00    -0.208 C  
BRANCH  15  16
HETATM   16  N   UNL     1     -11.238   9.976  70.775  1.00  0.00    -0.334 N  
HETATM   17  C   UNL     1     -12.431   9.518  71.332  1.00  0.00    -0.362 C  
HETATM   18  C   UNL     1     -12.289   8.593  72.509  1.00  0.00    -0.378 C  
HETATM   19  O   UNL     1     -13.538   9.918  70.983  1.00  0.00    -0.329 OA 
HETATM   20  C   UNL     1     -11.268   7.509  72.273  1.00  0.00    -0.329 C  
HETATM   21  C   UNL     1     -10.020   8.029  71.622  1.00  0.00    -0.237 A  
HETATM   22  C   UNL     1      -8.846   7.266  71.727  1.00  0.00    -0.124 A  
HETATM   23  C   UNL     1      -7.684   7.643  71.056  1.00  0.00    -0.088 A  
HETATM   24  C   UNL     1      -7.697   8.772  70.247  1.00  0.00    -0.085 A  
HETATM   25  C   UNL     1      -8.865   9.541  70.151  1.00  0.00    -0.266 A  
HETATM   26  C   UNL     1     -10.036   9.203  70.851  1.00  0.00    -0.288 A  
BRANCH  24  27
HETATM   27  O   UNL     1      -6.626   9.244  69.535  1.00  0.00    -0.042 OA 
BRANCH  27  28
HETATM   28  C   UNL     1      -6.619  10.645  69.252  1.00  0.00    -0.068 C  
BRANCH  28  29
HETATM   29  C   UNL     1      -5.364  11.268  69.867  1.00  0.00    -0.062 C  
BRANCH  29  30
HETATM   30  C   UNL     1      -5.646  12.650  70.476  1.00  0.00    -0.171 C  
BRANCH  30  31
HETATM   31  C   UNL     1      -5.225  13.818  69.561  1.00  0.00    -0.083 C  
BRANCH  31  32
HETATM   32  N   UNL     1      -6.054  15.019  69.727  1.00  0.00    -0.125 NA 
HETATM   33  C   UNL     1      -5.940  15.974  68.606  1.00  0.00    -0.104 C  
HETATM   34  C   UNL     1      -6.671  15.521  67.327  1.00  0.00    -0.093 C  
HETATM   35  N   UNL     1      -8.112  15.427  67.615  1.00  0.00    -0.140 NA 
HETATM   36  C   UNL     1      -8.413  14.485  68.711  1.00  0.00    -0.145 C  
HETATM   37  C   UNL     1      -7.485  14.702  69.948  1.00  0.00     0.118 C  
BRANCH  35  38
HETATM   38  C   UNL     1      -9.052  16.075  66.819  1.00  0.00    -0.244 A  
HETATM   39  C   UNL     1      -9.387  17.457  66.853  1.00  0.00    -0.263 A  
HETATM   40 CL   UNL     1      -8.738  18.533  68.064  1.00  0.00    -0.303 Cl 
HETATM   41  C   UNL     1     -10.342  17.995  65.955  1.00  0.00    -0.331 A  
HETATM   42  C   UNL     1     -11.022  17.179  65.050  1.00  0.00     0.097 A  
HETATM   43 CL   UNL     1     -10.745  19.684  65.905  1.00  0.00    -0.576 Cl 
HETATM   44  C   UNL     1     -10.733  15.828  65.006  1.00  0.00    -0.443 A  
HETATM   45  C   UNL     1      -9.753  15.305  65.855  1.00  0.00    -0.390 A  
ENDBRANCH  35  38
ENDBRANCH  31  32
ENDBRANCH  30  31
ENDBRANCH  29  30
ENDBRANCH  28  29
ENDBRANCH  27  28
ENDBRANCH  24  27
ENDBRANCH  15  16
ENDBRANCH  14  15
ENDBRANCH  12  14
ENDBRANCH  11  12
ENDBRANCH  10  11
ENDBRANCH   9  10
ENDBRANCH   8   9
ENDBRANCH   7   8
ENDBRANCH   6   7
ENDBRANCH   5   6
ENDBRANCH   4   5
ENDBRANCH   3   4
ENDBRANCH   2   3
TORSDOF 20
ENDMDL
MODEL      102
REMARK 921   NORMALIZED FREE ENERGY PREDICTED BY IDOCK:   -3.29 KCAL/MOL
REMARK 922        TOTAL FREE ENERGY PREDICTED BY IDOCK:  -10.99 KCAL/MOL
REMARK 923 INTER-LIGAND FREE ENERGY PREDICTED BY IDOCK:   -9.96 KCAL/MOL
REMARK 924 INTRA-LIGAND FREE ENERGY PREDICTED BY IDOCK:   -1.03 KCAL/MOL
REMARK 927      BINDING AFFINITY PREDICTED BY RF-SCORE:    0.00 PKD
ROOT
HETATM    1  C   UNL     1     -10.209  19.943  67.628  1.00  0.00    -0.564 C  
HETATM    2  C   UNL     1      -8.827  19.653  68.191  1.00  0.00    -0.370 C  
ENDROOT
BRANCH   2   3
HETATM    3  C   UNL     1      -7.742  19.858  67.135  1.00  0.00    -0.310 C  
BRANCH   3   4
HETATM    4  C   UNL     1      -8.012  19.016  65.889  1.00  0.00    -0.099 C  
BRANCH   4   5
HETATM    5  C   UNL     1      -7.152  17.752  65.882  1.00  0.00    -0.278 C  
BRANCH   5   6
HETATM    6  C   UNL     1      -7.789  16.646  66.724  1.00  0.00    -0.290 C  
BRANCH   6   7
HETATM    7  C   UNL     1      -8.989  16.027  66.008  1.00  0.00    -0.345 C  
BRANCH   7   8
HETATM    8  C   UNL     1      -9.245  14.603  66.500  1.00  0.00    -0.294 C  
BRANCH   8   9
HETATM    9  C   UNL     1      -9.324  13.616  65.335  1.00  0.00     0.433 C  
BRANCH   9  10
HETATM   10  C   UNL     1     -10.769  13.455  64.855  1.00  0.00    -0.381 C  
BRANCH  10  11
HETATM   11  C   UNL     1     -11.774  14.133  65.783  1.00  0.00    -0.360 C  
BRANCH  11  12
HETATM   12  C   UNL     1     -12.107  13.305  67.003  1.00  0.00    -0.320 C  
HETATM   13  O   UNL     1     -11.960  12.096  67.099  1.00  0.00    -0.580 OA 
BRANCH  12  14
HETATM   14  O   UNL     1     -12.573  14.127  67.982  1.00  0.00     0.077 OA 
BRANCH  14  15
HETATM   15  C   UNL     1     -11.787  14.190  69.181  1.00  0.00    -0.341 C  
BRANCH  15  16
HETATM   16  N   UNL     1     -12.485  13.666  70.345  1.00  0.00    -0.318 N  
HETATM   17  C   UNL     1     -13.305  14.585  70.998  1.00  0.00    -0.327 C  
HETATM   18  C   UNL     1     -13.598  14.286  72.442  1.00  0.00    -0.599 C  
HETATM   19  O   UNL     1     -13.680  15.638  70.490  1.00  0.00    -0.299 OA 
HETATM   20  C   UNL     1     -13.991  12.848  72.668  1.00  0.00    -0.019 C  
HETATM   21  C   UNL     1     -13.122  11.890  71.905  1.00  0.00    -0.474 A  
HETATM   22  C   UNL     1     -13.074  10.553  72.329  1.00  0.00    -0.242 A  
HETATM   23  C   UNL     1     -12.370   9.596  71.600  1.00  0.00    -0.489 A  
HETATM   24  C   UNL     1     -11.734   9.966  70.421  1.00  0.00    -0.258 A  
HETATM   25  C   UNL     1     -11.771  11.303  70.005  1.00  0.00    -0.428 A  
HETATM   26  C   UNL     1     -12.439  12.292  70.745  1.00  0.00    -0.265 A  
BRANCH  24  27
HETATM   27  O   UNL     1     -11.015   9.122  69.616  1.00  0.00    -0.226 OA 
BRANCH  27  28
HETATM   28  C   UNL     1     -11.198   7.722  69.841  1.00  0.00    -0.062 C  
BRANCH  28  29
HETATM   29  C   UNL     1     -10.356   7.300  71.047  1.00  0.00    -0.208 C  
BRANCH  29  30
HETATM   30  C   UNL     1      -8.884   7.709  70.894  1.00  0.00    -0.146 C  
BRANCH  30  31
HETATM   31  C   UNL     1      -7.897   6.568  71.215  1.00  0.00    -0.103 C  
BRANCH  31  32
HETATM   32  N   UNL     1      -6.940   6.300  70.133  1.00  0.00    -0.064 NA 
HETATM   33  C   UNL     1      -6.864   4.875  69.753  1.00  0.00    -0.052 C  
HETATM   34  C   UNL     1      -8.077   4.383  68.940  1.00  0.00    -0.072 C  
HETATM   35  N   UNL     1      -8.126   5.125  67.668  1.00  0.00    -0.099 NA 
HETATM   36  C   UNL     1      -8.227   6.584  67.865  1.00  0.00    -0.116 C  
HETATM   37  C   UNL     1      -7.204   7.111  68.921  1.00  0.00    -0.090 C  
BRANCH  35  38
HETATM   38  C   UNL     1      -8.202   4.462  66.447  1.00  0.00    -0.102 A  
HETATM   39  C   UNL     1      -9.355   4.325  65.624  1.00  0.00    -0.161 A  
HETATM   40 CL   UNL     1     -10.930   4.865  66.147  1.00  0.00    -0.147 Cl 
HETATM   41  C   UNL     1      -9.282   3.651  64.380  1.00  0.00    -0.136 A  
HETATM   42  C   UNL     1      -8.096   3.057  63.949  1.00  0.00    -0.082 A  
HETATM   43 CL   UNL     1     -10.638   3.508  63.303  1.00  0.00    -0.234 Cl 
HETATM   44  C   UNL     1      -6.964   3.156  64.735  1.00  0.00    -0.053 A  
HETATM   45  C   UNL     1      -7.020   3.865  65.938  1.00  0.00    -0.065 A  
ENDBRANCH  35  38
ENDBRANCH  31  32
ENDBRANCH  30  31
ENDBRANCH  29  30
ENDBRANCH  28  29
ENDBRANCH  27  28
ENDBRANCH  24  27
ENDBRANCH  15  16
ENDBRANCH  14  15
ENDBRANCH  12  14
ENDBRANCH  11  12
ENDBRANCH  10  11
ENDBRANCH   9  10
ENDBRANCH   8   9
ENDBRANCH   7   8
ENDBRANCH   6   7
ENDBRANCH   5   6
ENDBRANCH   4   5
ENDBRANCH   3   4
ENDBRANCH   2   3
TORSDOF 20
ENDMDL
MODEL      103
REMARK 921   NORMALIZED FREE ENERGY PREDICTED BY IDOCK:   -3.21 KCAL/MOL
REMARK 922        TOTAL FREE ENERGY PREDICTED BY IDOCK:  -10.81 KCAL/MOL
REMARK 923 INTER-LIGAND FREE ENERGY PREDICTED BY IDOCK:   -7.97 KCAL/MOL
REMARK 924 INTRA-LIGAND FREE ENERGY PREDICTED BY IDOCK:   -2.84 KCAL/MOL
REMARK 927      BINDING AFFINITY PREDICTED BY RF-SCORE:    0.00 PKD
ROOT
HETATM    1  C   UNL     1      -6.239  16.540  66.995  1.00  0.00    -0.193 C  
HETATM    2  C   UNL     1      -6.077  16.151  68.456  1.00  0.00    -0.112 C  
ENDROOT
BRANCH   2   3
HETATM    3  C   UNL     1      -6.281  14.651  68.658  1.00  0.00    -0.086 C  
BRANCH   3   4
HETATM    4  C   UNL     1      -7.752  14.319  68.908  1.00  0.00    -0.112 C  
BRANCH   4   5
HETATM    5  C   UNL     1      -8.510  15.540  69.428  1.00  0.00    -0.256 C  
BRANCH   5   6
HETATM    6  C   UNL     1      -9.899  15.154  69.935  1.00  0.00    -0.072 C  
BRANCH   6   7
HETATM    7  C   UNL     1     -10.860  16.342  69.878  1.00  0.00    -0.352 C  
BRANCH   7   8
HETATM    8  C   UNL     1     -10.574  17.218  68.659  1.00  0.00    -0.329 C  
BRANCH   8   9
HETATM    9  C   UNL     1     -11.343  16.731  67.430  1.00  0.00     0.291 C  
BRANCH   9  10
HETATM   10  C   UNL     1     -10.563  17.030  66.147  1.00  0.00    -0.194 C  
BRANCH  10  11
HETATM   11  C   UNL     1     -10.734  15.943  65.089  1.00  0.00    -0.449 C  
BRANCH  11  12
HETATM   12  C   UNL     1      -9.765  14.796  65.257  1.00  0.00    -0.082 C  
HETATM   13  O   UNL     1      -8.942  14.689  66.154  1.00  0.00    -0.171 OA 
BRANCH  12  14
HETATM   14  O   UNL     1      -9.973  13.891  64.262  1.00  0.00    -0.110 OA 
BRANCH  14  15
HETATM   15  C   UNL     1     -10.909  12.842  64.548  1.00  0.00    -0.363 C  
BRANCH  15  16
HETATM   16  N   UNL     1     -10.932  12.470  65.954  1.00  0.00    -0.271 N  
HETATM   17  C   UNL     1     -12.013  12.975  66.675  1.00  0.00    -0.387 C  
HETATM   18  C   UNL     1     -11.811  13.088  68.160  1.00  0.00    -0.381 C  
HETATM   19  O   UNL     1     -13.030  13.418  66.149  1.00  0.00    -0.176 OA 
HETATM   20  C   UNL     1     -11.205  11.843  68.759  1.00  0.00    -0.314 C  
HETATM   21  C   UNL     1     -10.081  11.296  67.927  1.00  0.00    -0.195 A  
HETATM   22  C   UNL     1      -9.160  10.431  68.538  1.00  0.00    -0.145 A  
HETATM   23  C   UNL     1      -8.159   9.809  67.794  1.00  0.00    -0.113 A  
HETATM   24  C   UNL     1      -8.093  10.024  66.423  1.00  0.00    -0.120 A  
HETATM   25  C   UNL     1      -9.004  10.898  65.814  1.00  0.00    -0.208 A  
HETATM   26  C   UNL     1      -9.995  11.567  66.551  1.00  0.00    -0.210 A  
BRANCH  24  27
HETATM   27  O   UNL     1      -7.162   9.471  65.583  1.00  0.00    -0.089 OA 
BRANCH  27  28
HETATM   28  C   UNL     1      -7.023   8.049  65.639  1.00  0.00    -0.063 C  
BRANCH  28  29
HETATM   29  C   UNL     1      -8.160   7.409  64.840  1.00  0.00    -0.114 C  
BRANCH  29  30
HETATM   30  C   UNL     1      -8.180   5.880  64.992  1.00  0.00    -0.138 C  
BRANCH  30  31
HETATM   31  C   UNL     1      -7.221   5.362  66.083  1.00  0.00    -0.077 C  
BRANCH  31  32
HETATM   32  N   UNL     1      -7.838   4.381  66.985  1.00  0.00    -0.097 NA 
HETATM   33  C   UNL     1      -7.407   4.520  68.392  1.00  0.00    -0.065 C  
HETATM   34  C   UNL     1      -8.031   5.729  69.116  1.00  0.00    -0.097 C  
HETATM   35  N   UNL     1      -9.491   5.546  69.170  1.00  0.00    -0.124 NA 
HETATM   36  C   UNL     1     -10.097   5.410  67.831  1.00  0.00    -0.168 C  
HETATM   37  C   UNL     1      -9.319   4.401  66.929  1.00  0.00    -0.153 C  
BRANCH  35  38
HETATM   38  C   UNL     1     -10.186   5.635  70.373  1.00  0.00    -0.235 A  
HETATM   39  C   UNL     1     -10.995   6.720  70.809  1.00  0.00    -0.262 A  
HETATM   40 CL   UNL     1     -11.093   8.214  69.912  1.00  0.00    -0.165 Cl 
HETATM   41  C   UNL     1     -11.680   6.663  72.048  1.00  0.00    -0.313 A  
HETATM   42  C   UNL     1     -11.540   5.567  72.901  1.00  0.00    -0.280 A  
HETATM   43 CL   UNL     1     -12.732   7.928  72.605  1.00  0.00    -0.005 Cl 
HETATM   44  C   UNL     1     -10.746   4.505  72.513  1.00  0.00    -0.192 A  
HETATM   45  C   UNL     1     -10.111   4.537  71.268  1.00  0.00    -0.225 A  
ENDBRANCH  35  38
ENDBRANCH  31  32
ENDBRANCH  30  31
ENDBRANCH  29  30
ENDBRANCH  28  29
ENDBRANCH  27  28
ENDBRANCH  24  27
ENDBRANCH  15  16
ENDBRANCH  14  15
ENDBRANCH  12  14
ENDBRANCH  11  12
ENDBRANCH  10  11
ENDBRANCH   9  10
ENDBRANCH   8   9
ENDBRANCH   7   8
ENDBRANCH   6   7
ENDBRANCH   5   6
ENDBRANCH   4   5
ENDBRANCH   3   4
ENDBRANCH   2   3
TORSDOF 20
ENDMDL
MODEL      104
REMARK 921   NORMALIZED FREE ENERGY PREDICTED BY IDOCK:   -3.18 KCAL/MOL
REMARK 922        TOTAL FREE ENERGY PREDICTED BY IDOCK:  -10.73 KCAL/MOL
REMARK 923 INTER-LIGAND FREE ENERGY PREDICTED BY IDOCK:   -7.35 KCAL/MOL
REMARK 924 INTRA-LIGAND FREE ENERGY PREDICTED BY IDOCK:   -3.38 KCAL/MOL
REMARK 927      BINDING AFFINITY PREDICTED BY RF-SCORE:    0.00 PKD
ROOT
HETATM    1  C   UNL     1     -10.716  18.163  65.882  1.00  0.00    -0.140 C  
HETATM    2  C   UNL     1     -10.752  17.028  66.893  1.00  0.00    -0.125 C  
ENDROOT
BRANCH   2   3
HETATM    3  C   UNL     1     -10.814  15.668  66.200  1.00  0.00    -0.264 C  
BRANCH   3   4
HETATM    4  C   UNL     1     -11.251  15.806  64.742  1.00  0.00    -0.375 C  
BRANCH   4   5
HETATM    5  C   UNL     1     -12.240  14.705  64.358  1.00  0.00    -0.473 C  
BRANCH   5   6
HETATM    6  C   UNL     1     -12.248  13.583  65.395  1.00  0.00    -0.482 C  
BRANCH   6   7
HETATM    7  C   UNL     1     -12.131  12.212  64.728  1.00  0.00    -0.368 C  
BRANCH   7   8
HETATM    8  C   UNL     1     -11.252  12.284  63.480  1.00  0.00    -0.535 C  
BRANCH   8   9
HETATM    9  C   UNL     1     -10.252  11.128  63.436  1.00  0.00    -0.435 C  
BRANCH   9  10
HETATM   10  C   UNL     1      -9.574  10.943  64.796  1.00  0.00    -0.301 C  
BRANCH  10  11
HETATM   11  C   UNL     1      -9.639   9.502  65.294  1.00  0.00    -0.314 C  
BRANCH  11  12
HETATM   12  C   UNL     1      -8.307   8.791  65.228  1.00  0.00    -0.160 C  
HETATM   13  O   UNL     1      -7.258   9.287  64.846  1.00  0.00    -0.098 OA 
BRANCH  12  14
HETATM   14  O   UNL     1      -8.460   7.519  65.685  1.00  0.00    -0.136 OA 
BRANCH  14  15
HETATM   15  C   UNL     1      -7.253   6.771  65.892  1.00  0.00    -0.070 C  
BRANCH  15  16
HETATM   16  N   UNL     1      -7.283   5.460  65.263  1.00  0.00    -0.066 N  
HETATM   17  C   UNL     1      -7.059   5.466  63.888  1.00  0.00    -0.049 C  
HETATM   18  C   UNL     1      -7.599   4.283  63.133  1.00  0.00    -0.058 C  
HETATM   19  O   UNL     1      -6.562   6.415  63.287  1.00  0.00    -0.035 OA 
HETATM   20  C   UNL     1      -7.270   2.971  63.800  1.00  0.00    -0.053 C  
HETATM   21  C   UNL     1      -7.471   3.019  65.287  1.00  0.00    -0.076 A  
HETATM   22  C   UNL     1      -7.625   1.807  65.978  1.00  0.00    -0.063 A  
HETATM   23  C   UNL     1      -7.709   1.780  67.369  1.00  0.00    -0.060 A  
HETATM   24  C   UNL     1      -7.606   2.968  68.083  1.00  0.00    -0.056 A  
HETATM   25  C   UNL     1      -7.465   4.180  67.393  1.00  0.00    -0.069 A  
HETATM   26  C   UNL     1      -7.419   4.234  65.990  1.00  0.00    -0.085 A  
BRANCH  24  27
HETATM   27  O   UNL     1      -7.669   3.075  69.447  1.00  0.00    -0.047 OA 
BRANCH  27  28
HETATM   28  C   UNL     1      -7.096   1.999  70.195  1.00  0.00    -0.033 C  
BRANCH  28  29
HETATM   29  C   UNL     1      -6.213   2.580  71.301  1.00  0.00    -0.018 C  
BRANCH  29  30
HETATM   30  C   UNL     1      -5.432   3.815  70.826  1.00  0.00    -0.012 C  
BRANCH  30  31
HETATM   31  C   UNL     1      -5.536   5.012  71.792  1.00  0.00    -0.005 C  
BRANCH  31  32
HETATM   32  N   UNL     1      -5.510   6.315  71.114  1.00  0.00    -0.018 NA 
HETATM   33  C   UNL     1      -6.473   6.419  69.999  1.00  0.00    -0.040 C  
HETATM   34  C   UNL     1      -7.937   6.572  70.454  1.00  0.00    -0.115 C  
HETATM   35  N   UNL     1      -8.070   7.832  71.205  1.00  0.00    -0.093 NA 
HETATM   36  C   UNL     1      -7.182   7.889  72.382  1.00  0.00    -0.089 C  
HETATM   37  C   UNL     1      -5.722   7.449  72.044  1.00  0.00    -0.037 C  
BRANCH  35  38
HETATM   38  C   UNL     1      -9.040   8.773  70.871  1.00  0.00    -0.208 A  
HETATM   39  C   UNL     1      -9.003   9.681  69.777  1.00  0.00    -0.211 A  
HETATM   40 CL   UNL     1      -7.594   9.840  68.760  1.00  0.00    -0.075 Cl 
HETATM   41  C   UNL     1     -10.082  10.566  69.532  1.00  0.00    -0.178 A  
HETATM   42  C   UNL     1     -11.187  10.611  70.383  1.00  0.00    -0.334 A  
HETATM   43 CL   UNL     1     -10.123  11.651  68.176  1.00  0.00    -0.192 Cl 
HETATM   44  C   UNL     1     -11.243   9.754  71.466  1.00  0.00    -0.291 A  
HETATM   45  C   UNL     1     -10.204   8.844  71.680  1.00  0.00    -0.415 A  
ENDBRANCH  35  38
ENDBRANCH  31  32
ENDBRANCH  30  31
ENDBRANCH  29  30
ENDBRANCH  28  29
ENDBRANCH  27  28
ENDBRANCH  24  27
ENDBRANCH  15  16
ENDBRANCH  14  15
ENDBRANCH  12  14
ENDBRANCH  11  12
ENDBRANCH  10  11
ENDBRANCH   9  10
ENDBRANCH   8   9
ENDBRANCH   7   8
ENDBRANCH   6   7
ENDBRANCH   5   6
ENDBRANCH   4   5
ENDBRANCH   3   4
ENDBRANCH   2   3
TORSDOF 20
ENDMDL
MODEL      105
REMARK 921   NORMALIZED FREE ENERGY PREDICTED BY IDOCK:   -3.12 KCAL/MOL
REMARK 922        TOTAL FREE ENERGY PREDICTED BY IDOCK:  -10.61 KCAL/MOL
REMARK 923 INTER-LIGAND FREE ENERGY PREDICTED BY IDOCK:   -7.75 KCAL/MOL
REMARK 924 INTRA-LIGAND FREE ENERGY PREDICTED BY IDOCK:   -2.86 KCAL/MOL
REMARK 927      BINDING AFFINITY PREDICTED BY RF-SCORE:    0.00 PKD
ROOT
HETATM    1  C   UNL     1     -10.258  16.923  68.436  1.00  0.00    -0.322 C  
HETATM    2  C   UNL     1     -11.512  16.191  67.987  1.00  0.00    -0.163 C  
ENDROOT
BRANCH   2   3
HETATM    3  C   UNL     1     -11.174  15.022  67.063  1.00  0.00    -0.328 C  
BRANCH   3   4
HETATM    4  C   UNL     1     -10.670  15.514  65.707  1.00  0.00    -0.362 C  
BRANCH   4   5
HETATM    5  C   UNL     1     -11.233  14.663  64.569  1.00  0.00    -0.290 C  
BRANCH   5   6
HETATM    6  C   UNL     1     -11.827  13.357  65.098  1.00  0.00    -0.375 C  
BRANCH   6   7
HETATM    7  C   UNL     1     -10.822  12.209  64.993  1.00  0.00    -0.344 C  
BRANCH   7   8
HETATM    8  C   UNL     1     -10.740  11.684  63.560  1.00  0.00    -0.495 C  
BRANCH   8   9
HETATM    9  C   UNL     1      -9.904  10.407  63.482  1.00  0.00    -0.268 C  
BRANCH   9  10
HETATM   10  C   UNL     1      -8.940  10.314  64.668  1.00  0.00    -0.240 C  
BRANCH  10  11
HETATM   11  C   UNL     1      -9.056   8.989  65.417  1.00  0.00    -0.250 C  
BRANCH  11  12
HETATM   12  C   UNL     1      -8.206   7.893  64.817  1.00  0.00    -0.108 C  
HETATM   13  O   UNL     1      -7.284   8.061  64.032  1.00  0.00    -0.079 OA 
BRANCH  12  14
HETATM   14  O   UNL     1      -8.615   6.694  65.311  1.00  0.00    -0.119 OA 
BRANCH  14  15
HETATM   15  C   UNL     1      -7.579   5.802  65.746  1.00  0.00    -0.090 C  
BRANCH  15  16
HETATM   16  N   UNL     1      -8.067   4.460  66.027  1.00  0.00    -0.102 N  
HETATM   17  C   UNL     1      -7.954   3.563  64.967  1.00  0.00    -0.090 C  
HETATM   18  C   UNL     1      -8.894   2.389  65.002  1.00  0.00    -0.119 C  
HETATM   19  O   UNL     1      -7.230   3.752  63.993  1.00  0.00    -0.049 OA 
HETATM   20  C   UNL     1      -8.946   1.730  66.358  1.00  0.00    -0.098 C  
HETATM   21  C   UNL     1      -9.011   2.728  67.477  1.00  0.00    -0.190 A  
HETATM   22  C   UNL     1      -9.488   2.299  68.726  1.00  0.00    -0.185 A  
HETATM   23  C   UNL     1      -9.473   3.150  69.830  1.00  0.00    -0.198 A  
HETATM   24  C   UNL     1      -8.949   4.430  69.699  1.00  0.00    -0.099 A  
HETATM   25  C   UNL     1      -8.485   4.864  68.450  1.00  0.00    -0.095 A  
HETATM   26  C   UNL     1      -8.528   4.037  67.315  1.00  0.00    -0.100 A  
BRANCH  24  27
HETATM   27  O   UNL     1      -8.874   5.357  70.705  1.00  0.00    -0.129 OA 
BRANCH  27  28
HETATM   28  C   UNL     1      -7.741   5.262  71.572  1.00  0.00    -0.104 C  
BRANCH  28  29
HETATM   29  C   UNL     1      -8.231   5.062  73.008  1.00  0.00    -0.105 C  
BRANCH  29  30
HETATM   30  C   UNL     1      -8.900   6.325  73.569  1.00  0.00    -0.127 C  
BRANCH  30  31
HETATM   31  C   UNL     1     -10.330   6.547  73.037  1.00  0.00    -0.218 C  
BRANCH  31  32
HETATM   32  N   UNL     1     -10.645   7.958  72.777  1.00  0.00    -0.327 NA 
HETATM   33  C   UNL     1      -9.460   8.839  72.791  1.00  0.00     0.168 C  
HETATM   34  C   UNL     1      -8.569   8.702  71.541  1.00  0.00    -0.195 C  
HETATM   35  N   UNL     1      -9.347   9.112  70.359  1.00  0.00    -0.212 NA 
HETATM   36  C   UNL     1     -10.572   8.308  70.178  1.00  0.00    -0.233 C  
HETATM   37  C   UNL     1     -11.380   8.157  71.506  1.00  0.00    -0.263 C  
BRANCH  35  38
HETATM   38  C   UNL     1      -8.862  10.067  69.470  1.00  0.00    -0.195 A  
HETATM   39  C   UNL     1      -7.623  10.029  68.774  1.00  0.00    -0.083 A  
HETATM   40 CL   UNL     1      -6.429   8.794  69.084  1.00  0.00    -0.043 Cl 
HETATM   41  C   UNL     1      -7.269  11.057  67.865  1.00  0.00    -0.086 A  
HETATM   42  C   UNL     1      -8.098  12.162  67.666  1.00  0.00    -0.158 A  
HETATM   43 CL   UNL     1      -5.800  11.034  66.938  1.00  0.00    -0.070 Cl 
HETATM   44  C   UNL     1      -9.300  12.237  68.343  1.00  0.00    -0.162 A  
HETATM   45  C   UNL     1      -9.675  11.198  69.200  1.00  0.00    -0.050 A  
ENDBRANCH  35  38
ENDBRANCH  31  32
ENDBRANCH  30  31
ENDBRANCH  29  30
ENDBRANCH  28  29
ENDBRANCH  27  28
ENDBRANCH  24  27
ENDBRANCH  15  16
ENDBRANCH  14  15
ENDBRANCH  12  14
ENDBRANCH  11  12
ENDBRANCH  10  11
ENDBRANCH   9  10
ENDBRANCH   8   9
ENDBRANCH   7   8
ENDBRANCH   6   7
ENDBRANCH   5   6
ENDBRANCH   4   5
ENDBRANCH   3   4
ENDBRANCH   2   3
TORSDOF 20
ENDMDL
MODEL      106
REMARK 921   NORMALIZED FREE ENERGY PREDICTED BY IDOCK:   -3.11 KCAL/MOL
REMARK 922        TOTAL FREE ENERGY PREDICTED BY IDOCK:  -10.58 KCAL/MOL
REMARK 923 INTER-LIGAND FREE ENERGY PREDICTED BY IDOCK:   -7.62 KCAL/MOL
REMARK 924 INTRA-LIGAND FREE ENERGY PREDICTED BY IDOCK:   -2.96 KCAL/MOL
REMARK 927      BINDING AFFINITY PREDICTED BY RF-SCORE:    0.00 PKD
ROOT
HETATM    1  C   UNL     1     -10.968  20.009  67.214  1.00  0.00    -0.116 C  
HETATM    2  C   UNL     1      -9.469  19.866  67.422  1.00  0.00    -0.484 C  
ENDROOT
BRANCH   2   3
HETATM    3  C   UNL     1      -9.032  18.405  67.331  1.00  0.00    -0.265 C  
BRANCH   3   4
HETATM    4  C   UNL     1     -10.118  17.466  67.855  1.00  0.00    -0.326 C  
BRANCH   4   5
HETATM    5  C   UNL     1      -9.569  16.547  68.947  1.00  0.00    -0.261 C  
BRANCH   5   6
HETATM    6  C   UNL     1     -10.109  15.125  68.794  1.00  0.00    -0.226 C  
BRANCH   6   7
HETATM    7  C   UNL     1      -9.556  14.456  67.535  1.00  0.00    -0.215 C  
BRANCH   7   8
HETATM    8  C   UNL     1     -10.632  14.350  66.455  1.00  0.00    -0.297 C  
BRANCH   8   9
HETATM    9  C   UNL     1     -11.562  13.163  66.709  1.00  0.00    -0.414 C  
BRANCH   9  10
HETATM   10  C   UNL     1     -10.872  11.845  66.347  1.00  0.00    -0.318 C  
BRANCH  10  11
HETATM   11  C   UNL     1     -11.156  11.407  64.912  1.00  0.00    -0.235 C  
BRANCH  11  12
HETATM   12  C   UNL     1      -9.948  10.818  64.222  1.00  0.00    -0.341 C  
HETATM   13  O   UNL     1      -9.698  10.913  63.029  1.00  0.00    -0.309 OA 
BRANCH  12  14
HETATM   14  O   UNL     1      -9.173  10.187  65.145  1.00  0.00    -0.178 OA 
BRANCH  14  15
HETATM   15  C   UNL     1      -7.767  10.464  65.085  1.00  0.00    -0.110 C  
BRANCH  15  16
HETATM   16  N   UNL     1      -6.986   9.331  64.613  1.00  0.00    -0.090 N  
HETATM   17  C   UNL     1      -6.589   9.409  63.279  1.00  0.00    -0.093 C  
HETATM   18  C   UNL     1      -6.280   8.098  62.611  1.00  0.00    -0.086 C  
HETATM   19  O   UNL     1      -6.596  10.452  62.630  1.00  0.00    -0.137 OA 
HETATM   20  C   UNL     1      -5.404   7.209  63.458  1.00  0.00    -0.033 C  
HETATM   21  C   UNL     1      -5.828   7.192  64.898  1.00  0.00    -0.037 A  
HETATM   22  C   UNL     1      -5.410   6.121  65.703  1.00  0.00    -0.013 A  
HETATM   23  C   UNL     1      -5.682   6.104  67.071  1.00  0.00    -0.016 A  
HETATM   24  C   UNL     1      -6.349   7.177  67.649  1.00  0.00    -0.047 A  
HETATM   25  C   UNL     1      -6.778   8.240  66.844  1.00  0.00    -0.062 A  
HETATM   26  C   UNL     1      -6.551   8.260  65.457  1.00  0.00    -0.049 A  
BRANCH  24  27
HETATM   27  O   UNL     1      -6.671   7.281  68.976  1.00  0.00    -0.055 OA 
BRANCH  27  28
HETATM   28  C   UNL     1      -7.661   8.256  69.314  1.00  0.00    -0.103 C  
BRANCH  28  29
HETATM   29  C   UNL     1      -8.216   7.937  70.704  1.00  0.00    -0.114 C  
BRANCH  29  30
HETATM   30  C   UNL     1      -9.743   7.766  70.689  1.00  0.00    -0.177 C  
BRANCH  30  31
HETATM   31  C   UNL     1     -10.354   7.863  69.276  1.00  0.00    -0.220 C  
BRANCH  31  32
HETATM   32  N   UNL     1     -10.978   6.614  68.822  1.00  0.00    -0.268 NA 
HETATM   33  C   UNL     1     -10.992   6.461  67.353  1.00  0.00    -0.376 C  
HETATM   34  C   UNL     1      -9.617   6.113  66.751  1.00  0.00    -0.148 C  
HETATM   35  N   UNL     1      -9.189   4.805  67.275  1.00  0.00    -0.123 NA 
HETATM   36  C   UNL     1      -9.098   4.785  68.748  1.00  0.00    -0.112 C  
HETATM   37  C   UNL     1     -10.358   5.411  69.426  1.00  0.00    -0.269 C  
BRANCH  35  38
HETATM   38  C   UNL     1      -8.795   3.778  66.422  1.00  0.00    -0.128 A  
HETATM   39  C   UNL     1      -9.409   3.412  65.192  1.00  0.00    -0.155 A  
HETATM   40 CL   UNL     1     -10.899   4.144  64.653  1.00  0.00    -0.229 Cl 
HETATM   41  C   UNL     1      -8.880   2.362  64.401  1.00  0.00    -0.104 A  
HETATM   42  C   UNL     1      -7.777   1.622  64.827  1.00  0.00    -0.064 A  
HETATM   43 CL   UNL     1      -9.546   1.913  62.861  1.00  0.00    -0.090 Cl 
HETATM   44  C   UNL     1      -7.170   1.941  66.027  1.00  0.00    -0.056 A  
HETATM   45  C   UNL     1      -7.659   3.010  66.784  1.00  0.00    -0.075 A  
ENDBRANCH  35  38
ENDBRANCH  31  32
ENDBRANCH  30  31
ENDBRANCH  29  30
ENDBRANCH  28  29
ENDBRANCH  27  28
ENDBRANCH  24  27
ENDBRANCH  15  16
ENDBRANCH  14  15
ENDBRANCH  12  14
ENDBRANCH  11  12
ENDBRANCH  10  11
ENDBRANCH   9  10
ENDBRANCH   8   9
ENDBRANCH   7   8
ENDBRANCH   6   7
ENDBRANCH   5   6
ENDBRANCH   4   5
ENDBRANCH   3   4
ENDBRANCH   2   3
TORSDOF 20
ENDMDL
MODEL      107
REMARK 921   NORMALIZED FREE ENERGY PREDICTED BY IDOCK:   -3.10 KCAL/MOL
REMARK 922        TOTAL FREE ENERGY PREDICTED BY IDOCK:  -10.58 KCAL/MOL
REMARK 923 INTER-LIGAND FREE ENERGY PREDICTED BY IDOCK:   -7.89 KCAL/MOL
REMARK 924 INTRA-LIGAND FREE ENERGY PREDICTED BY IDOCK:   -2.69 KCAL/MOL
REMARK 927      BINDING AFFINITY PREDICTED BY RF-SCORE:    0.00 PKD
ROOT
HETATM    1  C   UNL     1      -7.187   6.328  71.340  1.00  0.00    -0.079 C  
HETATM    2  C   UNL     1      -7.841   5.984  72.669  1.00  0.00    -0.104 C  
ENDROOT
BRANCH   2   3
HETATM    3  C   UNL     1      -6.820   5.436  73.666  1.00  0.00    -0.083 C  
BRANCH   3   4
HETATM    4  C   UNL     1      -7.092   3.967  73.987  1.00  0.00    -0.061 C  
BRANCH   4   5
HETATM    5  C   UNL     1      -8.542   3.595  73.677  1.00  0.00    -0.083 C  
BRANCH   5   6
HETATM    6  C   UNL     1      -8.616   2.352  72.791  1.00  0.00    -0.068 C  
BRANCH   6   7
HETATM    7  C   UNL     1      -7.416   2.273  71.846  1.00  0.00    -0.040 C  
BRANCH   7   8
HETATM    8  C   UNL     1      -7.868   2.284  70.387  1.00  0.00    -0.047 C  
BRANCH   8   9
HETATM    9  C   UNL     1      -9.214   2.992  70.225  1.00  0.00    -0.213 C  
BRANCH   9  10
HETATM   10  C   UNL     1      -9.128   4.086  69.158  1.00  0.00    -0.197 C  
BRANCH  10  11
HETATM   11  C   UNL     1      -9.853   3.709  67.869  1.00  0.00     0.016 C  
BRANCH  11  12
HETATM   12  C   UNL     1     -10.346   4.908  67.093  1.00  0.00    -0.123 C  
HETATM   13  O   UNL     1     -11.145   4.873  66.169  1.00  0.00    -0.109 OA 
BRANCH  12  14
HETATM   14  O   UNL     1      -9.775   6.032  67.603  1.00  0.00    -0.111 OA 
BRANCH  14  15
HETATM   15  C   UNL     1     -10.625   7.184  67.701  1.00  0.00    -0.248 C  
BRANCH  15  16
HETATM   16  N   UNL     1     -10.003   8.288  68.416  1.00  0.00    -0.184 N  
HETATM   17  C   UNL     1     -10.013   8.164  69.804  1.00  0.00    -0.191 C  
HETATM   18  C   UNL     1      -9.898   9.450  70.575  1.00  0.00    -0.331 C  
HETATM   19  O   UNL     1     -10.219   7.103  70.389  1.00  0.00    -0.192 OA 
HETATM   20  C   UNL     1      -8.804  10.345  70.049  1.00  0.00     0.270 C  
HETATM   21  C   UNL     1      -8.790  10.410  68.549  1.00  0.00    -0.142 A  
HETATM   22  C   UNL     1      -8.144  11.495  67.936  1.00  0.00    -0.132 A  
HETATM   23  C   UNL     1      -8.006  11.556  66.550  1.00  0.00    -0.095 A  
HETATM   24  C   UNL     1      -8.487  10.513  65.768  1.00  0.00    -0.175 A  
HETATM   25  C   UNL     1      -9.143   9.436  66.379  1.00  0.00    -0.199 A  
HETATM   26  C   UNL     1      -9.330   9.373  67.770  1.00  0.00    -0.128 A  
BRANCH  24  27
HETATM   27  O   UNL     1      -8.410  10.452  64.402  1.00  0.00    -0.165 OA 
BRANCH  27  28
HETATM   28  C   UNL     1      -9.604  10.068  63.715  1.00  0.00    -0.126 C  
BRANCH  28  29
HETATM   29  C   UNL     1     -10.270  11.320  63.142  1.00  0.00    -0.367 C  
BRANCH  29  30
HETATM   30  C   UNL     1     -11.507  11.737  63.952  1.00  0.00    -0.481 C  
BRANCH  30  31
HETATM   31  C   UNL     1     -12.072  13.111  63.540  1.00  0.00    -0.514 C  
BRANCH  31  32
HETATM   32  N   UNL     1     -12.354  13.993  64.680  1.00  0.00    -0.573 NA 
HETATM   33  C   UNL     1     -11.413  13.821  65.806  1.00  0.00    -0.318 C  
HETATM   34  C   UNL     1     -10.020  14.429  65.549  1.00  0.00    -0.329 C  
HETATM   35  N   UNL     1     -10.164  15.885  65.378  1.00  0.00    -0.454 NA 
HETATM   36  C   UNL     1     -11.067  16.240  64.266  1.00  0.00     0.173 C  
HETATM   37  C   UNL     1     -12.398  15.425  64.301  1.00  0.00    -0.061 C  
BRANCH  35  38
HETATM   38  C   UNL     1      -9.403  16.779  66.126  1.00  0.00    -0.255 A  
HETATM   39  C   UNL     1      -9.771  18.101  66.503  1.00  0.00    -0.344 A  
HETATM   40 CL   UNL     1     -11.229  18.855  65.911  1.00  0.00     0.313 Cl 
HETATM   41  C   UNL     1      -8.910  18.894  67.301  1.00  0.00    -0.281 A  
HETATM   42  C   UNL     1      -7.656  18.425  67.696  1.00  0.00    -0.234 A  
HETATM   43 CL   UNL     1      -9.331  20.489  67.846  1.00  0.00    -0.312 Cl 
HETATM   44  C   UNL     1      -7.263  17.153  67.329  1.00  0.00    -0.191 A  
HETATM   45  C   UNL     1      -8.132  16.349  66.586  1.00  0.00    -0.321 A  
ENDBRANCH  35  38
ENDBRANCH  31  32
ENDBRANCH  30  31
ENDBRANCH  29  30
ENDBRANCH  28  29
ENDBRANCH  27  28
ENDBRANCH  24  27
ENDBRANCH  15  16
ENDBRANCH  14  15
ENDBRANCH  12  14
ENDBRANCH  11  12
ENDBRANCH  10  11
ENDBRANCH   9  10
ENDBRANCH   8   9
ENDBRANCH   7   8
ENDBRANCH   6   7
ENDBRANCH   5   6
ENDBRANCH   4   5
ENDBRANCH   3   4
ENDBRANCH   2   3
TORSDOF 20
ENDMDL
MODEL      108
REMARK 921   NORMALIZED FREE ENERGY PREDICTED BY IDOCK:   -3.08 KCAL/MOL
REMARK 922        TOTAL FREE ENERGY PREDICTED BY IDOCK:  -10.52 KCAL/MOL
REMARK 923 INTER-LIGAND FREE ENERGY PREDICTED BY IDOCK:   -7.45 KCAL/MOL
REMARK 924 INTRA-LIGAND FREE ENERGY PREDICTED BY IDOCK:   -3.07 KCAL/MOL
REMARK 927      BINDING AFFINITY PREDICTED BY RF-SCORE:    0.00 PKD
ROOT
HETATM    1  C   UNL     1      -9.533   2.959  64.702  1.00  0.00    -0.149 C  
HETATM    2  C   UNL     1      -8.203   2.397  65.176  1.00  0.00    -0.084 C  
ENDROOT
BRANCH   2   3
HETATM    3  C   UNL     1      -7.057   3.369  64.898  1.00  0.00    -0.061 C  
BRANCH   3   4
HETATM    4  C   UNL     1      -7.461   4.424  63.870  1.00  0.00    -0.059 C  
BRANCH   4   5
HETATM    5  C   UNL     1      -6.617   5.691  64.022  1.00  0.00    -0.037 C  
BRANCH   5   6
HETATM    6  C   UNL     1      -6.448   6.406  62.682  1.00  0.00    -0.034 C  
BRANCH   6   7
HETATM    7  C   UNL     1      -7.101   7.789  62.707  1.00  0.00    -0.083 C  
BRANCH   7   8
HETATM    8  C   UNL     1      -7.601   8.132  64.109  1.00  0.00    -0.128 C  
BRANCH   8   9
HETATM    9  C   UNL     1      -7.882   9.629  64.250  1.00  0.00    -0.130 C  
BRANCH   9  10
HETATM   10  C   UNL     1      -9.388   9.904  64.223  1.00  0.00    -0.313 C  
BRANCH  10  11
HETATM   11  C   UNL     1      -9.890  10.549  65.512  1.00  0.00    -0.324 C  
BRANCH  11  12
HETATM   12  C   UNL     1     -10.059   9.561  66.643  1.00  0.00    -0.252 C  
HETATM   13  O   UNL     1     -10.430   8.403  66.521  1.00  0.00    -0.249 OA 
BRANCH  12  14
HETATM   14  O   UNL     1      -9.708  10.161  67.813  1.00  0.00    -0.150 OA 
BRANCH  14  15
HETATM   15  C   UNL     1      -8.338  10.570  67.927  1.00  0.00    -0.115 C  
BRANCH  15  16
HETATM   16  N   UNL     1      -8.172  12.014  67.889  1.00  0.00    -0.143 N  
HETATM   17  C   UNL     1      -7.028  12.454  67.226  1.00  0.00    -0.129 C  
HETATM   18  C   UNL     1      -6.535  13.821  67.611  1.00  0.00    -0.163 C  
HETATM   19  O   UNL     1      -6.376  11.749  66.460  1.00  0.00    -0.081 OA 
HETATM   20  C   UNL     1      -7.642  14.843  67.663  1.00  0.00    -0.201 C  
HETATM   21  C   UNL     1      -8.877  14.317  68.335  1.00  0.00    -0.187 A  
HETATM   22  C   UNL     1      -9.808  15.240  68.837  1.00  0.00    -0.221 A  
HETATM   23  C   UNL     1     -11.021  14.813  69.376  1.00  0.00    -0.282 A  
HETATM   24  C   UNL     1     -11.325  13.458  69.386  1.00  0.00    -0.226 A  
HETATM   25  C   UNL     1     -10.391  12.535  68.897  1.00  0.00    -0.063 A  
HETATM   26  C   UNL     1      -9.145  12.939  68.388  1.00  0.00    -0.126 A  
BRANCH  24  27
HETATM   27  O   UNL     1     -12.480  12.914  69.882  1.00  0.00    -0.128 OA 
BRANCH  27  28
HETATM   28  C   UNL     1     -12.462  11.506  70.133  1.00  0.00    -0.164 C  
BRANCH  28  29
HETATM   29  C   UNL     1     -13.135  11.235  71.481  1.00  0.00    -0.459 C  
BRANCH  29  30
HETATM   30  C   UNL     1     -12.539  10.006  72.184  1.00  0.00    -0.275 C  
BRANCH  30  31
HETATM   31  C   UNL     1     -13.072   8.668  71.632  1.00  0.00    -0.346 C  
BRANCH  31  32
HETATM   32  N   UNL     1     -12.234   7.515  71.983  1.00  0.00    -0.291 NA 
HETATM   33  C   UNL     1     -12.223   6.457  70.952  1.00  0.00    -0.014 C  
HETATM   34  C   UNL     1     -11.390   6.814  69.706  1.00  0.00    -0.296 C  
HETATM   35  N   UNL     1      -9.983   6.980  70.109  1.00  0.00    -0.182 NA 
HETATM   36  C   UNL     1      -9.806   8.028  71.134  1.00  0.00    -0.166 C  
HETATM   37  C   UNL     1     -10.837   7.896  72.299  1.00  0.00    -0.293 C  
BRANCH  35  38
HETATM   38  C   UNL     1      -8.960   6.292  69.464  1.00  0.00    -0.134 A  
HETATM   39  C   UNL     1      -8.762   4.883  69.446  1.00  0.00    -0.087 A  
HETATM   40 CL   UNL     1      -9.740   3.803  70.407  1.00  0.00    -0.260 Cl 
HETATM   41  C   UNL     1      -7.693   4.309  68.715  1.00  0.00    -0.066 A  
HETATM   42  C   UNL     1      -6.772   5.108  68.036  1.00  0.00    -0.055 A  
HETATM   43 CL   UNL     1      -7.439   2.595  68.601  1.00  0.00    -0.048 Cl 
HETATM   44  C   UNL     1      -6.926   6.481  68.051  1.00  0.00    -0.077 A  
HETATM   45  C   UNL     1      -8.010   7.046  68.729  1.00  0.00    -0.120 A  
ENDBRANCH  35  38
ENDBRANCH  31  32
ENDBRANCH  30  31
ENDBRANCH  29  30
ENDBRANCH  28  29
ENDBRANCH  27  28
ENDBRANCH  24  27
ENDBRANCH  15  16
ENDBRANCH  14  15
ENDBRANCH  12  14
ENDBRANCH  11  12
ENDBRANCH  10  11
ENDBRANCH   9  10
ENDBRANCH   8   9
ENDBRANCH   7   8
ENDBRANCH   6   7
ENDBRANCH   5   6
ENDBRANCH   4   5
ENDBRANCH   3   4
ENDBRANCH   2   3
TORSDOF 20
ENDMDL
MODEL      109
REMARK 921   NORMALIZED FREE ENERGY PREDICTED BY IDOCK:   -2.93 KCAL/MOL
REMARK 922        TOTAL FREE ENERGY PREDICTED BY IDOCK:  -10.19 KCAL/MOL
REMARK 923 INTER-LIGAND FREE ENERGY PREDICTED BY IDOCK:   -9.38 KCAL/MOL
REMARK 924 INTRA-LIGAND FREE ENERGY PREDICTED BY IDOCK:   -0.81 KCAL/MOL
REMARK 927      BINDING AFFINITY PREDICTED BY RF-SCORE:    0.00 PKD
ROOT
HETATM    1  C   UNL     1      -6.533  20.029  71.592  1.00  0.00     0.101 C  
HETATM    2  C   UNL     1      -5.896  20.459  70.280  1.00  0.00    -0.362 C  
ENDROOT
BRANCH   2   3
HETATM    3  C   UNL     1      -6.612  19.833  69.084  1.00  0.00    -0.377 C  
BRANCH   3   4
HETATM    4  C   UNL     1      -5.631  19.095  68.174  1.00  0.00    -0.202 C  
BRANCH   4   5
HETATM    5  C   UNL     1      -5.412  17.659  68.652  1.00  0.00    -0.152 C  
BRANCH   5   6
HETATM    6  C   UNL     1      -6.736  16.990  69.017  1.00  0.00    -0.221 C  
BRANCH   6   7
HETATM    7  C   UNL     1      -7.519  16.592  67.765  1.00  0.00    -0.169 C  
BRANCH   7   8
HETATM    8  C   UNL     1      -7.471  15.080  67.548  1.00  0.00    -0.226 C  
BRANCH   8   9
HETATM    9  C   UNL     1      -8.783  14.559  66.962  1.00  0.00    -0.256 C  
BRANCH   9  10
HETATM   10  C   UNL     1      -9.298  15.495  65.865  1.00  0.00    -0.355 C  
BRANCH  10  11
HETATM   11  C   UNL     1     -10.778  15.835  66.029  1.00  0.00    -0.311 C  
BRANCH  11  12
HETATM   12  C   UNL     1     -11.504  15.972  64.711  1.00  0.00    -0.201 C  
HETATM   13  O   UNL     1     -11.298  16.839  63.876  1.00  0.00    -1.033 OA 
BRANCH  12  14
HETATM   14  O   UNL     1     -12.407  14.961  64.595  1.00  0.00    -0.399 OA 
BRANCH  14  15
HETATM   15  C   UNL     1     -11.888  13.697  64.159  1.00  0.00    -0.422 C  
BRANCH  15  16
HETATM   16  N   UNL     1     -11.588  12.796  65.261  1.00  0.00    -0.328 N  
HETATM   17  C   UNL     1     -12.281  13.064  66.441  1.00  0.00    -0.280 C  
HETATM   18  C   UNL     1     -11.643  12.554  67.703  1.00  0.00    -0.416 C  
HETATM   19  O   UNL     1     -13.285  13.770  66.491  1.00  0.00     0.329 OA 
HETATM   20  C   UNL     1     -11.177  11.126  67.580  1.00  0.00    -0.364 C  
HETATM   21  C   UNL     1     -10.485  10.859  66.275  1.00  0.00    -0.304 A  
HETATM   22  C   UNL     1      -9.638   9.744  66.185  1.00  0.00    -0.287 A  
HETATM   23  C   UNL     1      -9.051   9.385  64.973  1.00  0.00    -0.271 A  
HETATM   24  C   UNL     1      -9.334  10.125  63.831  1.00  0.00    -0.287 A  
HETATM   25  C   UNL     1     -10.169  11.246  63.922  1.00  0.00    -0.420 A  
HETATM   26  C   UNL     1     -10.739  11.650  65.142  1.00  0.00    -0.296 A  
BRANCH  24  27
HETATM   27  O   UNL     1      -8.826   9.873  62.584  1.00  0.00    -0.193 OA 
BRANCH  27  28
HETATM   28  C   UNL     1      -7.472  10.271  62.359  1.00  0.00    -0.137 C  
BRANCH  28  29
HETATM   29  C   UNL     1      -6.572   9.565  63.375  1.00  0.00    -0.102 C  
BRANCH  29  30
HETATM   30  C   UNL     1      -6.325   8.096  63.001  1.00  0.00    -0.081 C  
BRANCH  30  31
HETATM   31  C   UNL     1      -5.449   7.345  64.025  1.00  0.00    -0.033 C  
BRANCH  31  32
HETATM   32  N   UNL     1      -5.806   5.928  64.172  1.00  0.00    -0.024 NA 
HETATM   33  C   UNL     1      -5.295   5.317  65.416  1.00  0.00    -0.013 C  
HETATM   34  C   UNL     1      -6.065   5.746  66.680  1.00  0.00    -0.026 C  
HETATM   35  N   UNL     1      -7.460   5.289  66.564  1.00  0.00    -0.086 NA 
HETATM   36  C   UNL     1      -8.138   5.830  65.370  1.00  0.00    -0.131 C  
HETATM   37  C   UNL     1      -7.266   5.692  64.081  1.00  0.00    -0.055 C  
BRANCH  35  38
HETATM   38  C   UNL     1      -8.061   4.538  67.570  1.00  0.00    -0.100 A  
HETATM   39  C   UNL     1      -8.885   5.029  68.620  1.00  0.00    -0.097 A  
HETATM   40 CL   UNL     1      -9.128   6.738  68.878  1.00  0.00    -0.134 Cl 
HETATM   41  C   UNL     1      -9.465   4.143  69.562  1.00  0.00    -0.184 A  
HETATM   42  C   UNL     1      -9.205   2.773  69.520  1.00  0.00    -0.204 A  
HETATM   43 CL   UNL     1     -10.531   4.675  70.826  1.00  0.00    -0.118 Cl 
HETATM   44  C   UNL     1      -8.392   2.268  68.523  1.00  0.00    -0.079 A  
HETATM   45  C   UNL     1      -7.861   3.133  67.562  1.00  0.00    -0.076 A  
ENDBRANCH  35  38
ENDBRANCH  31  32
ENDBRANCH  30  31
ENDBRANCH  29  30
ENDBRANCH  28  29
ENDBRANCH  27  28
ENDBRANCH  24  27
ENDBRANCH  15  16
ENDBRANCH  14  15
ENDBRANCH  12  14
ENDBRANCH  11  12
ENDBRANCH  10  11
ENDBRANCH   9  10
ENDBRANCH   8   9
ENDBRANCH   7   8
ENDBRANCH   6   7
ENDBRANCH   5   6
ENDBRANCH   4   5
ENDBRANCH   3   4
ENDBRANCH   2   3
TORSDOF 20
ENDMDL
MODEL      110
REMARK 921   NORMALIZED FREE ENERGY PREDICTED BY IDOCK:   -2.92 KCAL/MOL
REMARK 922        TOTAL FREE ENERGY PREDICTED BY IDOCK:  -10.18 KCAL/MOL
REMARK 923 INTER-LIGAND FREE ENERGY PREDICTED BY IDOCK:   -8.88 KCAL/MOL
REMARK 924 INTRA-LIGAND FREE ENERGY PREDICTED BY IDOCK:   -1.30 KCAL/MOL
REMARK 927      BINDING AFFINITY PREDICTED BY RF-SCORE:    0.00 PKD
ROOT
HETATM    1  C   UNL     1     -11.587  14.710  73.825  1.00  0.00     0.393 C  
HETATM    2  C   UNL     1     -12.948  15.385  73.773  1.00  0.00    -0.546 C  
ENDROOT
BRANCH   2   3
HETATM    3  C   UNL     1     -13.230  15.960  72.386  1.00  0.00    -0.480 C  
BRANCH   3   4
HETATM    4  C   UNL     1     -14.378  15.220  71.700  1.00  0.00    -0.666 C  
BRANCH   4   5
HETATM    5  C   UNL     1     -13.872  13.971  70.977  1.00  0.00     0.039 C  
BRANCH   5   6
HETATM    6  C   UNL     1     -12.347  13.962  70.891  1.00  0.00    -0.451 C  
BRANCH   6   7
HETATM    7  C   UNL     1     -11.874  13.717  69.458  1.00  0.00    -0.394 C  
BRANCH   7   8
HETATM    8  C   UNL     1     -10.737  14.668  69.087  1.00  0.00    -0.263 C  
BRANCH   8   9
HETATM    9  C   UNL     1     -10.871  16.007  69.814  1.00  0.00    -0.337 C  
BRANCH   9  10
HETATM   10  C   UNL     1     -10.328  17.150  68.953  1.00  0.00    -0.348 C  
BRANCH  10  11
HETATM   11  C   UNL     1     -11.096  17.315  67.644  1.00  0.00    -0.002 C  
BRANCH  11  12
HETATM   12  C   UNL     1     -10.239  17.839  66.515  1.00  0.00    -0.358 C  
HETATM   13  O   UNL     1     -10.653  18.417  65.521  1.00  0.00    -0.627 OA 
BRANCH  12  14
HETATM   14  O   UNL     1      -8.932  17.585  66.796  1.00  0.00    -0.240 OA 
BRANCH  14  15
HETATM   15  C   UNL     1      -8.372  16.413  66.188  1.00  0.00    -0.256 C  
BRANCH  15  16
HETATM   16  N   UNL     1      -7.413  15.733  67.045  1.00  0.00    -0.218 N  
HETATM   17  C   UNL     1      -6.497  16.572  67.678  1.00  0.00    -0.147 C  
HETATM   18  C   UNL     1      -5.209  15.926  68.107  1.00  0.00    -0.118 C  
HETATM   19  O   UNL     1      -6.652  17.785  67.787  1.00  0.00    -0.181 OA 
HETATM   20  C   UNL     1      -5.427  14.614  68.817  1.00  0.00    -0.088 C  
HETATM   21  C   UNL     1      -6.459  13.761  68.138  1.00  0.00    -0.124 A  
HETATM   22  C   UNL     1      -6.466  12.383  68.406  1.00  0.00    -0.058 A  
HETATM   23  C   UNL     1      -7.463  11.557  67.889  1.00  0.00    -0.103 A  
HETATM   24  C   UNL     1      -8.482  12.112  67.124  1.00  0.00    -0.182 A  
HETATM   25  C   UNL     1      -8.469  13.485  66.846  1.00  0.00    -0.066 A  
HETATM   26  C   UNL     1      -7.451  14.329  67.322  1.00  0.00    -0.055 A  
BRANCH  24  27
HETATM   27  O   UNL     1      -9.518  11.412  66.565  1.00  0.00    -0.190 OA 
BRANCH  27  28
HETATM   28  C   UNL     1     -10.788  11.535  67.209  1.00  0.00    -0.256 C  
BRANCH  28  29
HETATM   29  C   UNL     1     -11.109  10.222  67.927  1.00  0.00    -0.341 C  
BRANCH  29  30
HETATM   30  C   UNL     1     -10.616  10.225  69.382  1.00  0.00    -0.262 C  
BRANCH  30  31
HETATM   31  C   UNL     1     -11.300   9.159  70.261  1.00  0.00    -0.188 C  
BRANCH  31  32
HETATM   32  N   UNL     1     -10.418   8.038  70.613  1.00  0.00    -0.207 NA 
HETATM   33  C   UNL     1     -10.772   6.774  69.936  1.00  0.00    -0.250 C  
HETATM   34  C   UNL     1     -10.386   6.740  68.445  1.00  0.00    -0.191 C  
HETATM   35  N   UNL     1      -8.922   6.848  68.331  1.00  0.00    -0.122 NA 
HETATM   36  C   UNL     1      -8.394   8.082  68.946  1.00  0.00    -0.126 C  
HETATM   37  C   UNL     1      -8.987   8.335  70.368  1.00  0.00    -0.146 C  
BRANCH  35  38
HETATM   38  C   UNL     1      -8.183   5.925  67.597  1.00  0.00    -0.105 A  
HETATM   39  C   UNL     1      -8.329   4.510  67.617  1.00  0.00    -0.099 A  
HETATM   40 CL   UNL     1      -9.401   3.711  68.739  1.00  0.00    -0.223 Cl 
HETATM   41  C   UNL     1      -7.530   3.686  66.786  1.00  0.00    -0.079 A  
HETATM   42  C   UNL     1      -6.543   4.231  65.964  1.00  0.00    -0.041 A  
HETATM   43 CL   UNL     1      -7.706   1.959  66.719  1.00  0.00    -0.065 Cl 
HETATM   44  C   UNL     1      -6.364   5.601  65.937  1.00  0.00    -0.039 A  
HETATM   45  C   UNL     1      -7.186   6.419  66.717  1.00  0.00    -0.077 A  
ENDBRANCH  35  38
ENDBRANCH  31  32
ENDBRANCH  30  31
ENDBRANCH  29  30
ENDBRANCH  28  29
ENDBRANCH  27  28
ENDBRANCH  24  27
ENDBRANCH  15  16
ENDBRANCH  14  15
ENDBRANCH  12  14
ENDBRANCH  11  12
ENDBRANCH  10  11
ENDBRANCH   9  10
ENDBRANCH   8   9
ENDBRANCH   7   8
ENDBRANCH   6   7
ENDBRANCH   5   6
ENDBRANCH   4   5
ENDBRANCH   3   4
ENDBRANCH   2   3
TORSDOF 20
ENDMDL
MODEL      111
REMARK 921   NORMALIZED FREE ENERGY PREDICTED BY IDOCK:   -2.91 KCAL/MOL
REMARK 922        TOTAL FREE ENERGY PREDICTED BY IDOCK:  -10.17 KCAL/MOL
REMARK 923 INTER-LIGAND FREE ENERGY PREDICTED BY IDOCK:   -8.49 KCAL/MOL
REMARK 924 INTRA-LIGAND FREE ENERGY PREDICTED BY IDOCK:   -1.67 KCAL/MOL
REMARK 927      BINDING AFFINITY PREDICTED BY RF-SCORE:    0.00 PKD
ROOT
HETATM    1  C   UNL     1      -8.628   2.700  69.668  1.00  0.00    -0.115 C  
HETATM    2  C   UNL     1      -9.546   2.424  70.848  1.00  0.00    -0.188 C  
ENDROOT
BRANCH   2   3
HETATM    3  C   UNL     1      -9.397   3.492  71.931  1.00  0.00    -0.191 C  
BRANCH   3   4
HETATM    4  C   UNL     1      -9.326   2.866  73.323  1.00  0.00    -0.110 C  
BRANCH   4   5
HETATM    5  C   UNL     1      -9.149   3.937  74.399  1.00  0.00    -0.103 C  
BRANCH   5   6
HETATM    6  C   UNL     1     -10.384   4.833  74.495  1.00  0.00    -0.324 C  
BRANCH   6   7
HETATM    7  C   UNL     1      -9.996   6.312  74.500  1.00  0.00    -0.356 C  
BRANCH   7   8
HETATM    8  C   UNL     1     -10.569   7.031  73.278  1.00  0.00    -0.378 C  
BRANCH   8   9
HETATM    9  C   UNL     1      -9.457   7.584  72.386  1.00  0.00    -0.202 C  
BRANCH   9  10
HETATM   10  C   UNL     1     -10.041   8.220  71.121  1.00  0.00    -0.237 C  
BRANCH  10  11
HETATM   11  C   UNL     1      -9.584   7.517  69.845  1.00  0.00    -0.160 C  
BRANCH  11  12
HETATM   12  C   UNL     1     -10.513   6.406  69.415  1.00  0.00    -0.228 C  
HETATM   13  O   UNL     1     -11.617   6.183  69.889  1.00  0.00    -0.404 OA 
BRANCH  12  14
HETATM   14  O   UNL     1      -9.933   5.711  68.399  1.00  0.00    -0.137 OA 
BRANCH  14  15
HETATM   15  C   UNL     1     -10.523   5.877  67.102  1.00  0.00    -0.272 C  
BRANCH  15  16
HETATM   16  N   UNL     1      -9.573   5.677  66.018  1.00  0.00    -0.123 N  
HETATM   17  C   UNL     1      -9.827   4.564  65.218  1.00  0.00    -0.169 C  
HETATM   18  C   UNL     1      -8.642   4.013  64.472  1.00  0.00    -0.110 C  
HETATM   19  O   UNL     1     -10.905   3.978  65.194  1.00  0.00    -0.115 OA 
HETATM   20  C   UNL     1      -7.838   5.089  63.786  1.00  0.00    -0.088 C  
HETATM   21  C   UNL     1      -7.633   6.294  64.658  1.00  0.00    -0.098 A  
HETATM   22  C   UNL     1      -6.580   7.168  64.349  1.00  0.00    -0.040 A  
HETATM   23  C   UNL     1      -6.404   8.357  65.055  1.00  0.00    -0.052 A  
HETATM   24  C   UNL     1      -7.304   8.695  66.059  1.00  0.00    -0.085 A  
HETATM   25  C   UNL     1      -8.348   7.816  66.377  1.00  0.00    -0.131 A  
HETATM   26  C   UNL     1      -8.519   6.594  65.706  1.00  0.00    -0.148 A  
BRANCH  24  27
HETATM   27  O   UNL     1      -7.243   9.832  66.821  1.00  0.00    -0.089 OA 
BRANCH  27  28
HETATM   28  C   UNL     1      -8.471  10.266  67.411  1.00  0.00    -0.125 C  
BRANCH  28  29
HETATM   29  C   UNL     1      -8.511  11.796  67.402  1.00  0.00    -0.158 C  
BRANCH  29  30
HETATM   30  C   UNL     1      -7.103  12.409  67.458  1.00  0.00    -0.145 C  
BRANCH  30  31
HETATM   31  C   UNL     1      -6.577  12.601  68.895  1.00  0.00    -0.095 C  
BRANCH  31  32
HETATM   32  N   UNL     1      -6.042  13.945  69.147  1.00  0.00    -0.091 NA 
HETATM   33  C   UNL     1      -5.771  14.713  67.914  1.00  0.00    -0.118 C  
HETATM   34  C   UNL     1      -7.040  15.238  67.217  1.00  0.00    -0.152 C  
HETATM   35  N   UNL     1      -7.722  16.180  68.122  1.00  0.00    -0.139 NA 
HETATM   36  C   UNL     1      -8.090  15.563  69.411  1.00  0.00    -0.241 C  
HETATM   37  C   UNL     1      -6.912  14.751  70.036  1.00  0.00    -0.083 C  
BRANCH  35  38
HETATM   38  C   UNL     1      -8.074  17.459  67.702  1.00  0.00    -0.197 A  
HETATM   39  C   UNL     1      -9.255  17.829  67.001  1.00  0.00    -0.255 A  
HETATM   40 CL   UNL     1     -10.390  16.640  66.417  1.00  0.00    -0.311 Cl 
HETATM   41  C   UNL     1      -9.506  19.183  66.666  1.00  0.00    -0.344 A  
HETATM   42  C   UNL     1      -8.581  20.184  66.963  1.00  0.00    -0.408 A  
HETATM   43 CL   UNL     1     -10.959  19.705  65.869  1.00  0.00    -0.403 Cl 
HETATM   44  C   UNL     1      -7.414  19.853  67.626  1.00  0.00    -0.320 A  
HETATM   45  C   UNL     1      -7.189  18.526  68.005  1.00  0.00    -0.257 A  
ENDBRANCH  35  38
ENDBRANCH  31  32
ENDBRANCH  30  31
ENDBRANCH  29  30
ENDBRANCH  28  29
ENDBRANCH  27  28
ENDBRANCH  24  27
ENDBRANCH  15  16
ENDBRANCH  14  15
ENDBRANCH  12  14
ENDBRANCH  11  12
ENDBRANCH  10  11
ENDBRANCH   9  10
ENDBRANCH   8   9
ENDBRANCH   7   8
ENDBRANCH   6   7
ENDBRANCH   5   6
ENDBRANCH   4   5
ENDBRANCH   3   4
ENDBRANCH   2   3
TORSDOF 20
ENDMDL
MODEL      112
REMARK 921   NORMALIZED FREE ENERGY PREDICTED BY IDOCK:   -2.78 KCAL/MOL
REMARK 922        TOTAL FREE ENERGY PREDICTED BY IDOCK:   -9.87 KCAL/MOL
REMARK 923 INTER-LIGAND FREE ENERGY PREDICTED BY IDOCK:   -6.68 KCAL/MOL
REMARK 924 INTRA-LIGAND FREE ENERGY PREDICTED BY IDOCK:   -3.19 KCAL/MOL
REMARK 927      BINDING AFFINITY PREDICTED BY RF-SCORE:    0.00 PKD
ROOT
HETATM    1  C   UNL     1     -12.775  14.171  67.653  1.00  0.00     0.787 C  
HETATM    2  C   UNL     1     -11.888  14.869  68.671  1.00  0.00    -0.332 C  
ENDROOT
BRANCH   2   3
HETATM    3  C   UNL     1     -11.855  14.107  69.995  1.00  0.00    -0.388 C  
BRANCH   3   4
HETATM    4  C   UNL     1     -12.636  12.797  69.902  1.00  0.00     0.152 C  
BRANCH   4   5
HETATM    5  C   UNL     1     -12.007  11.718  70.783  1.00  0.00    -0.228 C  
BRANCH   5   6
HETATM    6  C   UNL     1     -12.094  10.343  70.120  1.00  0.00    -0.334 C  
BRANCH   6   7
HETATM    7  C   UNL     1     -10.789   9.565  70.287  1.00  0.00    -0.319 C  
BRANCH   7   8
HETATM    8  C   UNL     1     -10.443   9.388  71.765  1.00  0.00    -0.078 C  
BRANCH   8   9
HETATM    9  C   UNL     1      -9.193   8.527  71.946  1.00  0.00    -0.326 C  
BRANCH   9  10
HETATM   10  C   UNL     1      -9.415   7.467  73.029  1.00  0.00    -0.233 C  
BRANCH  10  11
HETATM   11  C   UNL     1     -10.888   7.112  73.210  1.00  0.00    -0.378 C  
BRANCH  11  12
HETATM   12  C   UNL     1     -11.355   6.021  72.274  1.00  0.00    -0.303 C  
HETATM   13  O   UNL     1     -11.810   6.197  71.153  1.00  0.00    -0.244 OA 
BRANCH  12  14
HETATM   14  O   UNL     1     -11.163   4.813  72.869  1.00  0.00    -0.243 OA 
BRANCH  14  15
HETATM   15  C   UNL     1     -10.299   3.898  72.181  1.00  0.00    -0.069 C  
BRANCH  15  16
HETATM   16  N   UNL     1      -8.915   3.986  72.619  1.00  0.00    -0.108 N  
HETATM   17  C   UNL     1      -8.622   3.270  73.779  1.00  0.00    -0.074 C  
HETATM   18  C   UNL     1      -7.422   3.742  74.552  1.00  0.00    -0.062 C  
HETATM   19  O   UNL     1      -9.345   2.385  74.229  1.00  0.00    -0.079 OA 
HETATM   20  C   UNL     1      -6.225   3.990  73.668  1.00  0.00    -0.031 C  
HETATM   21  C   UNL     1      -6.587   4.714  72.404  1.00  0.00    -0.042 A  
HETATM   22  C   UNL     1      -5.570   5.383  71.705  1.00  0.00    -0.016 A  
HETATM   23  C   UNL     1      -5.823   5.984  70.473  1.00  0.00    -0.021 A  
HETATM   24  C   UNL     1      -7.092   5.889  69.914  1.00  0.00    -0.068 A  
HETATM   25  C   UNL     1      -8.111   5.232  70.617  1.00  0.00    -0.108 A  
HETATM   26  C   UNL     1      -7.889   4.656  71.879  1.00  0.00    -0.098 A  
BRANCH  24  27
HETATM   27  O   UNL     1      -7.465   6.430  68.712  1.00  0.00    -0.084 OA 
BRANCH  27  28
HETATM   28  C   UNL     1      -8.412   5.681  67.946  1.00  0.00    -0.102 C  
BRANCH  28  29
HETATM   29  C   UNL     1      -8.477   6.264  66.533  1.00  0.00    -0.121 C  
BRANCH  29  30
HETATM   30  C   UNL     1      -9.523   7.384  66.420  1.00  0.00    -0.194 C  
BRANCH  30  31
HETATM   31  C   UNL     1      -8.983   8.657  65.736  1.00  0.00    -0.197 C  
BRANCH  31  32
HETATM   32  N   UNL     1      -9.026   9.846  66.597  1.00  0.00    -0.138 NA 
HETATM   33  C   UNL     1      -8.278  10.997  66.051  1.00  0.00    -0.129 C  
HETATM   34  C   UNL     1      -8.988  11.697  64.876  1.00  0.00     0.287 C  
HETATM   35  N   UNL     1     -10.264  12.253  65.358  1.00  0.00    -0.266 NA 
HETATM   36  C   UNL     1     -11.155  11.221  65.924  1.00  0.00    -0.101 C  
HETATM   37  C   UNL     1     -10.408  10.274  66.915  1.00  0.00    -0.239 C  
BRANCH  35  38
HETATM   38  C   UNL     1     -10.595  13.589  65.152  1.00  0.00    -0.355 A  
HETATM   39  C   UNL     1      -9.951  14.721  65.723  1.00  0.00    -0.347 A  
HETATM   40 CL   UNL     1      -8.705  14.559  66.935  1.00  0.00    -0.250 Cl 
HETATM   41  C   UNL     1     -10.369  16.035  65.398  1.00  0.00    -0.359 A  
HETATM   42  C   UNL     1     -11.456  16.258  64.551  1.00  0.00    -0.171 A  
HETATM   43 CL   UNL     1      -9.583  17.457  66.012  1.00  0.00    -0.195 Cl 
HETATM   44  C   UNL     1     -12.114  15.177  63.995  1.00  0.00    -0.072 A  
HETATM   45  C   UNL     1     -11.670  13.882  64.274  1.00  0.00    -0.406 A  
ENDBRANCH  35  38
ENDBRANCH  31  32
ENDBRANCH  30  31
ENDBRANCH  29  30
ENDBRANCH  28  29
ENDBRANCH  27  28
ENDBRANCH  24  27
ENDBRANCH  15  16
ENDBRANCH  14  15
ENDBRANCH  12  14
ENDBRANCH  11  12
ENDBRANCH  10  11
ENDBRANCH   9  10
ENDBRANCH   8   9
ENDBRANCH   7   8
ENDBRANCH   6   7
ENDBRANCH   5   6
ENDBRANCH   4   5
ENDBRANCH   3   4
ENDBRANCH   2   3
TORSDOF 20
ENDMDL
MODEL      113
REMARK 921   NORMALIZED FREE ENERGY PREDICTED BY IDOCK:   -2.76 KCAL/MOL
REMARK 922        TOTAL FREE ENERGY PREDICTED BY IDOCK:   -9.82 KCAL/MOL
REMARK 923 INTER-LIGAND FREE ENERGY PREDICTED BY IDOCK:   -9.02 KCAL/MOL
REMARK 924 INTRA-LIGAND FREE ENERGY PREDICTED BY IDOCK:   -0.81 KCAL/MOL
REMARK 927      BINDING AFFINITY PREDICTED BY RF-SCORE:    0.00 PKD
ROOT
HETATM    1  C   UNL     1      -7.082  14.930  68.135  1.00  0.00    -0.124 C  
HETATM    2  C   UNL     1      -7.707  16.238  68.593  1.00  0.00    -0.192 C  
ENDROOT
BRANCH   2   3
HETATM    3  C   UNL     1      -9.214  16.253  68.339  1.00  0.00    -0.203 C  
BRANCH   3   4
HETATM    4  C   UNL     1      -9.981  16.724  69.574  1.00  0.00    -0.051 C  
BRANCH   4   5
HETATM    5  C   UNL     1     -11.418  16.203  69.561  1.00  0.00    -0.292 C  
BRANCH   5   6
HETATM    6  C   UNL     1     -11.961  16.044  70.980  1.00  0.00    -0.407 C  
BRANCH   6   7
HETATM    7  C   UNL     1     -13.284  15.278  70.984  1.00  0.00    -0.546 C  
BRANCH   7   8
HETATM    8  C   UNL     1     -13.619  14.772  72.387  1.00  0.00    -0.550 C  
BRANCH   8   9
HETATM    9  C   UNL     1     -13.826  13.257  72.398  1.00  0.00    -0.630 C  
BRANCH   9  10
HETATM   10  C   UNL     1     -12.826  12.565  71.467  1.00  0.00    -0.367 C  
BRANCH  10  11
HETATM   11  C   UNL     1     -12.967  11.045  71.480  1.00  0.00    -0.553 C  
BRANCH  11  12
HETATM   12  C   UNL     1     -11.910  10.345  70.658  1.00  0.00    -0.350 C  
HETATM   13  O   UNL     1     -10.838   9.938  71.080  1.00  0.00    -0.309 OA 
BRANCH  12  14
HETATM   14  O   UNL     1     -12.356  10.218  69.378  1.00  0.00    -0.017 OA 
BRANCH  14  15
HETATM   15  C   UNL     1     -12.032  11.294  68.487  1.00  0.00    -0.218 C  
BRANCH  15  16
HETATM   16  N   UNL     1     -10.782  11.083  67.773  1.00  0.00    -0.210 N  
HETATM   17  C   UNL     1     -10.040  12.240  67.540  1.00  0.00    -0.201 C  
HETATM   18  C   UNL     1      -9.074  12.175  66.390  1.00  0.00    -0.177 C  
HETATM   19  O   UNL     1     -10.224  13.295  68.141  1.00  0.00    -0.230 OA 
HETATM   20  C   UNL     1      -8.251  10.911  66.394  1.00  0.00    -0.163 C  
HETATM   21  C   UNL     1      -9.074   9.694  66.703  1.00  0.00    -0.176 A  
HETATM   22  C   UNL     1      -8.570   8.438  66.331  1.00  0.00    -0.139 A  
HETATM   23  C   UNL     1      -9.237   7.265  66.684  1.00  0.00    -0.193 A  
HETATM   24  C   UNL     1     -10.399   7.341  67.442  1.00  0.00    -0.260 A  
HETATM   25  C   UNL     1     -10.909   8.595  67.803  1.00  0.00    -0.075 A  
HETATM   26  C   UNL     1     -10.276   9.791  67.423  1.00  0.00    -0.230 A  
BRANCH  24  27
HETATM   27  O   UNL     1     -11.142   6.267  67.854  1.00  0.00    -0.332 OA 
BRANCH  27  28
HETATM   28  C   UNL     1     -11.380   6.162  69.260  1.00  0.00    -0.291 C  
BRANCH  28  29
HETATM   29  C   UNL     1     -10.035   6.118  69.988  1.00  0.00    -0.217 C  
BRANCH  29  30
HETATM   30  C   UNL     1      -9.679   4.699  70.456  1.00  0.00    -0.284 C  
BRANCH  30  31
HETATM   31  C   UNL     1      -8.304   4.611  71.149  1.00  0.00    -0.103 C  
BRANCH  31  32
HETATM   32  N   UNL     1      -7.348   3.749  70.444  1.00  0.00    -0.041 NA 
HETATM   33  C   UNL     1      -7.991   2.723  69.597  1.00  0.00    -0.041 C  
HETATM   34  C   UNL     1      -8.599   3.284  68.297  1.00  0.00    -0.094 C  
HETATM   35  N   UNL     1      -7.517   3.849  67.473  1.00  0.00    -0.067 NA 
HETATM   36  C   UNL     1      -6.774   4.919  68.167  1.00  0.00    -0.054 C  
HETATM   37  C   UNL     1      -6.381   4.516  69.624  1.00  0.00    -0.028 C  
BRANCH  35  38
HETATM   38  C   UNL     1      -7.347   3.471  66.144  1.00  0.00    -0.072 A  
HETATM   39  C   UNL     1      -8.313   3.564  65.104  1.00  0.00    -0.097 A  
HETATM   40 CL   UNL     1      -9.961   4.044  65.417  1.00  0.00    -0.195 Cl 
HETATM   41  C   UNL     1      -7.993   3.174  63.780  1.00  0.00    -0.081 A  
HETATM   42  C   UNL     1      -6.743   2.639  63.467  1.00  0.00    -0.031 A  
HETATM   43 CL   UNL     1      -9.106   3.326  62.455  1.00  0.00    -0.088 Cl 
HETATM   44  C   UNL     1      -5.790   2.517  64.461  1.00  0.00    -0.014 A  
HETATM   45  C   UNL     1      -6.086   2.950  65.756  1.00  0.00    -0.024 A  
ENDBRANCH  35  38
ENDBRANCH  31  32
ENDBRANCH  30  31
ENDBRANCH  29  30
ENDBRANCH  28  29
ENDBRANCH  27  28
ENDBRANCH  24  27
ENDBRANCH  15  16
ENDBRANCH  14  15
ENDBRANCH  12  14
ENDBRANCH  11  12
ENDBRANCH  10  11
ENDBRANCH   9  10
ENDBRANCH   8   9
ENDBRANCH   7   8
ENDBRANCH   6   7
ENDBRANCH   5   6
ENDBRANCH   4   5
ENDBRANCH   3   4
ENDBRANCH   2   3
TORSDOF 20
ENDMDL
MODEL      114
REMARK 921   NORMALIZED FREE ENERGY PREDICTED BY IDOCK:   -2.73 KCAL/MOL
REMARK 922        TOTAL FREE ENERGY PREDICTED BY IDOCK:   -9.76 KCAL/MOL
REMARK 923 INTER-LIGAND FREE ENERGY PREDICTED BY IDOCK:   -8.36 KCAL/MOL
REMARK 924 INTRA-LIGAND FREE ENERGY PREDICTED BY IDOCK:   -1.40 KCAL/MOL
REMARK 927      BINDING AFFINITY PREDICTED BY RF-SCORE:    0.00 PKD
ROOT
HETATM    1  C   UNL     1     -11.644  14.746  73.864  1.00  0.00     0.334 C  
HETATM    2  C   UNL     1     -13.030  15.362  73.761  1.00  0.00    -0.546 C  
ENDROOT
BRANCH   2   3
HETATM    3  C   UNL     1     -13.308  15.872  72.348  1.00  0.00    -0.456 C  
BRANCH   3   4
HETATM    4  C   UNL     1     -14.385  15.036  71.657  1.00  0.00    -0.680 C  
BRANCH   4   5
HETATM    5  C   UNL     1     -13.781  13.792  71.006  1.00  0.00     0.095 C  
BRANCH   5   6
HETATM    6  C   UNL     1     -12.254  13.845  71.023  1.00  0.00    -0.421 C  
BRANCH   6   7
HETATM    7  C   UNL     1     -11.677  13.613  69.626  1.00  0.00    -0.383 C  
BRANCH   7   8
HETATM    8  C   UNL     1     -10.594  14.642  69.304  1.00  0.00    -0.236 C  
BRANCH   8   9
HETATM    9  C   UNL     1     -11.058  16.061  69.634  1.00  0.00    -0.331 C  
BRANCH   9  10
HETATM   10  C   UNL     1     -10.384  17.081  68.712  1.00  0.00    -0.336 C  
BRANCH  10  11
HETATM   11  C   UNL     1     -11.050  17.165  67.341  1.00  0.00     0.071 C  
BRANCH  11  12
HETATM   12  C   UNL     1     -10.130  17.694  66.266  1.00  0.00    -0.341 C  
HETATM   13  O   UNL     1     -10.482  18.096  65.167  1.00  0.00    -0.351 OA 
BRANCH  12  14
HETATM   14  O   UNL     1      -8.850  17.674  66.728  1.00  0.00    -0.242 OA 
BRANCH  14  15
HETATM   15  C   UNL     1      -8.057  16.543  66.344  1.00  0.00    -0.327 C  
BRANCH  15  16
HETATM   16  N   UNL     1      -7.130  16.121  67.383  1.00  0.00    -0.159 N  
HETATM   17  C   UNL     1      -6.442  17.159  68.009  1.00  0.00    -0.146 C  
HETATM   18  C   UNL     1      -5.140  16.780  68.659  1.00  0.00    -0.122 C  
HETATM   19  O   UNL     1      -6.789  18.335  67.948  1.00  0.00    -0.206 OA 
HETATM   20  C   UNL     1      -5.252  15.530  69.495  1.00  0.00    -0.099 C  
HETATM   21  C   UNL     1      -6.047  14.454  68.812  1.00  0.00    -0.088 A  
HETATM   22  C   UNL     1      -5.883  13.129  69.245  1.00  0.00    -0.089 A  
HETATM   23  C   UNL     1      -6.669  12.103  68.723  1.00  0.00    -0.088 A  
HETATM   24  C   UNL     1      -7.649  12.402  67.784  1.00  0.00    -0.134 A  
HETATM   25  C   UNL     1      -7.804  13.723  67.342  1.00  0.00    -0.167 A  
HETATM   26  C   UNL     1      -6.995  14.766  67.824  1.00  0.00    -0.174 A  
BRANCH  24  27
HETATM   27  O   UNL     1      -8.485  11.488  67.200  1.00  0.00    -0.146 OA 
BRANCH  27  28
HETATM   28  C   UNL     1      -9.846  11.500  67.640  1.00  0.00    -0.181 C  
BRANCH  28  29
HETATM   29  C   UNL     1     -10.129  10.209  68.409  1.00  0.00    -0.184 C  
BRANCH  29  30
HETATM   30  C   UNL     1     -10.435  10.476  69.891  1.00  0.00    -0.213 C  
BRANCH  30  31
HETATM   31  C   UNL     1     -11.323   9.393  70.536  1.00  0.00    -0.274 C  
BRANCH  31  32
HETATM   32  N   UNL     1     -10.698   8.736  71.692  1.00  0.00    -0.299 NA 
HETATM   33  C   UNL     1     -11.082   7.318  71.844  1.00  0.00    -0.238 C  
HETATM   34  C   UNL     1     -10.412   6.380  70.820  1.00  0.00    -0.222 C  
HETATM   35  N   UNL     1      -8.955   6.416  71.029  1.00  0.00    -0.146 NA 
HETATM   36  C   UNL     1      -8.393   7.774  70.890  1.00  0.00    -0.111 C  
HETATM   37  C   UNL     1      -9.219   8.838  71.679  1.00  0.00    -0.263 C  
BRANCH  35  38
HETATM   38  C   UNL     1      -8.221   5.246  71.202  1.00  0.00    -0.118 A  
HETATM   39  C   UNL     1      -7.244   4.716  70.313  1.00  0.00    -0.050 A  
HETATM   40 CL   UNL     1      -6.945   5.422  68.746  1.00  0.00    -0.058 Cl 
HETATM   41  C   UNL     1      -6.542   3.527  70.632  1.00  0.00    -0.032 A  
HETATM   42  C   UNL     1      -6.823   2.813  71.797  1.00  0.00    -0.026 A  
HETATM   43 CL   UNL     1      -5.294   2.867  69.620  1.00  0.00    -0.011 Cl 
HETATM   44  C   UNL     1      -7.780   3.292  72.671  1.00  0.00    -0.062 A  
HETATM   45  C   UNL     1      -8.437   4.492  72.384  1.00  0.00    -0.110 A  
ENDBRANCH  35  38
ENDBRANCH  31  32
ENDBRANCH  30  31
ENDBRANCH  29  30
ENDBRANCH  28  29
ENDBRANCH  27  28
ENDBRANCH  24  27
ENDBRANCH  15  16
ENDBRANCH  14  15
ENDBRANCH  12  14
ENDBRANCH  11  12
ENDBRANCH  10  11
ENDBRANCH   9  10
ENDBRANCH   8   9
ENDBRANCH   7   8
ENDBRANCH   6   7
ENDBRANCH   5   6
ENDBRANCH   4   5
ENDBRANCH   3   4
ENDBRANCH   2   3
TORSDOF 20
ENDMDL
MODEL      115
REMARK 921   NORMALIZED FREE ENERGY PREDICTED BY IDOCK:   -2.68 KCAL/MOL
REMARK 922        TOTAL FREE ENERGY PREDICTED BY IDOCK:   -9.65 KCAL/MOL
REMARK 923 INTER-LIGAND FREE ENERGY PREDICTED BY IDOCK:   -8.98 KCAL/MOL
REMARK 924 INTRA-LIGAND FREE ENERGY PREDICTED BY IDOCK:   -0.68 KCAL/MOL
REMARK 927      BINDING AFFINITY PREDICTED BY RF-SCORE:    0.00 PKD
ROOT
HETATM    1  C   UNL     1     -13.740  11.191  72.306  1.00  0.00     0.198 C  
HETATM    2  C   UNL     1     -13.415  10.034  71.375  1.00  0.00    -0.355 C  
ENDROOT
BRANCH   2   3
HETATM    3  C   UNL     1     -13.180   8.742  72.155  1.00  0.00    -0.456 C  
BRANCH   3   4
HETATM    4  C   UNL     1     -11.689   8.479  72.359  1.00  0.00    -0.429 C  
BRANCH   4   5
HETATM    5  C   UNL     1     -10.955   8.402  71.020  1.00  0.00    -0.288 C  
BRANCH   5   6
HETATM    6  C   UNL     1     -11.388   7.172  70.223  1.00  0.00    -0.305 C  
BRANCH   6   7
HETATM    7  C   UNL     1     -10.232   6.617  69.390  1.00  0.00    -0.207 C  
BRANCH   7   8
HETATM    8  C   UNL     1     -10.721   6.149  68.020  1.00  0.00    -0.370 C  
BRANCH   8   9
HETATM    9  C   UNL     1      -9.863   5.003  67.484  1.00  0.00    -0.201 C  
BRANCH   9  10
HETATM   10  C   UNL     1      -9.757   5.070  65.958  1.00  0.00    -0.194 C  
BRANCH  10  11
HETATM   11  C   UNL     1      -8.343   5.390  65.481  1.00  0.00    -0.133 C  
BRANCH  11  12
HETATM   12  C   UNL     1      -7.752   6.609  66.151  1.00  0.00    -0.095 C  
HETATM   13  O   UNL     1      -6.742   6.619  66.838  1.00  0.00    -0.053 OA 
BRANCH  12  14
HETATM   14  O   UNL     1      -8.513   7.695  65.847  1.00  0.00    -0.131 OA 
BRANCH  14  15
HETATM   15  C   UNL     1      -7.799   8.885  65.486  1.00  0.00    -0.100 C  
BRANCH  15  16
HETATM   16  N   UNL     1      -8.552   9.747  64.588  1.00  0.00    -0.169 N  
HETATM   17  C   UNL     1      -8.297   9.545  63.232  1.00  0.00    -0.181 C  
HETATM   18  C   UNL     1      -8.601  10.709  62.330  1.00  0.00    -0.294 C  
HETATM   19  O   UNL     1      -7.750   8.539  62.789  1.00  0.00    -0.113 OA 
HETATM   20  C   UNL     1      -9.948  11.325  62.613  1.00  0.00    -0.067 C  
HETATM   21  C   UNL     1     -10.211  11.476  64.083  1.00  0.00    -0.374 A  
HETATM   22  C   UNL     1     -11.189  12.395  64.494  1.00  0.00    -0.371 A  
HETATM   23  C   UNL     1     -11.552  12.504  65.835  1.00  0.00    -0.454 A  
HETATM   24  C   UNL     1     -10.959  11.669  66.774  1.00  0.00    -0.290 A  
HETATM   25  C   UNL     1      -9.973  10.760  66.367  1.00  0.00    -0.264 A  
HETATM   26  C   UNL     1      -9.562  10.662  65.026  1.00  0.00    -0.265 A  
BRANCH  24  27
HETATM   27  O   UNL     1     -11.230  11.675  68.117  1.00  0.00    -0.223 OA 
BRANCH  27  28
HETATM   28  C   UNL     1     -10.268  12.318  68.956  1.00  0.00     0.089 C  
BRANCH  28  29
HETATM   29  C   UNL     1      -8.973  11.503  68.941  1.00  0.00     0.029 C  
BRANCH  29  30
HETATM   30  C   UNL     1      -7.868  12.193  68.128  1.00  0.00    -0.147 C  
BRANCH  30  31
HETATM   31  C   UNL     1      -6.562  12.397  68.923  1.00  0.00    -0.095 C  
BRANCH  31  32
HETATM   32  N   UNL     1      -6.149  13.803  69.020  1.00  0.00    -0.086 NA 
HETATM   33  C   UNL     1      -6.242  14.534  67.739  1.00  0.00    -0.136 C  
HETATM   34  C   UNL     1      -7.686  14.880  67.326  1.00  0.00    -0.197 C  
HETATM   35  N   UNL     1      -8.263  15.784  68.335  1.00  0.00    -0.146 NA 
HETATM   36  C   UNL     1      -8.270  15.195  69.688  1.00  0.00    -0.080 C  
HETATM   37  C   UNL     1      -6.897  14.550  70.059  1.00  0.00    -0.070 C  
BRANCH  35  38
HETATM   38  C   UNL     1      -8.847  16.994  67.972  1.00  0.00    -0.223 A  
HETATM   39  C   UNL     1      -8.174  18.154  67.496  1.00  0.00    -0.236 A  
HETATM   40 CL   UNL     1      -6.432  18.256  67.455  1.00  0.00    -0.189 Cl 
HETATM   41  C   UNL     1      -8.899  19.313  67.126  1.00  0.00    -0.294 A  
HETATM   42  C   UNL     1     -10.286  19.373  67.267  1.00  0.00    -0.554 A  
HETATM   43 CL   UNL     1      -8.141  20.735  66.478  1.00  0.00    -0.007 Cl 
HETATM   44  C   UNL     1     -10.967  18.269  67.745  1.00  0.00    -0.118 A  
HETATM   45  C   UNL     1     -10.258  17.106  68.061  1.00  0.00    -0.332 A  
ENDBRANCH  35  38
ENDBRANCH  31  32
ENDBRANCH  30  31
ENDBRANCH  29  30
ENDBRANCH  28  29
ENDBRANCH  27  28
ENDBRANCH  24  27
ENDBRANCH  15  16
ENDBRANCH  14  15
ENDBRANCH  12  14
ENDBRANCH  11  12
ENDBRANCH  10  11
ENDBRANCH   9  10
ENDBRANCH   8   9
ENDBRANCH   7   8
ENDBRANCH   6   7
ENDBRANCH   5   6
ENDBRANCH   4   5
ENDBRANCH   3   4
ENDBRANCH   2   3
TORSDOF 20
ENDMDL
MODEL      116
REMARK 921   NORMALIZED FREE ENERGY PREDICTED BY IDOCK:   -2.66 KCAL/MOL
REMARK 922        TOTAL FREE ENERGY PREDICTED BY IDOCK:   -9.62 KCAL/MOL
REMARK 923 INTER-LIGAND FREE ENERGY PREDICTED BY IDOCK:   -9.03 KCAL/MOL
REMARK 924 INTRA-LIGAND FREE ENERGY PREDICTED BY IDOCK:   -0.58 KCAL/MOL
REMARK 927      BINDING AFFINITY PREDICTED BY RF-SCORE:    0.00 PKD
ROOT
HETATM    1  C   UNL     1     -10.815  15.152  64.814  1.00  0.00    -0.378 C  
HETATM    2  C   UNL     1     -12.123  14.519  64.365  1.00  0.00    -0.492 C  
ENDROOT
BRANCH   2   3
HETATM    3  C   UNL     1     -12.815  13.797  65.520  1.00  0.00    -0.464 C  
BRANCH   3   4
HETATM    4  C   UNL     1     -12.068  12.521  65.906  1.00  0.00    -0.420 C  
BRANCH   4   5
HETATM    5  C   UNL     1     -10.774  12.378  65.104  1.00  0.00    -0.327 C  
BRANCH   5   6
HETATM    6  C   UNL     1     -10.779  11.097  64.271  1.00  0.00    -0.403 C  
BRANCH   6   7
HETATM    7  C   UNL     1      -9.655  10.153  64.700  1.00  0.00    -0.379 C  
BRANCH   7   8
HETATM    8  C   UNL     1      -9.860   9.677  66.138  1.00  0.00    -0.334 C  
BRANCH   8   9
HETATM    9  C   UNL     1      -8.572   9.095  66.721  1.00  0.00    -0.133 C  
BRANCH   9  10
HETATM   10  C   UNL     1      -8.835   7.735  67.373  1.00  0.00    -0.128 C  
BRANCH  10  11
HETATM   11  C   UNL     1     -10.219   7.648  68.012  1.00  0.00    -0.248 C  
BRANCH  11  12
HETATM   12  C   UNL     1     -10.431   6.375  68.798  1.00  0.00    -0.221 C  
HETATM   13  O   UNL     1     -11.510   5.955  69.188  1.00  0.00    -0.199 OA 
BRANCH  12  14
HETATM   14  O   UNL     1      -9.230   5.762  68.981  1.00  0.00    -0.118 OA 
BRANCH  14  15
HETATM   15  C   UNL     1      -9.235   4.329  68.915  1.00  0.00    -0.145 C  
BRANCH  15  16
HETATM   16  N   UNL     1      -8.215   3.719  69.753  1.00  0.00    -0.053 N  
HETATM   17  C   UNL     1      -7.633   2.569  69.221  1.00  0.00    -0.043 C  
HETATM   18  C   UNL     1      -7.012   1.631  70.219  1.00  0.00    -0.033 C  
HETATM   19  O   UNL     1      -7.710   2.257  68.036  1.00  0.00    -0.055 OA 
HETATM   20  C   UNL     1      -6.145   2.346  71.224  1.00  0.00    -0.018 C  
HETATM   21  C   UNL     1      -6.779   3.608  71.733  1.00  0.00    -0.023 A  
HETATM   22  C   UNL     1      -6.321   4.142  72.948  1.00  0.00    -0.021 A  
HETATM   23  C   UNL     1      -6.796   5.365  73.418  1.00  0.00    -0.083 A  
HETATM   24  C   UNL     1      -7.713   6.080  72.657  1.00  0.00    -0.100 A  
HETATM   25  C   UNL     1      -8.180   5.543  71.451  1.00  0.00    -0.118 A  
HETATM   26  C   UNL     1      -7.746   4.293  70.978  1.00  0.00    -0.066 A  
BRANCH  24  27
HETATM   27  O   UNL     1      -8.251   7.291  73.005  1.00  0.00    -0.105 OA 
BRANCH  27  28
HETATM   28  C   UNL     1      -9.646   7.298  73.319  1.00  0.00    -0.212 C  
BRANCH  28  29
HETATM   29  C   UNL     1     -10.329   8.407  72.516  1.00  0.00    -0.371 C  
BRANCH  29  30
HETATM   30  C   UNL     1     -11.708   7.974  71.994  1.00  0.00    -0.375 C  
BRANCH  30  31
HETATM   31  C   UNL     1     -12.861   8.858  72.511  1.00  0.00    -0.334 C  
BRANCH  31  32
HETATM   32  N   UNL     1     -13.507   9.651  71.458  1.00  0.00    -0.371 NA 
HETATM   33  C   UNL     1     -13.876  11.015  71.889  1.00  0.00     0.377 C  
HETATM   34  C   UNL     1     -12.676  11.973  72.015  1.00  0.00     0.010 C  
HETATM   35  N   UNL     1     -12.059  12.135  70.687  1.00  0.00    -0.331 NA 
HETATM   36  C   UNL     1     -11.606  10.855  70.110  1.00  0.00    -0.338 C  
HETATM   37  C   UNL     1     -12.692   9.738  70.223  1.00  0.00     0.233 C  
BRANCH  35  38
HETATM   38  C   UNL     1     -11.833  13.397  70.145  1.00  0.00    -0.272 A  
HETATM   39  C   UNL     1     -10.924  13.723  69.100  1.00  0.00    -0.208 A  
HETATM   40 CL   UNL     1      -9.813  12.548  68.445  1.00  0.00    -0.223 Cl 
HETATM   41  C   UNL     1     -10.820  15.051  68.617  1.00  0.00    -0.249 A  
HETATM   42  C   UNL     1     -11.564  16.086  69.184  1.00  0.00    -0.337 A  
HETATM   43 CL   UNL     1      -9.777  15.499  67.302  1.00  0.00    -0.218 Cl 
HETATM   44  C   UNL     1     -12.442  15.804  70.213  1.00  0.00    -0.291 A  
HETATM   45  C   UNL     1     -12.585  14.487  70.657  1.00  0.00    -0.416 A  
ENDBRANCH  35  38
ENDBRANCH  31  32
ENDBRANCH  30  31
ENDBRANCH  29  30
ENDBRANCH  28  29
ENDBRANCH  27  28
ENDBRANCH  24  27
ENDBRANCH  15  16
ENDBRANCH  14  15
ENDBRANCH  12  14
ENDBRANCH  11  12
ENDBRANCH  10  11
ENDBRANCH   9  10
ENDBRANCH   8   9
ENDBRANCH   7   8
ENDBRANCH   6   7
ENDBRANCH   5   6
ENDBRANCH   4   5
ENDBRANCH   3   4
ENDBRANCH   2   3
TORSDOF 20
ENDMDL
MODEL      117
REMARK 921   NORMALIZED FREE ENERGY PREDICTED BY IDOCK:   -2.55 KCAL/MOL
REMARK 922        TOTAL FREE ENERGY PREDICTED BY IDOCK:   -9.37 KCAL/MOL
REMARK 923 INTER-LIGAND FREE ENERGY PREDICTED BY IDOCK:   -6.09 KCAL/MOL
REMARK 924 INTRA-LIGAND FREE ENERGY PREDICTED BY IDOCK:   -3.28 KCAL/MOL
REMARK 927      BINDING AFFINITY PREDICTED BY RF-SCORE:    0.00 PKD
ROOT
HETATM    1  C   UNL     1     -11.037  12.299  64.116  1.00  0.00    -0.423 C  
HETATM    2  C   UNL     1     -11.980  13.473  64.327  1.00  0.00    -0.479 C  
ENDROOT
BRANCH   2   3
HETATM    3  C   UNL     1     -11.564  14.311  65.535  1.00  0.00    -0.338 C  
BRANCH   3   4
HETATM    4  C   UNL     1     -11.804  15.800  65.287  1.00  0.00     0.424 C  
BRANCH   4   5
HETATM    5  C   UNL     1     -10.584  16.627  65.692  1.00  0.00    -0.282 C  
BRANCH   5   6
HETATM    6  C   UNL     1     -10.665  17.050  67.159  1.00  0.00    -0.177 C  
BRANCH   6   7
HETATM    7  C   UNL     1      -9.883  16.090  68.056  1.00  0.00    -0.222 C  
BRANCH   7   8
HETATM    8  C   UNL     1     -10.666  15.771  69.328  1.00  0.00    -0.246 C  
BRANCH   8   9
HETATM    9  C   UNL     1     -12.026  15.151  69.005  1.00  0.00    -0.295 C  
BRANCH   9  10
HETATM   10  C   UNL     1     -12.703  14.632  70.277  1.00  0.00    -0.323 C  
BRANCH  10  11
HETATM   11  C   UNL     1     -12.590  13.117  70.426  1.00  0.00    -0.186 C  
BRANCH  11  12
HETATM   12  C   UNL     1     -13.521  12.554  71.474  1.00  0.00     0.066 C  
HETATM   13  O   UNL     1     -14.175  13.213  72.268  1.00  0.00    -0.413 OA 
BRANCH  12  14
HETATM   14  O   UNL     1     -13.533  11.197  71.374  1.00  0.00    -0.137 OA 
BRANCH  14  15
HETATM   15  C   UNL     1     -12.278  10.537  71.591  1.00  0.00    -0.195 C  
BRANCH  15  16
HETATM   16  N   UNL     1     -12.054   9.429  70.675  1.00  0.00    -0.192 N  
HETATM   17  C   UNL     1     -12.693   8.241  71.027  1.00  0.00    -0.011 C  
HETATM   18  C   UNL     1     -12.089   6.984  70.465  1.00  0.00    -0.278 C  
HETATM   19  O   UNL     1     -13.617   8.182  71.834  1.00  0.00    -0.337 OA 
HETATM   20  C   UNL     1     -11.778   7.098  68.994  1.00  0.00     0.577 C  
HETATM   21  C   UNL     1     -11.141   8.412  68.644  1.00  0.00     0.299 A  
HETATM   22  C   UNL     1     -10.418   8.503  67.444  1.00  0.00    -0.351 A  
HETATM   23  C   UNL     1      -9.894   9.721  67.014  1.00  0.00    -0.245 A  
HETATM   24  C   UNL     1     -10.119  10.866  67.768  1.00  0.00    -0.177 A  
HETATM   25  C   UNL     1     -10.830  10.774  68.972  1.00  0.00    -0.278 A  
HETATM   26  C   UNL     1     -11.332   9.550  69.445  1.00  0.00     0.054 A  
BRANCH  24  27
HETATM   27  O   UNL     1      -9.664  12.119  67.452  1.00  0.00    -0.178 OA 
BRANCH  27  28
HETATM   28  C   UNL     1      -8.286  12.219  67.082  1.00  0.00    -0.183 C  
BRANCH  28  29
HETATM   29  C   UNL     1      -7.430  12.214  68.350  1.00  0.00    -0.114 C  
BRANCH  29  30
HETATM   30  C   UNL     1      -6.051  11.582  68.112  1.00  0.00    -0.045 C  
BRANCH  30  31
HETATM   31  C   UNL     1      -5.704  10.474  69.127  1.00  0.00    -0.040 C  
BRANCH  31  32
HETATM   32  N   UNL     1      -6.601  10.444  70.289  1.00  0.00    -0.143 NA 
HETATM   33  C   UNL     1      -7.749   9.529  70.125  1.00  0.00    -0.154 C  
HETATM   34  C   UNL     1      -7.377   8.038  70.246  1.00  0.00    -0.060 C  
HETATM   35  N   UNL     1      -6.868   7.786  71.604  1.00  0.00    -0.056 NA 
HETATM   36  C   UNL     1      -5.690   8.613  71.932  1.00  0.00    -0.052 C  
HETATM   37  C   UNL     1      -5.896  10.113  71.550  1.00  0.00     0.137 C  
BRANCH  35  38
HETATM   38  C   UNL     1      -7.395   6.772  72.397  1.00  0.00    -0.087 A  
HETATM   39  C   UNL     1      -8.692   6.736  72.981  1.00  0.00    -0.119 A  
HETATM   40 CL   UNL     1      -9.777   8.101  72.899  1.00  0.00    -0.345 Cl 
HETATM   41  C   UNL     1      -9.115   5.618  73.741  1.00  0.00    -0.127 A  
HETATM   42  C   UNL     1      -8.259   4.544  73.985  1.00  0.00    -0.103 A  
HETATM   43 CL   UNL     1     -10.707   5.488  74.425  1.00  0.00    -0.117 Cl 
HETATM   44  C   UNL     1      -6.986   4.557  73.446  1.00  0.00    -0.065 A  
HETATM   45  C   UNL     1      -6.584   5.636  72.653  1.00  0.00    -0.067 A  
ENDBRANCH  35  38
ENDBRANCH  31  32
ENDBRANCH  30  31
ENDBRANCH  29  30
ENDBRANCH  28  29
ENDBRANCH  27  28
ENDBRANCH  24  27
ENDBRANCH  15  16
ENDBRANCH  14  15
ENDBRANCH  12  14
ENDBRANCH  11  12
ENDBRANCH  10  11
ENDBRANCH   9  10
ENDBRANCH   8   9
ENDBRANCH   7   8
ENDBRANCH   6   7
ENDBRANCH   5   6
ENDBRANCH   4   5
ENDBRANCH   3   4
ENDBRANCH   2   3
TORSDOF 20
ENDMDL
MODEL      118
REMARK 921   NORMALIZED FREE ENERGY PREDICTED BY IDOCK:   -2.53 KCAL/MOL
REMARK 922        TOTAL FREE ENERGY PREDICTED BY IDOCK:   -9.32 KCAL/MOL
REMARK 923 INTER-LIGAND FREE ENERGY PREDICTED BY IDOCK:   -8.54 KCAL/MOL
REMARK 924 INTRA-LIGAND FREE ENERGY PREDICTED BY IDOCK:   -0.79 KCAL/MOL
REMARK 927      BINDING AFFINITY PREDICTED BY RF-SCORE:    0.00 PKD
ROOT
HETATM    1  C   UNL     1      -8.657   7.137  74.566  1.00  0.00    -0.230 C  
HETATM    2  C   UNL     1      -9.030   5.730  74.130  1.00  0.00    -0.122 C  
ENDROOT
BRANCH   2   3
HETATM    3  C   UNL     1     -10.544   5.526  74.145  1.00  0.00    -0.249 C  
BRANCH   3   4
HETATM    4  C   UNL     1     -11.055   5.061  72.782  1.00  0.00    -0.310 C  
BRANCH   4   5
HETATM    5  C   UNL     1      -9.895   4.769  71.830  1.00  0.00    -0.242 C  
BRANCH   5   6
HETATM    6  C   UNL     1      -9.634   5.951  70.898  1.00  0.00    -0.202 C  
BRANCH   6   7
HETATM    7  C   UNL     1     -10.815   6.922  70.891  1.00  0.00    -0.277 C  
BRANCH   7   8
HETATM    8  C   UNL     1     -10.411   8.279  71.467  1.00  0.00    -0.289 C  
BRANCH   8   9
HETATM    9  C   UNL     1      -9.044   8.721  70.945  1.00  0.00    -0.256 C  
BRANCH   9  10
HETATM   10  C   UNL     1      -8.919   8.446  69.444  1.00  0.00    -0.153 C  
BRANCH  10  11
HETATM   11  C   UNL     1      -9.460   9.590  68.590  1.00  0.00    -0.143 C  
BRANCH  11  12
HETATM   12  C   UNL     1     -10.782   9.267  67.934  1.00  0.00    -0.188 C  
HETATM   13  O   UNL     1     -11.881   9.590  68.359  1.00  0.00     0.612 OA 
BRANCH  12  14
HETATM   14  O   UNL     1     -10.550   8.580  66.783  1.00  0.00    -0.283 OA 
BRANCH  14  15
HETATM   15  C   UNL     1     -10.707   7.156  66.853  1.00  0.00    -0.293 C  
BRANCH  15  16
HETATM   16  N   UNL     1      -9.527   6.433  66.407  1.00  0.00    -0.157 N  
HETATM   17  C   UNL     1      -9.432   5.123  66.876  1.00  0.00    -0.139 C  
HETATM   18  C   UNL     1      -8.046   4.541  66.910  1.00  0.00    -0.102 C  
HETATM   19  O   UNL     1     -10.381   4.502  67.348  1.00  0.00    -0.059 OA 
HETATM   20  C   UNL     1      -7.282   4.790  65.634  1.00  0.00    -0.072 C  
HETATM   21  C   UNL     1      -7.452   6.193  65.130  1.00  0.00    -0.085 A  
HETATM   22  C   UNL     1      -6.498   6.698  64.232  1.00  0.00    -0.038 A  
HETATM   23  C   UNL     1      -6.658   7.954  63.648  1.00  0.00    -0.063 A  
HETATM   24  C   UNL     1      -7.794   8.702  63.935  1.00  0.00    -0.147 A  
HETATM   25  C   UNL     1      -8.740   8.204  64.841  1.00  0.00     0.041 A  
HETATM   26  C   UNL     1      -8.578   6.959  65.473  1.00  0.00    -0.077 A  
BRANCH  24  27
HETATM   27  O   UNL     1      -8.070   9.943  63.425  1.00  0.00    -0.139 OA 
BRANCH  27  28
HETATM   28  C   UNL     1      -8.335  10.975  64.377  1.00  0.00     0.279 C  
BRANCH  28  29
HETATM   29  C   UNL     1      -9.848  11.182  64.475  1.00  0.00    -0.330 C  
BRANCH  29  30
HETATM   30  C   UNL     1     -10.338  12.301  63.543  1.00  0.00    -0.443 C  
BRANCH  30  31
HETATM   31  C   UNL     1     -11.873  12.450  63.522  1.00  0.00    -0.521 C  
BRANCH  31  32
HETATM   32  N   UNL     1     -12.342  13.749  64.021  1.00  0.00    -0.679 NA 
HETATM   33  C   UNL     1     -13.090  13.658  65.292  1.00  0.00    -0.104 C  
HETATM   34  C   UNL     1     -12.197  13.395  66.520  1.00  0.00    -0.356 C  
HETATM   35  N   UNL     1     -11.276  14.532  66.688  1.00  0.00    -0.337 NA 
HETATM   36  C   UNL     1     -10.425  14.754  65.503  1.00  0.00    -0.359 C  
HETATM   37  C   UNL     1     -11.245  14.734  64.174  1.00  0.00     0.179 C  
BRANCH  35  38
HETATM   38  C   UNL     1     -11.169  15.202  67.903  1.00  0.00    -0.329 A  
HETATM   39  C   UNL     1     -11.501  14.690  69.189  1.00  0.00    -0.294 A  
HETATM   40 CL   UNL     1     -12.268  13.136  69.391  1.00  0.00    -0.255 Cl 
HETATM   41  C   UNL     1     -11.307  15.473  70.354  1.00  0.00    -0.342 A  
HETATM   42  C   UNL     1     -10.837  16.784  70.273  1.00  0.00     0.068 A  
HETATM   43 CL   UNL     1     -11.632  14.881  71.954  1.00  0.00    -0.404 Cl 
HETATM   44  C   UNL     1     -10.523  17.316  69.036  1.00  0.00    -0.309 A  
HETATM   45  C   UNL     1     -10.665  16.528  67.891  1.00  0.00    -0.337 A  
ENDBRANCH  35  38
ENDBRANCH  31  32
ENDBRANCH  30  31
ENDBRANCH  29  30
ENDBRANCH  28  29
ENDBRANCH  27  28
ENDBRANCH  24  27
ENDBRANCH  15  16
ENDBRANCH  14  15
ENDBRANCH  12  14
ENDBRANCH  11  12
ENDBRANCH  10  11
ENDBRANCH   9  10
ENDBRANCH   8   9
ENDBRANCH   7   8
ENDBRANCH   6   7
ENDBRANCH   5   6
ENDBRANCH   4   5
ENDBRANCH   3   4
ENDBRANCH   2   3
TORSDOF 20
ENDMDL
MODEL      119
REMARK 921   NORMALIZED FREE ENERGY PREDICTED BY IDOCK:   -2.44 KCAL/MOL
REMARK 922        TOTAL FREE ENERGY PREDICTED BY IDOCK:   -9.14 KCAL/MOL
REMARK 923 INTER-LIGAND FREE ENERGY PREDICTED BY IDOCK:   -6.28 KCAL/MOL
REMARK 924 INTRA-LIGAND FREE ENERGY PREDICTED BY IDOCK:   -2.87 KCAL/MOL
REMARK 927      BINDING AFFINITY PREDICTED BY RF-SCORE:    0.00 PKD
ROOT
HETATM    1  C   UNL     1     -10.736  15.973  70.877  1.00  0.00     0.135 C  
HETATM    2  C   UNL     1     -10.858  16.116  69.369  1.00  0.00    -0.320 C  
ENDROOT
BRANCH   2   3
HETATM    3  C   UNL     1      -9.805  15.279  68.643  1.00  0.00    -0.211 C  
BRANCH   3   4
HETATM    4  C   UNL     1      -8.406  15.544  69.198  1.00  0.00    -0.253 C  
BRANCH   4   5
HETATM    5  C   UNL     1      -7.745  16.723  68.484  1.00  0.00    -0.223 C  
BRANCH   5   6
HETATM    6  C   UNL     1      -7.091  17.677  69.482  1.00  0.00     0.079 C  
BRANCH   6   7
HETATM    7  C   UNL     1      -7.474  19.129  69.193  1.00  0.00    -0.298 C  
BRANCH   7   8
HETATM    8  C   UNL     1      -8.859  19.211  68.553  1.00  0.00    -0.406 C  
BRANCH   8   9
HETATM    9  C   UNL     1      -8.819  19.985  67.234  1.00  0.00    -0.428 C  
BRANCH   9  10
HETATM   10  C   UNL     1      -9.264  19.097  66.069  1.00  0.00    -0.109 C  
BRANCH  10  11
HETATM   11  C   UNL     1     -10.582  18.378  66.347  1.00  0.00    -0.342 C  
BRANCH  11  12
HETATM   12  C   UNL     1     -10.914  17.328  65.313  1.00  0.00     0.091 C  
HETATM   13  O   UNL     1     -11.446  17.540  64.234  1.00  0.00    -0.413 OA 
BRANCH  12  14
HETATM   14  O   UNL     1     -10.504  16.113  65.768  1.00  0.00    -0.341 OA 
BRANCH  14  15
HETATM   15  C   UNL     1     -10.082  15.174  64.769  1.00  0.00     0.066 C  
BRANCH  15  16
HETATM   16  N   UNL     1     -10.759  13.890  64.876  1.00  0.00    -0.386 N  
HETATM   17  C   UNL     1     -11.913  13.772  64.103  1.00  0.00    -0.432 C  
HETATM   18  C   UNL     1     -12.906  12.742  64.567  1.00  0.00    -0.323 C  
HETATM   19  O   UNL     1     -12.184  14.523  63.171  1.00  0.00    -0.121 OA 
HETATM   20  C   UNL     1     -12.258  11.423  64.905  1.00  0.00     0.825 C  
HETATM   21  C   UNL     1     -10.990  11.592  65.689  1.00  0.00    -0.322 A  
HETATM   22  C   UNL     1     -10.514  10.500  66.431  1.00  0.00    -0.258 A  
HETATM   23  C   UNL     1      -9.289  10.562  67.093  1.00  0.00    -0.173 A  
HETATM   24  C   UNL     1      -8.514  11.711  66.991  1.00  0.00    -0.168 A  
HETATM   25  C   UNL     1      -8.994  12.807  66.261  1.00  0.00     0.043 A  
HETATM   26  C   UNL     1     -10.244  12.781  65.620  1.00  0.00    -0.279 A  
BRANCH  24  27
HETATM   27  O   UNL     1      -7.295  11.894  67.588  1.00  0.00    -0.105 OA 
BRANCH  27  28
HETATM   28  C   UNL     1      -7.145  11.353  68.903  1.00  0.00    -0.109 C  
BRANCH  28  29
HETATM   29  C   UNL     1      -5.763  10.707  69.018  1.00  0.00    -0.040 C  
BRANCH  29  30
HETATM   30  C   UNL     1      -5.701   9.677  70.156  1.00  0.00    -0.042 C  
BRANCH  30  31
HETATM   31  C   UNL     1      -6.904   9.758  71.118  1.00  0.00     0.162 C  
BRANCH  31  32
HETATM   32  N   UNL     1      -7.042   8.578  71.982  1.00  0.00    -0.125 NA 
HETATM   33  C   UNL     1      -8.398   7.993  71.970  1.00  0.00    -0.139 C  
HETATM   34  C   UNL     1      -8.727   7.214  70.683  1.00  0.00    -0.148 C  
HETATM   35  N   UNL     1      -7.807   6.069  70.574  1.00  0.00    -0.100 NA 
HETATM   36  C   UNL     1      -6.389   6.480  70.550  1.00  0.00    -0.040 C  
HETATM   37  C   UNL     1      -6.055   7.518  71.667  1.00  0.00    -0.036 C  
BRANCH  35  38
HETATM   38  C   UNL     1      -8.282   4.775  70.382  1.00  0.00    -0.083 A  
HETATM   39  C   UNL     1      -9.057   4.010  71.297  1.00  0.00    -0.118 A  
HETATM   40 CL   UNL     1      -9.392   4.571  72.915  1.00  0.00    -0.141 Cl 
HETATM   41  C   UNL     1      -9.508   2.710  70.957  1.00  0.00    -0.154 A  
HETATM   42  C   UNL     1      -9.162   2.122  69.740  1.00  0.00    -0.181 A  
HETATM   43 CL   UNL     1     -10.511   1.754  72.005  1.00  0.00    -0.165 Cl 
HETATM   44  C   UNL     1      -8.393   2.833  68.838  1.00  0.00    -0.087 A  
HETATM   45  C   UNL     1      -7.991   4.135  69.150  1.00  0.00    -0.060 A  
ENDBRANCH  35  38
ENDBRANCH  31  32
ENDBRANCH  30  31
ENDBRANCH  29  30
ENDBRANCH  28  29
ENDBRANCH  27  28
ENDBRANCH  24  27
ENDBRANCH  15  16
ENDBRANCH  14  15
ENDBRANCH  12  14
ENDBRANCH  11  12
ENDBRANCH  10  11
ENDBRANCH   9  10
ENDBRANCH   8   9
ENDBRANCH   7   8
ENDBRANCH   6   7
ENDBRANCH   5   6
ENDBRANCH   4   5
ENDBRANCH   3   4
ENDBRANCH   2   3
TORSDOF 20
ENDMDL
MODEL      120
REMARK 921   NORMALIZED FREE ENERGY PREDICTED BY IDOCK:   -2.34 KCAL/MOL
REMARK 922        TOTAL FREE ENERGY PREDICTED BY IDOCK:   -8.92 KCAL/MOL
REMARK 923 INTER-LIGAND FREE ENERGY PREDICTED BY IDOCK:   -8.44 KCAL/MOL
REMARK 924 INTRA-LIGAND FREE ENERGY PREDICTED BY IDOCK:   -0.48 KCAL/MOL
REMARK 927      BINDING AFFINITY PREDICTED BY RF-SCORE:    0.00 PKD
ROOT
HETATM    1  C   UNL     1      -7.532   7.685  62.882  1.00  0.00    -0.107 C  
HETATM    2  C   UNL     1      -6.765   7.092  64.053  1.00  0.00    -0.047 C  
ENDROOT
BRANCH   2   3
HETATM    3  C   UNL     1      -7.616   6.080  64.819  1.00  0.00    -0.090 C  
BRANCH   3   4
HETATM    4  C   UNL     1      -6.836   4.797  65.099  1.00  0.00    -0.057 C  
BRANCH   4   5
HETATM    5  C   UNL     1      -6.262   4.800  66.516  1.00  0.00    -0.032 C  
BRANCH   5   6
HETATM    6  C   UNL     1      -7.206   4.104  67.496  1.00  0.00    -0.068 C  
BRANCH   6   7
HETATM    7  C   UNL     1      -6.451   3.589  68.721  1.00  0.00    -0.033 C  
BRANCH   7   8
HETATM    8  C   UNL     1      -7.405   2.920  69.710  1.00  0.00    -0.044 C  
BRANCH   8   9
HETATM    9  C   UNL     1      -7.078   3.313  71.152  1.00  0.00    -0.033 C  
BRANCH   9  10
HETATM   10  C   UNL     1      -8.338   3.282  72.022  1.00  0.00    -0.074 C  
BRANCH  10  11
HETATM   11  C   UNL     1      -8.425   4.473  72.973  1.00  0.00    -0.099 C  
BRANCH  11  12
HETATM   12  C   UNL     1      -9.822   4.713  73.496  1.00  0.00    -0.140 C  
HETATM   13  O   UNL     1     -10.412   3.998  74.292  1.00  0.00    -0.193 OA 
BRANCH  12  14
HETATM   14  O   UNL     1     -10.305   5.866  72.959  1.00  0.00    -0.185 OA 
BRANCH  14  15
HETATM   15  C   UNL     1     -11.186   5.719  71.836  1.00  0.00    -0.227 C  
BRANCH  15  16
HETATM   16  N   UNL     1     -10.790   6.530  70.695  1.00  0.00    -0.249 N  
HETATM   17  C   UNL     1     -10.147   5.831  69.675  1.00  0.00    -0.212 C  
HETATM   18  C   UNL     1      -9.267   6.653  68.775  1.00  0.00    -0.129 C  
HETATM   19  O   UNL     1     -10.182   4.608  69.566  1.00  0.00    -0.203 OA 
HETATM   20  C   UNL     1      -9.934   7.925  68.316  1.00  0.00    -0.204 C  
HETATM   21  C   UNL     1     -10.663   8.622  69.428  1.00  0.00    -0.169 A  
HETATM   22  C   UNL     1     -10.958   9.986  69.280  1.00  0.00    -0.264 A  
HETATM   23  C   UNL     1     -11.723  10.662  70.229  1.00  0.00    -0.433 A  
HETATM   24  C   UNL     1     -12.228   9.966  71.321  1.00  0.00    -0.387 A  
HETATM   25  C   UNL     1     -11.924   8.607  71.476  1.00  0.00    -0.362 A  
HETATM   26  C   UNL     1     -11.120   7.916  70.554  1.00  0.00    -0.256 A  
BRANCH  24  27
HETATM   27  O   UNL     1     -12.994  10.512  72.317  1.00  0.00    -0.370 OA 
BRANCH  27  28
HETATM   28  C   UNL     1     -13.711  11.703  71.985  1.00  0.00     0.137 C  
BRANCH  28  29
HETATM   29  C   UNL     1     -12.970  12.907  72.569  1.00  0.00    -0.064 C  
BRANCH  29  30
HETATM   30  C   UNL     1     -13.472  14.234  71.980  1.00  0.00    -0.499 C  
BRANCH  30  31
HETATM   31  C   UNL     1     -12.395  15.337  71.953  1.00  0.00    -0.354 C  
BRANCH  31  32
HETATM   32  N   UNL     1     -11.240  15.006  71.108  1.00  0.00    -0.269 NA 
HETATM   33  C   UNL     1     -11.453  13.818  70.256  1.00  0.00    -0.019 C  
HETATM   34  C   UNL     1     -12.385  14.074  69.056  1.00  0.00    -0.104 C  
HETATM   35  N   UNL     1     -11.761  15.078  68.178  1.00  0.00    -0.334 NA 
HETATM   36  C   UNL     1     -11.494  16.353  68.872  1.00  0.00    -0.216 C  
HETATM   37  C   UNL     1     -10.807  16.139  70.258  1.00  0.00    -0.297 C  
BRANCH  35  38
HETATM   38  C   UNL     1     -11.589  14.841  66.818  1.00  0.00    -0.324 A  
HETATM   39  C   UNL     1     -11.706  13.590  66.151  1.00  0.00    -0.365 A  
HETATM   40 CL   UNL     1     -11.937  12.098  67.026  1.00  0.00    -0.276 Cl 
HETATM   41  C   UNL     1     -11.539  13.498  64.747  1.00  0.00    -0.349 A  
HETATM   42  C   UNL     1     -11.205  14.617  63.984  1.00  0.00     0.348 A  
HETATM   43 CL   UNL     1     -11.733  12.011  63.869  1.00  0.00    -0.510 Cl 
HETATM   44  C   UNL     1     -11.066  15.843  64.606  1.00  0.00    -0.368 A  
HETATM   45  C   UNL     1     -11.281  15.946  65.983  1.00  0.00     0.090 A  
ENDBRANCH  35  38
ENDBRANCH  31  32
ENDBRANCH  30  31
ENDBRANCH  29  30
ENDBRANCH  28  29
ENDBRANCH  27  28
ENDBRANCH  24  27
ENDBRANCH  15  16
ENDBRANCH  14  15
ENDBRANCH  12  14
ENDBRANCH  11  12
ENDBRANCH  10  11
ENDBRANCH   9  10
ENDBRANCH   8   9
ENDBRANCH   7   8
ENDBRANCH   6   7
ENDBRANCH   5   6
ENDBRANCH   4   5
ENDBRANCH   3   4
ENDBRANCH   2   3
TORSDOF 20
ENDMDL
MODEL      121
REMARK 921   NORMALIZED FREE ENERGY PREDICTED BY IDOCK:   -2.27 KCAL/MOL
REMARK 922        TOTAL FREE ENERGY PREDICTED BY IDOCK:   -8.76 KCAL/MOL
REMARK 923 INTER-LIGAND FREE ENERGY PREDICTED BY IDOCK:   -6.79 KCAL/MOL
REMARK 924 INTRA-LIGAND FREE ENERGY PREDICTED BY IDOCK:   -1.97 KCAL/MOL
REMARK 927      BINDING AFFINITY PREDICTED BY RF-SCORE:    0.00 PKD
ROOT
HETATM    1  C   UNL     1     -10.309  19.863  67.841  1.00  0.00    -0.545 C  
HETATM    2  C   UNL     1      -9.339  19.374  66.778  1.00  0.00    -0.395 C  
ENDROOT
BRANCH   2   3
HETATM    3  C   UNL     1      -8.615  18.105  67.227  1.00  0.00    -0.240 C  
BRANCH   3   4
HETATM    4  C   UNL     1      -9.605  16.995  67.577  1.00  0.00    -0.249 C  
BRANCH   4   5
HETATM    5  C   UNL     1      -9.476  16.585  69.044  1.00  0.00    -0.249 C  
BRANCH   5   6
HETATM    6  C   UNL     1      -9.007  15.137  69.175  1.00  0.00    -0.219 C  
BRANCH   6   7
HETATM    7  C   UNL     1      -7.595  14.960  68.615  1.00  0.00    -0.124 C  
BRANCH   7   8
HETATM    8  C   UNL     1      -7.015  13.603  69.013  1.00  0.00    -0.098 C  
BRANCH   8   9
HETATM    9  C   UNL     1      -7.336  12.532  67.970  1.00  0.00    -0.111 C  
BRANCH   9  10
HETATM   10  C   UNL     1      -8.527  11.679  68.414  1.00  0.00    -0.157 C  
BRANCH  10  11
HETATM   11  C   UNL     1      -9.647  11.649  67.377  1.00  0.00    -0.173 C  
BRANCH  11  12
HETATM   12  C   UNL     1     -10.800  10.757  67.776  1.00  0.00    -0.269 C  
HETATM   13  O   UNL     1     -11.867  11.140  68.232  1.00  0.00    -0.522 OA 
BRANCH  12  14
HETATM   14  O   UNL     1     -10.467   9.462  67.522  1.00  0.00    -0.248 OA 
BRANCH  14  15
HETATM   15  C   UNL     1     -11.026   8.481  68.406  1.00  0.00     0.202 C  
BRANCH  15  16
HETATM   16  N   UNL     1     -10.281   8.346  69.648  1.00  0.00    -0.204 N  
HETATM   17  C   UNL     1     -11.026   8.575  70.804  1.00  0.00    -0.247 C  
HETATM   18  C   UNL     1     -10.237   8.979  72.019  1.00  0.00    -0.270 C  
HETATM   19  O   UNL     1     -12.254   8.570  70.831  1.00  0.00    -0.228 OA 
HETATM   20  C   UNL     1      -9.023   8.112  72.236  1.00  0.00    -0.252 C  
HETATM   21  C   UNL     1      -8.277   7.842  70.962  1.00  0.00    -0.100 A  
HETATM   22  C   UNL     1      -6.937   7.435  71.047  1.00  0.00    -0.059 A  
HETATM   23  C   UNL     1      -6.225   7.068  69.906  1.00  0.00    -0.031 A  
HETATM   24  C   UNL     1      -6.862   7.076  68.671  1.00  0.00    -0.076 A  
HETATM   25  C   UNL     1      -8.196   7.494  68.583  1.00  0.00    -0.129 A  
HETATM   26  C   UNL     1      -8.920   7.908  69.714  1.00  0.00    -0.146 A  
BRANCH  24  27
HETATM   27  O   UNL     1      -6.276   6.735  67.481  1.00  0.00    -0.036 OA 
BRANCH  27  28
HETATM   28  C   UNL     1      -6.933   7.191  66.296  1.00  0.00    -0.065 C  
BRANCH  28  29
HETATM   29  C   UNL     1      -7.682   6.018  65.661  1.00  0.00    -0.094 C  
BRANCH  29  30
HETATM   30  C   UNL     1      -6.764   4.809  65.424  1.00  0.00    -0.049 C  
BRANCH  30  31
HETATM   31  C   UNL     1      -7.512   3.570  64.892  1.00  0.00    -0.073 C  
BRANCH  31  32
HETATM   32  N   UNL     1      -7.526   2.445  65.836  1.00  0.00    -0.066 NA 
HETATM   33  C   UNL     1      -6.480   2.534  66.876  1.00  0.00    -0.035 C  
HETATM   34  C   UNL     1      -6.774   3.584  67.965  1.00  0.00    -0.046 C  
HETATM   35  N   UNL     1      -8.002   3.194  68.678  1.00  0.00    -0.057 NA 
HETATM   36  C   UNL     1      -9.168   3.079  67.781  1.00  0.00    -0.199 C  
HETATM   37  C   UNL     1      -8.843   2.262  66.490  1.00  0.00    -0.125 C  
BRANCH  35  38
HETATM   38  C   UNL     1      -8.030   3.092  70.066  1.00  0.00    -0.042 A  
HETATM   39  C   UNL     1      -8.948   3.729  70.947  1.00  0.00    -0.092 A  
HETATM   40 CL   UNL     1     -10.111   4.898  70.378  1.00  0.00    -0.317 Cl 
HETATM   41  C   UNL     1      -8.884   3.506  72.345  1.00  0.00    -0.088 A  
HETATM   42  C   UNL     1      -7.891   2.701  72.904  1.00  0.00    -0.053 A  
HETATM   43 CL   UNL     1     -10.015   4.203  73.464  1.00  0.00    -0.160 Cl 
HETATM   44  C   UNL     1      -6.974   2.084  72.075  1.00  0.00    -0.026 A  
HETATM   45  C   UNL     1      -7.066   2.260  70.692  1.00  0.00    -0.033 A  
ENDBRANCH  35  38
ENDBRANCH  31  32
ENDBRANCH  30  31
ENDBRANCH  29  30
ENDBRANCH  28  29
ENDBRANCH  27  28
ENDBRANCH  24  27
ENDBRANCH  15  16
ENDBRANCH  14  15
ENDBRANCH  12  14
ENDBRANCH  11  12
ENDBRANCH  10  11
ENDBRANCH   9  10
ENDBRANCH   8   9
ENDBRANCH   7   8
ENDBRANCH   6   7
ENDBRANCH   5   6
ENDBRANCH   4   5
ENDBRANCH   3   4
ENDBRANCH   2   3
TORSDOF 20
ENDMDL
MODEL      122
REMARK 921   NORMALIZED FREE ENERGY PREDICTED BY IDOCK:   -2.12 KCAL/MOL
REMARK 922        TOTAL FREE ENERGY PREDICTED BY IDOCK:   -8.45 KCAL/MOL
REMARK 923 INTER-LIGAND FREE ENERGY PREDICTED BY IDOCK:   -8.95 KCAL/MOL
REMARK 924 INTRA-LIGAND FREE ENERGY PREDICTED BY IDOCK:    0.51 KCAL/MOL
REMARK 927      BINDING AFFINITY PREDICTED BY RF-SCORE:    0.00 PKD
ROOT
HETATM    1  C   UNL     1     -10.171  19.623  67.604  1.00  0.00    -0.567 C  
HETATM    2  C   UNL     1      -8.716  19.771  68.019  1.00  0.00    -0.353 C  
ENDROOT
BRANCH   2   3
HETATM    3  C   UNL     1      -7.851  20.245  66.851  1.00  0.00    -0.351 C  
BRANCH   3   4
HETATM    4  C   UNL     1      -7.515  19.093  65.905  1.00  0.00    -0.263 C  
BRANCH   4   5
HETATM    5  C   UNL     1      -6.696  18.017  66.619  1.00  0.00    -0.236 C  
BRANCH   5   6
HETATM    6  C   UNL     1      -7.500  17.364  67.742  1.00  0.00    -0.195 C  
BRANCH   6   7
HETATM    7  C   UNL     1      -8.575  16.431  67.184  1.00  0.00    -0.204 C  
BRANCH   7   8
HETATM    8  C   UNL     1      -8.574  15.093  67.922  1.00  0.00    -0.154 C  
BRANCH   8   9
HETATM    9  C   UNL     1      -8.312  13.929  66.965  1.00  0.00    -0.113 C  
BRANCH   9  10
HETATM   10  C   UNL     1      -9.537  13.661  66.087  1.00  0.00    -0.226 C  
BRANCH  10  11
HETATM   11  C   UNL     1     -10.778  14.410  66.565  1.00  0.00    -0.306 C  
BRANCH  11  12
HETATM   12  C   UNL     1     -11.667  13.576  67.457  1.00  0.00    -0.367 C  
HETATM   13  O   UNL     1     -12.349  12.630  67.093  1.00  0.00    -0.370 OA 
BRANCH  12  14
HETATM   14  O   UNL     1     -11.566  14.033  68.735  1.00  0.00    -0.286 OA 
BRANCH  14  15
HETATM   15  C   UNL     1     -10.922  13.157  69.670  1.00  0.00     0.180 C  
BRANCH  15  16
HETATM   16  N   UNL     1     -11.864  12.424  70.502  1.00  0.00    -0.193 N  
HETATM   17  C   UNL     1     -12.908  13.190  71.017  1.00  0.00    -0.214 C  
HETATM   18  C   UNL     1     -13.560  12.653  72.261  1.00  0.00    -0.508 C  
HETATM   19  O   UNL     1     -13.221  14.293  70.577  1.00  0.00    -0.243 OA 
HETATM   20  C   UNL     1     -13.873  11.181  72.162  1.00  0.00     0.274 C  
HETATM   21  C   UNL     1     -12.747  10.396  71.552  1.00  0.00    -0.564 A  
HETATM   22  C   UNL     1     -12.700   9.012  71.780  1.00  0.00    -0.431 A  
HETATM   23  C   UNL     1     -11.742   8.215  71.156  1.00  0.00    -0.309 A  
HETATM   24  C   UNL     1     -10.842   8.796  70.271  1.00  0.00    -0.231 A  
HETATM   25  C   UNL     1     -10.880  10.179  70.053  1.00  0.00    -0.361 A  
HETATM   26  C   UNL     1     -11.810  11.007  70.703  1.00  0.00    -0.333 A  
BRANCH  24  27
HETATM   27  O   UNL     1      -9.859   8.123  69.593  1.00  0.00    -0.179 OA 
BRANCH  27  28
HETATM   28  C   UNL     1      -8.708   7.747  70.353  1.00  0.00    -0.139 C  
BRANCH  28  29
HETATM   29  C   UNL     1      -7.495   8.522  69.832  1.00  0.00    -0.063 C  
BRANCH  29  30
HETATM   30  C   UNL     1      -7.576   8.768  68.318  1.00  0.00    -0.096 C  
BRANCH  30  31
HETATM   31  C   UNL     1      -6.966   7.625  67.480  1.00  0.00    -0.081 C  
BRANCH  31  32
HETATM   32  N   UNL     1      -7.663   6.343  67.644  1.00  0.00    -0.101 NA 
HETATM   33  C   UNL     1      -8.846   6.200  66.771  1.00  0.00    -0.122 C  
HETATM   34  C   UNL     1      -8.499   5.937  65.293  1.00  0.00    -0.144 C  
HETATM   35  N   UNL     1      -7.783   4.654  65.195  1.00  0.00    -0.084 NA 
HETATM   36  C   UNL     1      -6.546   4.631  66.001  1.00  0.00    -0.045 C  
HETATM   37  C   UNL     1      -6.772   5.176  67.447  1.00  0.00    -0.055 C  
BRANCH  35  38
HETATM   38  C   UNL     1      -8.201   3.658  64.319  1.00  0.00    -0.090 A  
HETATM   39  C   UNL     1      -9.540   3.373  63.932  1.00  0.00    -0.138 A  
HETATM   40 CL   UNL     1     -10.902   4.178  64.667  1.00  0.00    -0.229 Cl 
HETATM   41  C   UNL     1      -9.822   2.346  62.997  1.00  0.00    -0.097 A  
HETATM   42  C   UNL     1      -8.805   1.550  62.469  1.00  0.00    -0.068 A  
HETATM   43 CL   UNL     1     -11.429   1.995  62.437  1.00  0.00    -0.208 Cl 
HETATM   44  C   UNL     1      -7.496   1.790  62.840  1.00  0.00    -0.045 A  
HETATM   45  C   UNL     1      -7.210   2.836  63.722  1.00  0.00    -0.049 A  
ENDBRANCH  35  38
ENDBRANCH  31  32
ENDBRANCH  30  31
ENDBRANCH  29  30
ENDBRANCH  28  29
ENDBRANCH  27  28
ENDBRANCH  24  27
ENDBRANCH  15  16
ENDBRANCH  14  15
ENDBRANCH  12  14
ENDBRANCH  11  12
ENDBRANCH  10  11
ENDBRANCH   9  10
ENDBRANCH   8   9
ENDBRANCH   7   8
ENDBRANCH   6   7
ENDBRANCH   5   6
ENDBRANCH   4   5
ENDBRANCH   3   4
ENDBRANCH   2   3
TORSDOF 20
ENDMDL
MODEL      123
REMARK 921   NORMALIZED FREE ENERGY PREDICTED BY IDOCK:   -2.09 KCAL/MOL
REMARK 922        TOTAL FREE ENERGY PREDICTED BY IDOCK:   -8.39 KCAL/MOL
REMARK 923 INTER-LIGAND FREE ENERGY PREDICTED BY IDOCK:   -7.92 KCAL/MOL
REMARK 924 INTRA-LIGAND FREE ENERGY PREDICTED BY IDOCK:   -0.47 KCAL/MOL
REMARK 927      BINDING AFFINITY PREDICTED BY RF-SCORE:    0.00 PKD
ROOT
HETATM    1  C   UNL     1     -11.967  12.320  63.662  1.00  0.00    -0.633 C  
HETATM    2  C   UNL     1     -10.463  12.270  63.874  1.00  0.00    -0.458 C  
ENDROOT
BRANCH   2   3
HETATM    3  C   UNL     1      -9.969  10.831  64.017  1.00  0.00    -0.403 C  
BRANCH   3   4
HETATM    4  C   UNL     1      -9.493  10.272  62.676  1.00  0.00    -0.309 C  
BRANCH   4   5
HETATM    5  C   UNL     1      -8.503   9.125  62.880  1.00  0.00    -0.209 C  
BRANCH   5   6
HETATM    6  C   UNL     1      -8.505   8.644  64.330  1.00  0.00    -0.113 C  
BRANCH   6   7
HETATM    7  C   UNL     1      -7.431   7.580  64.562  1.00  0.00    -0.098 C  
BRANCH   7   8
HETATM    8  C   UNL     1      -7.584   6.941  65.942  1.00  0.00    -0.090 C  
BRANCH   8   9
HETATM    9  C   UNL     1      -6.223   6.644  66.573  1.00  0.00    -0.041 C  
BRANCH   9  10
HETATM   10  C   UNL     1      -6.327   6.614  68.100  1.00  0.00    -0.034 C  
BRANCH  10  11
HETATM   11  C   UNL     1      -5.144   7.294  68.783  1.00  0.00    -0.014 C  
BRANCH  11  12
HETATM   12  C   UNL     1      -5.535   8.055  70.029  1.00  0.00    -0.023 C  
HETATM   13  O   UNL     1      -5.223   7.752  71.171  1.00  0.00    -0.026 OA 
BRANCH  12  14
HETATM   14  O   UNL     1      -6.268   9.143  69.672  1.00  0.00    -0.038 OA 
BRANCH  14  15
HETATM   15  C   UNL     1      -7.587   8.881  69.172  1.00  0.00    -0.080 C  
BRANCH  15  16
HETATM   16  N   UNL     1      -8.151  10.005  68.441  1.00  0.00    -0.100 N  
HETATM   17  C   UNL     1      -7.344  10.501  67.418  1.00  0.00    -0.093 C  
HETATM   18  C   UNL     1      -7.602  11.927  67.016  1.00  0.00    -0.134 C  
HETATM   19  O   UNL     1      -6.398   9.880  66.940  1.00  0.00    -0.063 OA 
HETATM   20  C   UNL     1      -9.069  12.220  66.833  1.00  0.00    -0.208 C  
HETATM   21  C   UNL     1      -9.913  11.624  67.923  1.00  0.00    -0.190 A  
HETATM   22  C   UNL     1     -11.197  12.150  68.135  1.00  0.00    -0.320 A  
HETATM   23  C   UNL     1     -12.065  11.571  69.058  1.00  0.00    -0.303 A  
HETATM   24  C   UNL     1     -11.665  10.438  69.756  1.00  0.00    -0.237 A  
HETATM   25  C   UNL     1     -10.379   9.919  69.554  1.00  0.00    -0.248 A  
HETATM   26  C   UNL     1      -9.472  10.512  68.658  1.00  0.00    -0.172 A  
BRANCH  24  27
HETATM   27  O   UNL     1     -12.423   9.775  70.684  1.00  0.00    -0.242 OA 
BRANCH  27  28
HETATM   28  C   UNL     1     -13.581  10.462  71.165  1.00  0.00     0.072 C  
BRANCH  28  29
HETATM   29  C   UNL     1     -13.132  11.650  72.019  1.00  0.00    -0.433 C  
BRANCH  29  30
HETATM   30  C   UNL     1     -14.112  12.829  71.925  1.00  0.00     0.345 C  
BRANCH  30  31
HETATM   31  C   UNL     1     -13.487  14.177  72.340  1.00  0.00    -0.517 C  
BRANCH  31  32
HETATM   32  N   UNL     1     -12.044  14.257  72.079  1.00  0.00    -0.138 NA 
HETATM   33  C   UNL     1     -11.683  13.988  70.672  1.00  0.00    -0.159 C  
HETATM   34  C   UNL     1     -12.024  15.143  69.711  1.00  0.00    -0.334 C  
HETATM   35  N   UNL     1     -11.238  16.327  70.097  1.00  0.00    -0.363 NA 
HETATM   36  C   UNL     1     -11.496  16.753  71.486  1.00  0.00     0.328 C  
HETATM   37  C   UNL     1     -11.459  15.556  72.488  1.00  0.00    -0.335 C  
BRANCH  35  38
HETATM   38  C   UNL     1     -10.455  17.008  69.169  1.00  0.00    -0.323 A  
HETATM   39  C   UNL     1      -9.237  16.557  68.589  1.00  0.00    -0.238 A  
HETATM   40 CL   UNL     1      -8.456  15.086  69.114  1.00  0.00    -0.202 Cl 
HETATM   41  C   UNL     1      -8.558  17.341  67.624  1.00  0.00    -0.217 A  
HETATM   42  C   UNL     1      -9.032  18.600  67.254  1.00  0.00    -0.283 A  
HETATM   43 CL   UNL     1      -7.103  16.815  66.834  1.00  0.00    -0.235 Cl 
HETATM   44  C   UNL     1     -10.203  19.074  67.814  1.00  0.00    -0.481 A  
HETATM   45  C   UNL     1     -10.902  18.280  68.727  1.00  0.00     0.478 A  
ENDBRANCH  35  38
ENDBRANCH  31  32
ENDBRANCH  30  31
ENDBRANCH  29  30
ENDBRANCH  28  29
ENDBRANCH  27  28
ENDBRANCH  24  27
ENDBRANCH  15  16
ENDBRANCH  14  15
ENDBRANCH  12  14
ENDBRANCH  11  12
ENDBRANCH  10  11
ENDBRANCH   9  10
ENDBRANCH   8   9
ENDBRANCH   7   8
ENDBRANCH   6   7
ENDBRANCH   5   6
ENDBRANCH   4   5
ENDBRANCH   3   4
ENDBRANCH   2   3
TORSDOF 20
ENDMDL
MODEL      124
REMARK 921   NORMALIZED FREE ENERGY PREDICTED BY IDOCK:   -2.06 KCAL/MOL
REMARK 922        TOTAL FREE ENERGY PREDICTED BY IDOCK:   -8.32 KCAL/MOL
REMARK 923 INTER-LIGAND FREE ENERGY PREDICTED BY IDOCK:   -8.14 KCAL/MOL
REMARK 924 INTRA-LIGAND FREE ENERGY PREDICTED BY IDOCK:   -0.18 KCAL/MOL
REMARK 927      BINDING AFFINITY PREDICTED BY RF-SCORE:    0.00 PKD
ROOT
HETATM    1  C   UNL     1      -7.284  14.314  67.941  1.00  0.00    -0.166 C  
HETATM    2  C   UNL     1      -7.870  15.602  68.493  1.00  0.00    -0.133 C  
ENDROOT
BRANCH   2   3
HETATM    3  C   UNL     1      -9.397  15.558  68.505  1.00  0.00    -0.197 C  
BRANCH   3   4
HETATM    4  C   UNL     1      -9.969  16.395  69.649  1.00  0.00    -0.087 C  
BRANCH   4   5
HETATM    5  C   UNL     1     -11.495  16.309  69.684  1.00  0.00    -0.213 C  
BRANCH   5   6
HETATM    6  C   UNL     1     -12.003  16.072  71.105  1.00  0.00    -0.443 C  
BRANCH   6   7
HETATM    7  C   UNL     1     -13.340  15.330  71.098  1.00  0.00    -0.568 C  
BRANCH   7   8
HETATM    8  C   UNL     1     -13.634  14.721  72.469  1.00  0.00    -0.571 C  
BRANCH   8   9
HETATM    9  C   UNL     1     -13.904  13.219  72.364  1.00  0.00    -0.630 C  
BRANCH   9  10
HETATM   10  C   UNL     1     -12.726  12.500  71.700  1.00  0.00    -0.297 C  
BRANCH  10  11
HETATM   11  C   UNL     1     -12.873  10.981  71.729  1.00  0.00    -0.496 C  
BRANCH  11  12
HETATM   12  C   UNL     1     -11.892  10.273  70.824  1.00  0.00    -0.365 C  
HETATM   13  O   UNL     1     -10.752   9.954  71.127  1.00  0.00    -0.283 OA 
BRANCH  12  14
HETATM   14  O   UNL     1     -12.491  10.027  69.627  1.00  0.00     0.165 OA 
BRANCH  14  15
HETATM   15  C   UNL     1     -12.357  11.050  68.631  1.00  0.00     0.344 C  
BRANCH  15  16
HETATM   16  N   UNL     1     -11.125  10.939  67.865  1.00  0.00    -0.280 N  
HETATM   17  C   UNL     1     -10.477  12.149  67.622  1.00  0.00    -0.206 C  
HETATM   18  C   UNL     1      -9.556  12.168  66.433  1.00  0.00    -0.243 C  
HETATM   19  O   UNL     1     -10.711  13.180  68.245  1.00  0.00    -0.230 OA 
HETATM   20  C   UNL     1      -8.646  10.967  66.385  1.00  0.00    -0.160 C  
HETATM   21  C   UNL     1      -9.367   9.689  66.707  1.00  0.00    -0.193 A  
HETATM   22  C   UNL     1      -8.790   8.478  66.296  1.00  0.00    -0.187 A  
HETATM   23  C   UNL     1      -9.356   7.256  66.656  1.00  0.00    -0.215 A  
HETATM   24  C   UNL     1     -10.489   7.238  67.461  1.00  0.00    -0.266 A  
HETATM   25  C   UNL     1     -11.073   8.448  67.861  1.00  0.00     0.317 A  
HETATM   26  C   UNL     1     -10.543   9.691  67.475  1.00  0.00    -0.277 A  
BRANCH  24  27
HETATM   27  O   UNL     1     -11.136   6.108  67.885  1.00  0.00    -0.328 OA 
BRANCH  27  28
HETATM   28  C   UNL     1     -11.129   5.864  69.294  1.00  0.00    -0.282 C  
BRANCH  28  29
HETATM   29  C   UNL     1      -9.701   5.530  69.732  1.00  0.00    -0.236 C  
BRANCH  29  30
HETATM   30  C   UNL     1      -9.582   4.092  70.258  1.00  0.00    -0.269 C  
BRANCH  30  31
HETATM   31  C   UNL     1     -10.210   3.898  71.653  1.00  0.00    -0.018 C  
BRANCH  31  32
HETATM   32  N   UNL     1      -9.329   4.309  72.754  1.00  0.00    -0.119 NA 
HETATM   33  C   UNL     1      -7.919   4.483  72.347  1.00  0.00    -0.094 C  
HETATM   34  C   UNL     1      -7.662   5.763  71.529  1.00  0.00    -0.107 C  
HETATM   35  N   UNL     1      -7.974   6.932  72.369  1.00  0.00    -0.096 NA 
HETATM   36  C   UNL     1      -9.370   6.930  72.851  1.00  0.00    -0.135 C  
HETATM   37  C   UNL     1      -9.793   5.543  73.430  1.00  0.00    -0.162 C  
BRANCH  35  38
HETATM   38  C   UNL     1      -7.055   7.962  72.545  1.00  0.00    -0.085 A  
HETATM   39  C   UNL     1      -6.649   8.915  71.569  1.00  0.00    -0.080 A  
HETATM   40 CL   UNL     1      -7.163   8.805  69.905  1.00  0.00    -0.050 Cl 
HETATM   41  C   UNL     1      -5.726   9.939  71.895  1.00  0.00     0.134 A  
HETATM   42  C   UNL     1      -5.149  10.014  73.163  1.00  0.00     0.030 A  
HETATM   43 CL   UNL     1      -5.241  11.168  70.767  1.00  0.00    -0.104 Cl 
HETATM   44  C   UNL     1      -5.509   9.092  74.127  1.00  0.00    -0.125 A  
HETATM   45  C   UNL     1      -6.458   8.112  73.823  1.00  0.00    -0.131 A  
ENDBRANCH  35  38
ENDBRANCH  31  32
ENDBRANCH  30  31
ENDBRANCH  29  30
ENDBRANCH  28  29
ENDBRANCH  27  28
ENDBRANCH  24  27
ENDBRANCH  15  16
ENDBRANCH  14  15
ENDBRANCH  12  14
ENDBRANCH  11  12
ENDBRANCH  10  11
ENDBRANCH   9  10
ENDBRANCH   8   9
ENDBRANCH   7   8
ENDBRANCH   6   7
ENDBRANCH   5   6
ENDBRANCH   4   5
ENDBRANCH   3   4
ENDBRANCH   2   3
TORSDOF 20
ENDMDL
MODEL      125
REMARK 921   NORMALIZED FREE ENERGY PREDICTED BY IDOCK:   -2.04 KCAL/MOL
REMARK 922        TOTAL FREE ENERGY PREDICTED BY IDOCK:   -8.27 KCAL/MOL
REMARK 923 INTER-LIGAND FREE ENERGY PREDICTED BY IDOCK:   -6.59 KCAL/MOL
REMARK 924 INTRA-LIGAND FREE ENERGY PREDICTED BY IDOCK:   -1.67 KCAL/MOL
REMARK 927      BINDING AFFINITY PREDICTED BY RF-SCORE:    0.00 PKD
ROOT
HETATM    1  C   UNL     1      -8.244   9.353  69.839  1.00  0.00    -0.155 C  
HETATM    2  C   UNL     1      -7.073   9.556  70.786  1.00  0.00    -0.106 C  
ENDROOT
BRANCH   2   3
HETATM    3  C   UNL     1      -6.892   8.354  71.712  1.00  0.00    -0.084 C  
BRANCH   3   4
HETATM    4  C   UNL     1      -7.551   7.103  71.134  1.00  0.00    -0.085 C  
BRANCH   4   5
HETATM    5  C   UNL     1      -8.349   6.358  72.204  1.00  0.00    -0.108 C  
BRANCH   5   6
HETATM    6  C   UNL     1      -9.178   7.325  73.049  1.00  0.00    -0.190 C  
BRANCH   6   7
HETATM    7  C   UNL     1     -10.513   6.700  73.454  1.00  0.00    -0.313 C  
BRANCH   7   8
HETATM    8  C   UNL     1     -11.635   7.157  72.523  1.00  0.00    -0.265 C  
BRANCH   8   9
HETATM    9  C   UNL     1     -11.588   6.414  71.187  1.00  0.00    -0.378 C  
BRANCH   9  10
HETATM   10  C   UNL     1     -11.778   7.384  70.018  1.00  0.00     0.052 C  
BRANCH  10  11
HETATM   11  C   UNL     1     -10.558   7.445  69.102  1.00  0.00    -0.213 C  
BRANCH  11  12
HETATM   12  C   UNL     1     -10.714   6.611  67.851  1.00  0.00    -0.274 C  
HETATM   13  O   UNL     1     -11.074   7.029  66.761  1.00  0.00    -0.289 OA 
BRANCH  12  14
HETATM   14  O   UNL     1     -10.364   5.326  68.129  1.00  0.00    -0.169 OA 
BRANCH  14  15
HETATM   15  C   UNL     1     -10.410   4.406  67.029  1.00  0.00     0.145 C  
BRANCH  15  16
HETATM   16  N   UNL     1      -9.126   3.777  66.762  1.00  0.00    -0.146 N  
HETATM   17  C   UNL     1      -8.854   2.651  67.537  1.00  0.00    -0.139 C  
HETATM   18  C   UNL     1      -7.399   2.305  67.698  1.00  0.00    -0.056 C  
HETATM   19  O   UNL     1      -9.714   2.031  68.157  1.00  0.00    -0.161 OA 
HETATM   20  C   UNL     1      -6.647   2.345  66.392  1.00  0.00    -0.038 C  
HETATM   21  C   UNL     1      -7.006   3.542  65.560  1.00  0.00    -0.058 A  
HETATM   22  C   UNL     1      -6.113   3.947  64.556  1.00  0.00    -0.023 A  
HETATM   23  C   UNL     1      -6.439   4.984  63.683  1.00  0.00    -0.026 A  
HETATM   24  C   UNL     1      -7.679   5.603  63.790  1.00  0.00    -0.098 A  
HETATM   25  C   UNL     1      -8.565   5.208  64.801  1.00  0.00    -0.148 A  
HETATM   26  C   UNL     1      -8.241   4.193  65.717  1.00  0.00    -0.109 A  
BRANCH  24  27
HETATM   27  O   UNL     1      -8.118   6.627  62.994  1.00  0.00    -0.108 OA 
BRANCH  27  28
HETATM   28  C   UNL     1      -7.355   7.836  63.035  1.00  0.00    -0.100 C  
BRANCH  28  29
HETATM   29  C   UNL     1      -6.612   7.907  64.370  1.00  0.00    -0.056 C  
BRANCH  29  30
HETATM   30  C   UNL     1      -7.548   8.272  65.532  1.00  0.00    -0.087 C  
BRANCH  30  31
HETATM   31  C   UNL     1      -8.517   9.424  65.196  1.00  0.00    -0.154 C  
BRANCH  31  32
HETATM   32  N   UNL     1      -9.322   9.864  66.343  1.00  0.00    -0.160 NA 
HETATM   33  C   UNL     1      -8.647  10.873  67.185  1.00  0.00    -0.130 C  
HETATM   34  C   UNL     1      -8.597  12.277  66.552  1.00  0.00    -0.038 C  
HETATM   35  N   UNL     1      -9.975  12.768  66.381  1.00  0.00    -0.259 NA 
HETATM   36  C   UNL     1     -10.795  11.879  65.536  1.00  0.00    -0.295 C  
HETATM   37  C   UNL     1     -10.654  10.379  65.945  1.00  0.00    -0.044 C  
BRANCH  35  38
HETATM   38  C   UNL     1     -10.366  14.010  66.874  1.00  0.00    -0.269 A  
HETATM   39  C   UNL     1     -11.317  14.255  67.903  1.00  0.00    -0.297 A  
HETATM   40 CL   UNL     1     -12.271  12.971  68.601  1.00  0.00    -0.164 Cl 
HETATM   41  C   UNL     1     -11.594  15.576  68.335  1.00  0.00    -0.357 A  
HETATM   42  C   UNL     1     -10.986  16.676  67.730  1.00  0.00    -0.234 A  
HETATM   43 CL   UNL     1     -12.696  15.934  69.630  1.00  0.00     0.196 Cl 
HETATM   44  C   UNL     1     -10.072  16.471  66.714  1.00  0.00    -0.290 A  
HETATM   45  C   UNL     1      -9.758  15.167  66.323  1.00  0.00    -0.315 A  
ENDBRANCH  35  38
ENDBRANCH  31  32
ENDBRANCH  30  31
ENDBRANCH  29  30
ENDBRANCH  28  29
ENDBRANCH  27  28
ENDBRANCH  24  27
ENDBRANCH  15  16
ENDBRANCH  14  15
ENDBRANCH  12  14
ENDBRANCH  11  12
ENDBRANCH  10  11
ENDBRANCH   9  10
ENDBRANCH   8   9
ENDBRANCH   7   8
ENDBRANCH   6   7
ENDBRANCH   5   6
ENDBRANCH   4   5
ENDBRANCH   3   4
ENDBRANCH   2   3
TORSDOF 20
ENDMDL
MODEL      126
REMARK 921   NORMALIZED FREE ENERGY PREDICTED BY IDOCK:   -1.95 KCAL/MOL
REMARK 922        TOTAL FREE ENERGY PREDICTED BY IDOCK:   -8.08 KCAL/MOL
REMARK 923 INTER-LIGAND FREE ENERGY PREDICTED BY IDOCK:   -7.59 KCAL/MOL
REMARK 924 INTRA-LIGAND FREE ENERGY PREDICTED BY IDOCK:   -0.49 KCAL/MOL
REMARK 927      BINDING AFFINITY PREDICTED BY RF-SCORE:    0.00 PKD
ROOT
HETATM    1  C   UNL     1      -5.550  10.268  72.384  1.00  0.00     0.433 C  
HETATM    2  C   UNL     1      -6.515   9.101  72.512  1.00  0.00     0.210 C  
ENDROOT
BRANCH   2   3
HETATM    3  C   UNL     1      -7.290   8.875  71.215  1.00  0.00    -0.115 C  
BRANCH   3   4
HETATM    4  C   UNL     1      -7.742   7.421  71.084  1.00  0.00    -0.090 C  
BRANCH   4   5
HETATM    5  C   UNL     1      -7.977   6.792  72.457  1.00  0.00    -0.101 C  
BRANCH   5   6
HETATM    6  C   UNL     1      -7.121   5.539  72.645  1.00  0.00    -0.088 C  
BRANCH   6   7
HETATM    7  C   UNL     1      -6.252   5.274  71.416  1.00  0.00    -0.030 C  
BRANCH   7   8
HETATM    8  C   UNL     1      -6.554   3.900  70.819  1.00  0.00    -0.031 C  
BRANCH   8   9
HETATM    9  C   UNL     1      -6.730   3.978  69.302  1.00  0.00    -0.045 C  
BRANCH   9  10
HETATM   10  C   UNL     1      -8.169   4.354  68.939  1.00  0.00    -0.083 C  
BRANCH  10  11
HETATM   11  C   UNL     1      -8.254   5.198  67.670  1.00  0.00    -0.099 C  
BRANCH  11  12
HETATM   12  C   UNL     1      -8.467   4.372  66.422  1.00  0.00    -0.112 C  
HETATM   13  O   UNL     1      -8.539   3.153  66.384  1.00  0.00    -0.108 OA 
BRANCH  12  14
HETATM   14  O   UNL     1      -8.589   5.206  65.355  1.00  0.00    -0.135 OA 
BRANCH  14  15
HETATM   15  C   UNL     1      -8.400   6.603  65.618  1.00  0.00    -0.144 C  
BRANCH  15  16
HETATM   16  N   UNL     1      -7.479   7.236  64.687  1.00  0.00    -0.083 N  
HETATM   17  C   UNL     1      -6.302   6.527  64.455  1.00  0.00    -0.038 C  
HETATM   18  C   UNL     1      -5.134   7.341  63.970  1.00  0.00    -0.029 C  
HETATM   19  O   UNL     1      -6.161   5.339  64.733  1.00  0.00    -0.028 OA 
HETATM   20  C   UNL     1      -5.509   8.283  62.854  1.00  0.00    -0.068 C  
HETATM   21  C   UNL     1      -6.809   8.988  63.112  1.00  0.00    -0.089 A  
HETATM   22  C   UNL     1      -7.074  10.175  62.412  1.00  0.00    -0.142 A  
HETATM   23  C   UNL     1      -8.306  10.817  62.529  1.00  0.00    -0.249 A  
HETATM   24  C   UNL     1      -9.296  10.255  63.327  1.00  0.00    -0.306 A  
HETATM   25  C   UNL     1      -9.028   9.077  64.037  1.00  0.00     0.059 A  
HETATM   26  C   UNL     1      -7.779   8.436  63.965  1.00  0.00    -0.139 A  
BRANCH  24  27
HETATM   27  O   UNL     1     -10.544  10.784  63.522  1.00  0.00    -0.223 OA 
BRANCH  27  28
HETATM   28  C   UNL     1     -10.597  12.150  63.942  1.00  0.00    -0.415 C  
BRANCH  28  29
HETATM   29  C   UNL     1     -10.939  12.197  65.432  1.00  0.00    -0.346 C  
BRANCH  29  30
HETATM   30  C   UNL     1     -12.271  12.917  65.695  1.00  0.00    -0.519 C  
BRANCH  30  31
HETATM   31  C   UNL     1     -12.303  13.669  67.040  1.00  0.00    -0.232 C  
BRANCH  31  32
HETATM   32  N   UNL     1     -10.969  13.985  67.566  1.00  0.00    -0.273 NA 
HETATM   33  C   UNL     1     -10.069  14.592  66.564  1.00  0.00    -0.279 C  
HETATM   34  C   UNL     1     -10.400  16.062  66.242  1.00  0.00    -0.321 C  
HETATM   35  N   UNL     1     -10.225  16.866  67.463  1.00  0.00    -0.287 NA 
HETATM   36  C   UNL     1     -11.079  16.404  68.575  1.00  0.00    -0.357 C  
HETATM   37  C   UNL     1     -11.016  14.855  68.765  1.00  0.00    -0.253 C  
BRANCH  35  38
HETATM   38  C   UNL     1      -9.429  18.008  67.470  1.00  0.00    -0.262 A  
HETATM   39  C   UNL     1      -8.054  18.083  67.827  1.00  0.00    -0.237 A  
HETATM   40 CL   UNL     1      -7.196  16.713  68.483  1.00  0.00    -0.173 Cl 
HETATM   41  C   UNL     1      -7.352  19.312  67.753  1.00  0.00    -0.254 A  
HETATM   42  C   UNL     1      -7.997  20.491  67.380  1.00  0.00    -0.349 A  
HETATM   43 CL   UNL     1      -5.659  19.454  68.114  1.00  0.00    -0.206 Cl 
HETATM   44  C   UNL     1      -9.337  20.453  67.046  1.00  0.00    -0.511 A  
HETATM   45  C   UNL     1     -10.019  19.234  67.068  1.00  0.00    -0.447 A  
ENDBRANCH  35  38
ENDBRANCH  31  32
ENDBRANCH  30  31
ENDBRANCH  29  30
ENDBRANCH  28  29
ENDBRANCH  27  28
ENDBRANCH  24  27
ENDBRANCH  15  16
ENDBRANCH  14  15
ENDBRANCH  12  14
ENDBRANCH  11  12
ENDBRANCH  10  11
ENDBRANCH   9  10
ENDBRANCH   8   9
ENDBRANCH   7   8
ENDBRANCH   6   7
ENDBRANCH   5   6
ENDBRANCH   4   5
ENDBRANCH   3   4
ENDBRANCH   2   3
TORSDOF 20
ENDMDL
MODEL      127
REMARK 921   NORMALIZED FREE ENERGY PREDICTED BY IDOCK:   -1.95 KCAL/MOL
REMARK 922        TOTAL FREE ENERGY PREDICTED BY IDOCK:   -8.06 KCAL/MOL
REMARK 923 INTER-LIGAND FREE ENERGY PREDICTED BY IDOCK:   -6.05 KCAL/MOL
REMARK 924 INTRA-LIGAND FREE ENERGY PREDICTED BY IDOCK:   -2.01 KCAL/MOL
REMARK 927      BINDING AFFINITY PREDICTED BY RF-SCORE:    0.00 PKD
ROOT
HETATM    1  C   UNL     1      -6.442  17.698  65.679  1.00  0.00    -0.049 C  
HETATM    2  C   UNL     1      -5.876  17.586  67.086  1.00  0.00    -0.164 C  
ENDROOT
BRANCH   2   3
HETATM    3  C   UNL     1      -5.700  16.126  67.500  1.00  0.00    -0.173 C  
BRANCH   3   4
HETATM    4  C   UNL     1      -6.826  15.671  68.428  1.00  0.00    -0.115 C  
BRANCH   4   5
HETATM    5  C   UNL     1      -7.779  16.825  68.741  1.00  0.00    -0.242 C  
BRANCH   5   6
HETATM    6  C   UNL     1      -9.103  16.309  69.306  1.00  0.00    -0.185 C  
BRANCH   6   7
HETATM    7  C   UNL     1     -10.276  17.171  68.839  1.00  0.00    -0.332 C  
BRANCH   7   8
HETATM    8  C   UNL     1     -10.208  17.419  67.333  1.00  0.00    -0.326 C  
BRANCH   8   9
HETATM    9  C   UNL     1     -11.112  16.453  66.567  1.00  0.00     0.171 C  
BRANCH   9  10
HETATM   10  C   UNL     1     -10.663  16.327  65.109  1.00  0.00    -0.350 C  
BRANCH  10  11
HETATM   11  C   UNL     1     -11.230  15.086  64.425  1.00  0.00    -0.173 C  
BRANCH  11  12
HETATM   12  C   UNL     1     -10.292  13.902  64.471  1.00  0.00    -0.232 C  
HETATM   13  O   UNL     1      -9.497  13.663  65.368  1.00  0.00     0.030 OA 
BRANCH  12  14
HETATM   14  O   UNL     1     -10.493  13.134  63.367  1.00  0.00     0.010 OA 
BRANCH  14  15
HETATM   15  C   UNL     1     -11.269  11.943  63.557  1.00  0.00    -0.418 C  
BRANCH  15  16
HETATM   16  N   UNL     1     -11.140  11.390  64.897  1.00  0.00    -0.217 N  
HETATM   17  C   UNL     1     -12.151  11.760  65.782  1.00  0.00     0.477 C  
HETATM   18  C   UNL     1     -11.799  11.686  67.243  1.00  0.00    -0.133 C  
HETATM   19  O   UNL     1     -13.226  12.233  65.424  1.00  0.00     0.247 OA 
HETATM   20  C   UNL     1     -11.110  10.395  67.607  1.00  0.00    -0.361 C  
HETATM   21  C   UNL     1     -10.067   9.999  66.603  1.00  0.00    -0.289 A  
HETATM   22  C   UNL     1      -9.070   9.094  66.999  1.00  0.00    -0.147 A  
HETATM   23  C   UNL     1      -8.138   8.608  66.083  1.00  0.00    -0.108 A  
HETATM   24  C   UNL     1      -8.218   9.002  64.753  1.00  0.00    -0.160 A  
HETATM   25  C   UNL     1      -9.205   9.915  64.359  1.00  0.00    -0.317 A  
HETATM   26  C   UNL     1     -10.128  10.450  65.273  1.00  0.00    -0.300 A  
BRANCH  24  27
HETATM   27  O   UNL     1      -7.368   8.594  63.759  1.00  0.00    -0.095 OA 
BRANCH  27  28
HETATM   28  C   UNL     1      -7.027   7.206  63.745  1.00  0.00    -0.060 C  
BRANCH  28  29
HETATM   29  C   UNL     1      -7.935   6.482  62.749  1.00  0.00    -0.092 C  
BRANCH  29  30
HETATM   30  C   UNL     1      -7.811   4.955  62.862  1.00  0.00    -0.070 C  
BRANCH  30  31
HETATM   31  C   UNL     1      -6.789   4.502  63.924  1.00  0.00    -0.044 C  
BRANCH  31  32
HETATM   32  N   UNL     1      -7.380   3.689  64.994  1.00  0.00    -0.071 NA 
HETATM   33  C   UNL     1      -6.650   3.779  66.276  1.00  0.00    -0.038 C  
HETATM   34  C   UNL     1      -6.871   5.107  67.024  1.00  0.00    -0.060 C  
HETATM   35  N   UNL     1      -8.297   5.220  67.378  1.00  0.00    -0.107 NA 
HETATM   36  C   UNL     1      -9.181   5.169  66.197  1.00  0.00    -0.151 C  
HETATM   37  C   UNL     1      -8.810   4.001  65.230  1.00  0.00    -0.127 C  
BRANCH  35  38
HETATM   38  C   UNL     1      -8.699   5.479  68.684  1.00  0.00    -0.108 A  
HETATM   39  C   UNL     1      -8.184   6.484  69.549  1.00  0.00    -0.126 A  
HETATM   40 CL   UNL     1      -6.808   7.463  69.108  1.00  0.00    -0.059 Cl 
HETATM   41  C   UNL     1      -8.714   6.663  70.851  1.00  0.00    -0.138 A  
HETATM   42  C   UNL     1      -9.717   5.827  71.343  1.00  0.00    -0.203 A  
HETATM   43 CL   UNL     1      -8.172   7.913  71.928  1.00  0.00    -0.127 Cl 
HETATM   44  C   UNL     1     -10.224   4.828  70.534  1.00  0.00    -0.252 A  
HETATM   45  C   UNL     1      -9.739   4.684  69.231  1.00  0.00    -0.266 A  
ENDBRANCH  35  38
ENDBRANCH  31  32
ENDBRANCH  30  31
ENDBRANCH  29  30
ENDBRANCH  28  29
ENDBRANCH  27  28
ENDBRANCH  24  27
ENDBRANCH  15  16
ENDBRANCH  14  15
ENDBRANCH  12  14
ENDBRANCH  11  12
ENDBRANCH  10  11
ENDBRANCH   9  10
ENDBRANCH   8   9
ENDBRANCH   7   8
ENDBRANCH   6   7
ENDBRANCH   5   6
ENDBRANCH   4   5
ENDBRANCH   3   4
ENDBRANCH   2   3
TORSDOF 20
ENDMDL
MODEL      128
REMARK 921   NORMALIZED FREE ENERGY PREDICTED BY IDOCK:   -1.93 KCAL/MOL
REMARK 922        TOTAL FREE ENERGY PREDICTED BY IDOCK:   -8.04 KCAL/MOL
REMARK 923 INTER-LIGAND FREE ENERGY PREDICTED BY IDOCK:   -4.60 KCAL/MOL
REMARK 924 INTRA-LIGAND FREE ENERGY PREDICTED BY IDOCK:   -3.44 KCAL/MOL
REMARK 927      BINDING AFFINITY PREDICTED BY RF-SCORE:    0.00 PKD
ROOT
HETATM    1  C   UNL     1     -12.677  13.994  67.470  1.00  0.00     0.715 C  
HETATM    2  C   UNL     1     -12.112  14.812  68.620  1.00  0.00    -0.223 C  
ENDROOT
BRANCH   2   3
HETATM    3  C   UNL     1     -12.443  14.177  69.970  1.00  0.00    -0.352 C  
BRANCH   3   4
HETATM    4  C   UNL     1     -12.811  12.702  69.815  1.00  0.00     0.704 C  
BRANCH   4   5
HETATM    5  C   UNL     1     -11.733  11.800  70.417  1.00  0.00    -0.253 C  
BRANCH   5   6
HETATM    6  C   UNL     1     -11.319  10.703  69.436  1.00  0.00    -0.348 C  
BRANCH   6   7
HETATM    7  C   UNL     1      -9.847  10.329  69.615  1.00  0.00    -0.230 C  
BRANCH   7   8
HETATM    8  C   UNL     1      -9.605   9.705  70.989  1.00  0.00     0.005 C  
BRANCH   8   9
HETATM    9  C   UNL     1      -8.537   8.612  70.924  1.00  0.00    -0.204 C  
BRANCH   9  10
HETATM   10  C   UNL     1      -8.990   7.364  71.686  1.00  0.00    -0.133 C  
BRANCH  10  11
HETATM   11  C   UNL     1     -10.509   7.261  71.796  1.00  0.00    -0.218 C  
BRANCH  11  12
HETATM   12  C   UNL     1     -11.066   6.004  71.168  1.00  0.00    -0.271 C  
HETATM   13  O   UNL     1     -11.519   5.919  70.037  1.00  0.00    -0.300 OA 
BRANCH  12  14
HETATM   14  O   UNL     1     -10.957   4.979  72.057  1.00  0.00    -0.141 OA 
BRANCH  14  15
HETATM   15  C   UNL     1     -10.121   3.884  71.659  1.00  0.00    -0.097 C  
BRANCH  15  16
HETATM   16  N   UNL     1      -8.790   3.945  72.241  1.00  0.00    -0.104 N  
HETATM   17  C   UNL     1      -8.730   3.632  73.598  1.00  0.00    -0.089 C  
HETATM   18  C   UNL     1      -7.549   4.187  74.345  1.00  0.00    -0.076 C  
HETATM   19  O   UNL     1      -9.627   3.046  74.198  1.00  0.00    -0.087 OA 
HETATM   20  C   UNL     1      -6.248   3.975  73.611  1.00  0.00    -0.031 C  
HETATM   21  C   UNL     1      -6.365   4.268  72.143  1.00  0.00    -0.021 A  
HETATM   22  C   UNL     1      -5.190   4.534  71.422  1.00  0.00    -0.004 A  
HETATM   23  C   UNL     1      -5.223   4.708  70.039  1.00  0.00     0.000 A  
HETATM   24  C   UNL     1      -6.430   4.586  69.363  1.00  0.00    -0.036 A  
HETATM   25  C   UNL     1      -7.605   4.334  70.084  1.00  0.00    -0.046 A  
HETATM   26  C   UNL     1      -7.602   4.196  71.482  1.00  0.00    -0.064 A  
BRANCH  24  27
HETATM   27  O   UNL     1      -6.594   4.731  68.010  1.00  0.00    -0.044 OA 
BRANCH  27  28
HETATM   28  C   UNL     1      -7.301   3.684  67.341  1.00  0.00    -0.066 C  
BRANCH  28  29
HETATM   29  C   UNL     1      -7.380   4.015  65.849  1.00  0.00    -0.076 C  
BRANCH  29  30
HETATM   30  C   UNL     1      -8.685   4.741  65.489  1.00  0.00    -0.135 C  
BRANCH  30  31
HETATM   31  C   UNL     1      -8.484   6.238  65.179  1.00  0.00    -0.084 C  
BRANCH  31  32
HETATM   32  N   UNL     1      -8.379   7.076  66.381  1.00  0.00    -0.119 NA 
HETATM   33  C   UNL     1      -7.358   8.138  66.272  1.00  0.00    -0.078 C  
HETATM   34  C   UNL     1      -7.778   9.312  65.367  1.00  0.00    -0.099 C  
HETATM   35  N   UNL     1      -8.960   9.965  65.956  1.00  0.00    -0.144 NA 
HETATM   36  C   UNL     1     -10.098   9.039  66.117  1.00  0.00    -0.172 C  
HETATM   37  C   UNL     1      -9.672   7.686  66.770  1.00  0.00    -0.222 C  
BRANCH  35  38
HETATM   38  C   UNL     1      -8.987  11.336  66.189  1.00  0.00    -0.202 A  
HETATM   39  C   UNL     1      -8.184  12.058  67.115  1.00  0.00    -0.181 A  
HETATM   40 CL   UNL     1      -7.122  11.249  68.239  1.00  0.00    -0.070 Cl 
HETATM   41  C   UNL     1      -8.290  13.466  67.225  1.00  0.00    -0.176 A  
HETATM   42  C   UNL     1      -9.220  14.181  66.470  1.00  0.00    -0.247 A  
HETATM   43 CL   UNL     1      -7.292  14.409  68.289  1.00  0.00    -0.111 Cl 
HETATM   44  C   UNL     1     -10.029  13.506  65.575  1.00  0.00    -0.238 A  
HETATM   45  C   UNL     1      -9.889  12.124  65.427  1.00  0.00    -0.231 A  
ENDBRANCH  35  38
ENDBRANCH  31  32
ENDBRANCH  30  31
ENDBRANCH  29  30
ENDBRANCH  28  29
ENDBRANCH  27  28
ENDBRANCH  24  27
ENDBRANCH  15  16
ENDBRANCH  14  15
ENDBRANCH  12  14
ENDBRANCH  11  12
ENDBRANCH  10  11
ENDBRANCH   9  10
ENDBRANCH   8   9
ENDBRANCH   7   8
ENDBRANCH   6   7
ENDBRANCH   5   6
ENDBRANCH   4   5
ENDBRANCH   3   4
ENDBRANCH   2   3
TORSDOF 20
ENDMDL
MODEL      129
REMARK 921   NORMALIZED FREE ENERGY PREDICTED BY IDOCK:   -1.92 KCAL/MOL
REMARK 922        TOTAL FREE ENERGY PREDICTED BY IDOCK:   -8.02 KCAL/MOL
REMARK 923 INTER-LIGAND FREE ENERGY PREDICTED BY IDOCK:   -6.95 KCAL/MOL
REMARK 924 INTRA-LIGAND FREE ENERGY PREDICTED BY IDOCK:   -1.07 KCAL/MOL
REMARK 927      BINDING AFFINITY PREDICTED BY RF-SCORE:    0.00 PKD
ROOT
HETATM    1  C   UNL     1     -12.911  11.698  72.147  1.00  0.00    -0.073 C  
HETATM    2  C   UNL     1     -13.517  10.642  71.237  1.00  0.00    -0.075 C  
ENDROOT
BRANCH   2   3
HETATM    3  C   UNL     1     -13.974   9.419  72.031  1.00  0.00    -0.334 C  
BRANCH   3   4
HETATM    4  C   UNL     1     -12.818   8.804  72.820  1.00  0.00    -0.160 C  
BRANCH   4   5
HETATM    5  C   UNL     1     -11.687   8.368  71.888  1.00  0.00    -0.398 C  
BRANCH   5   6
HETATM    6  C   UNL     1     -11.840   6.902  71.483  1.00  0.00    -0.366 C  
BRANCH   6   7
HETATM    7  C   UNL     1     -10.524   6.142  71.650  1.00  0.00    -0.267 C  
BRANCH   7   8
HETATM    8  C   UNL     1     -10.528   4.856  70.824  1.00  0.00    -0.166 C  
BRANCH   8   9
HETATM    9  C   UNL     1      -9.281   4.014  71.099  1.00  0.00    -0.196 C  
BRANCH   9  10
HETATM   10  C   UNL     1      -8.555   3.675  69.795  1.00  0.00    -0.112 C  
BRANCH  10  11
HETATM   11  C   UNL     1      -7.142   4.251  69.742  1.00  0.00    -0.049 C  
BRANCH  11  12
HETATM   12  C   UNL     1      -7.091   5.726  70.066  1.00  0.00    -0.067 C  
HETATM   13  O   UNL     1      -6.671   6.208  71.108  1.00  0.00    -0.054 OA 
BRANCH  12  14
HETATM   14  O   UNL     1      -7.564   6.431  69.003  1.00  0.00    -0.095 OA 
BRANCH  14  15
HETATM   15  C   UNL     1      -6.653   7.365  68.407  1.00  0.00    -0.046 C  
BRANCH  15  16
HETATM   16  N   UNL     1      -6.856   7.522  66.975  1.00  0.00    -0.069 N  
HETATM   17  C   UNL     1      -6.155   6.615  66.183  1.00  0.00    -0.033 C  
HETATM   18  C   UNL     1      -5.895   7.050  64.767  1.00  0.00    -0.036 C  
HETATM   19  O   UNL     1      -5.666   5.574  66.614  1.00  0.00    -0.016 OA 
HETATM   20  C   UNL     1      -7.122   7.622  64.102  1.00  0.00    -0.068 C  
HETATM   21  C   UNL     1      -7.882   8.550  65.004  1.00  0.00    -0.112 A  
HETATM   22  C   UNL     1      -8.767   9.470  64.421  1.00  0.00    -0.235 A  
HETATM   23  C   UNL     1      -9.578  10.285  65.210  1.00  0.00    -0.324 A  
HETATM   24  C   UNL     1      -9.530  10.161  66.593  1.00  0.00    -0.170 A  
HETATM   25  C   UNL     1      -8.637   9.253  67.177  1.00  0.00    -0.130 A  
HETATM   26  C   UNL     1      -7.782   8.451  66.402  1.00  0.00    -0.094 A  
BRANCH  24  27
HETATM   27  O   UNL     1     -10.275  10.898  67.476  1.00  0.00    -0.179 OA 
BRANCH  27  28
HETATM   28  C   UNL     1      -9.717  12.147  67.890  1.00  0.00    -0.200 C  
BRANCH  28  29
HETATM   29  C   UNL     1      -8.407  11.881  68.634  1.00  0.00    -0.058 C  
BRANCH  29  30
HETATM   30  C   UNL     1      -7.319  12.902  68.269  1.00  0.00    -0.118 C  
BRANCH  30  31
HETATM   31  C   UNL     1      -6.611  13.507  69.499  1.00  0.00    -0.054 C  
BRANCH  31  32
HETATM   32  N   UNL     1      -7.232  14.748  69.979  1.00  0.00    -0.068 NA 
HETATM   33  C   UNL     1      -6.314  15.905  69.978  1.00  0.00    -0.090 C  
HETATM   34  C   UNL     1      -6.030  16.472  68.574  1.00  0.00    -0.127 C  
HETATM   35  N   UNL     1      -7.291  16.972  68.001  1.00  0.00    -0.175 NA 
HETATM   36  C   UNL     1      -8.328  15.926  67.907  1.00  0.00    -0.153 C  
HETATM   37  C   UNL     1      -8.459  15.104  69.228  1.00  0.00    -0.209 C  
BRANCH  35  38
HETATM   38  C   UNL     1      -7.393  18.266  67.497  1.00  0.00    -0.210 A  
HETATM   39  C   UNL     1      -6.632  18.826  66.434  1.00  0.00    -0.198 A  
HETATM   40 CL   UNL     1      -5.303  17.966  65.700  1.00  0.00    -0.214 Cl 
HETATM   41  C   UNL     1      -6.866  20.153  65.995  1.00  0.00    -0.256 A  
HETATM   42  C   UNL     1      -7.809  20.966  66.624  1.00  0.00     0.050 A  
HETATM   43 CL   UNL     1      -6.014  20.871  64.662  1.00  0.00    -0.303 Cl 
HETATM   44  C   UNL     1      -8.551  20.456  67.673  1.00  0.00    -0.302 A  
HETATM   45  C   UNL     1      -8.359  19.131  68.073  1.00  0.00    -0.340 A  
ENDBRANCH  35  38
ENDBRANCH  31  32
ENDBRANCH  30  31
ENDBRANCH  29  30
ENDBRANCH  28  29
ENDBRANCH  27  28
ENDBRANCH  24  27
ENDBRANCH  15  16
ENDBRANCH  14  15
ENDBRANCH  12  14
ENDBRANCH  11  12
ENDBRANCH  10  11
ENDBRANCH   9  10
ENDBRANCH   8   9
ENDBRANCH   7   8
ENDBRANCH   6   7
ENDBRANCH   5   6
ENDBRANCH   4   5
ENDBRANCH   3   4
ENDBRANCH   2   3
TORSDOF 20
ENDMDL
MODEL      130
REMARK 921   NORMALIZED FREE ENERGY PREDICTED BY IDOCK:   -1.70 KCAL/MOL
REMARK 922        TOTAL FREE ENERGY PREDICTED BY IDOCK:   -7.54 KCAL/MOL
REMARK 923 INTER-LIGAND FREE ENERGY PREDICTED BY IDOCK:   -7.84 KCAL/MOL
REMARK 924 INTRA-LIGAND FREE ENERGY PREDICTED BY IDOCK:    0.30 KCAL/MOL
REMARK 927      BINDING AFFINITY PREDICTED BY RF-SCORE:    0.00 PKD
ROOT
HETATM    1  C   UNL     1     -11.433  14.493  73.525  1.00  0.00     0.768 C  
HETATM    2  C   UNL     1     -12.800  15.132  73.711  1.00  0.00    -0.565 C  
ENDROOT
BRANCH   2   3
HETATM    3  C   UNL     1     -13.212  15.931  72.475  1.00  0.00    -0.521 C  
BRANCH   3   4
HETATM    4  C   UNL     1     -14.390  15.274  71.756  1.00  0.00    -0.678 C  
BRANCH   4   5
HETATM    5  C   UNL     1     -13.916  14.140  70.847  1.00  0.00     0.231 C  
BRANCH   5   6
HETATM    6  C   UNL     1     -12.472  14.359  70.397  1.00  0.00    -0.420 C  
BRANCH   6   7
HETATM    7  C   UNL     1     -11.889  13.092  69.771  1.00  0.00    -0.386 C  
BRANCH   7   8
HETATM    8  C   UNL     1     -11.483  13.338  68.318  1.00  0.00    -0.351 C  
BRANCH   8   9
HETATM    9  C   UNL     1     -12.533  14.170  67.580  1.00  0.00     0.100 C  
BRANCH   9  10
HETATM   10  C   UNL     1     -12.266  14.167  66.072  1.00  0.00    -0.464 C  
BRANCH  10  11
HETATM   11  C   UNL     1     -12.387  12.775  65.456  1.00  0.00    -0.495 C  
BRANCH  11  12
HETATM   12  C   UNL     1     -11.225  12.422  64.557  1.00  0.00    -0.323 C  
HETATM   13  O   UNL     1     -11.317  11.922  63.446  1.00  0.00    -0.404 OA 
BRANCH  12  14
HETATM   14  O   UNL     1     -10.064  12.774  65.173  1.00  0.00    -0.278 OA 
BRANCH  14  15
HETATM   15  C   UNL     1      -9.177  11.698  65.511  1.00  0.00    -0.099 C  
BRANCH  15  16
HETATM   16  N   UNL     1      -8.458  11.925  66.755  1.00  0.00    -0.180 N  
HETATM   17  C   UNL     1      -8.162  13.261  67.024  1.00  0.00    -0.045 C  
HETATM   18  C   UNL     1      -7.003  13.498  67.953  1.00  0.00    -0.144 C  
HETATM   19  O   UNL     1      -8.714  14.203  66.462  1.00  0.00    -0.122 OA 
HETATM   20  C   UNL     1      -7.058  12.625  69.181  1.00  0.00     0.028 C  
HETATM   21  C   UNL     1      -7.434  11.208  68.860  1.00  0.00    -0.125 A  
HETATM   22  C   UNL     1      -7.115  10.207  69.791  1.00  0.00    -0.127 A  
HETATM   23  C   UNL     1      -7.531   8.890  69.598  1.00  0.00    -0.071 A  
HETATM   24  C   UNL     1      -8.299   8.572  68.485  1.00  0.00    -0.123 A  
HETATM   25  C   UNL     1      -8.607   9.568  67.549  1.00  0.00    -0.126 A  
HETATM   26  C   UNL     1      -8.163  10.892  67.701  1.00  0.00    -0.116 A  
BRANCH  24  27
HETATM   27  O   UNL     1      -8.772   7.322  68.185  1.00  0.00    -0.128 OA 
BRANCH  27  28
HETATM   28  C   UNL     1     -10.179   7.212  67.956  1.00  0.00    -0.185 C  
BRANCH  28  29
HETATM   29  C   UNL     1     -10.899   7.181  69.305  1.00  0.00    -0.204 C  
BRANCH  29  30
HETATM   30  C   UNL     1     -10.945   8.567  69.966  1.00  0.00    -0.197 C  
BRANCH  30  31
HETATM   31  C   UNL     1     -12.186   8.777  70.858  1.00  0.00    -0.116 C  
BRANCH  31  32
HETATM   32  N   UNL     1     -12.001   8.307  72.237  1.00  0.00    -0.364 NA 
HETATM   33  C   UNL     1     -12.456   6.918  72.452  1.00  0.00     0.077 C  
HETATM   34  C   UNL     1     -11.511   5.856  71.856  1.00  0.00    -0.225 C  
HETATM   35  N   UNL     1     -10.206   5.950  72.533  1.00  0.00    -0.183 NA 
HETATM   36  C   UNL     1      -9.591   7.285  72.398  1.00  0.00    -0.150 C  
HETATM   37  C   UNL     1     -10.601   8.435  72.704  1.00  0.00    -0.242 C  
BRANCH  35  38
HETATM   38  C   UNL     1      -9.607   4.832  73.105  1.00  0.00    -0.133 A  
HETATM   39  C   UNL     1      -8.231   4.475  73.035  1.00  0.00    -0.099 A  
HETATM   40 CL   UNL     1      -7.100   5.357  72.041  1.00  0.00    -0.082 Cl 
HETATM   41  C   UNL     1      -7.746   3.322  73.699  1.00  0.00    -0.065 A  
HETATM   42  C   UNL     1      -8.608   2.474  74.396  1.00  0.00    -0.070 A  
HETATM   43 CL   UNL     1      -6.069   2.870  73.704  1.00  0.00    -0.011 Cl 
HETATM   44  C   UNL     1      -9.953   2.783  74.467  1.00  0.00    -0.164 A  
HETATM   45  C   UNL     1     -10.425   3.949  73.856  1.00  0.00    -0.267 A  
ENDBRANCH  35  38
ENDBRANCH  31  32
ENDBRANCH  30  31
ENDBRANCH  29  30
ENDBRANCH  28  29
ENDBRANCH  27  28
ENDBRANCH  24  27
ENDBRANCH  15  16
ENDBRANCH  14  15
ENDBRANCH  12  14
ENDBRANCH  11  12
ENDBRANCH  10  11
ENDBRANCH   9  10
ENDBRANCH   8   9
ENDBRANCH   7   8
ENDBRANCH   6   7
ENDBRANCH   5   6
ENDBRANCH   4   5
ENDBRANCH   3   4
ENDBRANCH   2   3
TORSDOF 20
ENDMDL
MODEL      131
REMARK 921   NORMALIZED FREE ENERGY PREDICTED BY IDOCK:   -1.56 KCAL/MOL
REMARK 922        TOTAL FREE ENERGY PREDICTED BY IDOCK:   -7.23 KCAL/MOL
REMARK 923 INTER-LIGAND FREE ENERGY PREDICTED BY IDOCK:   -6.04 KCAL/MOL
REMARK 924 INTRA-LIGAND FREE ENERGY PREDICTED BY IDOCK:   -1.19 KCAL/MOL
REMARK 927      BINDING AFFINITY PREDICTED BY RF-SCORE:    0.00 PKD
ROOT
HETATM    1  C   UNL     1      -9.958  11.434  62.929  1.00  0.00    -0.278 C  
HETATM    2  C   UNL     1     -10.867  12.139  63.921  1.00  0.00    -0.461 C  
ENDROOT
BRANCH   2   3
HETATM    3  C   UNL     1     -10.064  12.991  64.903  1.00  0.00    -0.233 C  
BRANCH   3   4
HETATM    4  C   UNL     1     -10.820  14.265  65.280  1.00  0.00    -0.363 C  
BRANCH   4   5
HETATM    5  C   UNL     1      -9.865  15.331  65.819  1.00  0.00    -0.395 C  
BRANCH   5   6
HETATM    6  C   UNL     1     -10.429  15.993  67.076  1.00  0.00    -0.307 C  
BRANCH   6   7
HETATM    7  C   UNL     1     -10.147  15.150  68.320  1.00  0.00    -0.223 C  
BRANCH   7   8
HETATM    8  C   UNL     1     -11.445  14.791  69.043  1.00  0.00    -0.316 C  
BRANCH   8   9
HETATM    9  C   UNL     1     -12.141  13.602  68.379  1.00  0.00    -0.312 C  
BRANCH   9  10
HETATM   10  C   UNL     1     -12.783  12.692  69.430  1.00  0.00     0.745 C  
BRANCH  10  11
HETATM   11  C   UNL     1     -11.817  11.638  69.965  1.00  0.00    -0.435 C  
BRANCH  11  12
HETATM   12  C   UNL     1     -12.473  10.658  70.909  1.00  0.00    -0.397 C  
HETATM   13  O   UNL     1     -13.531  10.837  71.493  1.00  0.00    -0.259 OA 
BRANCH  12  14
HETATM   14  O   UNL     1     -11.708   9.535  70.985  1.00  0.00    -0.295 OA 
BRANCH  14  15
HETATM   15  C   UNL     1     -10.317   9.696  70.672  1.00  0.00    -0.297 C  
BRANCH  15  16
HETATM   16  N   UNL     1      -9.998   9.325  69.302  1.00  0.00    -0.174 N  
HETATM   17  C   UNL     1     -10.699   8.223  68.816  1.00  0.00    -0.042 C  
HETATM   18  C   UNL     1     -10.052   7.488  67.675  1.00  0.00    -0.243 C  
HETATM   19  O   UNL     1     -11.721   7.785  69.339  1.00  0.00     0.475 OA 
HETATM   20  C   UNL     1      -9.550   8.417  66.598  1.00  0.00    -0.294 C  
HETATM   21  C   UNL     1      -8.849   9.619  67.160  1.00  0.00    -0.141 A  
HETATM   22  C   UNL     1      -7.975  10.331  66.324  1.00  0.00    -0.124 A  
HETATM   23  C   UNL     1      -7.376  11.515  66.754  1.00  0.00    -0.111 A  
HETATM   24  C   UNL     1      -7.676  12.012  68.017  1.00  0.00    -0.132 A  
HETATM   25  C   UNL     1      -8.538  11.295  68.857  1.00  0.00    -0.056 A  
HETATM   26  C   UNL     1      -9.120  10.079  68.459  1.00  0.00    -0.127 A  
BRANCH  24  27
HETATM   27  O   UNL     1      -7.159  13.162  68.554  1.00  0.00    -0.093 OA 
BRANCH  27  28
HETATM   28  C   UNL     1      -5.860  13.059  69.143  1.00  0.00    -0.081 C  
BRANCH  28  29
HETATM   29  C   UNL     1      -6.015  12.744  70.632  1.00  0.00    -0.005 C  
BRANCH  29  30
HETATM   30  C   UNL     1      -5.158  11.543  71.059  1.00  0.00    -0.125 C  
BRANCH  30  31
HETATM   31  C   UNL     1      -5.536  10.235  70.335  1.00  0.00    -0.058 C  
BRANCH  31  32
HETATM   32  N   UNL     1      -6.434   9.374  71.115  1.00  0.00    -0.158 NA 
HETATM   33  C   UNL     1      -7.317   8.533  70.280  1.00  0.00    -0.052 C  
HETATM   34  C   UNL     1      -6.596   7.347  69.612  1.00  0.00    -0.040 C  
HETATM   35  N   UNL     1      -6.082   6.452  70.662  1.00  0.00    -0.033 NA 
HETATM   36  C   UNL     1      -5.154   7.133  71.586  1.00  0.00    -0.027 C  
HETATM   37  C   UNL     1      -5.709   8.508  72.075  1.00  0.00    -0.050 C  
BRANCH  35  38
HETATM   38  C   UNL     1      -6.370   5.090  70.656  1.00  0.00    -0.019 A  
HETATM   39  C   UNL     1      -7.661   4.494  70.621  1.00  0.00    -0.053 A  
HETATM   40 CL   UNL     1      -9.119   5.446  70.745  1.00  0.00    -0.159 Cl 
HETATM   41  C   UNL     1      -7.809   3.086  70.581  1.00  0.00    -0.043 A  
HETATM   42  C   UNL     1      -6.700   2.241  70.629  1.00  0.00    -0.032 A  
HETATM   43 CL   UNL     1      -9.355   2.301  70.472  1.00  0.00    -0.196 Cl 
HETATM   44  C   UNL     1      -5.433   2.790  70.683  1.00  0.00    -0.012 A  
HETATM   45  C   UNL     1      -5.282   4.180  70.669  1.00  0.00    -0.004 A  
ENDBRANCH  35  38
ENDBRANCH  31  32
ENDBRANCH  30  31
ENDBRANCH  29  30
ENDBRANCH  28  29
ENDBRANCH  27  28
ENDBRANCH  24  27
ENDBRANCH  15  16
ENDBRANCH  14  15
ENDBRANCH  12  14
ENDBRANCH  11  12
ENDBRANCH  10  11
ENDBRANCH   9  10
ENDBRANCH   8   9
ENDBRANCH   7   8
ENDBRANCH   6   7
ENDBRANCH   5   6
ENDBRANCH   4   5
ENDBRANCH   3   4
ENDBRANCH   2   3
TORSDOF 20
ENDMDL
MODEL      132
REMARK 921   NORMALIZED FREE ENERGY PREDICTED BY IDOCK:   -1.45 KCAL/MOL
REMARK 922        TOTAL FREE ENERGY PREDICTED BY IDOCK:   -6.99 KCAL/MOL
REMARK 923 INTER-LIGAND FREE ENERGY PREDICTED BY IDOCK:   -6.09 KCAL/MOL
REMARK 924 INTRA-LIGAND FREE ENERGY PREDICTED BY IDOCK:   -0.90 KCAL/MOL
REMARK 927      BINDING AFFINITY PREDICTED BY RF-SCORE:    0.00 PKD
ROOT
HETATM    1  C   UNL     1     -12.600   7.545  72.102  1.00  0.00    -0.196 C  
HETATM    2  C   UNL     1     -11.446   6.953  72.895  1.00  0.00    -0.129 C  
ENDROOT
BRANCH   2   3
HETATM    3  C   UNL     1     -10.240   6.675  71.999  1.00  0.00    -0.206 C  
BRANCH   3   4
HETATM    4  C   UNL     1      -9.872   5.192  72.006  1.00  0.00    -0.221 C  
BRANCH   4   5
HETATM    5  C   UNL     1     -10.089   4.565  70.629  1.00  0.00    -0.232 C  
BRANCH   5   6
HETATM    6  C   UNL     1      -9.261   3.291  70.464  1.00  0.00    -0.213 C  
BRANCH   6   7
HETATM    7  C   UNL     1      -7.868   3.604  69.916  1.00  0.00    -0.051 C  
BRANCH   7   8
HETATM    8  C   UNL     1      -7.594   5.107  69.945  1.00  0.00    -0.064 C  
BRANCH   8   9
HETATM    9  C   UNL     1      -8.060   5.783  68.654  1.00  0.00    -0.101 C  
BRANCH   9  10
HETATM   10  C   UNL     1      -7.049   6.838  68.197  1.00  0.00    -0.086 C  
BRANCH  10  11
HETATM   11  C   UNL     1      -6.877   7.965  69.212  1.00  0.00    -0.048 C  
BRANCH  11  12
HETATM   12  C   UNL     1      -8.159   8.715  69.489  1.00  0.00    -0.110 C  
HETATM   13  O   UNL     1      -8.373   9.412  70.469  1.00  0.00    -0.178 OA 
BRANCH  12  14
HETATM   14  O   UNL     1      -9.025   8.508  68.461  1.00  0.00    -0.139 OA 
BRANCH  14  15
HETATM   15  C   UNL     1     -10.406   8.780  68.733  1.00  0.00    -0.213 C  
BRANCH  15  16
HETATM   16  N   UNL     1     -10.878  10.005  68.105  1.00  0.00    -0.256 N  
HETATM   17  C   UNL     1     -11.612  10.845  68.941  1.00  0.00    -0.309 C  
HETATM   18  C   UNL     1     -12.547  11.798  68.249  1.00  0.00     1.362 C  
HETATM   19  O   UNL     1     -11.608  10.755  70.165  1.00  0.00    -0.284 OA 
HETATM   20  C   UNL     1     -11.896  12.508  67.088  1.00  0.00    -0.386 C  
HETATM   21  C   UNL     1     -11.069  11.583  66.243  1.00  0.00    -0.321 A  
HETATM   22  C   UNL     1     -10.764  11.975  64.930  1.00  0.00    -0.346 A  
HETATM   23  C   UNL     1      -9.913  11.210  64.133  1.00  0.00    -0.369 A  
HETATM   24  C   UNL     1      -9.335  10.061  64.658  1.00  0.00    -0.279 A  
HETATM   25  C   UNL     1      -9.649   9.662  65.965  1.00  0.00    -0.305 A  
HETATM   26  C   UNL     1     -10.536  10.396  66.771  1.00  0.00    -0.225 A  
BRANCH  24  27
HETATM   27  O   UNL     1      -8.483   9.229  63.982  1.00  0.00    -0.175 OA 
BRANCH  27  28
HETATM   28  C   UNL     1      -7.207   9.000  64.585  1.00  0.00    -0.097 C  
BRANCH  28  29
HETATM   29  C   UNL     1      -6.749  10.285  65.279  1.00  0.00    -0.126 C  
BRANCH  29  30
HETATM   30  C   UNL     1      -5.617  10.024  66.284  1.00  0.00    -0.057 C  
BRANCH  30  31
HETATM   31  C   UNL     1      -5.147  11.297  67.017  1.00  0.00    -0.070 C  
BRANCH  31  32
HETATM   32  N   UNL     1      -6.013  11.679  68.140  1.00  0.00    -0.045 NA 
HETATM   33  C   UNL     1      -5.654  12.976  68.748  1.00  0.00    -0.072 C  
HETATM   34  C   UNL     1      -6.054  14.194  67.894  1.00  0.00    -0.146 C  
HETATM   35  N   UNL     1      -7.520  14.218  67.760  1.00  0.00    -0.147 NA 
HETATM   36  C   UNL     1      -8.055  12.989  67.142  1.00  0.00    -0.107 C  
HETATM   37  C   UNL     1      -7.450  11.697  67.776  1.00  0.00    -0.111 C  
BRANCH  35  38
HETATM   38  C   UNL     1      -8.257  15.356  68.075  1.00  0.00    -0.144 A  
HETATM   39  C   UNL     1      -9.410  15.420  68.905  1.00  0.00    -0.218 A  
HETATM   40 CL   UNL     1     -10.172  13.982  69.535  1.00  0.00     0.175 Cl 
HETATM   41  C   UNL     1     -10.044  16.658  69.173  1.00  0.00    -0.285 A  
HETATM   42  C   UNL     1      -9.591  17.842  68.591  1.00  0.00    -0.331 A  
HETATM   43 CL   UNL     1     -11.416  16.808  70.229  1.00  0.00     0.198 Cl 
HETATM   44  C   UNL     1      -8.484  17.810  67.764  1.00  0.00    -0.236 A  
HETATM   45  C   UNL     1      -7.826  16.598  67.541  1.00  0.00    -0.191 A  
ENDBRANCH  35  38
ENDBRANCH  31  32
ENDBRANCH  30  31
ENDBRANCH  29  30
ENDBRANCH  28  29
ENDBRANCH  27  28
ENDBRANCH  24  27
ENDBRANCH  15  16
ENDBRANCH  14  15
ENDBRANCH  12  14
ENDBRANCH  11  12
ENDBRANCH  10  11
ENDBRANCH   9  10
ENDBRANCH   8   9
ENDBRANCH   7   8
ENDBRANCH   6   7
ENDBRANCH   5   6
ENDBRANCH   4   5
ENDBRANCH   3   4
ENDBRANCH   2   3
TORSDOF 20
ENDMDL
MODEL      133
REMARK 921   NORMALIZED FREE ENERGY PREDICTED BY IDOCK:   -1.44 KCAL/MOL
REMARK 922        TOTAL FREE ENERGY PREDICTED BY IDOCK:   -6.97 KCAL/MOL
REMARK 923 INTER-LIGAND FREE ENERGY PREDICTED BY IDOCK:   -5.53 KCAL/MOL
REMARK 924 INTRA-LIGAND FREE ENERGY PREDICTED BY IDOCK:   -1.43 KCAL/MOL
REMARK 927      BINDING AFFINITY PREDICTED BY RF-SCORE:    0.00 PKD
ROOT
HETATM    1  C   UNL     1     -10.713  21.292  68.271  1.00  0.00     1.708 C  
HETATM    2  C   UNL     1      -9.555  21.072  67.312  1.00  0.00    -0.249 C  
ENDROOT
BRANCH   2   3
HETATM    3  C   UNL     1      -8.844  19.749  67.593  1.00  0.00    -0.393 C  
BRANCH   3   4
HETATM    4  C   UNL     1      -9.818  18.573  67.543  1.00  0.00    -0.330 C  
BRANCH   4   5
HETATM    5  C   UNL     1      -9.918  17.884  68.904  1.00  0.00    -0.337 C  
BRANCH   5   6
HETATM    6  C   UNL     1      -9.838  16.364  68.761  1.00  0.00    -0.250 C  
BRANCH   6   7
HETATM    7  C   UNL     1      -8.451  15.925  68.290  1.00  0.00    -0.170 C  
BRANCH   7   8
HETATM    8  C   UNL     1      -8.186  14.465  68.658  1.00  0.00    -0.148 C  
BRANCH   8   9
HETATM    9  C   UNL     1      -8.156  13.574  67.415  1.00  0.00    -0.184 C  
BRANCH   9  10
HETATM   10  C   UNL     1      -8.931  12.277  67.658  1.00  0.00    -0.181 C  
BRANCH  10  11
HETATM   11  C   UNL     1     -10.108  12.107  66.700  1.00  0.00    -0.218 C  
BRANCH  11  12
HETATM   12  C   UNL     1     -11.076  11.031  67.134  1.00  0.00    -0.267 C  
HETATM   13  O   UNL     1     -11.992  11.182  67.929  1.00  0.00    -0.624 OA 
BRANCH  12  14
HETATM   14  O   UNL     1     -10.777   9.876  66.481  1.00  0.00    -0.130 OA 
BRANCH  14  15
HETATM   15  C   UNL     1     -10.707   8.692  67.288  1.00  0.00    -0.139 C  
BRANCH  15  16
HETATM   16  N   UNL     1      -9.631   8.736  68.266  1.00  0.00    -0.145 N  
HETATM   17  C   UNL     1     -10.049   8.820  69.593  1.00  0.00    -0.204 C  
HETATM   18  C   UNL     1      -9.050   9.398  70.557  1.00  0.00    -0.308 C  
HETATM   19  O   UNL     1     -11.191   8.559  69.961  1.00  0.00    -0.205 OA 
HETATM   20  C   UNL     1      -7.673   8.809  70.387  1.00  0.00    -0.091 C  
HETATM   21  C   UNL     1      -7.279   8.682  68.944  1.00  0.00    -0.077 A  
HETATM   22  C   UNL     1      -5.914   8.566  68.634  1.00  0.00    -0.045 A  
HETATM   23  C   UNL     1      -5.494   8.340  67.324  1.00  0.00    -0.038 A  
HETATM   24  C   UNL     1      -6.441   8.196  66.317  1.00  0.00    -0.047 A  
HETATM   25  C   UNL     1      -7.802   8.324  66.624  1.00  0.00    -0.094 A  
HETATM   26  C   UNL     1      -8.247   8.593  67.929  1.00  0.00    -0.115 A  
BRANCH  24  27
HETATM   27  O   UNL     1      -6.158   7.967  64.996  1.00  0.00    -0.044 OA 
BRANCH  27  28
HETATM   28  C   UNL     1      -7.271   7.968  64.099  1.00  0.00    -0.086 C  
BRANCH  28  29
HETATM   29  C   UNL     1      -8.212   6.822  64.476  1.00  0.00    -0.008 C  
BRANCH  29  30
HETATM   30  C   UNL     1      -7.596   5.448  64.174  1.00  0.00    -0.076 C  
BRANCH  30  31
HETATM   31  C   UNL     1      -8.579   4.474  63.494  1.00  0.00    -0.125 C  
BRANCH  31  32
HETATM   32  N   UNL     1      -9.209   3.532  64.427  1.00  0.00    -0.127 NA 
HETATM   33  C   UNL     1      -8.263   2.937  65.393  1.00  0.00    -0.091 C  
HETATM   34  C   UNL     1      -7.822   3.905  66.508  1.00  0.00    -0.089 C  
HETATM   35  N   UNL     1      -9.004   4.283  67.301  1.00  0.00    -0.117 NA 
HETATM   36  C   UNL     1     -10.056   4.920  66.485  1.00  0.00    -0.255 C  
HETATM   37  C   UNL     1     -10.344   4.131  65.169  1.00  0.00    -0.181 C  
BRANCH  35  38
HETATM   38  C   UNL     1      -9.018   4.151  68.687  1.00  0.00    -0.114 A  
HETATM   39  C   UNL     1      -9.287   2.966  69.426  1.00  0.00    -0.126 A  
HETATM   40 CL   UNL     1      -9.813   1.495  68.648  1.00  0.00    -0.099 Cl 
HETATM   41  C   UNL     1      -9.231   2.965  70.841  1.00  0.00    -0.136 A  
HETATM   42  C   UNL     1      -8.963   4.134  71.554  1.00  0.00    -0.163 A  
HETATM   43 CL   UNL     1      -9.486   1.536  71.796  1.00  0.00    -0.156 Cl 
HETATM   44  C   UNL     1      -8.716   5.306  70.865  1.00  0.00    -0.141 A  
HETATM   45  C   UNL     1      -8.719   5.298  69.467  1.00  0.00    -0.114 A  
ENDBRANCH  35  38
ENDBRANCH  31  32
ENDBRANCH  30  31
ENDBRANCH  29  30
ENDBRANCH  28  29
ENDBRANCH  27  28
ENDBRANCH  24  27
ENDBRANCH  15  16
ENDBRANCH  14  15
ENDBRANCH  12  14
ENDBRANCH  11  12
ENDBRANCH  10  11
ENDBRANCH   9  10
ENDBRANCH   8   9
ENDBRANCH   7   8
ENDBRANCH   6   7
ENDBRANCH   5   6
ENDBRANCH   4   5
ENDBRANCH   3   4
ENDBRANCH   2   3
TORSDOF 20
ENDMDL
MODEL      134
REMARK 921   NORMALIZED FREE ENERGY PREDICTED BY IDOCK:   -1.37 KCAL/MOL
REMARK 922        TOTAL FREE ENERGY PREDICTED BY IDOCK:   -6.82 KCAL/MOL
REMARK 923 INTER-LIGAND FREE ENERGY PREDICTED BY IDOCK:   -5.47 KCAL/MOL
REMARK 924 INTRA-LIGAND FREE ENERGY PREDICTED BY IDOCK:   -1.34 KCAL/MOL
REMARK 927      BINDING AFFINITY PREDICTED BY RF-SCORE:    0.00 PKD
ROOT
HETATM    1  C   UNL     1      -6.001  15.928  66.980  1.00  0.00     0.212 C  
HETATM    2  C   UNL     1      -7.113  16.708  67.662  1.00  0.00    -0.157 C  
ENDROOT
BRANCH   2   3
HETATM    3  C   UNL     1      -7.059  16.542  69.180  1.00  0.00    -0.227 C  
BRANCH   3   4
HETATM    4  C   UNL     1      -5.618  16.550  69.689  1.00  0.00    -0.165 C  
BRANCH   4   5
HETATM    5  C   UNL     1      -5.190  15.155  70.146  1.00  0.00    -0.116 C  
BRANCH   5   6
HETATM    6  C   UNL     1      -5.434  14.116  69.052  1.00  0.00    -0.084 C  
BRANCH   6   7
HETATM    7  C   UNL     1      -5.213  12.697  69.578  1.00  0.00    -0.073 C  
BRANCH   7   8
HETATM    8  C   UNL     1      -6.535  11.936  69.668  1.00  0.00    -0.101 C  
BRANCH   8   9
HETATM    9  C   UNL     1      -6.356  10.590  70.371  1.00  0.00    -0.126 C  
BRANCH   9  10
HETATM   10  C   UNL     1      -7.265   9.526  69.748  1.00  0.00    -0.084 C  
BRANCH  10  11
HETATM   11  C   UNL     1      -8.724   9.969  69.676  1.00  0.00    -0.210 C  
BRANCH  11  12
HETATM   12  C   UNL     1      -9.692   8.811  69.606  1.00  0.00    -0.173 C  
HETATM   13  O   UNL     1     -10.159   8.220  70.568  1.00  0.00    -0.192 OA 
BRANCH  12  14
HETATM   14  O   UNL     1      -9.978   8.551  68.302  1.00  0.00    -0.171 OA 
BRANCH  14  15
HETATM   15  C   UNL     1     -11.223   9.069  67.812  1.00  0.00     0.511 C  
BRANCH  15  16
HETATM   16  N   UNL     1     -11.093  10.390  67.218  1.00  0.00    -0.245 N  
HETATM   17  C   UNL     1     -11.525  11.440  68.027  1.00  0.00    -0.307 C  
HETATM   18  C   UNL     1     -11.918  12.700  67.307  1.00  0.00    -0.321 C  
HETATM   19  O   UNL     1     -11.699  11.334  69.238  1.00  0.00    -0.275 OA 
HETATM   20  C   UNL     1     -10.909  13.109  66.264  1.00  0.00    -0.292 C  
HETATM   21  C   UNL     1     -10.424  11.945  65.448  1.00  0.00    -0.312 A  
HETATM   22  C   UNL     1      -9.839  12.204  64.199  1.00  0.00    -0.189 A  
HETATM   23  C   UNL     1      -9.276  11.176  63.445  1.00  0.00    -0.225 A  
HETATM   24  C   UNL     1      -9.266   9.882  63.952  1.00  0.00    -0.248 A  
HETATM   25  C   UNL     1      -9.862   9.620  65.193  1.00  0.00    -0.209 A  
HETATM   26  C   UNL     1     -10.472  10.634  65.952  1.00  0.00    -0.174 A  
BRANCH  24  27
HETATM   27  O   UNL     1      -8.743   8.789  63.313  1.00  0.00    -0.125 OA 
BRANCH  27  28
HETATM   28  C   UNL     1      -8.414   7.669  64.137  1.00  0.00     0.228 C  
BRANCH  28  29
HETATM   29  C   UNL     1      -7.945   6.517  63.245  1.00  0.00    -0.081 C  
BRANCH  29  30
HETATM   30  C   UNL     1      -7.314   5.378  64.060  1.00  0.00    -0.057 C  
BRANCH  30  31
HETATM   31  C   UNL     1      -8.156   4.964  65.284  1.00  0.00    -0.115 C  
BRANCH  31  32
HETATM   32  N   UNL     1      -7.530   5.308  66.567  1.00  0.00    -0.086 NA 
HETATM   33  C   UNL     1      -8.440   6.005  67.499  1.00  0.00    -0.107 C  
HETATM   34  C   UNL     1      -9.493   5.083  68.144  1.00  0.00    -0.132 C  
HETATM   35  N   UNL     1      -8.800   4.070  68.958  1.00  0.00    -0.093 NA 
HETATM   36  C   UNL     1      -7.854   3.256  68.169  1.00  0.00    -0.063 C  
HETATM   37  C   UNL     1      -6.943   4.133  67.252  1.00  0.00    -0.059 C  
BRANCH  35  38
HETATM   38  C   UNL     1      -9.139   3.858  70.291  1.00  0.00    -0.119 A  
HETATM   39  C   UNL     1      -8.842   4.712  71.390  1.00  0.00    -0.123 A  
HETATM   40 CL   UNL     1      -7.832   6.123  71.213  1.00  0.00    -0.109 Cl 
HETATM   41  C   UNL     1      -9.281   4.390  72.698  1.00  0.00    -0.125 A  
HETATM   42  C   UNL     1      -9.969   3.205  72.958  1.00  0.00    -0.204 A  
HETATM   43 CL   UNL     1      -9.007   5.424  74.067  1.00  0.00    -0.119 Cl 
HETATM   44  C   UNL     1     -10.255   2.345  71.914  1.00  0.00    -0.087 A  
HETATM   45  C   UNL     1      -9.869   2.685  70.615  1.00  0.00     0.055 A  
ENDBRANCH  35  38
ENDBRANCH  31  32
ENDBRANCH  30  31
ENDBRANCH  29  30
ENDBRANCH  28  29
ENDBRANCH  27  28
ENDBRANCH  24  27
ENDBRANCH  15  16
ENDBRANCH  14  15
ENDBRANCH  12  14
ENDBRANCH  11  12
ENDBRANCH  10  11
ENDBRANCH   9  10
ENDBRANCH   8   9
ENDBRANCH   7   8
ENDBRANCH   6   7
ENDBRANCH   5   6
ENDBRANCH   4   5
ENDBRANCH   3   4
ENDBRANCH   2   3
TORSDOF 20
ENDMDL
MODEL      135
REMARK 921   NORMALIZED FREE ENERGY PREDICTED BY IDOCK:   -1.32 KCAL/MOL
REMARK 922        TOTAL FREE ENERGY PREDICTED BY IDOCK:   -6.71 KCAL/MOL
REMARK 923 INTER-LIGAND FREE ENERGY PREDICTED BY IDOCK:   -5.30 KCAL/MOL
REMARK 924 INTRA-LIGAND FREE ENERGY PREDICTED BY IDOCK:   -1.42 KCAL/MOL
REMARK 927      BINDING AFFINITY PREDICTED BY RF-SCORE:    0.00 PKD
ROOT
HETATM    1  C   UNL     1     -13.647  10.565  71.280  1.00  0.00     0.026 C  
HETATM    2  C   UNL     1     -13.920   9.070  71.236  1.00  0.00    -0.195 C  
ENDROOT
BRANCH   2   3
HETATM    3  C   UNL     1     -13.166   8.335  72.344  1.00  0.00    -0.182 C  
BRANCH   3   4
HETATM    4  C   UNL     1     -12.081   7.426  71.769  1.00  0.00    -0.345 C  
BRANCH   4   5
HETATM    5  C   UNL     1     -10.721   7.725  72.401  1.00  0.00    -0.347 C  
BRANCH   5   6
HETATM    6  C   UNL     1     -10.326   6.639  73.401  1.00  0.00    -0.296 C  
BRANCH   6   7
HETATM    7  C   UNL     1      -8.978   6.016  73.038  1.00  0.00    -0.127 C  
BRANCH   7   8
HETATM    8  C   UNL     1      -7.906   6.402  74.056  1.00  0.00    -0.097 C  
BRANCH   8   9
HETATM    9  C   UNL     1      -8.095   7.837  74.548  1.00  0.00    -0.269 C  
BRANCH   9  10
HETATM   10  C   UNL     1      -7.181   8.799  73.785  1.00  0.00     0.100 C  
BRANCH  10  11
HETATM   11  C   UNL     1      -5.815   8.190  73.476  1.00  0.00    -0.072 C  
BRANCH  11  12
HETATM   12  C   UNL     1      -5.589   7.961  72.000  1.00  0.00    -0.035 C  
HETATM   13  O   UNL     1      -5.128   6.943  71.504  1.00  0.00    -0.026 OA 
BRANCH  12  14
HETATM   14  O   UNL     1      -6.003   9.059  71.311  1.00  0.00    -0.047 OA 
BRANCH  14  15
HETATM   15  C   UNL     1      -5.371  10.299  71.659  1.00  0.00    -0.011 C  
BRANCH  15  16
HETATM   16  N   UNL     1      -5.518  11.318  70.631  1.00  0.00    -0.123 N  
HETATM   17  C   UNL     1      -5.527  12.629  71.105  1.00  0.00    -0.110 C  
HETATM   18  C   UNL     1      -6.196  13.639  70.215  1.00  0.00    -0.071 C  
HETATM   19  O   UNL     1      -5.130  12.948  72.223  1.00  0.00    -0.327 OA 
HETATM   20  C   UNL     1      -5.772  13.514  68.774  1.00  0.00    -0.082 C  
HETATM   21  C   UNL     1      -5.719  12.085  68.315  1.00  0.00    -0.051 A  
HETATM   22  C   UNL     1      -5.766  11.826  66.936  1.00  0.00    -0.142 A  
HETATM   23  C   UNL     1      -5.616  10.530  66.445  1.00  0.00    -0.069 A  
HETATM   24  C   UNL     1      -5.384   9.486  67.332  1.00  0.00    -0.036 A  
HETATM   25  C   UNL     1      -5.350   9.741  68.709  1.00  0.00    -0.036 A  
HETATM   26  C   UNL     1      -5.541  11.033  69.229  1.00  0.00    -0.041 A  
BRANCH  24  27
HETATM   27  O   UNL     1      -5.216   8.173  66.976  1.00  0.00    -0.030 OA 
BRANCH  27  28
HETATM   28  C   UNL     1      -6.048   7.223  67.646  1.00  0.00    -0.042 C  
BRANCH  28  29
HETATM   29  C   UNL     1      -7.490   7.732  67.636  1.00  0.00    -0.104 C  
BRANCH  29  30
HETATM   30  C   UNL     1      -8.290   7.174  66.449  1.00  0.00    -0.125 C  
BRANCH  30  31
HETATM   31  C   UNL     1      -7.975   7.880  65.115  1.00  0.00    -0.132 C  
BRANCH  31  32
HETATM   32  N   UNL     1      -9.144   8.524  64.504  1.00  0.00     0.314 NA 
HETATM   33  C   UNL     1     -10.109   9.053  65.490  1.00  0.00     0.496 C  
HETATM   34  C   UNL     1      -9.638  10.342  66.189  1.00  0.00    -0.196 C  
HETATM   35  N   UNL     1      -9.491  11.403  65.178  1.00  0.00    -0.222 NA 
HETATM   36  C   UNL     1      -8.533  11.044  64.114  1.00  0.00     0.226 C  
HETATM   37  C   UNL     1      -8.776   9.605  63.560  1.00  0.00    -0.222 C  
BRANCH  35  38
HETATM   38  C   UNL     1     -10.110  12.640  65.333  1.00  0.00    -0.261 A  
HETATM   39  C   UNL     1     -10.115  13.448  66.503  1.00  0.00    -0.280 A  
HETATM   40 CL   UNL     1      -9.443  12.886  68.013  1.00  0.00    -0.208 Cl 
HETATM   41  C   UNL     1     -10.757  14.710  66.511  1.00  0.00    -0.312 A  
HETATM   42  C   UNL     1     -11.449  15.176  65.392  1.00  0.00    -0.239 A  
HETATM   43 CL   UNL     1     -10.742  15.769  67.888  1.00  0.00    -0.293 Cl 
HETATM   44  C   UNL     1     -11.478  14.405  64.246  1.00  0.00    -0.226 A  
HETATM   45  C   UNL     1     -10.801  13.183  64.219  1.00  0.00    -0.430 A  
ENDBRANCH  35  38
ENDBRANCH  31  32
ENDBRANCH  30  31
ENDBRANCH  29  30
ENDBRANCH  28  29
ENDBRANCH  27  28
ENDBRANCH  24  27
ENDBRANCH  15  16
ENDBRANCH  14  15
ENDBRANCH  12  14
ENDBRANCH  11  12
ENDBRANCH  10  11
ENDBRANCH   9  10
ENDBRANCH   8   9
ENDBRANCH   7   8
ENDBRANCH   6   7
ENDBRANCH   5   6
ENDBRANCH   4   5
ENDBRANCH   3   4
ENDBRANCH   2   3
TORSDOF 20
ENDMDL
MODEL      136
REMARK 921   NORMALIZED FREE ENERGY PREDICTED BY IDOCK:   -1.23 KCAL/MOL
REMARK 922        TOTAL FREE ENERGY PREDICTED BY IDOCK:   -6.51 KCAL/MOL
REMARK 923 INTER-LIGAND FREE ENERGY PREDICTED BY IDOCK:   -4.95 KCAL/MOL
REMARK 924 INTRA-LIGAND FREE ENERGY PREDICTED BY IDOCK:   -1.57 KCAL/MOL
REMARK 927      BINDING AFFINITY PREDICTED BY RF-SCORE:    0.00 PKD
ROOT
HETATM    1  C   UNL     1     -11.354   4.592  62.799  1.00  0.00     1.141 C  
HETATM    2  C   UNL     1     -10.667   3.809  63.906  1.00  0.00    -0.257 C  
ENDROOT
BRANCH   2   3
HETATM    3  C   UNL     1      -9.655   4.675  64.655  1.00  0.00    -0.021 C  
BRANCH   3   4
HETATM    4  C   UNL     1      -8.843   5.539  63.692  1.00  0.00     0.230 C  
BRANCH   4   5
HETATM    5  C   UNL     1      -8.839   7.002  64.135  1.00  0.00     0.843 C  
BRANCH   5   6
HETATM    6  C   UNL     1      -7.805   7.813  63.355  1.00  0.00    -0.131 C  
BRANCH   6   7
HETATM    7  C   UNL     1      -7.880   9.297  63.715  1.00  0.00    -0.133 C  
BRANCH   7   8
HETATM    8  C   UNL     1      -8.037   9.486  65.224  1.00  0.00    -0.124 C  
BRANCH   8   9
HETATM    9  C   UNL     1      -8.710  10.820  65.551  1.00  0.00    -0.196 C  
BRANCH   9  10
HETATM   10  C   UNL     1     -10.207  10.764  65.238  1.00  0.00    -0.351 C  
BRANCH  10  11
HETATM   11  C   UNL     1     -11.073  11.120  66.444  1.00  0.00    -0.204 C  
BRANCH  11  12
HETATM   12  C   UNL     1     -10.857  10.198  67.622  1.00  0.00    -0.290 C  
HETATM   13  O   UNL     1     -11.045   8.991  67.620  1.00  0.00    -0.045 OA 
BRANCH  12  14
HETATM   14  O   UNL     1     -10.395  10.925  68.675  1.00  0.00    -0.174 OA 
BRANCH  14  15
HETATM   15  C   UNL     1     -11.299  11.086  69.777  1.00  0.00    -0.292 C  
BRANCH  15  16
HETATM   16  N   UNL     1     -11.172  10.034  70.773  1.00  0.00    -0.334 N  
HETATM   17  C   UNL     1     -12.379   9.581  71.303  1.00  0.00    -0.345 C  
HETATM   18  C   UNL     1     -12.296   8.933  72.657  1.00  0.00    -0.218 C  
HETATM   19  O   UNL     1     -13.470   9.789  70.778  1.00  0.00    -0.252 OA 
HETATM   20  C   UNL     1     -11.173   7.930  72.751  1.00  0.00    -0.466 C  
HETATM   21  C   UNL     1      -9.905   8.430  72.121  1.00  0.00    -0.372 A  
HETATM   22  C   UNL     1      -8.694   7.826  72.493  1.00  0.00    -0.196 A  
HETATM   23  C   UNL     1      -7.498   8.174  71.867  1.00  0.00    -0.105 A  
HETATM   24  C   UNL     1      -7.511   9.108  70.839  1.00  0.00    -0.118 A  
HETATM   25  C   UNL     1      -8.718   9.721  70.476  1.00  0.00    -0.020 A  
HETATM   26  C   UNL     1      -9.928   9.416  71.121  1.00  0.00    -0.241 A  
BRANCH  24  27
HETATM   27  O   UNL     1      -6.409   9.530  70.144  1.00  0.00    -0.050 OA 
BRANCH  27  28
HETATM   28  C   UNL     1      -6.458  10.862  69.624  1.00  0.00    -0.114 C  
BRANCH  28  29
HETATM   29  C   UNL     1      -5.141  11.570  69.951  1.00  0.00    -0.061 C  
BRANCH  29  30
HETATM   30  C   UNL     1      -5.355  12.795  70.852  1.00  0.00    -0.173 C  
BRANCH  30  31
HETATM   31  C   UNL     1      -5.140  14.136  70.120  1.00  0.00    -0.090 C  
BRANCH  31  32
HETATM   32  N   UNL     1      -6.229  15.098  70.331  1.00  0.00    -0.116 NA 
HETATM   33  C   UNL     1      -5.758  16.473  70.598  1.00  0.00     0.034 C  
HETATM   34  C   UNL     1      -5.222  17.199  69.349  1.00  0.00    -0.157 C  
HETATM   35  N   UNL     1      -6.320  17.343  68.377  1.00  0.00    -0.170 NA 
HETATM   36  C   UNL     1      -6.900  16.045  67.979  1.00  0.00    -0.129 C  
HETATM   37  C   UNL     1      -7.194  15.127  69.207  1.00  0.00    -0.182 C  
BRANCH  35  38
HETATM   38  C   UNL     1      -6.641  18.581  67.829  1.00  0.00    -0.214 A  
HETATM   39  C   UNL     1      -6.599  18.937  66.452  1.00  0.00    -0.196 A  
HETATM   40 CL   UNL     1      -5.957  17.858  65.240  1.00  0.00    -0.077 Cl 
HETATM   41  C   UNL     1      -6.991  20.230  66.025  1.00  0.00    -0.264 A  
HETATM   42  C   UNL     1      -7.378  21.208  66.943  1.00  0.00    -0.103 A  
HETATM   43 CL   UNL     1      -7.023  20.704  64.354  1.00  0.00    -0.040 Cl 
HETATM   44  C   UNL     1      -7.410  20.897  68.289  1.00  0.00     0.205 A  
HETATM   45  C   UNL     1      -7.075  19.607  68.708  1.00  0.00    -0.381 A  
ENDBRANCH  35  38
ENDBRANCH  31  32
ENDBRANCH  30  31
ENDBRANCH  29  30
ENDBRANCH  28  29
ENDBRANCH  27  28
ENDBRANCH  24  27
ENDBRANCH  15  16
ENDBRANCH  14  15
ENDBRANCH  12  14
ENDBRANCH  11  12
ENDBRANCH  10  11
ENDBRANCH   9  10
ENDBRANCH   8   9
ENDBRANCH   7   8
ENDBRANCH   6   7
ENDBRANCH   5   6
ENDBRANCH   4   5
ENDBRANCH   3   4
ENDBRANCH   2   3
TORSDOF 20
ENDMDL
MODEL      137
REMARK 921   NORMALIZED FREE ENERGY PREDICTED BY IDOCK:   -1.12 KCAL/MOL
REMARK 922        TOTAL FREE ENERGY PREDICTED BY IDOCK:   -6.28 KCAL/MOL
REMARK 923 INTER-LIGAND FREE ENERGY PREDICTED BY IDOCK:   -2.99 KCAL/MOL
REMARK 924 INTRA-LIGAND FREE ENERGY PREDICTED BY IDOCK:   -3.28 KCAL/MOL
REMARK 927      BINDING AFFINITY PREDICTED BY RF-SCORE:    0.00 PKD
ROOT
HETATM    1  C   UNL     1     -12.521  11.369  67.860  1.00  0.00     1.321 C  
HETATM    2  C   UNL     1     -12.018  12.587  68.616  1.00  0.00    -0.268 C  
ENDROOT
BRANCH   2   3
HETATM    3  C   UNL     1     -12.470  12.562  70.076  1.00  0.00    -0.036 C  
BRANCH   3   4
HETATM    4  C   UNL     1     -12.857  11.150  70.513  1.00  0.00    -0.213 C  
BRANCH   4   5
HETATM    5  C   UNL     1     -11.779  10.536  71.408  1.00  0.00    -0.126 C  
BRANCH   5   6
HETATM    6  C   UNL     1     -10.939   9.516  70.640  1.00  0.00    -0.370 C  
BRANCH   6   7
HETATM    7  C   UNL     1      -9.609   9.252  71.346  1.00  0.00    -0.229 C  
BRANCH   7   8
HETATM    8  C   UNL     1      -9.780   8.230  72.470  1.00  0.00    -0.368 C  
BRANCH   8   9
HETATM    9  C   UNL     1      -8.585   7.279  72.546  1.00  0.00    -0.131 C  
BRANCH   9  10
HETATM   10  C   UNL     1      -9.051   5.836  72.756  1.00  0.00    -0.133 C  
BRANCH  10  11
HETATM   11  C   UNL     1     -10.447   5.581  72.193  1.00  0.00    -0.272 C  
BRANCH  11  12
HETATM   12  C   UNL     1     -10.510   4.372  71.290  1.00  0.00     0.129 C  
HETATM   13  O   UNL     1     -10.556   4.401  70.069  1.00  0.00     0.297 OA 
BRANCH  12  14
HETATM   14  O   UNL     1     -10.483   3.246  72.053  1.00  0.00    -0.032 OA 
BRANCH  14  15
HETATM   15  C   UNL     1      -9.690   2.161  71.552  1.00  0.00    -0.150 C  
BRANCH  15  16
HETATM   16  N   UNL     1      -8.261   2.388  71.698  1.00  0.00    -0.055 N  
HETATM   17  C   UNL     1      -7.783   2.285  73.003  1.00  0.00    -0.045 C  
HETATM   18  C   UNL     1      -6.499   3.014  73.287  1.00  0.00    -0.021 C  
HETATM   19  O   UNL     1      -8.406   1.742  73.912  1.00  0.00    -0.052 OA 
HETATM   20  C   UNL     1      -5.450   2.773  72.232  1.00  0.00    -0.004 C  
HETATM   21  C   UNL     1      -6.011   2.836  70.841  1.00  0.00    -0.018 A  
HETATM   22  C   UNL     1      -5.126   3.061  69.775  1.00  0.00    -0.004 A  
HETATM   23  C   UNL     1      -5.572   3.025  68.454  1.00  0.00    -0.018 A  
HETATM   24  C   UNL     1      -6.904   2.732  68.190  1.00  0.00    -0.048 A  
HETATM   25  C   UNL     1      -7.791   2.521  69.254  1.00  0.00    -0.049 A  
HETATM   26  C   UNL     1      -7.372   2.592  70.594  1.00  0.00    -0.033 A  
BRANCH  24  27
HETATM   27  O   UNL     1      -7.462   2.663  66.941  1.00  0.00    -0.067 OA 
BRANCH  27  28
HETATM   28  C   UNL     1      -8.404   1.610  66.724  1.00  0.00    -0.084 C  
BRANCH  28  29
HETATM   29  C   UNL     1      -8.865   1.650  65.265  1.00  0.00    -0.119 C  
BRANCH  29  30
HETATM   30  C   UNL     1      -9.897   2.761  65.018  1.00  0.00     0.150 C  
BRANCH  30  31
HETATM   31  C   UNL     1      -9.261   4.101  64.595  1.00  0.00    -0.151 C  
BRANCH  31  32
HETATM   32  N   UNL     1      -8.573   4.794  65.692  1.00  0.00    -0.124 NA 
HETATM   33  C   UNL     1      -7.706   5.900  65.239  1.00  0.00    -0.095 C  
HETATM   34  C   UNL     1      -8.481   7.156  64.797  1.00  0.00     0.119 C  
HETATM   35  N   UNL     1      -9.220   7.687  65.955  1.00  0.00    -0.063 NA 
HETATM   36  C   UNL     1     -10.162   6.706  66.527  1.00  0.00    -0.059 C  
HETATM   37  C   UNL     1      -9.506   5.302  66.724  1.00  0.00    -0.140 C  
BRANCH  35  38
HETATM   38  C   UNL     1      -9.101   9.020  66.339  1.00  0.00    -0.170 A  
HETATM   39  C   UNL     1      -8.397   9.519  67.469  1.00  0.00    -0.125 A  
HETATM   40 CL   UNL     1      -7.691   8.455  68.659  1.00  0.00    -0.105 Cl 
HETATM   41  C   UNL     1      -8.326  10.911  67.724  1.00  0.00    -0.117 A  
HETATM   42  C   UNL     1      -8.987  11.829  66.906  1.00  0.00    -0.195 A  
HETATM   43 CL   UNL     1      -7.428  11.585  69.049  1.00  0.00    -0.103 Cl 
HETATM   44  C   UNL     1      -9.696  11.373  65.811  1.00  0.00    -0.263 A  
HETATM   45  C   UNL     1      -9.724  10.005  65.529  1.00  0.00    -0.355 A  
ENDBRANCH  35  38
ENDBRANCH  31  32
ENDBRANCH  30  31
ENDBRANCH  29  30
ENDBRANCH  28  29
ENDBRANCH  27  28
ENDBRANCH  24  27
ENDBRANCH  15  16
ENDBRANCH  14  15
ENDBRANCH  12  14
ENDBRANCH  11  12
ENDBRANCH  10  11
ENDBRANCH   9  10
ENDBRANCH   8   9
ENDBRANCH   7   8
ENDBRANCH   6   7
ENDBRANCH   5   6
ENDBRANCH   4   5
ENDBRANCH   3   4
ENDBRANCH   2   3
TORSDOF 20
ENDMDL
MODEL      138
REMARK 921   NORMALIZED FREE ENERGY PREDICTED BY IDOCK:   -0.92 KCAL/MOL
REMARK 922        TOTAL FREE ENERGY PREDICTED BY IDOCK:   -5.85 KCAL/MOL
REMARK 923 INTER-LIGAND FREE ENERGY PREDICTED BY IDOCK:   -6.96 KCAL/MOL
REMARK 924 INTRA-LIGAND FREE ENERGY PREDICTED BY IDOCK:    1.11 KCAL/MOL
REMARK 927      BINDING AFFINITY PREDICTED BY RF-SCORE:    0.00 PKD
ROOT
HETATM    1  C   UNL     1     -11.451  20.007  65.668  1.00  0.00     0.953 C  
HETATM    2  C   UNL     1     -11.056  19.512  67.049  1.00  0.00    -0.278 C  
ENDROOT
BRANCH   2   3
HETATM    3  C   UNL     1     -10.464  18.105  66.988  1.00  0.00    -0.385 C  
BRANCH   3   4
HETATM    4  C   UNL     1      -9.322  17.938  67.989  1.00  0.00    -0.274 C  
BRANCH   4   5
HETATM    5  C   UNL     1      -8.194  18.930  67.707  1.00  0.00    -0.296 C  
BRANCH   5   6
HETATM    6  C   UNL     1      -7.390  18.516  66.475  1.00  0.00    -0.258 C  
BRANCH   6   7
HETATM    7  C   UNL     1      -6.256  17.561  66.849  1.00  0.00    -0.206 C  
BRANCH   7   8
HETATM    8  C   UNL     1      -6.803  16.188  67.236  1.00  0.00    -0.236 C  
BRANCH   8   9
HETATM    9  C   UNL     1      -6.424  15.821  68.671  1.00  0.00    -0.111 C  
BRANCH   9  10
HETATM   10  C   UNL     1      -6.062  14.337  68.776  1.00  0.00    -0.085 C  
BRANCH  10  11
HETATM   11  C   UNL     1      -6.784  13.481  67.739  1.00  0.00    -0.173 C  
BRANCH  11  12
HETATM   12  C   UNL     1      -7.562  12.339  68.351  1.00  0.00    -0.128 C  
HETATM   13  O   UNL     1      -8.370  11.637  67.762  1.00  0.00    -0.131 OA 
BRANCH  12  14
HETATM   14  O   UNL     1      -7.198  12.203  69.655  1.00  0.00     0.165 OA 
BRANCH  14  15
HETATM   15  C   UNL     1      -6.104  11.314  69.917  1.00  0.00    -0.130 C  
BRANCH  15  16
HETATM   16  N   UNL     1      -6.206  10.059  69.187  1.00  0.00    -0.040 N  
HETATM   17  C   UNL     1      -5.825  10.129  67.848  1.00  0.00    -0.041 C  
HETATM   18  C   UNL     1      -6.402   9.070  66.950  1.00  0.00    -0.059 C  
HETATM   19  O   UNL     1      -5.160  11.049  67.380  1.00  0.00    -0.037 OA 
HETATM   20  C   UNL     1      -6.299   7.688  67.543  1.00  0.00    -0.054 C  
HETATM   21  C   UNL     1      -6.663   7.661  68.999  1.00  0.00    -0.049 A  
HETATM   22  C   UNL     1      -7.030   6.433  69.572  1.00  0.00    -0.071 A  
HETATM   23  C   UNL     1      -7.276   6.326  70.940  1.00  0.00    -0.071 A  
HETATM   24  C   UNL     1      -7.126   7.443  71.751  1.00  0.00    -0.063 A  
HETATM   25  C   UNL     1      -6.772   8.672  71.178  1.00  0.00    -0.068 A  
HETATM   26  C   UNL     1      -6.560   8.813  69.797  1.00  0.00    -0.041 A  
BRANCH  24  27
HETATM   27  O   UNL     1      -7.333   7.467  73.105  1.00  0.00    -0.072 OA 
BRANCH  27  28
HETATM   28  C   UNL     1      -7.925   6.298  73.677  1.00  0.00    -0.100 C  
BRANCH  28  29
HETATM   29  C   UNL     1      -9.263   6.030  72.984  1.00  0.00    -0.133 C  
BRANCH  29  30
HETATM   30  C   UNL     1     -10.170   7.269  72.985  1.00  0.00    -0.313 C  
BRANCH  30  31
HETATM   31  C   UNL     1     -11.672   6.926  73.050  1.00  0.00     0.225 C  
BRANCH  31  32
HETATM   32  N   UNL     1     -12.399   7.245  71.814  1.00  0.00    -0.327 NA 
HETATM   33  C   UNL     1     -13.141   8.521  71.878  1.00  0.00    -0.362 C  
HETATM   34  C   UNL     1     -12.240   9.768  71.791  1.00  0.00    -0.367 C  
HETATM   35  N   UNL     1     -11.565   9.773  70.481  1.00  0.00    -0.281 NA 
HETATM   36  C   UNL     1     -10.750   8.563  70.257  1.00  0.00    -0.230 C  
HETATM   37  C   UNL     1     -11.522   7.255  70.620  1.00  0.00    -0.293 C  
BRANCH  35  38
HETATM   38  C   UNL     1     -11.618  10.884  69.645  1.00  0.00    -0.322 A  
HETATM   39  C   UNL     1     -11.514  10.887  68.227  1.00  0.00    -0.305 A  
HETATM   40 CL   UNL     1     -11.132   9.440  67.328  1.00  0.00    -0.018 Cl 
HETATM   41  C   UNL     1     -11.622  12.094  67.493  1.00  0.00    -0.343 A  
HETATM   42  C   UNL     1     -11.780  13.320  68.140  1.00  0.00    -0.397 A  
HETATM   43 CL   UNL     1     -11.568  12.153  65.758  1.00  0.00    -0.425 Cl 
HETATM   44  C   UNL     1     -11.865  13.353  69.519  1.00  0.00    -0.391 A  
HETATM   45  C   UNL     1     -11.811  12.158  70.241  1.00  0.00    -0.339 A  
ENDBRANCH  35  38
ENDBRANCH  31  32
ENDBRANCH  30  31
ENDBRANCH  29  30
ENDBRANCH  28  29
ENDBRANCH  27  28
ENDBRANCH  24  27
ENDBRANCH  15  16
ENDBRANCH  14  15
ENDBRANCH  12  14
ENDBRANCH  11  12
ENDBRANCH  10  11
ENDBRANCH   9  10
ENDBRANCH   8   9
ENDBRANCH   7   8
ENDBRANCH   6   7
ENDBRANCH   5   6
ENDBRANCH   4   5
ENDBRANCH   3   4
ENDBRANCH   2   3
TORSDOF 20
ENDMDL
MODEL      139
REMARK 921   NORMALIZED FREE ENERGY PREDICTED BY IDOCK:   -0.71 KCAL/MOL
REMARK 922        TOTAL FREE ENERGY PREDICTED BY IDOCK:   -5.38 KCAL/MOL
REMARK 923 INTER-LIGAND FREE ENERGY PREDICTED BY IDOCK:   -5.80 KCAL/MOL
REMARK 924 INTRA-LIGAND FREE ENERGY PREDICTED BY IDOCK:    0.42 KCAL/MOL
REMARK 927      BINDING AFFINITY PREDICTED BY RF-SCORE:    0.00 PKD
ROOT
HETATM    1  C   UNL     1      -6.806   5.767  71.376  1.00  0.00    -0.063 C  
HETATM    2  C   UNL     1      -6.702   5.862  72.890  1.00  0.00    -0.074 C  
ENDROOT
BRANCH   2   3
HETATM    3  C   UNL     1      -7.566   4.804  73.574  1.00  0.00    -0.087 C  
BRANCH   3   4
HETATM    4  C   UNL     1      -8.998   5.299  73.773  1.00  0.00    -0.123 C  
BRANCH   4   5
HETATM    5  C   UNL     1      -9.704   5.492  72.431  1.00  0.00    -0.177 C  
BRANCH   5   6
HETATM    6  C   UNL     1     -10.261   4.170  71.904  1.00  0.00    -0.180 C  
BRANCH   6   7
HETATM    7  C   UNL     1      -9.144   3.153  71.670  1.00  0.00    -0.169 C  
BRANCH   7   8
HETATM    8  C   UNL     1      -9.428   2.305  70.431  1.00  0.00    -0.166 C  
BRANCH   8   9
HETATM    9  C   UNL     1      -9.140   3.081  69.146  1.00  0.00    -0.202 C  
BRANCH   9  10
HETATM   10  C   UNL     1      -8.246   2.266  68.207  1.00  0.00    -0.072 C  
BRANCH  10  11
HETATM   11  C   UNL     1      -8.825   2.152  66.799  1.00  0.00    -0.141 C  
BRANCH  11  12
HETATM   12  C   UNL     1      -9.747   3.294  66.441  1.00  0.00     0.102 C  
HETATM   13  O   UNL     1     -10.656   3.241  65.626  1.00  0.00     0.813 OA 
BRANCH  12  14
HETATM   14  O   UNL     1      -9.418   4.380  67.191  1.00  0.00    -0.147 OA 
BRANCH  14  15
HETATM   15  C   UNL     1     -10.380   5.444  67.218  1.00  0.00    -0.220 C  
BRANCH  15  16
HETATM   16  N   UNL     1      -9.923   6.603  67.970  1.00  0.00    -0.137 N  
HETATM   17  C   UNL     1     -10.801   7.040  68.960  1.00  0.00    -0.182 C  
HETATM   18  C   UNL     1     -10.657   8.479  69.371  1.00  0.00    -0.203 C  
HETATM   19  O   UNL     1     -11.720   6.355  69.402  1.00  0.00    -0.327 OA 
HETATM   20  C   UNL     1      -9.221   8.872  69.611  1.00  0.00    -0.152 C  
HETATM   21  C   UNL     1      -8.297   8.337  68.555  1.00  0.00    -0.129 A  
HETATM   22  C   UNL     1      -7.045   8.951  68.393  1.00  0.00    -0.077 A  
HETATM   23  C   UNL     1      -6.104   8.434  67.504  1.00  0.00    -0.052 A  
HETATM   24  C   UNL     1      -6.399   7.277  66.792  1.00  0.00    -0.047 A  
HETATM   25  C   UNL     1      -7.654   6.672  66.944  1.00  0.00    -0.095 A  
HETATM   26  C   UNL     1      -8.632   7.199  67.804  1.00  0.00    -0.126 A  
BRANCH  24  27
HETATM   27  O   UNL     1      -5.562   6.670  65.894  1.00  0.00    -0.020 OA 
BRANCH  27  28
HETATM   28  C   UNL     1      -5.911   6.797  64.514  1.00  0.00    -0.035 C  
BRANCH  28  29
HETATM   29  C   UNL     1      -5.599   8.223  64.053  1.00  0.00    -0.056 C  
BRANCH  29  30
HETATM   30  C   UNL     1      -6.734   9.200  64.395  1.00  0.00    -0.083 C  
BRANCH  30  31
HETATM   31  C   UNL     1      -7.755   9.375  63.252  1.00  0.00    -0.115 C  
BRANCH  31  32
HETATM   32  N   UNL     1      -9.128   9.596  63.723  1.00  0.00    -0.226 NA 
HETATM   33  C   UNL     1      -9.285   9.431  65.182  1.00  0.00    -0.225 C  
HETATM   34  C   UNL     1      -8.707  10.599  66.005  1.00  0.00    -0.177 C  
HETATM   35  N   UNL     1      -9.447  11.827  65.668  1.00  0.00    -0.221 NA 
HETATM   36  C   UNL     1      -9.376  12.157  64.231  1.00  0.00     0.345 C  
HETATM   37  C   UNL     1      -9.664  10.919  63.325  1.00  0.00    -0.362 C  
BRANCH  35  38
HETATM   38  C   UNL     1     -10.018  12.622  66.658  1.00  0.00    -0.242 A  
HETATM   39  C   UNL     1      -9.338  13.526  67.520  1.00  0.00    -0.220 A  
HETATM   40 CL   UNL     1      -7.596  13.638  67.548  1.00  0.00    -0.180 Cl 
HETATM   41  C   UNL     1     -10.051  14.304  68.464  1.00  0.00    -0.246 A  
HETATM   42  C   UNL     1     -11.432  14.170  68.614  1.00  0.00    -0.332 A  
HETATM   43 CL   UNL     1      -9.286  15.470  69.499  1.00  0.00    -0.278 Cl 
HETATM   44  C   UNL     1     -12.119  13.286  67.804  1.00  0.00    -0.281 A  
HETATM   45  C   UNL     1     -11.424  12.555  66.836  1.00  0.00    -0.416 A  
ENDBRANCH  35  38
ENDBRANCH  31  32
ENDBRANCH  30  31
ENDBRANCH  29  30
ENDBRANCH  28  29
ENDBRANCH  27  28
ENDBRANCH  24  27
ENDBRANCH  15  16
ENDBRANCH  14  15
ENDBRANCH  12  14
ENDBRANCH  11  12
ENDBRANCH  10  11
ENDBRANCH   9  10
ENDBRANCH   8   9
ENDBRANCH   7   8
ENDBRANCH   6   7
ENDBRANCH   5   6
ENDBRANCH   4   5
ENDBRANCH   3   4
ENDBRANCH   2   3
TORSDOF 20
ENDMDL
MODEL      140
REMARK 921   NORMALIZED FREE ENERGY PREDICTED BY IDOCK:   -0.61 KCAL/MOL
REMARK 922        TOTAL FREE ENERGY PREDICTED BY IDOCK:   -5.16 KCAL/MOL
REMARK 923 INTER-LIGAND FREE ENERGY PREDICTED BY IDOCK:   -5.33 KCAL/MOL
REMARK 924 INTRA-LIGAND FREE ENERGY PREDICTED BY IDOCK:    0.17 KCAL/MOL
REMARK 927      BINDING AFFINITY PREDICTED BY RF-SCORE:    0.00 PKD
ROOT
HETATM    1  C   UNL     1      -9.276  18.887  65.848  1.00  0.00     0.143 C  
HETATM    2  C   UNL     1     -10.685  18.325  65.745  1.00  0.00    -0.129 C  
ENDROOT
BRANCH   2   3
HETATM    3  C   UNL     1     -10.682  16.799  65.829  1.00  0.00    -0.185 C  
BRANCH   3   4
HETATM    4  C   UNL     1     -11.019  16.167  64.479  1.00  0.00    -0.142 C  
BRANCH   4   5
HETATM    5  C   UNL     1     -12.418  15.550  64.495  1.00  0.00     0.138 C  
BRANCH   5   6
HETATM    6  C   UNL     1     -12.347  14.023  64.500  1.00  0.00    -0.409 C  
BRANCH   6   7
HETATM    7  C   UNL     1     -11.896  13.494  65.862  1.00  0.00    -0.405 C  
BRANCH   7   8
HETATM    8  C   UNL     1     -11.388  12.057  65.749  1.00  0.00    -0.384 C  
BRANCH   8   9
HETATM    9  C   UNL     1     -10.201  11.811  66.682  1.00  0.00    -0.240 C  
BRANCH   9  10
HETATM   10  C   UNL     1     -10.092  12.924  67.727  1.00  0.00    -0.229 C  
BRANCH  10  11
HETATM   11  C   UNL     1      -8.833  12.804  68.584  1.00  0.00     0.058 C  
BRANCH  11  12
HETATM   12  C   UNL     1      -8.201  11.433  68.520  1.00  0.00    -0.153 C  
HETATM   13  O   UNL     1      -7.194  11.147  67.890  1.00  0.00    -0.085 OA 
BRANCH  12  14
HETATM   14  O   UNL     1      -8.920  10.577  69.295  1.00  0.00    -0.179 OA 
BRANCH  14  15
HETATM   15  C   UNL     1      -9.999   9.890  68.645  1.00  0.00    -0.164 C  
BRANCH  15  16
HETATM   16  N   UNL     1     -10.407   8.683  69.347  1.00  0.00    -0.215 N  
HETATM   17  C   UNL     1     -10.950   8.898  70.613  1.00  0.00    -0.241 C  
HETATM   18  C   UNL     1     -10.878   7.733  71.561  1.00  0.00    -0.260 C  
HETATM   19  O   UNL     1     -11.360   9.990  70.997  1.00  0.00    -0.347 OA 
HETATM   20  C   UNL     1     -11.313   6.438  70.922  1.00  0.00    -0.398 C  
HETATM   21  C   UNL     1     -10.753   6.267  69.539  1.00  0.00    -0.365 A  
HETATM   22  C   UNL     1     -10.703   4.973  68.997  1.00  0.00     0.270 A  
HETATM   23  C   UNL     1     -10.293   4.763  67.681  1.00  0.00    -0.028 A  
HETATM   24  C   UNL     1      -9.960   5.853  66.886  1.00  0.00    -0.171 A  
HETATM   25  C   UNL     1      -9.998   7.144  67.431  1.00  0.00    -0.224 A  
HETATM   26  C   UNL     1     -10.368   7.375  68.767  1.00  0.00    -0.199 A  
BRANCH  24  27
HETATM   27  O   UNL     1      -9.548   5.781  65.582  1.00  0.00    -0.009 OA 
BRANCH  27  28
HETATM   28  C   UNL     1      -9.400   4.468  65.035  1.00  0.00    -0.156 C  
BRANCH  28  29
HETATM   29  C   UNL     1      -8.141   4.432  64.166  1.00  0.00    -0.095 C  
BRANCH  29  30
HETATM   30  C   UNL     1      -6.863   4.621  64.997  1.00  0.00    -0.053 C  
BRANCH  30  31
HETATM   31  C   UNL     1      -7.112   4.585  66.518  1.00  0.00    -0.074 C  
BRANCH  31  32
HETATM   32  N   UNL     1      -5.930   4.939  67.313  1.00  0.00    -0.026 NA 
HETATM   33  C   UNL     1      -5.735   6.396  67.464  1.00  0.00    -0.013 C  
HETATM   34  C   UNL     1      -6.720   7.056  68.448  1.00  0.00    -0.064 C  
HETATM   35  N   UNL     1      -6.498   6.491  69.790  1.00  0.00    -0.042 NA 
HETATM   36  C   UNL     1      -6.676   5.026  69.827  1.00  0.00    -0.047 C  
HETATM   37  C   UNL     1      -5.931   4.311  68.655  1.00  0.00    -0.026 C  
BRANCH  35  38
HETATM   38  C   UNL     1      -6.280   7.312  70.892  1.00  0.00    -0.036 A  
HETATM   39  C   UNL     1      -5.824   8.659  70.873  1.00  0.00    -0.034 A  
HETATM   40 CL   UNL     1      -5.309   9.436  69.397  1.00  0.00    -0.035 Cl 
HETATM   41  C   UNL     1      -5.679   9.394  72.075  1.00  0.00    -0.028 A  
HETATM   42  C   UNL     1      -5.927   8.805  73.316  1.00  0.00    -0.088 A  
HETATM   43 CL   UNL     1      -5.190  11.060  72.110  1.00  0.00     0.166 Cl 
HETATM   44  C   UNL     1      -6.352   7.491  73.369  1.00  0.00    -0.065 A  
HETATM   45  C   UNL     1      -6.546   6.781  72.181  1.00  0.00    -0.058 A  
ENDBRANCH  35  38
ENDBRANCH  31  32
ENDBRANCH  30  31
ENDBRANCH  29  30
ENDBRANCH  28  29
ENDBRANCH  27  28
ENDBRANCH  24  27
ENDBRANCH  15  16
ENDBRANCH  14  15
ENDBRANCH  12  14
ENDBRANCH  11  12
ENDBRANCH  10  11
ENDBRANCH   9  10
ENDBRANCH   8   9
ENDBRANCH   7   8
ENDBRANCH   6   7
ENDBRANCH   5   6
ENDBRANCH   4   5
ENDBRANCH   3   4
ENDBRANCH   2   3
TORSDOF 20
ENDMDL
MODEL      141
REMARK 921   NORMALIZED FREE ENERGY PREDICTED BY IDOCK:   -0.57 KCAL/MOL
REMARK 922        TOTAL FREE ENERGY PREDICTED BY IDOCK:   -5.08 KCAL/MOL
REMARK 923 INTER-LIGAND FREE ENERGY PREDICTED BY IDOCK:   -7.21 KCAL/MOL
REMARK 924 INTRA-LIGAND FREE ENERGY PREDICTED BY IDOCK:    2.12 KCAL/MOL
REMARK 927      BINDING AFFINITY PREDICTED BY RF-SCORE:    0.00 PKD
ROOT
HETATM    1  C   UNL     1     -11.869  11.778  66.142  1.00  0.00     0.033 C  
HETATM    2  C   UNL     1     -12.535  12.270  64.868  1.00  0.00    -0.327 C  
ENDROOT
BRANCH   2   3
HETATM    3  C   UNL     1     -11.519  12.443  63.740  1.00  0.00    -0.544 C  
BRANCH   3   4
HETATM    4  C   UNL     1     -10.169  11.827  64.109  1.00  0.00    -0.363 C  
BRANCH   4   5
HETATM    5  C   UNL     1      -9.447  12.675  65.156  1.00  0.00     0.233 C  
BRANCH   5   6
HETATM    6  C   UNL     1      -8.475  11.829  65.978  1.00  0.00     0.125 C  
BRANCH   6   7
HETATM    7  C   UNL     1      -9.222  10.930  66.964  1.00  0.00    -0.165 C  
BRANCH   7   8
HETATM    8  C   UNL     1      -8.266   9.951  67.643  1.00  0.00    -0.114 C  
BRANCH   8   9
HETATM    9  C   UNL     1      -7.082   9.610  66.738  1.00  0.00    -0.086 C  
BRANCH   9  10
HETATM   10  C   UNL     1      -7.566   9.132  65.366  1.00  0.00    -0.097 C  
BRANCH  10  11
HETATM   11  C   UNL     1      -8.294   7.793  65.433  1.00  0.00    -0.141 C  
BRANCH  11  12
HETATM   12  C   UNL     1      -7.607   6.788  66.329  1.00  0.00    -0.086 C  
HETATM   13  O   UNL     1      -6.430   6.819  66.654  1.00  0.00    -0.041 OA 
BRANCH  12  14
HETATM   14  O   UNL     1      -8.516   5.861  66.735  1.00  0.00    -0.109 OA 
BRANCH  14  15
HETATM   15  C   UNL     1      -9.362   6.241  67.829  1.00  0.00    -0.113 C  
BRANCH  15  16
HETATM   16  N   UNL     1      -8.793   5.910  69.127  1.00  0.00    -0.117 N  
HETATM   17  C   UNL     1      -7.898   4.842  69.118  1.00  0.00    -0.071 C  
HETATM   18  C   UNL     1      -7.715   4.133  70.431  1.00  0.00    -0.045 C  
HETATM   19  O   UNL     1      -7.370   4.409  68.097  1.00  0.00    -0.063 OA 
HETATM   20  C   UNL     1      -7.516   5.087  71.581  1.00  0.00    -0.091 C  
HETATM   21  C   UNL     1      -8.459   6.253  71.528  1.00  0.00    -0.130 A  
HETATM   22  C   UNL     1      -8.695   6.975  72.709  1.00  0.00    -0.136 A  
HETATM   23  C   UNL     1      -9.477   8.129  72.700  1.00  0.00    -0.346 A  
HETATM   24  C   UNL     1     -10.003   8.588  71.499  1.00  0.00    -0.244 A  
HETATM   25  C   UNL     1      -9.779   7.862  70.322  1.00  0.00    -0.183 A  
HETATM   26  C   UNL     1      -9.029   6.674  70.314  1.00  0.00    -0.152 A  
BRANCH  24  27
HETATM   27  O   UNL     1     -10.781   9.707  71.357  1.00  0.00    -0.327 OA 
BRANCH  27  28
HETATM   28  C   UNL     1     -11.306   9.953  70.050  1.00  0.00    -0.249 C  
BRANCH  28  29
HETATM   29  C   UNL     1     -12.575  10.798  70.176  1.00  0.00    -0.309 C  
BRANCH  29  30
HETATM   30  C   UNL     1     -12.818  11.259  71.622  1.00  0.00    -0.510 C  
BRANCH  30  31
HETATM   31  C   UNL     1     -12.622  12.776  71.820  1.00  0.00    -0.023 C  
BRANCH  31  32
HETATM   32  N   UNL     1     -13.155  13.584  70.716  1.00  0.00    -0.085 NA 
HETATM   33  C   UNL     1     -13.190  15.031  71.008  1.00  0.00    -0.425 C  
HETATM   34  C   UNL     1     -11.806  15.707  70.967  1.00  0.00    -0.400 C  
HETATM   35  N   UNL     1     -11.265  15.596  69.602  1.00  0.00    -0.283 NA 
HETATM   36  C   UNL     1     -11.141  14.196  69.152  1.00  0.00    -0.262 C  
HETATM   37  C   UNL     1     -12.430  13.365  69.442  1.00  0.00     0.093 C  
BRANCH  35  38
HETATM   38  C   UNL     1     -10.812  16.716  68.911  1.00  0.00    -0.321 A  
HETATM   39  C   UNL     1     -10.847  16.918  67.503  1.00  0.00    -0.207 A  
HETATM   40 CL   UNL     1     -11.346  15.658  66.404  1.00  0.00    -0.039 Cl 
HETATM   41  C   UNL     1     -10.382  18.129  66.932  1.00  0.00    -0.375 A  
HETATM   42  C   UNL     1      -9.828  19.135  67.724  1.00  0.00    -0.412 A  
HETATM   43 CL   UNL     1     -10.459  18.460  65.229  1.00  0.00     0.281 Cl 
HETATM   44  C   UNL     1      -9.762  18.960  69.093  1.00  0.00    -0.269 A  
HETATM   45  C   UNL     1     -10.268  17.788  69.664  1.00  0.00     0.287 A  
ENDBRANCH  35  38
ENDBRANCH  31  32
ENDBRANCH  30  31
ENDBRANCH  29  30
ENDBRANCH  28  29
ENDBRANCH  27  28
ENDBRANCH  24  27
ENDBRANCH  15  16
ENDBRANCH  14  15
ENDBRANCH  12  14
ENDBRANCH  11  12
ENDBRANCH  10  11
ENDBRANCH   9  10
ENDBRANCH   8   9
ENDBRANCH   7   8
ENDBRANCH   6   7
ENDBRANCH   5   6
ENDBRANCH   4   5
ENDBRANCH   3   4
ENDBRANCH   2   3
TORSDOF 20
ENDMDL
MODEL      142
REMARK 921   NORMALIZED FREE ENERGY PREDICTED BY IDOCK:   -0.44 KCAL/MOL
REMARK 922        TOTAL FREE ENERGY PREDICTED BY IDOCK:   -4.79 KCAL/MOL
REMARK 923 INTER-LIGAND FREE ENERGY PREDICTED BY IDOCK:   -5.19 KCAL/MOL
REMARK 924 INTRA-LIGAND FREE ENERGY PREDICTED BY IDOCK:    0.40 KCAL/MOL
REMARK 927      BINDING AFFINITY PREDICTED BY RF-SCORE:    0.00 PKD
ROOT
HETATM    1  C   UNL     1     -10.961  20.676  67.489  1.00  0.00     1.107 C  
HETATM    2  C   UNL     1      -9.725  20.080  66.835  1.00  0.00    -0.557 C  
ENDROOT
BRANCH   2   3
HETATM    3  C   UNL     1      -9.620  18.580  67.107  1.00  0.00    -0.302 C  
BRANCH   3   4
HETATM    4  C   UNL     1     -10.700  18.116  68.084  1.00  0.00    -0.242 C  
BRANCH   4   5
HETATM    5  C   UNL     1     -10.101  17.795  69.454  1.00  0.00    -0.019 C  
BRANCH   5   6
HETATM    6  C   UNL     1     -10.517  16.402  69.926  1.00  0.00    -0.201 C  
BRANCH   6   7
HETATM    7  C   UNL     1     -10.202  15.343  68.870  1.00  0.00    -0.219 C  
BRANCH   7   8
HETATM    8  C   UNL     1     -11.033  15.566  67.607  1.00  0.00    -0.315 C  
BRANCH   8   9
HETATM    9  C   UNL     1     -12.294  14.701  67.609  1.00  0.00     0.102 C  
BRANCH   9  10
HETATM   10  C   UNL     1     -11.937  13.219  67.461  1.00  0.00    -0.371 C  
BRANCH  10  11
HETATM   11  C   UNL     1     -11.154  12.929  66.184  1.00  0.00    -0.314 C  
BRANCH  11  12
HETATM   12  C   UNL     1      -9.745  12.449  66.447  1.00  0.00    -0.240 C  
HETATM   13  O   UNL     1      -8.795  12.592  65.692  1.00  0.00     0.375 OA 
BRANCH  12  14
HETATM   14  O   UNL     1      -9.701  11.855  67.670  1.00  0.00    -0.179 OA 
BRANCH  14  15
HETATM   15  C   UNL     1      -8.514  12.086  68.443  1.00  0.00    -0.147 C  
BRANCH  15  16
HETATM   16  N   UNL     1      -7.423  11.192  68.087  1.00  0.00    -0.089 N  
HETATM   17  C   UNL     1      -6.496  11.727  67.195  1.00  0.00    -0.146 C  
HETATM   18  C   UNL     1      -5.702  10.727  66.400  1.00  0.00    -0.097 C  
HETATM   19  O   UNL     1      -6.394  12.929  66.964  1.00  0.00    -0.212 OA 
HETATM   20  C   UNL     1      -5.155   9.612  67.254  1.00  0.00    -0.035 C  
HETATM   21  C   UNL     1      -6.163   9.098  68.240  1.00  0.00    -0.054 A  
HETATM   22  C   UNL     1      -5.968   7.820  68.788  1.00  0.00    -0.035 A  
HETATM   23  C   UNL     1      -6.811   7.332  69.786  1.00  0.00    -0.053 A  
HETATM   24  C   UNL     1      -7.839   8.135  70.265  1.00  0.00    -0.093 A  
HETATM   25  C   UNL     1      -8.042   9.405  69.710  1.00  0.00    -0.134 A  
HETATM   26  C   UNL     1      -7.231   9.901  68.675  1.00  0.00    -0.072 A  
BRANCH  24  27
HETATM   27  O   UNL     1      -8.729   7.774  71.242  1.00  0.00    -0.127 OA 
BRANCH  27  28
HETATM   28  C   UNL     1      -9.446   8.839  71.872  1.00  0.00    -0.292 C  
BRANCH  28  29
HETATM   29  C   UNL     1     -10.772   8.294  72.408  1.00  0.00    -0.411 C  
BRANCH  29  30
HETATM   30  C   UNL     1     -11.770   7.996  71.279  1.00  0.00    -0.311 C  
BRANCH  30  31
HETATM   31  C   UNL     1     -11.098   7.792  69.907  1.00  0.00    -0.136 C  
BRANCH  31  32
HETATM   32  N   UNL     1     -11.541   6.576  69.213  1.00  0.00    -0.240 NA 
HETATM   33  C   UNL     1     -11.351   6.630  67.749  1.00  0.00     0.024 C  
HETATM   34  C   UNL     1      -9.883   6.470  67.307  1.00  0.00    -0.140 C  
HETATM   35  N   UNL     1      -9.410   5.136  67.714  1.00  0.00    -0.119 NA 
HETATM   36  C   UNL     1      -9.510   4.917  69.170  1.00  0.00    -0.141 C  
HETATM   37  C   UNL     1     -10.898   5.349  69.739  1.00  0.00    -0.110 C  
BRANCH  35  38
HETATM   38  C   UNL     1      -8.818   4.269  66.800  1.00  0.00    -0.116 A  
HETATM   39  C   UNL     1      -9.252   4.009  65.471  1.00  0.00    -0.150 A  
HETATM   40 CL   UNL     1     -10.744   4.661  64.845  1.00  0.00    -0.012 Cl 
HETATM   41  C   UNL     1      -8.530   3.125  64.631  1.00  0.00    -0.094 A  
HETATM   42  C   UNL     1      -7.405   2.443  65.098  1.00  0.00    -0.063 A  
HETATM   43 CL   UNL     1      -8.972   2.817  62.980  1.00  0.00    -0.088 Cl 
HETATM   44  C   UNL     1      -6.970   2.659  66.392  1.00  0.00    -0.049 A  
HETATM   45  C   UNL     1      -7.651   3.571  67.204  1.00  0.00    -0.079 A  
ENDBRANCH  35  38
ENDBRANCH  31  32
ENDBRANCH  30  31
ENDBRANCH  29  30
ENDBRANCH  28  29
ENDBRANCH  27  28
ENDBRANCH  24  27
ENDBRANCH  15  16
ENDBRANCH  14  15
ENDBRANCH  12  14
ENDBRANCH  11  12
ENDBRANCH  10  11
ENDBRANCH   9  10
ENDBRANCH   8   9
ENDBRANCH   7   8
ENDBRANCH   6   7
ENDBRANCH   5   6
ENDBRANCH   4   5
ENDBRANCH   3   4
ENDBRANCH   2   3
TORSDOF 20
ENDMDL
MODEL      143
REMARK 921   NORMALIZED FREE ENERGY PREDICTED BY IDOCK:   -0.40 KCAL/MOL
REMARK 922        TOTAL FREE ENERGY PREDICTED BY IDOCK:   -4.72 KCAL/MOL
REMARK 923 INTER-LIGAND FREE ENERGY PREDICTED BY IDOCK:   -5.50 KCAL/MOL
REMARK 924 INTRA-LIGAND FREE ENERGY PREDICTED BY IDOCK:    0.78 KCAL/MOL
REMARK 927      BINDING AFFINITY PREDICTED BY RF-SCORE:    0.00 PKD
ROOT
HETATM    1  C   UNL     1     -13.895  10.137  71.484  1.00  0.00     0.019 C  
HETATM    2  C   UNL     1     -14.214   8.657  71.347  1.00  0.00    -0.341 C  
ENDROOT
BRANCH   2   3
HETATM    3  C   UNL     1     -13.530   7.837  72.440  1.00  0.00     0.107 C  
BRANCH   3   4
HETATM    4  C   UNL     1     -12.404   6.977  71.867  1.00  0.00    -0.358 C  
BRANCH   4   5
HETATM    5  C   UNL     1     -11.092   7.221  72.612  1.00  0.00    -0.355 C  
BRANCH   5   6
HETATM    6  C   UNL     1     -10.836   6.132  73.653  1.00  0.00    -0.150 C  
BRANCH   6   7
HETATM    7  C   UNL     1      -9.469   5.478  73.446  1.00  0.00    -0.139 C  
BRANCH   7   8
HETATM    8  C   UNL     1      -8.454   5.999  74.462  1.00  0.00    -0.117 C  
BRANCH   8   9
HETATM    9  C   UNL     1      -8.358   7.525  74.421  1.00  0.00    -0.255 C  
BRANCH   9  10
HETATM   10  C   UNL     1      -7.211   7.973  73.511  1.00  0.00    -0.164 C  
BRANCH  10  11
HETATM   11  C   UNL     1      -6.033   7.002  73.530  1.00  0.00    -0.058 C  
BRANCH  11  12
HETATM   12  C   UNL     1      -5.857   6.258  72.227  1.00  0.00    -0.037 C  
HETATM   13  O   UNL     1      -5.490   5.097  72.119  1.00  0.00    -0.011 OA 
BRANCH  12  14
HETATM   14  O   UNL     1      -6.196   7.080  71.197  1.00  0.00    -0.036 OA 
BRANCH  14  15
HETATM   15  C   UNL     1      -5.756   8.441  71.303  1.00  0.00    -0.035 C  
BRANCH  15  16
HETATM   16  N   UNL     1      -5.732   9.130  70.022  1.00  0.00    -0.031 N  
HETATM   17  C   UNL     1      -5.731  10.521  70.108  1.00  0.00    -0.071 C  
HETATM   18  C   UNL     1      -6.243  11.250  68.895  1.00  0.00    -0.052 C  
HETATM   19  O   UNL     1      -5.451  11.137  71.132  1.00  0.00    -0.248 OA 
HETATM   20  C   UNL     1      -5.661  10.716  67.611  1.00  0.00    -0.043 C  
HETATM   21  C   UNL     1      -5.627   9.216  67.578  1.00  0.00    -0.042 A  
HETATM   22  C   UNL     1      -5.527   8.579  66.331  1.00  0.00    -0.031 A  
HETATM   23  C   UNL     1      -5.385   7.195  66.242  1.00  0.00    -0.023 A  
HETATM   24  C   UNL     1      -5.309   6.440  67.406  1.00  0.00    -0.005 A  
HETATM   25  C   UNL     1      -5.421   7.073  68.651  1.00  0.00    -0.018 A  
HETATM   26  C   UNL     1      -5.607   8.461  68.763  1.00  0.00    -0.036 A  
BRANCH  24  27
HETATM   27  O   UNL     1      -5.166   5.078  67.454  1.00  0.00    -0.007 OA 
BRANCH  27  28
HETATM   28  C   UNL     1      -5.795   4.412  68.551  1.00  0.00    -0.025 C  
BRANCH  28  29
HETATM   29  C   UNL     1      -7.202   4.982  68.736  1.00  0.00    -0.058 C  
BRANCH  29  30
HETATM   30  C   UNL     1      -8.221   4.317  67.799  1.00  0.00    -0.095 C  
BRANCH  30  31
HETATM   31  C   UNL     1      -7.957   4.604  66.307  1.00  0.00    -0.103 C  
BRANCH  31  32
HETATM   32  N   UNL     1      -9.083   5.260  65.629  1.00  0.00    -0.158 NA 
HETATM   33  C   UNL     1     -10.053   5.875  66.558  1.00  0.00    -0.156 C  
HETATM   34  C   UNL     1      -9.551   7.180  67.206  1.00  0.00    -0.143 C  
HETATM   35  N   UNL     1      -9.334   8.181  66.148  1.00  0.00    -0.191 NA 
HETATM   36  C   UNL     1      -8.362   7.732  65.132  1.00  0.00    -0.106 C  
HETATM   37  C   UNL     1      -8.645   6.277  64.644  1.00  0.00     0.150 C  
BRANCH  35  38
HETATM   38  C   UNL     1      -9.908   9.447  66.222  1.00  0.00    -0.281 A  
HETATM   39  C   UNL     1     -10.192  10.184  67.405  1.00  0.00    -0.218 A  
HETATM   40 CL   UNL     1      -9.988   9.490  68.993  1.00  0.00    -0.175 Cl 
HETATM   41  C   UNL     1     -10.747  11.485  67.333  1.00  0.00    -0.232 A  
HETATM   42  C   UNL     1     -11.081  12.061  66.107  1.00  0.00    -0.367 A  
HETATM   43 CL   UNL     1     -11.056  12.459  68.738  1.00  0.00    -0.286 Cl 
HETATM   44  C   UNL     1     -10.835  11.362  64.941  1.00  0.00    -0.323 A  
HETATM   45  C   UNL     1     -10.239  10.100  65.007  1.00  0.00    -0.203 A  
ENDBRANCH  35  38
ENDBRANCH  31  32
ENDBRANCH  30  31
ENDBRANCH  29  30
ENDBRANCH  28  29
ENDBRANCH  27  28
ENDBRANCH  24  27
ENDBRANCH  15  16
ENDBRANCH  14  15
ENDBRANCH  12  14
ENDBRANCH  11  12
ENDBRANCH  10  11
ENDBRANCH   9  10
ENDBRANCH   8   9
ENDBRANCH   7   8
ENDBRANCH   6   7
ENDBRANCH   5   6
ENDBRANCH   4   5
ENDBRANCH   3   4
ENDBRANCH   2   3
TORSDOF 20
ENDMDL
MODEL      144
REMARK 921   NORMALIZED FREE ENERGY PREDICTED BY IDOCK:   -0.25 KCAL/MOL
REMARK 922        TOTAL FREE ENERGY PREDICTED BY IDOCK:   -4.39 KCAL/MOL
REMARK 923 INTER-LIGAND FREE ENERGY PREDICTED BY IDOCK:   -5.16 KCAL/MOL
REMARK 924 INTRA-LIGAND FREE ENERGY PREDICTED BY IDOCK:    0.76 KCAL/MOL
REMARK 927      BINDING AFFINITY PREDICTED BY RF-SCORE:    0.00 PKD
ROOT
HETATM    1  C   UNL     1      -5.551  13.995  69.097  1.00  0.00    -0.081 C  
HETATM    2  C   UNL     1      -6.672  14.897  69.587  1.00  0.00    -0.172 C  
ENDROOT
BRANCH   2   3
HETATM    3  C   UNL     1      -6.851  14.790  71.100  1.00  0.00     0.900 C  
BRANCH   3   4
HETATM    4  C   UNL     1      -5.515  14.554  71.803  1.00  0.00    -0.118 C  
BRANCH   4   5
HETATM    5  C   UNL     1      -5.284  13.065  72.059  1.00  0.00    -0.009 C  
BRANCH   5   6
HETATM    6  C   UNL     1      -5.458  12.251  70.778  1.00  0.00    -0.159 C  
BRANCH   6   7
HETATM    7  C   UNL     1      -5.489  10.751  71.074  1.00  0.00    -0.081 C  
BRANCH   7   8
HETATM    8  C   UNL     1      -6.852  10.153  70.728  1.00  0.00     0.082 C  
BRANCH   8   9
HETATM    9  C   UNL     1      -7.035   8.776  71.367  1.00  0.00    -0.093 C  
BRANCH   9  10
HETATM   10  C   UNL     1      -7.780   7.832  70.420  1.00  0.00    -0.088 C  
BRANCH  10  11
HETATM   11  C   UNL     1      -9.093   8.424  69.913  1.00  0.00    -0.146 C  
BRANCH  11  12
HETATM   12  C   UNL     1     -10.139   7.376  69.611  1.00  0.00    -0.186 C  
HETATM   13  O   UNL     1     -11.044   7.043  70.361  1.00  0.00    -0.262 OA 
BRANCH  12  14
HETATM   14  O   UNL     1      -9.925   6.883  68.361  1.00  0.00    -0.140 OA 
BRANCH  14  15
HETATM   15  C   UNL     1     -10.720   7.452  67.312  1.00  0.00    -0.308 C  
BRANCH  15  16
HETATM   16  N   UNL     1     -10.124   8.644  66.731  1.00  0.00    -0.275 N  
HETATM   17  C   UNL     1     -10.573   9.847  67.275  1.00  0.00    -0.252 C  
HETATM   18  C   UNL     1     -10.426  11.057  66.393  1.00  0.00    -0.312 C  
HETATM   19  O   UNL     1     -11.161   9.926  68.350  1.00  0.00    -0.188 OA 
HETATM   20  C   UNL     1      -9.064  11.146  65.754  1.00  0.00    -0.222 C  
HETATM   21  C   UNL     1      -8.589   9.822  65.229  1.00  0.00    -0.168 A  
HETATM   22  C   UNL     1      -7.578   9.815  64.256  1.00  0.00    -0.135 A  
HETATM   23  C   UNL     1      -7.023   8.617  63.808  1.00  0.00    -0.087 A  
HETATM   24  C   UNL     1      -7.456   7.416  64.357  1.00  0.00    -0.100 A  
HETATM   25  C   UNL     1      -8.475   7.421  65.319  1.00  0.00    -0.066 A  
HETATM   26  C   UNL     1      -9.077   8.614  65.755  1.00  0.00    -0.187 A  
BRANCH  24  27
HETATM   27  O   UNL     1      -6.989   6.176  64.006  1.00  0.00    -0.043 OA 
BRANCH  27  28
HETATM   28  C   UNL     1      -7.082   5.157  65.005  1.00  0.00    -0.062 C  
BRANCH  28  29
HETATM   29  C   UNL     1      -6.541   3.848  64.428  1.00  0.00    -0.043 C  
BRANCH  29  30
HETATM   30  C   UNL     1      -6.240   2.816  65.526  1.00  0.00    -0.024 C  
BRANCH  30  31
HETATM   31  C   UNL     1      -7.372   2.682  66.565  1.00  0.00    -0.070 C  
BRANCH  31  32
HETATM   32  N   UNL     1      -7.075   3.343  67.842  1.00  0.00    -0.050 NA 
HETATM   33  C   UNL     1      -8.185   4.176  68.348  1.00  0.00    -0.083 C  
HETATM   34  C   UNL     1      -9.359   3.363  68.926  1.00  0.00    -0.168 C  
HETATM   35  N   UNL     1      -8.878   2.602  70.092  1.00  0.00    -0.074 NA 
HETATM   36  C   UNL     1      -7.767   1.689  69.757  1.00  0.00    -0.042 C  
HETATM   37  C   UNL     1      -6.665   2.389  68.900  1.00  0.00    -0.033 C  
BRANCH  35  38
HETATM   38  C   UNL     1      -9.527   2.676  71.321  1.00  0.00    -0.148 A  
HETATM   39  C   UNL     1      -9.575   3.801  72.190  1.00  0.00    -0.148 A  
HETATM   40 CL   UNL     1      -8.650   5.247  71.877  1.00  0.00    -0.129 Cl 
HETATM   41  C   UNL     1     -10.307   3.751  73.402  1.00  0.00    -0.163 A  
HETATM   42  C   UNL     1     -10.957   2.584  73.806  1.00  0.00    -0.300 A  
HETATM   43 CL   UNL     1     -10.457   5.111  74.472  1.00  0.00    -0.297 Cl 
HETATM   44  C   UNL     1     -10.912   1.468  72.992  1.00  0.00    -0.249 A  
HETATM   45  C   UNL     1     -10.234   1.532  71.771  1.00  0.00    -0.177 A  
ENDBRANCH  35  38
ENDBRANCH  31  32
ENDBRANCH  30  31
ENDBRANCH  29  30
ENDBRANCH  28  29
ENDBRANCH  27  28
ENDBRANCH  24  27
ENDBRANCH  15  16
ENDBRANCH  14  15
ENDBRANCH  12  14
ENDBRANCH  11  12
ENDBRANCH  10  11
ENDBRANCH   9  10
ENDBRANCH   8   9
ENDBRANCH   7   8
ENDBRANCH   6   7
ENDBRANCH   5   6
ENDBRANCH   4   5
ENDBRANCH   3   4
ENDBRANCH   2   3
TORSDOF 20
ENDMDL
MODEL      145
REMARK 921   NORMALIZED FREE ENERGY PREDICTED BY IDOCK:   -0.23 KCAL/MOL
REMARK 922        TOTAL FREE ENERGY PREDICTED BY IDOCK:   -4.34 KCAL/MOL
REMARK 923 INTER-LIGAND FREE ENERGY PREDICTED BY IDOCK:   -6.53 KCAL/MOL
REMARK 924 INTRA-LIGAND FREE ENERGY PREDICTED BY IDOCK:    2.19 KCAL/MOL
REMARK 927      BINDING AFFINITY PREDICTED BY RF-SCORE:    0.00 PKD
ROOT
HETATM    1  C   UNL     1      -6.022   4.927  67.526  1.00  0.00    -0.023 C  
HETATM    2  C   UNL     1      -5.520   4.065  68.672  1.00  0.00    -0.013 C  
ENDROOT
BRANCH   2   3
HETATM    3  C   UNL     1      -6.237   2.716  68.709  1.00  0.00    -0.029 C  
BRANCH   3   4
HETATM    4  C   UNL     1      -7.664   2.859  69.236  1.00  0.00    -0.048 C  
BRANCH   4   5
HETATM    5  C   UNL     1      -7.866   4.213  69.915  1.00  0.00    -0.052 C  
BRANCH   5   6
HETATM    6  C   UNL     1      -8.986   4.149  70.953  1.00  0.00    -0.150 C  
BRANCH   6   7
HETATM    7  C   UNL     1      -8.591   4.876  72.239  1.00  0.00    -0.124 C  
BRANCH   7   8
HETATM    8  C   UNL     1      -9.757   4.914  73.226  1.00  0.00    -0.155 C  
BRANCH   8   9
HETATM    9  C   UNL     1      -9.843   6.265  73.936  1.00  0.00    -0.229 C  
BRANCH   9  10
HETATM   10  C   UNL     1      -8.446   6.843  74.178  1.00  0.00    -0.172 C  
BRANCH  10  11
HETATM   11  C   UNL     1      -8.249   8.204  73.516  1.00  0.00    -0.276 C  
BRANCH  11  12
HETATM   12  C   UNL     1      -9.040   8.362  72.238  1.00  0.00    -0.243 C  
HETATM   13  O   UNL     1      -9.155   7.512  71.367  1.00  0.00    -0.136 OA 
BRANCH  12  14
HETATM   14  O   UNL     1      -9.623   9.591  72.226  1.00  0.00     0.453 OA 
BRANCH  14  15
HETATM   15  C   UNL     1     -10.592   9.821  71.194  1.00  0.00    -0.145 C  
BRANCH  15  16
HETATM   16  N   UNL     1     -10.902   8.623  70.430  1.00  0.00    -0.225 N  
HETATM   17  C   UNL     1     -11.861   7.793  71.008  1.00  0.00    -0.272 C  
HETATM   18  C   UNL     1     -11.822   6.352  70.578  1.00  0.00    -0.316 C  
HETATM   19  O   UNL     1     -12.624   8.156  71.899  1.00  0.00    -0.311 OA 
HETATM   20  C   UNL     1     -11.700   6.196  69.083  1.00  0.00     0.435 C  
HETATM   21  C   UNL     1     -10.699   7.144  68.489  1.00  0.00    -0.191 A  
HETATM   22  C   UNL     1     -10.166   6.843  67.225  1.00  0.00    -0.284 A  
HETATM   23  C   UNL     1      -9.314   7.736  66.577  1.00  0.00    -0.243 A  
HETATM   24  C   UNL     1      -9.015   8.954  67.175  1.00  0.00    -0.127 A  
HETATM   25  C   UNL     1      -9.536   9.249  68.442  1.00  0.00    -0.158 A  
HETATM   26  C   UNL     1     -10.363   8.347  69.132  1.00  0.00    -0.220 A  
BRANCH  24  27
HETATM   27  O   UNL     1      -8.197   9.914  66.641  1.00  0.00    -0.119 OA 
BRANCH  27  28
HETATM   28  C   UNL     1      -7.013   9.449  65.988  1.00  0.00    -0.090 C  
BRANCH  28  29
HETATM   29  C   UNL     1      -5.812  10.231  66.523  1.00  0.00    -0.063 C  
BRANCH  29  30
HETATM   30  C   UNL     1      -6.175  11.069  67.759  1.00  0.00    -0.051 C  
BRANCH  30  31
HETATM   31  C   UNL     1      -6.437  12.554  67.435  1.00  0.00    -0.153 C  
BRANCH  31  32
HETATM   32  N   UNL     1      -7.039  13.298  68.549  1.00  0.00    -0.099 NA 
HETATM   33  C   UNL     1      -6.371  14.586  68.827  1.00  0.00    -0.088 C  
HETATM   34  C   UNL     1      -6.683  15.683  67.792  1.00  0.00    -0.159 C  
HETATM   35  N   UNL     1      -8.126  15.975  67.832  1.00  0.00    -0.140 NA 
HETATM   36  C   UNL     1      -8.954  14.785  67.550  1.00  0.00    -0.187 C  
HETATM   37  C   UNL     1      -8.489  13.536  68.362  1.00  0.00    -0.143 C  
BRANCH  35  38
HETATM   38  C   UNL     1      -8.597  17.275  67.989  1.00  0.00    -0.234 A  
HETATM   39  C   UNL     1      -7.987  18.465  67.504  1.00  0.00    -0.236 A  
HETATM   40 CL   UNL     1      -6.413  18.451  66.749  1.00  0.00    -0.202 Cl 
HETATM   41  C   UNL     1      -8.597  19.727  67.705  1.00  0.00    -0.324 A  
HETATM   42  C   UNL     1      -9.784  19.849  68.429  1.00  0.00    -0.446 A  
HETATM   43 CL   UNL     1      -7.934  21.207  67.082  1.00  0.00    -0.092 Cl 
HETATM   44  C   UNL     1     -10.391  18.713  68.929  1.00  0.00    -0.127 A  
HETATM   45  C   UNL     1      -9.818  17.461  68.687  1.00  0.00    -0.322 A  
ENDBRANCH  35  38
ENDBRANCH  31  32
ENDBRANCH  30  31
ENDBRANCH  29  30
ENDBRANCH  28  29
ENDBRANCH  27  28
ENDBRANCH  24  27
ENDBRANCH  15  16
ENDBRANCH  14  15
ENDBRANCH  12  14
ENDBRANCH  11  12
ENDBRANCH  10  11
ENDBRANCH   9  10
ENDBRANCH   8   9
ENDBRANCH   7   8
ENDBRANCH   6   7
ENDBRANCH   5   6
ENDBRANCH   4   5
ENDBRANCH   3   4
ENDBRANCH   2   3
TORSDOF 20
ENDMDL
MODEL      146
REMARK 921   NORMALIZED FREE ENERGY PREDICTED BY IDOCK:    0.28 KCAL/MOL
REMARK 922        TOTAL FREE ENERGY PREDICTED BY IDOCK:   -3.24 KCAL/MOL
REMARK 923 INTER-LIGAND FREE ENERGY PREDICTED BY IDOCK:   -6.08 KCAL/MOL
REMARK 924 INTRA-LIGAND FREE ENERGY PREDICTED BY IDOCK:    2.84 KCAL/MOL
REMARK 927      BINDING AFFINITY PREDICTED BY RF-SCORE:    0.00 PKD
ROOT
HETATM    1  C   UNL     1      -8.317   9.510  68.941  1.00  0.00    -0.121 C  
HETATM    2  C   UNL     1      -7.749   9.979  70.270  1.00  0.00    -0.093 C  
ENDROOT
BRANCH   2   3
HETATM    3  C   UNL     1      -7.658   8.829  71.273  1.00  0.00    -0.134 C  
BRANCH   3   4
HETATM    4  C   UNL     1      -8.020   7.494  70.622  1.00  0.00    -0.100 C  
BRANCH   4   5
HETATM    5  C   UNL     1      -8.441   6.467  71.673  1.00  0.00    -0.128 C  
BRANCH   5   6
HETATM    6  C   UNL     1      -9.229   7.125  72.805  1.00  0.00    -0.166 C  
BRANCH   6   7
HETATM    7  C   UNL     1     -10.116   6.110  73.526  1.00  0.00    -0.218 C  
BRANCH   7   8
HETATM    8  C   UNL     1     -11.438   5.917  72.785  1.00  0.00    -0.274 C  
BRANCH   8   9
HETATM    9  C   UNL     1     -11.248   5.096  71.509  1.00  0.00     0.198 C  
BRANCH   9  10
HETATM   10  C   UNL     1     -11.562   5.937  70.269  1.00  0.00     0.092 C  
BRANCH  10  11
HETATM   11  C   UNL     1     -10.319   6.245  69.438  1.00  0.00    -0.266 C  
BRANCH  11  12
HETATM   12  C   UNL     1     -10.174   5.345  68.233  1.00  0.00    -0.160 C  
HETATM   13  O   UNL     1     -10.517   5.627  67.094  1.00  0.00    -0.221 OA 
BRANCH  12  14
HETATM   14  O   UNL     1      -9.580   4.183  68.615  1.00  0.00    -0.157 OA 
BRANCH  14  15
HETATM   15  C   UNL     1      -9.417   3.190  67.593  1.00  0.00    -0.152 C  
BRANCH  15  16
HETATM   16  N   UNL     1      -8.022   2.933  67.270  1.00  0.00    -0.076 N  
HETATM   17  C   UNL     1      -7.334   2.171  68.212  1.00  0.00    -0.047 C  
HETATM   18  C   UNL     1      -5.838   2.333  68.217  1.00  0.00    -0.023 C  
HETATM   19  O   UNL     1      -7.890   1.495  69.074  1.00  0.00    -0.045 OA 
HETATM   20  C   UNL     1      -5.245   2.272  66.832  1.00  0.00    -0.008 C  
HETATM   21  C   UNL     1      -6.043   3.059  65.832  1.00  0.00    -0.024 A  
HETATM   22  C   UNL     1      -5.416   3.452  64.640  1.00  0.00    -0.010 A  
HETATM   23  C   UNL     1      -6.133   4.091  63.630  1.00  0.00    -0.018 A  
HETATM   24  C   UNL     1      -7.495   4.313  63.794  1.00  0.00    -0.055 A  
HETATM   25  C   UNL     1      -8.120   3.932  64.989  1.00  0.00    -0.093 A  
HETATM   26  C   UNL     1      -7.408   3.324  66.037  1.00  0.00    -0.072 A  
BRANCH  24  27
HETATM   27  O   UNL     1      -8.309   4.925  62.878  1.00  0.00    -0.095 OA 
BRANCH  27  28
HETATM   28  C   UNL     1      -7.844   6.168  62.346  1.00  0.00    -0.091 C  
BRANCH  28  29
HETATM   29  C   UNL     1      -6.604   6.608  63.126  1.00  0.00    -0.038 C  
BRANCH  29  30
HETATM   30  C   UNL     1      -6.899   6.786  64.623  1.00  0.00    -0.050 C  
BRANCH  30  31
HETATM   31  C   UNL     1      -8.270   7.433  64.903  1.00  0.00    -0.077 C  
BRANCH  31  32
HETATM   32  N   UNL     1      -8.247   8.401  66.007  1.00  0.00    -0.107 NA 
HETATM   33  C   UNL     1      -7.607   9.684  65.653  1.00  0.00    -0.107 C  
HETATM   34  C   UNL     1      -8.476  10.582  64.750  1.00  0.00    -0.147 C  
HETATM   35  N   UNL     1      -9.702  10.944  65.482  1.00  0.00    -0.219 NA 
HETATM   36  C   UNL     1     -10.485   9.764  65.898  1.00  0.00     0.043 C  
HETATM   37  C   UNL     1      -9.594   8.668  66.564  1.00  0.00    -0.237 C  
BRANCH  35  38
HETATM   38  C   UNL     1     -10.097  12.272  65.618  1.00  0.00    -0.252 A  
HETATM   39  C   UNL     1     -11.012  12.976  64.788  1.00  0.00    -0.327 A  
HETATM   40 CL   UNL     1     -11.665  12.271  63.331  1.00  0.00    -0.547 Cl 
HETATM   41  C   UNL     1     -11.354  14.323  65.064  1.00  0.00    -0.365 A  
HETATM   42  C   UNL     1     -10.766  15.015  66.124  1.00  0.00    -0.328 A  
HETATM   43 CL   UNL     1     -12.513  15.215  64.127  1.00  0.00    -0.244 Cl 
HETATM   44  C   UNL     1      -9.858  14.363  66.937  1.00  0.00    -0.263 A  
HETATM   45  C   UNL     1      -9.559  13.019  66.698  1.00  0.00    -0.259 A  
ENDBRANCH  35  38
ENDBRANCH  31  32
ENDBRANCH  30  31
ENDBRANCH  29  30
ENDBRANCH  28  29
ENDBRANCH  27  28
ENDBRANCH  24  27
ENDBRANCH  15  16
ENDBRANCH  14  15
ENDBRANCH  12  14
ENDBRANCH  11  12
ENDBRANCH  10  11
ENDBRANCH   9  10
ENDBRANCH   8   9
ENDBRANCH   7   8
ENDBRANCH   6   7
ENDBRANCH   5   6
ENDBRANCH   4   5
ENDBRANCH   3   4
ENDBRANCH   2   3
TORSDOF 20
ENDMDL
MODEL      147
REMARK 921   NORMALIZED FREE ENERGY PREDICTED BY IDOCK:    0.38 KCAL/MOL
REMARK 922        TOTAL FREE ENERGY PREDICTED BY IDOCK:   -3.02 KCAL/MOL
REMARK 923 INTER-LIGAND FREE ENERGY PREDICTED BY IDOCK:   -5.11 KCAL/MOL
REMARK 924 INTRA-LIGAND FREE ENERGY PREDICTED BY IDOCK:    2.08 KCAL/MOL
REMARK 927      BINDING AFFINITY PREDICTED BY RF-SCORE:    0.00 PKD
ROOT
HETATM    1  C   UNL     1     -11.663   9.667  72.451  1.00  0.00     0.663 C  
HETATM    2  C   UNL     1     -10.590   8.812  73.106  1.00  0.00     1.188 C  
ENDROOT
BRANCH   2   3
HETATM    3  C   UNL     1      -9.691   8.152  72.062  1.00  0.00    -0.292 C  
BRANCH   3   4
HETATM    4  C   UNL     1      -9.602   6.642  72.281  1.00  0.00    -0.150 C  
BRANCH   4   5
HETATM    5  C   UNL     1     -10.639   5.902  71.437  1.00  0.00    -0.309 C  
BRANCH   5   6
HETATM    6  C   UNL     1     -10.085   4.576  70.918  1.00  0.00    -0.228 C  
BRANCH   6   7
HETATM    7  C   UNL     1      -8.775   4.783  70.158  1.00  0.00    -0.121 C  
BRANCH   7   8
HETATM    8  C   UNL     1      -8.408   6.265  70.095  1.00  0.00    -0.129 C  
BRANCH   8   9
HETATM    9  C   UNL     1      -8.982   6.928  68.841  1.00  0.00    -0.131 C  
BRANCH   9  10
HETATM   10  C   UNL     1      -7.866   7.542  67.992  1.00  0.00    -0.121 C  
BRANCH  10  11
HETATM   11  C   UNL     1      -7.490   8.951  68.444  1.00  0.00    -0.086 C  
BRANCH  11  12
HETATM   12  C   UNL     1      -8.640   9.928  68.355  1.00  0.00    -0.116 C  
HETATM   13  O   UNL     1      -8.728  10.975  68.978  1.00  0.00    -0.147 OA 
BRANCH  12  14
HETATM   14  O   UNL     1      -9.546   9.465  67.452  1.00  0.00    -0.139 OA 
BRANCH  14  15
HETATM   15  C   UNL     1     -10.900   9.901  67.636  1.00  0.00    -0.257 C  
BRANCH  15  16
HETATM   16  N   UNL     1     -11.107  11.288  67.249  1.00  0.00    -0.291 N  
HETATM   17  C   UNL     1     -11.426  12.147  68.300  1.00  0.00    -0.305 C  
HETATM   18  C   UNL     1     -12.157  13.403  67.917  1.00  0.00    -0.289 C  
HETATM   19  O   UNL     1     -11.241  11.869  69.482  1.00  0.00    -0.231 OA 
HETATM   20  C   UNL     1     -11.538  14.095  66.729  1.00  0.00    -0.409 C  
HETATM   21  C   UNL     1     -11.157  13.134  65.641  1.00  0.00    -0.296 A  
HETATM   22  C   UNL     1     -10.979  13.635  64.342  1.00  0.00    -0.379 A  
HETATM   23  C   UNL     1     -10.523  12.812  63.313  1.00  0.00     0.329 A  
HETATM   24  C   UNL     1     -10.211  11.485  63.585  1.00  0.00    -0.405 A  
HETATM   25  C   UNL     1     -10.401  10.981  64.879  1.00  0.00    -0.378 A  
HETATM   26  C   UNL     1     -10.898  11.782  65.922  1.00  0.00    -0.291 A  
BRANCH  24  27
HETATM   27  O   UNL     1      -9.753  10.579  62.666  1.00  0.00    -0.293 OA 
BRANCH  27  28
HETATM   28  C   UNL     1      -8.354  10.624  62.373  1.00  0.00    -0.226 C  
BRANCH  28  29
HETATM   29  C   UNL     1      -7.664   9.446  63.063  1.00  0.00    -0.119 C  
BRANCH  29  30
HETATM   30  C   UNL     1      -6.284   9.151  62.457  1.00  0.00    -0.094 C  
BRANCH  30  31
HETATM   31  C   UNL     1      -5.939   7.648  62.426  1.00  0.00    -0.064 C  
BRANCH  31  32
HETATM   32  N   UNL     1      -7.083   6.779  62.728  1.00  0.00    -0.048 NA 
HETATM   33  C   UNL     1      -6.779   5.339  62.605  1.00  0.00    -0.026 C  
HETATM   34  C   UNL     1      -5.923   4.784  63.760  1.00  0.00    -0.018 C  
HETATM   35  N   UNL     1      -6.679   4.919  65.017  1.00  0.00    -0.047 NA 
HETATM   36  C   UNL     1      -7.051   6.317  65.310  1.00  0.00    -0.064 C  
HETATM   37  C   UNL     1      -7.662   7.039  64.068  1.00  0.00    -0.116 C  
BRANCH  35  38
HETATM   38  C   UNL     1      -6.875   3.831  65.862  1.00  0.00    -0.057 A  
HETATM   39  C   UNL     1      -8.080   3.482  66.534  1.00  0.00    -0.092 A  
HETATM   40 CL   UNL     1      -9.485   4.516  66.501  1.00  0.00    -0.161 Cl 
HETATM   41  C   UNL     1      -8.150   2.320  67.341  1.00  0.00    -0.066 A  
HETATM   42  C   UNL     1      -7.031   1.512  67.544  1.00  0.00    -0.035 A  
HETATM   43 CL   UNL     1      -9.609   1.807  68.133  1.00  0.00    -0.218 Cl 
HETATM   44  C   UNL     1      -5.841   1.836  66.920  1.00  0.00    -0.019 A  
HETATM   45  C   UNL     1      -5.783   2.953  66.082  1.00  0.00    -0.022 A  
ENDBRANCH  35  38
ENDBRANCH  31  32
ENDBRANCH  30  31
ENDBRANCH  29  30
ENDBRANCH  28  29
ENDBRANCH  27  28
ENDBRANCH  24  27
ENDBRANCH  15  16
ENDBRANCH  14  15
ENDBRANCH  12  14
ENDBRANCH  11  12
ENDBRANCH  10  11
ENDBRANCH   9  10
ENDBRANCH   8   9
ENDBRANCH   7   8
ENDBRANCH   6   7
ENDBRANCH   5   6
ENDBRANCH   4   5
ENDBRANCH   3   4
ENDBRANCH   2   3
TORSDOF 20
ENDMDL
MODEL      148
REMARK 921   NORMALIZED FREE ENERGY PREDICTED BY IDOCK:    0.74 KCAL/MOL
REMARK 922        TOTAL FREE ENERGY PREDICTED BY IDOCK:   -2.25 KCAL/MOL
REMARK 923 INTER-LIGAND FREE ENERGY PREDICTED BY IDOCK:   -3.67 KCAL/MOL
REMARK 924 INTRA-LIGAND FREE ENERGY PREDICTED BY IDOCK:    1.42 KCAL/MOL
REMARK 927      BINDING AFFINITY PREDICTED BY RF-SCORE:    0.00 PKD
ROOT
HETATM    1  C   UNL     1      -8.255  17.793  69.138  1.00  0.00     0.091 C  
HETATM    2  C   UNL     1      -9.728  18.047  68.864  1.00  0.00    -0.280 C  
ENDROOT
BRANCH   2   3
HETATM    3  C   UNL     1     -10.473  16.745  68.572  1.00  0.00    -0.335 C  
BRANCH   3   4
HETATM    4  C   UNL     1     -11.702  16.595  69.468  1.00  0.00     0.455 C  
BRANCH   4   5
HETATM    5  C   UNL     1     -11.980  15.124  69.778  1.00  0.00    -0.367 C  
BRANCH   5   6
HETATM    6  C   UNL     1     -12.996  14.981  70.911  1.00  0.00    -0.463 C  
BRANCH   6   7
HETATM    7  C   UNL     1     -13.695  13.622  70.859  1.00  0.00     0.318 C  
BRANCH   7   8
HETATM    8  C   UNL     1     -13.997  13.109  72.266  1.00  0.00    -0.490 C  
BRANCH   8   9
HETATM    9  C   UNL     1     -13.626  11.633  72.413  1.00  0.00     0.190 C  
BRANCH   9  10
HETATM   10  C   UNL     1     -12.455  11.273  71.493  1.00  0.00    -0.332 C  
BRANCH  10  11
HETATM   11  C   UNL     1     -11.938   9.856  71.728  1.00  0.00    -0.329 C  
BRANCH  11  12
HETATM   12  C   UNL     1     -10.863   9.447  70.748  1.00  0.00    -0.305 C  
HETATM   13  O   UNL     1      -9.679   9.739  70.834  1.00  0.00    -0.151 OA 
BRANCH  12  14
HETATM   14  O   UNL     1     -11.421   8.683  69.770  1.00  0.00     0.020 OA 
BRANCH  14  15
HETATM   15  C   UNL     1     -11.663   9.338  68.517  1.00  0.00     1.200 C  
BRANCH  15  16
HETATM   16  N   UNL     1     -10.716   8.951  67.483  1.00  0.00    -0.222 N  
HETATM   17  C   UNL     1     -10.288   9.993  66.662  1.00  0.00    -0.213 C  
HETATM   18  C   UNL     1      -9.777   9.589  65.307  1.00  0.00    -0.268 C  
HETATM   19  O   UNL     1     -10.417  11.180  66.951  1.00  0.00    -0.224 OA 
HETATM   20  C   UNL     1      -8.816   8.429  65.373  1.00  0.00    -0.146 C  
HETATM   21  C   UNL     1      -9.282   7.351  66.308  1.00  0.00    -0.182 A  
HETATM   22  C   UNL     1      -8.747   6.062  66.158  1.00  0.00    -0.146 A  
HETATM   23  C   UNL     1      -9.061   5.047  67.061  1.00  0.00    -0.117 A  
HETATM   24  C   UNL     1      -9.891   5.325  68.141  1.00  0.00    -0.150 A  
HETATM   25  C   UNL     1     -10.435   6.608  68.283  1.00  0.00    -0.249 A  
HETATM   26  C   UNL     1     -10.166   7.635  67.363  1.00  0.00    -0.251 A  
BRANCH  24  27
HETATM   27  O   UNL     1     -10.270   4.419  69.096  1.00  0.00    -0.050 OA 
BRANCH  27  28
HETATM   28  C   UNL     1     -10.414   4.922  70.426  1.00  0.00    -0.094 C  
BRANCH  28  29
HETATM   29  C   UNL     1      -9.266   5.890  70.717  1.00  0.00    -0.167 C  
BRANCH  29  30
HETATM   30  C   UNL     1      -8.637   5.640  72.096  1.00  0.00    -0.126 C  
BRANCH  30  31
HETATM   31  C   UNL     1      -7.187   6.154  72.208  1.00  0.00    -0.088 C  
BRANCH  31  32
HETATM   32  N   UNL     1      -6.451   6.108  70.938  1.00  0.00    -0.043 NA 
HETATM   33  C   UNL     1      -7.284   6.431  69.762  1.00  0.00    -0.074 C  
HETATM   34  C   UNL     1      -7.618   7.929  69.630  1.00  0.00    -0.098 C  
HETATM   35  N   UNL     1      -6.365   8.679  69.441  1.00  0.00    -0.040 NA 
HETATM   36  C   UNL     1      -5.413   8.485  70.552  1.00  0.00    -0.027 C  
HETATM   37  C   UNL     1      -5.254   6.981  70.938  1.00  0.00    -0.023 C  
BRANCH  35  38
HETATM   38  C   UNL     1      -6.206   9.564  68.378  1.00  0.00    -0.048 A  
HETATM   39  C   UNL     1      -6.718  10.889  68.290  1.00  0.00    -0.063 A  
HETATM   40 CL   UNL     1      -7.793  11.542  69.499  1.00  0.00     0.276 Cl 
HETATM   41  C   UNL     1      -6.448  11.697  67.159  1.00  0.00    -0.137 A  
HETATM   42  C   UNL     1      -5.719  11.204  66.076  1.00  0.00    -0.100 A  
HETATM   43 CL   UNL     1      -6.990  13.342  67.023  1.00  0.00     0.262 Cl 
HETATM   44  C   UNL     1      -5.225   9.915  66.123  1.00  0.00    -0.039 A  
HETATM   45  C   UNL     1      -5.446   9.133  67.260  1.00  0.00    -0.041 A  
ENDBRANCH  35  38
ENDBRANCH  31  32
ENDBRANCH  30  31
ENDBRANCH  29  30
ENDBRANCH  28  29
ENDBRANCH  27  28
ENDBRANCH  24  27
ENDBRANCH  15  16
ENDBRANCH  14  15
ENDBRANCH  12  14
ENDBRANCH  11  12
ENDBRANCH  10  11
ENDBRANCH   9  10
ENDBRANCH   8   9
ENDBRANCH   7   8
ENDBRANCH   6   7
ENDBRANCH   5   6
ENDBRANCH   4   5
ENDBRANCH   3   4
ENDBRANCH   2   3
TORSDOF 20
ENDMDL
MODEL      149
REMARK 921   NORMALIZED FREE ENERGY PREDICTED BY IDOCK:    1.07 KCAL/MOL
REMARK 922        TOTAL FREE ENERGY PREDICTED BY IDOCK:   -1.52 KCAL/MOL
REMARK 923 INTER-LIGAND FREE ENERGY PREDICTED BY IDOCK:   -0.50 KCAL/MOL
REMARK 924 INTRA-LIGAND FREE ENERGY PREDICTED BY IDOCK:   -1.02 KCAL/MOL
REMARK 927      BINDING AFFINITY PREDICTED BY RF-SCORE:    0.00 PKD
ROOT
HETATM    1  C   UNL     1      -8.193  14.963  71.235  1.00  0.00     3.398 C  
HETATM    2  C   UNL     1      -8.751  15.789  70.087  1.00  0.00     0.796 C  
ENDROOT
BRANCH   2   3
HETATM    3  C   UNL     1      -9.041  14.919  68.865  1.00  0.00    -0.191 C  
BRANCH   3   4
HETATM    4  C   UNL     1      -7.811  14.113  68.452  1.00  0.00    -0.143 C  
BRANCH   4   5
HETATM    5  C   UNL     1      -6.737  15.018  67.848  1.00  0.00    -0.172 C  
BRANCH   5   6
HETATM    6  C   UNL     1      -5.464  15.004  68.693  1.00  0.00    -0.093 C  
BRANCH   6   7
HETATM    7  C   UNL     1      -5.150  16.396  69.244  1.00  0.00    -0.118 C  
BRANCH   7   8
HETATM    8  C   UNL     1      -6.202  17.410  68.797  1.00  0.00    -0.182 C  
BRANCH   8   9
HETATM    9  C   UNL     1      -5.984  17.837  67.345  1.00  0.00    -0.163 C  
BRANCH   9  10
HETATM   10  C   UNL     1      -7.164  17.407  66.469  1.00  0.00    -0.305 C  
BRANCH  10  11
HETATM   11  C   UNL     1      -8.478  18.057  66.892  1.00  0.00    -0.262 C  
BRANCH  11  12
HETATM   12  C   UNL     1      -9.689  17.420  66.251  1.00  0.00    -0.261 C  
HETATM   13  O   UNL     1     -10.696  18.013  65.896  1.00  0.00    -0.349 OA 
BRANCH  12  14
HETATM   14  O   UNL     1      -9.466  16.085  66.111  1.00  0.00    -0.284 OA 
BRANCH  14  15
HETATM   15  C   UNL     1      -9.843  15.510  64.853  1.00  0.00     0.348 C  
BRANCH  15  16
HETATM   16  N   UNL     1     -10.740  14.373  64.996  1.00  0.00    -0.398 N  
HETATM   17  C   UNL     1     -12.049  14.605  64.575  1.00  0.00    -0.475 C  
HETATM   18  C   UNL     1     -13.096  13.710  65.178  1.00  0.00    -0.127 C  
HETATM   19  O   UNL     1     -12.372  15.545  63.854  1.00  0.00    -0.653 OA 
HETATM   20  C   UNL     1     -12.697  12.256  65.159  1.00  0.00     0.127 C  
HETATM   21  C   UNL     1     -11.266  12.050  65.564  1.00  0.00    -0.372 A  
HETATM   22  C   UNL     1     -10.875  10.776  66.004  1.00  0.00    -0.102 A  
HETATM   23  C   UNL     1      -9.540  10.496  66.293  1.00  0.00    -0.232 A  
HETATM   24  C   UNL     1      -8.580  11.483  66.110  1.00  0.00    -0.094 A  
HETATM   25  C   UNL     1      -8.971  12.759  65.683  1.00  0.00     0.576 A  
HETATM   26  C   UNL     1     -10.315  13.076  65.426  1.00  0.00    -0.300 A  
BRANCH  24  27
HETATM   27  O   UNL     1      -7.240  11.333  66.353  1.00  0.00    -0.126 OA 
BRANCH  27  28
HETATM   28  C   UNL     1      -6.868  11.050  67.704  1.00  0.00    -0.081 C  
BRANCH  28  29
HETATM   29  C   UNL     1      -5.456  10.459  67.716  1.00  0.00    -0.040 C  
BRANCH  29  30
HETATM   30  C   UNL     1      -5.129   9.776  69.053  1.00  0.00    -0.036 C  
BRANCH  30  31
HETATM   31  C   UNL     1      -5.374  10.682  70.277  1.00  0.00    -0.060 C  
BRANCH  31  32
HETATM   32  N   UNL     1      -6.091  10.009  71.368  1.00  0.00    -0.306 NA 
HETATM   33  C   UNL     1      -7.561  10.089  71.246  1.00  0.00     1.337 C  
HETATM   34  C   UNL     1      -8.144   9.166  70.158  1.00  0.00    -0.140 C  
HETATM   35  N   UNL     1      -7.857   7.768  70.519  1.00  0.00    -0.095 NA 
HETATM   36  C   UNL     1      -6.412   7.503  70.663  1.00  0.00    -0.039 C  
HETATM   37  C   UNL     1      -5.695   8.590  71.525  1.00  0.00    -0.040 C  
BRANCH  35  38
HETATM   38  C   UNL     1      -8.868   6.813  70.573  1.00  0.00    -0.151 A  
HETATM   39  C   UNL     1      -9.712   6.530  71.683  1.00  0.00    -0.163 A  
HETATM   40 CL   UNL     1      -9.467   7.278  73.241  1.00  0.00    -0.215 Cl 
HETATM   41  C   UNL     1     -10.731   5.551  71.589  1.00  0.00    -0.231 A  
HETATM   42  C   UNL     1     -10.904   4.798  70.427  1.00  0.00     0.599 A  
HETATM   43 CL   UNL     1     -11.834   5.207  72.886  1.00  0.00    -0.255 Cl 
HETATM   44  C   UNL     1     -10.087   5.036  69.338  1.00  0.00    -0.288 A  
HETATM   45  C   UNL     1      -9.115   6.038  69.411  1.00  0.00    -0.135 A  
ENDBRANCH  35  38
ENDBRANCH  31  32
ENDBRANCH  30  31
ENDBRANCH  29  30
ENDBRANCH  28  29
ENDBRANCH  27  28
ENDBRANCH  24  27
ENDBRANCH  15  16
ENDBRANCH  14  15
ENDBRANCH  12  14
ENDBRANCH  11  12
ENDBRANCH  10  11
ENDBRANCH   9  10
ENDBRANCH   8   9
ENDBRANCH   7   8
ENDBRANCH   6   7
ENDBRANCH   5   6
ENDBRANCH   4   5
ENDBRANCH   3   4
ENDBRANCH   2   3
TORSDOF 20
ENDMDL
MODEL      150
REMARK 921   NORMALIZED FREE ENERGY PREDICTED BY IDOCK:    1.28 KCAL/MOL
REMARK 922        TOTAL FREE ENERGY PREDICTED BY IDOCK:   -1.08 KCAL/MOL
REMARK 923 INTER-LIGAND FREE ENERGY PREDICTED BY IDOCK:   -5.59 KCAL/MOL
REMARK 924 INTRA-LIGAND FREE ENERGY PREDICTED BY IDOCK:    4.51 KCAL/MOL
REMARK 927      BINDING AFFINITY PREDICTED BY RF-SCORE:    0.00 PKD
ROOT
HETATM    1  C   UNL     1     -10.350  19.674  68.301  1.00  0.00    -0.539 C  
HETATM    2  C   UNL     1      -9.237  18.730  67.875  1.00  0.00    -0.324 C  
ENDROOT
BRANCH   2   3
HETATM    3  C   UNL     1      -9.570  17.282  68.230  1.00  0.00    -0.288 C  
BRANCH   3   4
HETATM    4  C   UNL     1     -10.966  17.166  68.842  1.00  0.00    -0.061 C  
BRANCH   4   5
HETATM    5  C   UNL     1     -10.896  16.640  70.276  1.00  0.00    -0.062 C  
BRANCH   5   6
HETATM    6  C   UNL     1     -11.564  15.271  70.395  1.00  0.00    -0.341 C  
BRANCH   6   7
HETATM    7  C   UNL     1     -11.187  14.366  69.221  1.00  0.00    -0.308 C  
BRANCH   7   8
HETATM    8  C   UNL     1     -11.433  15.071  67.888  1.00  0.00    -0.354 C  
BRANCH   8   9
HETATM    9  C   UNL     1     -12.657  14.497  67.173  1.00  0.00     0.448 C  
BRANCH   9  10
HETATM   10  C   UNL     1     -12.333  13.139  66.544  1.00  0.00    -0.252 C  
BRANCH  10  11
HETATM   11  C   UNL     1     -11.172  13.211  65.556  1.00  0.00    -0.305 C  
BRANCH  11  12
HETATM   12  C   UNL     1      -9.839  12.867  66.180  1.00  0.00    -0.270 C  
HETATM   13  O   UNL     1      -8.745  13.138  65.708  1.00  0.00     0.633 OA 
BRANCH  12  14
HETATM   14  O   UNL     1     -10.055  12.231  67.363  1.00  0.00    -0.199 OA 
BRANCH  14  15
HETATM   15  C   UNL     1      -9.199  12.610  68.450  1.00  0.00    -0.135 C  
BRANCH  15  16
HETATM   16  N   UNL     1      -7.885  11.991  68.379  1.00  0.00    -0.143 N  
HETATM   17  C   UNL     1      -6.888  12.796  67.829  1.00  0.00    -0.135 C  
HETATM   18  C   UNL     1      -5.709  12.067  67.245  1.00  0.00    -0.139 C  
HETATM   19  O   UNL     1      -6.992  14.013  67.706  1.00  0.00    -0.146 OA 
HETATM   20  C   UNL     1      -5.187  10.986  68.158  1.00  0.00    -0.039 C  
HETATM   21  C   UNL     1      -6.290  10.176  68.775  1.00  0.00    -0.048 A  
HETATM   22  C   UNL     1      -5.978   8.905  69.283  1.00  0.00    -0.041 A  
HETATM   23  C   UNL     1      -6.934   8.150  69.961  1.00  0.00    -0.040 A  
HETATM   24  C   UNL     1      -8.203   8.678  70.164  1.00  0.00    -0.123 A  
HETATM   25  C   UNL     1      -8.519   9.941  69.646  1.00  0.00    -0.198 A  
HETATM   26  C   UNL     1      -7.584  10.702  68.924  1.00  0.00    -0.113 A  
BRANCH  24  27
HETATM   27  O   UNL     1      -9.226   8.041  70.816  1.00  0.00    -0.153 OA 
BRANCH  27  28
HETATM   28  C   UNL     1     -10.244   8.878  71.370  1.00  0.00    -0.305 C  
BRANCH  28  29
HETATM   29  C   UNL     1     -10.247   8.713  72.891  1.00  0.00     0.182 C  
BRANCH  29  30
HETATM   30  C   UNL     1     -10.675   7.300  73.317  1.00  0.00    -0.428 C  
BRANCH  30  31
HETATM   31  C   UNL     1     -10.658   6.282  72.158  1.00  0.00    -0.223 C  
BRANCH  31  32
HETATM   32  N   UNL     1      -9.790   5.124  72.409  1.00  0.00    -0.163 NA 
HETATM   33  C   UNL     1     -10.133   3.942  71.593  1.00  0.00    -0.097 C  
HETATM   34  C   UNL     1      -9.712   4.065  70.115  1.00  0.00    -0.195 C  
HETATM   35  N   UNL     1      -8.245   4.174  70.049  1.00  0.00    -0.057 NA 
HETATM   36  C   UNL     1      -7.726   5.331  70.804  1.00  0.00    -0.088 C  
HETATM   37  C   UNL     1      -8.352   5.435  72.231  1.00  0.00    -0.122 C  
BRANCH  35  38
HETATM   38  C   UNL     1      -7.493   3.329  69.238  1.00  0.00    -0.048 A  
HETATM   39  C   UNL     1      -7.708   3.064  67.857  1.00  0.00    -0.056 A  
HETATM   40 CL   UNL     1      -9.104   3.675  67.008  1.00  0.00    -0.168 Cl 
HETATM   41  C   UNL     1      -6.838   2.205  67.139  1.00  0.00    -0.040 A  
HETATM   42  C   UNL     1      -5.780   1.554  67.774  1.00  0.00    -0.019 A  
HETATM   43 CL   UNL     1      -7.011   1.894  65.439  1.00  0.00    -0.045 Cl 
HETATM   44  C   UNL     1      -5.557   1.777  69.119  1.00  0.00    -0.014 A  
HETATM   45  C   UNL     1      -6.382   2.664  69.817  1.00  0.00    -0.028 A  
ENDBRANCH  35  38
ENDBRANCH  31  32
ENDBRANCH  30  31
ENDBRANCH  29  30
ENDBRANCH  28  29
ENDBRANCH  27  28
ENDBRANCH  24  27
ENDBRANCH  15  16
ENDBRANCH  14  15
ENDBRANCH  12  14
ENDBRANCH  11  12
ENDBRANCH  10  11
ENDBRANCH   9  10
ENDBRANCH   8   9
ENDBRANCH   7   8
ENDBRANCH   6   7
ENDBRANCH   5   6
ENDBRANCH   4   5
ENDBRANCH   3   4
ENDBRANCH   2   3
TORSDOF 20
ENDMDL
MODEL      151
REMARK 921   NORMALIZED FREE ENERGY PREDICTED BY IDOCK:    1.56 KCAL/MOL
REMARK 922        TOTAL FREE ENERGY PREDICTED BY IDOCK:   -0.45 KCAL/MOL
REMARK 923 INTER-LIGAND FREE ENERGY PREDICTED BY IDOCK:   -2.89 KCAL/MOL
REMARK 924 INTRA-LIGAND FREE ENERGY PREDICTED BY IDOCK:    2.43 KCAL/MOL
REMARK 927      BINDING AFFINITY PREDICTED BY RF-SCORE:    0.00 PKD
ROOT
HETATM    1  C   UNL     1      -5.281  13.753  70.098  1.00  0.00    -0.096 C  
HETATM    2  C   UNL     1      -6.404  14.729  70.410  1.00  0.00    -0.135 C  
ENDROOT
BRANCH   2   3
HETATM    3  C   UNL     1      -6.748  14.723  71.899  1.00  0.00     1.537 C  
BRANCH   3   4
HETATM    4  C   UNL     1      -5.505  14.486  72.756  1.00  0.00    -0.077 C  
BRANCH   4   5
HETATM    5  C   UNL     1      -5.153  12.999  72.814  1.00  0.00     0.089 C  
BRANCH   5   6
HETATM    6  C   UNL     1      -5.172  12.372  71.420  1.00  0.00    -0.085 C  
BRANCH   6   7
HETATM    7  C   UNL     1      -5.129  10.846  71.500  1.00  0.00    -0.050 C  
BRANCH   7   8
HETATM    8  C   UNL     1      -6.411  10.233  70.938  1.00  0.00     0.082 C  
BRANCH   8   9
HETATM    9  C   UNL     1      -6.495   8.737  71.244  1.00  0.00    -0.071 C  
BRANCH   9  10
HETATM   10  C   UNL     1      -7.243   7.995  70.132  1.00  0.00    -0.056 C  
BRANCH  10  11
HETATM   11  C   UNL     1      -8.691   8.455  69.991  1.00  0.00    -0.133 C  
BRANCH  11  12
HETATM   12  C   UNL     1      -9.641   7.329  69.654  1.00  0.00    -0.155 C  
HETATM   13  O   UNL     1     -10.239   6.640  70.467  1.00  0.00    -0.186 OA 
BRANCH  12  14
HETATM   14  O   UNL     1      -9.741   7.223  68.301  1.00  0.00    -0.143 OA 
BRANCH  14  15
HETATM   15  C   UNL     1     -10.896   7.827  67.703  1.00  0.00    -0.079 C  
BRANCH  15  16
HETATM   16  N   UNL     1     -10.663   9.199  67.278  1.00  0.00    -0.225 N  
HETATM   17  C   UNL     1     -11.119  10.172  68.167  1.00  0.00    -0.230 C  
HETATM   18  C   UNL     1     -11.399  11.523  67.568  1.00  0.00    -0.366 C  
HETATM   19  O   UNL     1     -11.398   9.940  69.340  1.00  0.00    -0.193 OA 
HETATM   20  C   UNL     1     -10.290  11.995  66.661  1.00  0.00    -0.237 C  
HETATM   21  C   UNL     1      -9.787  10.906  65.758  1.00  0.00    -0.286 A  
HETATM   22  C   UNL     1      -9.089  11.274  64.597  1.00  0.00    -0.015 A  
HETATM   23  C   UNL     1      -8.506  10.310  63.776  1.00  0.00    -0.179 A  
HETATM   24  C   UNL     1      -8.592   8.968  64.129  1.00  0.00    -0.143 A  
HETATM   25  C   UNL     1      -9.299   8.600  65.281  1.00  0.00     0.073 A  
HETATM   26  C   UNL     1      -9.929   9.551  66.101  1.00  0.00    -0.272 A  
BRANCH  24  27
HETATM   27  O   UNL     1      -8.061   7.930  63.412  1.00  0.00    -0.147 OA 
BRANCH  27  28
HETATM   28  C   UNL     1      -7.706   6.761  64.155  1.00  0.00    -0.113 C  
BRANCH  28  29
HETATM   29  C   UNL     1      -7.688   5.558  63.208  1.00  0.00    -0.084 C  
BRANCH  29  30
HETATM   30  C   UNL     1      -7.117   4.302  63.884  1.00  0.00    -0.046 C  
BRANCH  30  31
HETATM   31  C   UNL     1      -7.551   4.151  65.357  1.00  0.00    -0.085 C  
BRANCH  31  32
HETATM   32  N   UNL     1      -6.462   3.727  66.246  1.00  0.00    -0.036 NA 
HETATM   33  C   UNL     1      -5.994   4.794  67.155  1.00  0.00    -0.027 C  
HETATM   34  C   UNL     1      -6.963   5.092  68.315  1.00  0.00    -0.061 C  
HETATM   35  N   UNL     1      -7.080   3.887  69.154  1.00  0.00    -0.046 NA 
HETATM   36  C   UNL     1      -7.564   2.714  68.400  1.00  0.00    -0.055 C  
HETATM   37  C   UNL     1      -6.809   2.529  67.046  1.00  0.00    -0.041 C  
BRANCH  35  38
HETATM   38  C   UNL     1      -6.873   3.941  70.530  1.00  0.00    -0.033 A  
HETATM   39  C   UNL     1      -7.851   3.748  71.545  1.00  0.00    -0.061 A  
HETATM   40 CL   UNL     1      -9.545   3.566  71.169  1.00  0.00    -0.233 Cl 
HETATM   41  C   UNL     1      -7.493   3.795  72.915  1.00  0.00    -0.064 A  
HETATM   42  C   UNL     1      -6.187   4.084  73.311  1.00  0.00    -0.020 A  
HETATM   43 CL   UNL     1      -8.628   3.504  74.198  1.00  0.00    -0.088 Cl 
HETATM   44  C   UNL     1      -5.218   4.295  72.348  1.00  0.00    -0.003 A  
HETATM   45  C   UNL     1      -5.558   4.197  70.996  1.00  0.00    -0.012 A  
ENDBRANCH  35  38
ENDBRANCH  31  32
ENDBRANCH  30  31
ENDBRANCH  29  30
ENDBRANCH  28  29
ENDBRANCH  27  28
ENDBRANCH  24  27
ENDBRANCH  15  16
ENDBRANCH  14  15
ENDBRANCH  12  14
ENDBRANCH  11  12
ENDBRANCH  10  11
ENDBRANCH   9  10
ENDBRANCH   8   9
ENDBRANCH   7   8
ENDBRANCH   6   7
ENDBRANCH   5   6
ENDBRANCH   4   5
ENDBRANCH   3   4
ENDBRANCH   2   3
TORSDOF 20
ENDMDL
MODEL      152
REMARK 921   NORMALIZED FREE ENERGY PREDICTED BY IDOCK:    1.63 KCAL/MOL
REMARK 922        TOTAL FREE ENERGY PREDICTED BY IDOCK:   -0.30 KCAL/MOL
REMARK 923 INTER-LIGAND FREE ENERGY PREDICTED BY IDOCK:   -2.75 KCAL/MOL
REMARK 924 INTRA-LIGAND FREE ENERGY PREDICTED BY IDOCK:    2.45 KCAL/MOL
REMARK 927      BINDING AFFINITY PREDICTED BY RF-SCORE:    0.00 PKD
ROOT
HETATM    1  C   UNL     1     -11.265   9.447  72.551  1.00  0.00     0.971 C  
HETATM    2  C   UNL     1     -10.205   8.482  73.056  1.00  0.00     0.165 C  
ENDROOT
BRANCH   2   3
HETATM    3  C   UNL     1      -9.534   7.738  71.902  1.00  0.00    -0.197 C  
BRANCH   3   4
HETATM    4  C   UNL     1      -9.537   6.228  72.137  1.00  0.00    -0.158 C  
BRANCH   4   5
HETATM    5  C   UNL     1     -10.601   5.541  71.281  1.00  0.00    -0.304 C  
BRANCH   5   6
HETATM    6  C   UNL     1     -10.072   4.238  70.682  1.00  0.00    -0.140 C  
BRANCH   6   7
HETATM    7  C   UNL     1      -8.722   4.452  69.998  1.00  0.00    -0.111 C  
BRANCH   7   8
HETATM    8  C   UNL     1      -8.314   5.924  70.041  1.00  0.00    -0.122 C  
BRANCH   8   9
HETATM    9  C   UNL     1      -8.864   6.691  68.838  1.00  0.00    -0.131 C  
BRANCH   9  10
HETATM   10  C   UNL     1      -7.735   7.394  68.079  1.00  0.00    -0.116 C  
BRANCH  10  11
HETATM   11  C   UNL     1      -7.457   8.799  68.609  1.00  0.00    -0.092 C  
BRANCH  11  12
HETATM   12  C   UNL     1      -8.694   9.663  68.674  1.00  0.00    -0.124 C  
HETATM   13  O   UNL     1      -8.794  10.711  69.296  1.00  0.00    -0.153 OA 
BRANCH  12  14
HETATM   14  O   UNL     1      -9.670   9.101  67.911  1.00  0.00    -0.147 OA 
BRANCH  14  15
HETATM   15  C   UNL     1     -11.019   9.450  68.250  1.00  0.00    -0.032 C  
BRANCH  15  16
HETATM   16  N   UNL     1     -11.352  10.824  67.906  1.00  0.00    -0.318 N  
HETATM   17  C   UNL     1     -11.598  11.656  68.997  1.00  0.00    -0.316 C  
HETATM   18  C   UNL     1     -12.443  12.868  68.716  1.00  0.00     0.421 C  
HETATM   19  O   UNL     1     -11.260  11.384  70.146  1.00  0.00    -0.183 OA 
HETATM   20  C   UNL     1     -12.009  13.602  67.473  1.00  0.00    -0.393 C  
HETATM   21  C   UNL     1     -11.700  12.671  66.336  1.00  0.00    -0.466 A  
HETATM   22  C   UNL     1     -11.705  13.188  65.031  1.00  0.00    -0.369 A  
HETATM   23  C   UNL     1     -11.324  12.399  63.947  1.00  0.00    -0.502 A  
HETATM   24  C   UNL     1     -10.903  11.093  64.166  1.00  0.00    -0.285 A  
HETATM   25  C   UNL     1     -10.910  10.572  65.467  1.00  0.00     0.077 A  
HETATM   26  C   UNL     1     -11.329  11.336  66.569  1.00  0.00    -0.047 A  
BRANCH  24  27
HETATM   27  O   UNL     1     -10.501  10.221  63.189  1.00  0.00     0.382 OA 
BRANCH  27  28
HETATM   28  C   UNL     1      -9.174  10.399  62.686  1.00  0.00    -0.303 C  
BRANCH  28  29
HETATM   29  C   UNL     1      -8.230   9.455  63.433  1.00  0.00    -0.168 C  
BRANCH  29  30
HETATM   30  C   UNL     1      -6.763   9.674  63.035  1.00  0.00    -0.107 C  
BRANCH  30  31
HETATM   31  C   UNL     1      -5.934  10.381  64.126  1.00  0.00    -0.103 C  
BRANCH  31  32
HETATM   32  N   UNL     1      -6.482  10.214  65.478  1.00  0.00    -0.099 NA 
HETATM   33  C   UNL     1      -5.493  10.450  66.550  1.00  0.00    -0.055 C  
HETATM   34  C   UNL     1      -5.151  11.937  66.763  1.00  0.00    -0.034 C  
HETATM   35  N   UNL     1      -6.369  12.646  67.191  1.00  0.00    -0.224 NA 
HETATM   36  C   UNL     1      -7.468  12.531  66.213  1.00  0.00     1.183 C  
HETATM   37  C   UNL     1      -7.672  11.062  65.723  1.00  0.00     0.037 C  
BRANCH  35  38
HETATM   38  C   UNL     1      -6.381  13.433  68.339  1.00  0.00    -0.088 A  
HETATM   39  C   UNL     1      -6.735  14.809  68.423  1.00  0.00    -0.102 A  
HETATM   40 CL   UNL     1      -7.064  15.764  67.000  1.00  0.00    -0.221 Cl 
HETATM   41  C   UNL     1      -6.738  15.483  69.669  1.00  0.00    -0.180 A  
HETATM   42  C   UNL     1      -6.345  14.835  70.841  1.00  0.00     0.117 A  
HETATM   43 CL   UNL     1      -7.223  17.141  69.844  1.00  0.00     0.511 Cl 
HETATM   44  C   UNL     1      -5.977  13.505  70.789  1.00  0.00    -0.108 A  
HETATM   45  C   UNL     1      -6.023  12.824  69.569  1.00  0.00    -0.112 A  
ENDBRANCH  35  38
ENDBRANCH  31  32
ENDBRANCH  30  31
ENDBRANCH  29  30
ENDBRANCH  28  29
ENDBRANCH  27  28
ENDBRANCH  24  27
ENDBRANCH  15  16
ENDBRANCH  14  15
ENDBRANCH  12  14
ENDBRANCH  11  12
ENDBRANCH  10  11
ENDBRANCH   9  10
ENDBRANCH   8   9
ENDBRANCH   7   8
ENDBRANCH   6   7
ENDBRANCH   5   6
ENDBRANCH   4   5
ENDBRANCH   3   4
ENDBRANCH   2   3
TORSDOF 20
ENDMDL
MODEL      153
REMARK 921   NORMALIZED FREE ENERGY PREDICTED BY IDOCK:    2.05 KCAL/MOL
REMARK 922        TOTAL FREE ENERGY PREDICTED BY IDOCK:    0.60 KCAL/MOL
REMARK 923 INTER-LIGAND FREE ENERGY PREDICTED BY IDOCK:   -2.27 KCAL/MOL
REMARK 924 INTRA-LIGAND FREE ENERGY PREDICTED BY IDOCK:    2.87 KCAL/MOL
REMARK 927      BINDING AFFINITY PREDICTED BY RF-SCORE:    0.00 PKD
ROOT
HETATM    1  C   UNL     1      -5.519  12.645  67.221  1.00  0.00    -0.011 C  
HETATM    2  C   UNL     1      -5.915  14.112  67.251  1.00  0.00     0.504 C  
ENDROOT
BRANCH   2   3
HETATM    3  C   UNL     1      -7.425  14.284  67.098  1.00  0.00     0.062 C  
BRANCH   3   4
HETATM    4  C   UNL     1      -7.916  15.544  67.809  1.00  0.00    -0.157 C  
BRANCH   4   5
HETATM    5  C   UNL     1      -9.416  15.749  67.594  1.00  0.00    -0.218 C  
BRANCH   5   6
HETATM    6  C   UNL     1     -10.125  16.066  68.910  1.00  0.00    -0.229 C  
BRANCH   6   7
HETATM    7  C   UNL     1     -11.478  15.359  68.994  1.00  0.00    -0.349 C  
BRANCH   7   8
HETATM    8  C   UNL     1     -11.701  14.769  70.386  1.00  0.00    -0.350 C  
BRANCH   8   9
HETATM    9  C   UNL     1     -11.952  13.262  70.318  1.00  0.00    -0.372 C  
BRANCH   9  10
HETATM   10  C   UNL     1     -10.760  12.539  69.685  1.00  0.00     0.406 C  
BRANCH  10  11
HETATM   11  C   UNL     1     -10.490  11.179  70.324  1.00  0.00     0.867 C  
BRANCH  11  12
HETATM   12  C   UNL     1     -10.052  10.132  69.326  1.00  0.00    -0.222 C  
HETATM   13  O   UNL     1      -8.976   9.553  69.335  1.00  0.00    -0.150 OA 
BRANCH  12  14
HETATM   14  O   UNL     1     -11.057   9.922  68.434  1.00  0.00    -0.217 OA 
BRANCH  14  15
HETATM   15  C   UNL     1     -11.087  10.796  67.297  1.00  0.00    -0.270 C  
BRANCH  15  16
HETATM   16  N   UNL     1     -10.102  10.445  66.285  1.00  0.00    -0.224 N  
HETATM   17  C   UNL     1      -9.390  11.523  65.764  1.00  0.00    -0.221 C  
HETATM   18  C   UNL     1      -8.792  11.313  64.400  1.00  0.00     0.189 C  
HETATM   19  O   UNL     1      -9.336  12.625  66.304  1.00  0.00    -0.228 OA 
HETATM   20  C   UNL     1      -8.075   9.991  64.280  1.00  0.00    -0.156 C  
HETATM   21  C   UNL     1      -8.847   8.863  64.901  1.00  0.00    -0.161 A  
HETATM   22  C   UNL     1      -8.541   7.551  64.507  1.00  0.00     0.259 A  
HETATM   23  C   UNL     1      -9.148   6.458  65.124  1.00  0.00     0.370 A  
HETATM   24  C   UNL     1     -10.044   6.671  66.165  1.00  0.00     0.267 A  
HETATM   25  C   UNL     1     -10.359   7.981  66.550  1.00  0.00    -0.144 A  
HETATM   26  C   UNL     1      -9.791   9.098  65.915  1.00  0.00    -0.235 A  
BRANCH  24  27
HETATM   27  O   UNL     1     -10.702   5.685  66.852  1.00  0.00    -0.283 OA 
BRANCH  27  28
HETATM   28  C   UNL     1      -9.925   4.944  67.797  1.00  0.00    -0.131 C  
BRANCH  28  29
HETATM   29  C   UNL     1      -8.496   4.810  67.268  1.00  0.00    -0.105 C  
BRANCH  29  30
HETATM   30  C   UNL     1      -8.197   3.386  66.773  1.00  0.00    -0.095 C  
BRANCH  30  31
HETATM   31  C   UNL     1      -8.226   2.331  67.897  1.00  0.00    -0.063 C  
BRANCH  31  32
HETATM   32  N   UNL     1      -7.081   2.420  68.813  1.00  0.00    -0.044 NA 
HETATM   33  C   UNL     1      -6.183   3.557  68.526  1.00  0.00    -0.032 C  
HETATM   34  C   UNL     1      -6.757   4.923  68.949  1.00  0.00    -0.050 C  
HETATM   35  N   UNL     1      -6.939   4.928  70.411  1.00  0.00    -0.044 NA 
HETATM   36  C   UNL     1      -7.839   3.853  70.875  1.00  0.00    -0.051 C  
HETATM   37  C   UNL     1      -7.488   2.472  70.237  1.00  0.00    -0.043 C  
BRANCH  35  38
HETATM   38  C   UNL     1      -6.405   5.940  71.203  1.00  0.00    -0.040 A  
HETATM   39  C   UNL     1      -6.153   7.283  70.810  1.00  0.00    -0.035 A  
HETATM   40 CL   UNL     1      -6.346   7.811  69.158  1.00  0.00    -0.035 Cl 
HETATM   41  C   UNL     1      -5.637   8.225  71.734  1.00  0.00    -0.037 A  
HETATM   42  C   UNL     1      -5.312   7.853  73.039  1.00  0.00    -0.040 A  
HETATM   43 CL   UNL     1      -5.369   9.894  71.332  1.00  0.00    -0.074 Cl 
HETATM   44  C   UNL     1      -5.528   6.550  73.445  1.00  0.00    -0.042 A  
HETATM   45  C   UNL     1      -6.086   5.632  72.551  1.00  0.00    -0.040 A  
ENDBRANCH  35  38
ENDBRANCH  31  32
ENDBRANCH  30  31
ENDBRANCH  29  30
ENDBRANCH  28  29
ENDBRANCH  27  28
ENDBRANCH  24  27
ENDBRANCH  15  16
ENDBRANCH  14  15
ENDBRANCH  12  14
ENDBRANCH  11  12
ENDBRANCH  10  11
ENDBRANCH   9  10
ENDBRANCH   8   9
ENDBRANCH   7   8
ENDBRANCH   6   7
ENDBRANCH   5   6
ENDBRANCH   4   5
ENDBRANCH   3   4
ENDBRANCH   2   3
TORSDOF 20
ENDMDL
MODEL      154
REMARK 921   NORMALIZED FREE ENERGY PREDICTED BY IDOCK:    2.29 KCAL/MOL
REMARK 922        TOTAL FREE ENERGY PREDICTED BY IDOCK:    1.13 KCAL/MOL
REMARK 923 INTER-LIGAND FREE ENERGY PREDICTED BY IDOCK:   -2.34 KCAL/MOL
REMARK 924 INTRA-LIGAND FREE ENERGY PREDICTED BY IDOCK:    3.48 KCAL/MOL
REMARK 927      BINDING AFFINITY PREDICTED BY RF-SCORE:    0.00 PKD
ROOT
HETATM    1  C   UNL     1      -7.791  18.101  70.065  1.00  0.00     1.664 C  
HETATM    2  C   UNL     1      -6.293  17.904  69.901  1.00  0.00    -0.043 C  
ENDROOT
BRANCH   2   3
HETATM    3  C   UNL     1      -5.984  16.767  68.928  1.00  0.00    -0.156 C  
BRANCH   3   4
HETATM    4  C   UNL     1      -5.144  15.678  69.593  1.00  0.00    -0.097 C  
BRANCH   4   5
HETATM    5  C   UNL     1      -6.026  14.542  70.111  1.00  0.00    -0.150 C  
BRANCH   5   6
HETATM    6  C   UNL     1      -7.504  14.930  70.075  1.00  0.00     0.126 C  
BRANCH   6   7
HETATM    7  C   UNL     1      -7.951  15.277  68.655  1.00  0.00    -0.149 C  
BRANCH   7   8
HETATM    8  C   UNL     1      -7.791  14.076  67.723  1.00  0.00    -0.176 C  
BRANCH   8   9
HETATM    9  C   UNL     1      -9.110  13.727  67.033  1.00  0.00    -0.253 C  
BRANCH   9  10
HETATM   10  C   UNL     1      -9.357  14.648  65.834  1.00  0.00    -0.155 C  
BRANCH  10  11
HETATM   11  C   UNL     1     -10.802  15.135  65.755  1.00  0.00    -0.358 C  
BRANCH  11  12
HETATM   12  C   UNL     1     -11.182  15.643  64.384  1.00  0.00    -0.236 C  
HETATM   13  O   UNL     1     -10.567  16.484  63.745  1.00  0.00     1.094 OA 
BRANCH  12  14
HETATM   14  O   UNL     1     -12.303  14.996  63.966  1.00  0.00    -0.706 OA 
BRANCH  14  15
HETATM   15  C   UNL     1     -12.233  13.564  63.938  1.00  0.00    -0.399 C  
BRANCH  15  16
HETATM   16  N   UNL     1     -12.135  12.975  65.264  1.00  0.00    -0.413 N  
HETATM   17  C   UNL     1     -13.021  13.499  66.204  1.00  0.00     0.234 C  
HETATM   18  C   UNL     1     -12.614  13.341  67.643  1.00  0.00     0.598 C  
HETATM   19  O   UNL     1     -14.014  14.156  65.906  1.00  0.00     0.788 OA 
HETATM   20  C   UNL     1     -12.142  11.945  67.962  1.00  0.00    -0.010 C  
HETATM   21  C   UNL     1     -11.234  11.392  66.901  1.00  0.00    -0.331 A  
HETATM   22  C   UNL     1     -10.391  10.322  67.238  1.00  0.00    -0.284 A  
HETATM   23  C   UNL     1      -9.604   9.698  66.271  1.00  0.00    -0.281 A  
HETATM   24  C   UNL     1      -9.680  10.122  64.950  1.00  0.00    -0.324 A  
HETATM   25  C   UNL     1     -10.513  11.198  64.615  1.00  0.00    -0.400 A  
HETATM   26  C   UNL     1     -11.283  11.868  65.580  1.00  0.00    -0.306 A  
BRANCH  24  27
HETATM   27  O   UNL     1      -8.965   9.590  63.909  1.00  0.00    -0.228 OA 
BRANCH  27  28
HETATM   28  C   UNL     1      -7.987  10.445  63.310  1.00  0.00    -0.117 C  
BRANCH  28  29
HETATM   29  C   UNL     1      -6.602  10.050  63.825  1.00  0.00    -0.130 C  
BRANCH  29  30
HETATM   30  C   UNL     1      -6.302   8.562  63.590  1.00  0.00    -0.077 C  
BRANCH  30  31
HETATM   31  C   UNL     1      -5.400   7.942  64.676  1.00  0.00    -0.033 C  
BRANCH  31  32
HETATM   32  N   UNL     1      -5.993   6.767  65.327  1.00  0.00    -0.034 NA 
HETATM   33  C   UNL     1      -5.255   6.322  66.527  1.00  0.00    -0.012 C  
HETATM   34  C   UNL     1      -5.460   7.232  67.754  1.00  0.00    -0.025 C  
HETATM   35  N   UNL     1      -6.882   7.200  68.135  1.00  0.00    -0.071 NA 
HETATM   36  C   UNL     1      -7.773   7.641  67.044  1.00  0.00    -0.108 C  
HETATM   37  C   UNL     1      -7.418   6.966  65.682  1.00  0.00    -0.085 C  
BRANCH  35  38
HETATM   38  C   UNL     1      -7.275   6.906  69.438  1.00  0.00    -0.089 A  
HETATM   39  C   UNL     1      -7.708   5.645  69.932  1.00  0.00    -0.083 A  
HETATM   40 CL   UNL     1      -7.961   4.279  68.874  1.00  0.00    -0.072 Cl 
HETATM   41  C   UNL     1      -8.046   5.477  71.297  1.00  0.00    -0.113 A  
HETATM   42  C   UNL     1      -8.016   6.552  72.186  1.00  0.00    -0.102 A  
HETATM   43 CL   UNL     1      -8.519   3.948  71.972  1.00  0.00    -0.100 Cl 
HETATM   44  C   UNL     1      -7.618   7.795  71.732  1.00  0.00    -0.088 A  
HETATM   45  C   UNL     1      -7.234   7.951  70.397  1.00  0.00    -0.053 A  
ENDBRANCH  35  38
ENDBRANCH  31  32
ENDBRANCH  30  31
ENDBRANCH  29  30
ENDBRANCH  28  29
ENDBRANCH  27  28
ENDBRANCH  24  27
ENDBRANCH  15  16
ENDBRANCH  14  15
ENDBRANCH  12  14
ENDBRANCH  11  12
ENDBRANCH  10  11
ENDBRANCH   9  10
ENDBRANCH   8   9
ENDBRANCH   7   8
ENDBRANCH   6   7
ENDBRANCH   5   6
ENDBRANCH   4   5
ENDBRANCH   3   4
ENDBRANCH   2   3
TORSDOF 20
ENDMDL
MODEL      155
REMARK 921   NORMALIZED FREE ENERGY PREDICTED BY IDOCK:    3.00 KCAL/MOL
REMARK 922        TOTAL FREE ENERGY PREDICTED BY IDOCK:    2.65 KCAL/MOL
REMARK 923 INTER-LIGAND FREE ENERGY PREDICTED BY IDOCK:   -1.53 KCAL/MOL
REMARK 924 INTRA-LIGAND FREE ENERGY PREDICTED BY IDOCK:    4.18 KCAL/MOL
REMARK 927      BINDING AFFINITY PREDICTED BY RF-SCORE:    0.00 PKD
ROOT
HETATM    1  C   UNL     1      -5.499   4.523  67.895  1.00  0.00    -0.016 C  
HETATM    2  C   UNL     1      -5.140   3.913  69.240  1.00  0.00    -0.007 C  
ENDROOT
BRANCH   2   3
HETATM    3  C   UNL     1      -6.072   2.754  69.592  1.00  0.00    -0.024 C  
BRANCH   3   4
HETATM    4  C   UNL     1      -7.443   3.260  70.039  1.00  0.00    -0.044 C  
BRANCH   4   5
HETATM    5  C   UNL     1      -7.407   4.760  70.330  1.00  0.00    -0.050 C  
BRANCH   5   6
HETATM    6  C   UNL     1      -8.381   5.129  71.449  1.00  0.00    -0.119 C  
BRANCH   6   7
HETATM    7  C   UNL     1      -7.744   6.105  72.438  1.00  0.00    -0.100 C  
BRANCH   7   8
HETATM    8  C   UNL     1      -8.493   6.100  73.770  1.00  0.00    -0.123 C  
BRANCH   8   9
HETATM    9  C   UNL     1      -8.537   7.497  74.391  1.00  0.00    -0.242 C  
BRANCH   9  10
HETATM   10  C   UNL     1      -7.328   8.326  73.948  1.00  0.00    -0.198 C  
BRANCH  10  11
HETATM   11  C   UNL     1      -7.671   9.317  72.839  1.00  0.00     1.203 C  
BRANCH  11  12
HETATM   12  C   UNL     1      -8.897   8.923  72.049  1.00  0.00     0.002 C  
HETATM   13  O   UNL     1      -9.215   7.779  71.759  1.00  0.00    -0.134 OA 
BRANCH  12  14
HETATM   14  O   UNL     1      -9.601  10.044  71.734  1.00  0.00     1.191 OA 
BRANCH  14  15
HETATM   15  C   UNL     1     -10.895   9.835  71.152  1.00  0.00    -0.263 C  
BRANCH  15  16
HETATM   16  N   UNL     1     -11.263   8.429  71.077  1.00  0.00    -0.260 N  
HETATM   17  C   UNL     1     -12.037   7.969  72.141  1.00  0.00    -0.343 C  
HETATM   18  C   UNL     1     -11.983   6.488  72.395  1.00  0.00    -0.199 C  
HETATM   19  O   UNL     1     -12.640   8.712  72.910  1.00  0.00    -0.289 OA 
HETATM   20  C   UNL     1     -12.136   5.678  71.133  1.00  0.00     1.068 C  
HETATM   21  C   UNL     1     -11.331   6.234  69.994  1.00  0.00    -0.486 A  
HETATM   22  C   UNL     1     -11.027   5.387  68.917  1.00  0.00     0.166 A  
HETATM   23  C   UNL     1     -10.375   5.874  67.785  1.00  0.00    -0.262 A  
HETATM   24  C   UNL     1     -10.051   7.223  67.710  1.00  0.00    -0.180 A  
HETATM   25  C   UNL     1     -10.343   8.066  68.790  1.00  0.00    -0.223 A  
HETATM   26  C   UNL     1     -10.962   7.589  69.958  1.00  0.00    -0.240 A  
BRANCH  24  27
HETATM   27  O   UNL     1      -9.416   7.822  66.654  1.00  0.00    -0.181 OA 
BRANCH  27  28
HETATM   28  C   UNL     1      -9.227   7.018  65.487  1.00  0.00     0.337 C  
BRANCH  28  29
HETATM   29  C   UNL     1      -7.747   7.046  65.101  1.00  0.00    -0.113 C  
BRANCH  29  30
HETATM   30  C   UNL     1      -6.853   7.477  66.274  1.00  0.00    -0.061 C  
BRANCH  30  31
HETATM   31  C   UNL     1      -6.592   8.996  66.317  1.00  0.00    -0.066 C  
BRANCH  31  32
HETATM   32  N   UNL     1      -6.384   9.516  67.674  1.00  0.00    -0.057 NA 
HETATM   33  C   UNL     1      -5.198  10.387  67.798  1.00  0.00    -0.037 C  
HETATM   34  C   UNL     1      -5.388  11.787  67.182  1.00  0.00    -0.113 C  
HETATM   35  N   UNL     1      -6.462  12.482  67.911  1.00  0.00    -0.091 NA 
HETATM   36  C   UNL     1      -7.743  11.751  67.871  1.00  0.00    -0.125 C  
HETATM   37  C   UNL     1      -7.569  10.234  68.200  1.00  0.00    -0.087 C  
BRANCH  35  38
HETATM   38  C   UNL     1      -6.267  13.753  68.445  1.00  0.00    -0.100 A  
HETATM   39  C   UNL     1      -5.926  14.066  69.790  1.00  0.00    -0.122 A  
HETATM   40 CL   UNL     1      -5.861  12.843  71.033  1.00  0.00    -0.058 Cl 
HETATM   41  C   UNL     1      -5.721  15.409  70.193  1.00  0.00    -0.144 A  
HETATM   42  C   UNL     1      -5.899  16.466  69.299  1.00  0.00    -0.147 A  
HETATM   43 CL   UNL     1      -5.241  15.850  71.803  1.00  0.00     0.018 Cl 
HETATM   44  C   UNL     1      -6.249  16.195  67.990  1.00  0.00    -0.139 A  
HETATM   45  C   UNL     1      -6.400  14.868  67.578  1.00  0.00    -0.071 A  
ENDBRANCH  35  38
ENDBRANCH  31  32
ENDBRANCH  30  31
ENDBRANCH  29  30
ENDBRANCH  28  29
ENDBRANCH  27  28
ENDBRANCH  24  27
ENDBRANCH  15  16
ENDBRANCH  14  15
ENDBRANCH  12  14
ENDBRANCH  11  12
ENDBRANCH  10  11
ENDBRANCH   9  10
ENDBRANCH   8   9
ENDBRANCH   7   8
ENDBRANCH   6   7
ENDBRANCH   5   6
ENDBRANCH   4   5
ENDBRANCH   3   4
ENDBRANCH   2   3
TORSDOF 20
ENDMDL
MODEL      156
REMARK 921   NORMALIZED FREE ENERGY PREDICTED BY IDOCK:    3.01 KCAL/MOL
REMARK 922        TOTAL FREE ENERGY PREDICTED BY IDOCK:    2.70 KCAL/MOL
REMARK 923 INTER-LIGAND FREE ENERGY PREDICTED BY IDOCK:    1.11 KCAL/MOL
REMARK 924 INTRA-LIGAND FREE ENERGY PREDICTED BY IDOCK:    1.58 KCAL/MOL
REMARK 927      BINDING AFFINITY PREDICTED BY RF-SCORE:    0.00 PKD
ROOT
HETATM    1  C   UNL     1      -5.599  15.896  67.206  1.00  0.00     0.019 C  
HETATM    2  C   UNL     1      -5.705  15.028  68.449  1.00  0.00    -0.107 C  
ENDROOT
BRANCH   2   3
HETATM    3  C   UNL     1      -5.954  13.564  68.086  1.00  0.00    -0.115 C  
BRANCH   3   4
HETATM    4  C   UNL     1      -7.407  13.334  67.671  1.00  0.00    -0.164 C  
BRANCH   4   5
HETATM    5  C   UNL     1      -8.372  13.842  68.742  1.00  0.00    -0.019 C  
BRANCH   5   6
HETATM    6  C   UNL     1      -9.651  13.007  68.774  1.00  0.00     0.083 C  
BRANCH   6   7
HETATM    7  C   UNL     1     -10.677  13.603  69.740  1.00  0.00     0.340 C  
BRANCH   7   8
HETATM    8  C   UNL     1     -10.667  15.130  69.674  1.00  0.00    -0.289 C  
BRANCH   8   9
HETATM    9  C   UNL     1     -11.379  15.638  68.420  1.00  0.00    -0.365 C  
BRANCH   9  10
HETATM   10  C   UNL     1     -10.644  16.844  67.829  1.00  0.00    -0.340 C  
BRANCH  10  11
HETATM   11  C   UNL     1     -10.499  16.757  66.312  1.00  0.00    -0.264 C  
BRANCH  11  12
HETATM   12  C   UNL     1      -9.438  15.774  65.873  1.00  0.00    -0.342 C  
HETATM   13  O   UNL     1      -8.726  15.121  66.621  1.00  0.00    -0.262 OA 
BRANCH  12  14
HETATM   14  O   UNL     1      -9.422  15.716  64.514  1.00  0.00     0.787 OA 
BRANCH  14  15
HETATM   15  C   UNL     1     -10.531  15.049  63.896  1.00  0.00     2.350 C  
BRANCH  15  16
HETATM   16  N   UNL     1     -11.256  14.184  64.814  1.00  0.00    -0.364 N  
HETATM   17  C   UNL     1     -12.522  14.643  65.173  1.00  0.00    -0.206 C  
HETATM   18  C   UNL     1     -13.063  14.115  66.473  1.00  0.00     1.008 C  
HETATM   19  O   UNL     1     -13.129  15.511  64.552  1.00  0.00     0.187 OA 
HETATM   20  C   UNL     1     -12.893  12.623  66.608  1.00  0.00     1.660 C  
HETATM   21  C   UNL     1     -11.538  12.158  66.160  1.00  0.00    -0.418 A  
HETATM   22  C   UNL     1     -11.078  10.911  66.611  1.00  0.00    -0.155 A  
HETATM   23  C   UNL     1      -9.876  10.379  66.147  1.00  0.00    -0.278 A  
HETATM   24  C   UNL     1      -9.139  11.080  65.200  1.00  0.00    -0.181 A  
HETATM   25  C   UNL     1      -9.591  12.331  64.759  1.00  0.00     0.072 A  
HETATM   26  C   UNL     1     -10.778  12.905  65.244  1.00  0.00    -0.296 A  
BRANCH  24  27
HETATM   27  O   UNL     1      -7.949  10.666  64.664  1.00  0.00    -0.085 OA 
BRANCH  27  28
HETATM   28  C   UNL     1      -7.733   9.253  64.614  1.00  0.00    -0.116 C  
BRANCH  28  29
HETATM   29  C   UNL     1      -8.586   8.661  63.490  1.00  0.00    -0.009 C  
BRANCH  29  30
HETATM   30  C   UNL     1      -7.724   8.071  62.363  1.00  0.00    -0.121 C  
BRANCH  30  31
HETATM   31  C   UNL     1      -6.246   7.883  62.759  1.00  0.00    -0.073 C  
BRANCH  31  32
HETATM   32  N   UNL     1      -5.953   6.554  63.310  1.00  0.00    -0.030 NA 
HETATM   33  C   UNL     1      -5.131   6.592  64.537  1.00  0.00    -0.021 C  
HETATM   34  C   UNL     1      -5.905   7.051  65.788  1.00  0.00    -0.035 C  
HETATM   35  N   UNL     1      -6.977   6.079  66.065  1.00  0.00    -0.061 NA 
HETATM   36  C   UNL     1      -7.915   5.932  64.935  1.00  0.00    -0.125 C  
HETATM   37  C   UNL     1      -7.176   5.759  63.571  1.00  0.00    -0.057 C  
BRANCH  35  38
HETATM   38  C   UNL     1      -7.117   5.496  67.320  1.00  0.00    -0.074 A  
HETATM   39  C   UNL     1      -7.095   4.105  67.619  1.00  0.00    -0.063 A  
HETATM   40 CL   UNL     1      -7.042   2.894  66.364  1.00  0.00    -0.056 Cl 
HETATM   41  C   UNL     1      -7.214   3.647  68.955  1.00  0.00    -0.050 A  
HETATM   42  C   UNL     1      -7.410   4.540  70.009  1.00  0.00    -0.053 A  
HETATM   43 CL   UNL     1      -7.129   1.968  69.389  1.00  0.00    -0.036 Cl 
HETATM   44  C   UNL     1      -7.455   5.897  69.748  1.00  0.00    -0.080 A  
HETATM   45  C   UNL     1      -7.286   6.353  68.438  1.00  0.00    -0.085 A  
ENDBRANCH  35  38
ENDBRANCH  31  32
ENDBRANCH  30  31
ENDBRANCH  29  30
ENDBRANCH  28  29
ENDBRANCH  27  28
ENDBRANCH  24  27
ENDBRANCH  15  16
ENDBRANCH  14  15
ENDBRANCH  12  14
ENDBRANCH  11  12
ENDBRANCH  10  11
ENDBRANCH   9  10
ENDBRANCH   8   9
ENDBRANCH   7   8
ENDBRANCH   6   7
ENDBRANCH   5   6
ENDBRANCH   4   5
ENDBRANCH   3   4
ENDBRANCH   2   3
TORSDOF 20
ENDMDL
MODEL      157
REMARK 921   NORMALIZED FREE ENERGY PREDICTED BY IDOCK:    3.61 KCAL/MOL
REMARK 922        TOTAL FREE ENERGY PREDICTED BY IDOCK:    3.98 KCAL/MOL
REMARK 923 INTER-LIGAND FREE ENERGY PREDICTED BY IDOCK:   -1.40 KCAL/MOL
REMARK 924 INTRA-LIGAND FREE ENERGY PREDICTED BY IDOCK:    5.38 KCAL/MOL
REMARK 927      BINDING AFFINITY PREDICTED BY RF-SCORE:    0.00 PKD
ROOT
HETATM    1  C   UNL     1     -10.396  13.561  64.077  1.00  0.00     0.255 C  
HETATM    2  C   UNL     1     -11.602  13.644  63.156  1.00  0.00     0.616 C  
ENDROOT
BRANCH   2   3
HETATM    3  C   UNL     1     -12.886  13.248  63.884  1.00  0.00     0.120 C  
BRANCH   3   4
HETATM    4  C   UNL     1     -12.627  12.146  64.910  1.00  0.00    -0.084 C  
BRANCH   4   5
HETATM    5  C   UNL     1     -11.128  11.898  65.083  1.00  0.00    -0.360 C  
BRANCH   5   6
HETATM    6  C   UNL     1     -10.493  11.419  63.778  1.00  0.00    -0.456 C  
BRANCH   6   7
HETATM    7  C   UNL     1      -9.662  10.155  63.999  1.00  0.00    -0.273 C  
BRANCH   7   8
HETATM    8  C   UNL     1      -9.897   9.583  65.397  1.00  0.00    -0.248 C  
BRANCH   8   9
HETATM    9  C   UNL     1      -8.643   8.890  65.933  1.00  0.00    -0.177 C  
BRANCH   9  10
HETATM   10  C   UNL     1      -8.932   7.423  66.262  1.00  0.00    -0.192 C  
BRANCH  10  11
HETATM   11  C   UNL     1     -10.330   7.214  66.838  1.00  0.00    -0.349 C  
BRANCH  11  12
HETATM   12  C   UNL     1     -10.380   6.137  67.896  1.00  0.00    -0.203 C  
HETATM   13  O   UNL     1     -11.393   5.580  68.292  1.00  0.00     0.418 OA 
BRANCH  12  14
HETATM   14  O   UNL     1      -9.115   5.870  68.319  1.00  0.00    -0.119 OA 
BRANCH  14  15
HETATM   15  C   UNL     1      -8.696   4.501  68.237  1.00  0.00    -0.100 C  
BRANCH  15  16
HETATM   16  N   UNL     1      -7.520   4.218  69.046  1.00  0.00    -0.055 N  
HETATM   17  C   UNL     1      -6.807   3.083  68.664  1.00  0.00    -0.044 C  
HETATM   18  C   UNL     1      -5.957   2.456  69.734  1.00  0.00    -0.023 C  
HETATM   19  O   UNL     1      -6.936   2.538  67.571  1.00  0.00    -0.046 OA 
HETATM   20  C   UNL     1      -5.133   3.470  70.488  1.00  0.00    -0.004 C  
HETATM   21  C   UNL     1      -5.918   4.702  70.833  1.00  0.00    -0.017 A  
HETATM   22  C   UNL     1      -5.449   5.521  71.872  1.00  0.00    -0.017 A  
HETATM   23  C   UNL     1      -6.074   6.731  72.168  1.00  0.00    -0.038 A  
HETATM   24  C   UNL     1      -7.158   7.146  71.404  1.00  0.00    -0.065 A  
HETATM   25  C   UNL     1      -7.635   6.323  70.375  1.00  0.00    -0.096 A  
HETATM   26  C   UNL     1      -7.046   5.080  70.086  1.00  0.00    -0.054 A  
BRANCH  24  27
HETATM   27  O   UNL     1      -7.854   8.311  71.591  1.00  0.00    -0.095 OA 
BRANCH  27  28
HETATM   28  C   UNL     1      -9.056   8.216  72.359  1.00  0.00    -0.215 C  
BRANCH  28  29
HETATM   29  C   UNL     1     -10.084   9.198  71.794  1.00  0.00    -0.279 C  
BRANCH  29  30
HETATM   30  C   UNL     1     -10.878   8.592  70.627  1.00  0.00    -0.255 C  
BRANCH  30  31
HETATM   31  C   UNL     1     -12.402   8.583  70.863  1.00  0.00    -0.042 C  
BRANCH  31  32
HETATM   32  N   UNL     1     -13.100   9.700  70.214  1.00  0.00     0.328 NA 
HETATM   33  C   UNL     1     -13.783  10.602  71.164  1.00  0.00     0.496 C  
HETATM   34  C   UNL     1     -12.824  11.523  71.944  1.00  0.00    -0.266 C  
HETATM   35  N   UNL     1     -12.138  12.408  70.988  1.00  0.00    -0.098 NA 
HETATM   36  C   UNL     1     -11.377  11.662  69.967  1.00  0.00    -0.091 C  
HETATM   37  C   UNL     1     -12.212  10.501  69.339  1.00  0.00    -0.023 C  
BRANCH  35  38
HETATM   38  C   UNL     1     -12.131  13.789  71.160  1.00  0.00    -0.185 A  
HETATM   39  C   UNL     1     -12.654  14.512  72.268  1.00  0.00    -0.303 A  
HETATM   40 CL   UNL     1     -13.552  13.723  73.540  1.00  0.00     1.415 Cl 
HETATM   41  C   UNL     1     -12.547  15.923  72.330  1.00  0.00    -0.457 A  
HETATM   42  C   UNL     1     -11.975  16.651  71.286  1.00  0.00     0.477 A  
HETATM   43 CL   UNL     1     -13.108  16.854  73.685  1.00  0.00     0.446 Cl 
HETATM   44  C   UNL     1     -11.475  15.979  70.187  1.00  0.00    -0.350 A  
HETATM   45  C   UNL     1     -11.533  14.583  70.147  1.00  0.00    -0.297 A  
ENDBRANCH  35  38
ENDBRANCH  31  32
ENDBRANCH  30  31
ENDBRANCH  29  30
ENDBRANCH  28  29
ENDBRANCH  27  28
ENDBRANCH  24  27
ENDBRANCH  15  16
ENDBRANCH  14  15
ENDBRANCH  12  14
ENDBRANCH  11  12
ENDBRANCH  10  11
ENDBRANCH   9  10
ENDBRANCH   8   9
ENDBRANCH   7   8
ENDBRANCH   6   7
ENDBRANCH   5   6
ENDBRANCH   4   5
ENDBRANCH   3   4
ENDBRANCH   2   3
TORSDOF 20
ENDMDL
MODEL      158
REMARK 921   NORMALIZED FREE ENERGY PREDICTED BY IDOCK:    3.70 KCAL/MOL
REMARK 922        TOTAL FREE ENERGY PREDICTED BY IDOCK:    4.19 KCAL/MOL
REMARK 923 INTER-LIGAND FREE ENERGY PREDICTED BY IDOCK:    4.46 KCAL/MOL
REMARK 924 INTRA-LIGAND FREE ENERGY PREDICTED BY IDOCK:   -0.27 KCAL/MOL
REMARK 927      BINDING AFFINITY PREDICTED BY RF-SCORE:    0.00 PKD
ROOT
HETATM    1  C   UNL     1     -10.457  20.288  72.618  1.00  0.00     5.088 C  
HETATM    2  C   UNL     1      -9.637  20.145  71.347  1.00  0.00     2.268 C  
ENDROOT
BRANCH   2   3
HETATM    3  C   UNL     1     -10.452  19.496  70.229  1.00  0.00     1.206 C  
BRANCH   3   4
HETATM    4  C   UNL     1     -10.848  20.517  69.164  1.00  0.00     0.811 C  
BRANCH   4   5
HETATM    5  C   UNL     1      -9.746  20.675  68.117  1.00  0.00    -0.086 C  
BRANCH   5   6
HETATM    6  C   UNL     1      -8.376  20.834  68.775  1.00  0.00     1.117 C  
BRANCH   6   7
HETATM    7  C   UNL     1      -7.427  19.711  68.355  1.00  0.00    -0.359 C  
BRANCH   7   8
HETATM    8  C   UNL     1      -6.355  20.232  67.399  1.00  0.00    -0.249 C  
BRANCH   8   9
HETATM    9  C   UNL     1      -5.132  19.314  67.379  1.00  0.00    -0.160 C  
BRANCH   9  10
HETATM   10  C   UNL     1      -5.475  17.965  66.742  1.00  0.00    -0.179 C  
BRANCH  10  11
HETATM   11  C   UNL     1      -6.535  18.083  65.650  1.00  0.00    -0.253 C  
BRANCH  11  12
HETATM   12  C   UNL     1      -7.806  17.334  65.974  1.00  0.00    -0.175 C  
HETATM   13  O   UNL     1      -8.940  17.738  65.763  1.00  0.00    -0.509 OA 
BRANCH  12  14
HETATM   14  O   UNL     1      -7.484  16.128  66.515  1.00  0.00    -0.211 OA 
BRANCH  14  15
HETATM   15  C   UNL     1      -7.507  16.051  67.947  1.00  0.00    -0.129 C  
BRANCH  15  16
HETATM   16  N   UNL     1      -7.390  14.688  68.444  1.00  0.00    -0.107 N  
HETATM   17  C   UNL     1      -6.138  14.360  68.961  1.00  0.00    -0.091 C  
HETATM   18  C   UNL     1      -5.801  12.895  68.974  1.00  0.00    -0.079 C  
HETATM   19  O   UNL     1      -5.297  15.196  69.281  1.00  0.00    -0.095 OA 
HETATM   20  C   UNL     1      -6.925  12.047  69.512  1.00  0.00     0.085 C  
HETATM   21  C   UNL     1      -8.264  12.464  68.977  1.00  0.00     0.346 A  
HETATM   22  C   UNL     1      -9.321  11.542  69.031  1.00  0.00     0.090 A  
HETATM   23  C   UNL     1     -10.611  11.906  68.647  1.00  0.00    -0.259 A  
HETATM   24  C   UNL     1     -10.859  13.210  68.235  1.00  0.00    -0.253 A  
HETATM   25  C   UNL     1      -9.802  14.128  68.168  1.00  0.00    -0.229 A  
HETATM   26  C   UNL     1      -8.487  13.771  68.511  1.00  0.00    -0.117 A  
BRANCH  24  27
HETATM   27  O   UNL     1     -12.078  13.692  67.838  1.00  0.00    -0.357 OA 
BRANCH  27  28
HETATM   28  C   UNL     1     -12.783  12.913  66.868  1.00  0.00     1.106 C  
BRANCH  28  29
HETATM   29  C   UNL     1     -12.380  13.383  65.468  1.00  0.00    -0.528 C  
BRANCH  29  30
HETATM   30  C   UNL     1     -12.422  12.240  64.443  1.00  0.00    -0.484 C  
BRANCH  30  31
HETATM   31  C   UNL     1     -11.399  12.407  63.301  1.00  0.00    -0.327 C  
BRANCH  31  32
HETATM   32  N   UNL     1     -10.003  12.351  63.754  1.00  0.00    -0.307 NA 
HETATM   33  C   UNL     1      -9.850  11.851  65.136  1.00  0.00    -0.218 C  
HETATM   34  C   UNL     1     -10.062  10.330  65.272  1.00  0.00    -0.289 C  
HETATM   35  N   UNL     1      -9.026   9.636  64.488  1.00  0.00    -0.228 NA 
HETATM   36  C   UNL     1      -9.049  10.008  63.060  1.00  0.00    -0.279 C  
HETATM   37  C   UNL     1      -9.139  11.553  62.852  1.00  0.00    -0.122 C  
BRANCH  35  38
HETATM   38  C   UNL     1      -8.228   8.648  65.058  1.00  0.00    -0.157 A  
HETATM   39  C   UNL     1      -8.643   7.648  65.980  1.00  0.00    -0.151 A  
HETATM   40 CL   UNL     1     -10.249   7.633  66.663  1.00  0.00    -0.311 Cl 
HETATM   41  C   UNL     1      -7.729   6.675  66.455  1.00  0.00    -0.102 A  
HETATM   42  C   UNL     1      -6.386   6.700  66.077  1.00  0.00    -0.045 A  
HETATM   43 CL   UNL     1      -8.191   5.391  67.531  1.00  0.00    -0.101 Cl 
HETATM   44  C   UNL     1      -5.949   7.672  65.197  1.00  0.00    -0.038 A  
HETATM   45  C   UNL     1      -6.860   8.600  64.687  1.00  0.00    -0.073 A  
ENDBRANCH  35  38
ENDBRANCH  31  32
ENDBRANCH  30  31
ENDBRANCH  29  30
ENDBRANCH  28  29
ENDBRANCH  27  28
ENDBRANCH  24  27
ENDBRANCH  15  16
ENDBRANCH  14  15
ENDBRANCH  12  14
ENDBRANCH  11  12
ENDBRANCH  10  11
ENDBRANCH   9  10
ENDBRANCH   8   9
ENDBRANCH   7   8
ENDBRANCH   6   7
ENDBRANCH   5   6
ENDBRANCH   4   5
ENDBRANCH   3   4
ENDBRANCH   2   3
TORSDOF 20
ENDMDL
MODEL      159
REMARK 921   NORMALIZED FREE ENERGY PREDICTED BY IDOCK:    3.75 KCAL/MOL
REMARK 922        TOTAL FREE ENERGY PREDICTED BY IDOCK:    4.30 KCAL/MOL
REMARK 923 INTER-LIGAND FREE ENERGY PREDICTED BY IDOCK:   -4.56 KCAL/MOL
REMARK 924 INTRA-LIGAND FREE ENERGY PREDICTED BY IDOCK:    8.86 KCAL/MOL
REMARK 927      BINDING AFFINITY PREDICTED BY RF-SCORE:    0.00 PKD
ROOT
HETATM    1  C   UNL     1      -8.899  18.529  69.096  1.00  0.00     0.047 C  
HETATM    2  C   UNL     1      -8.571  17.068  68.837  1.00  0.00    -0.196 C  
ENDROOT
BRANCH   2   3
HETATM    3  C   UNL     1      -9.659  16.147  69.387  1.00  0.00    -0.208 C  
BRANCH   3   4
HETATM    4  C   UNL     1     -10.936  16.924  69.704  1.00  0.00    -0.007 C  
BRANCH   4   5
HETATM    5  C   UNL     1     -11.221  16.925  71.206  1.00  0.00     0.607 C  
BRANCH   5   6
HETATM    6  C   UNL     1     -12.257  15.863  71.573  1.00  0.00    -0.525 C  
BRANCH   6   7
HETATM    7  C   UNL     1     -12.109  14.619  70.696  1.00  0.00    -0.385 C  
BRANCH   7   8
HETATM    8  C   UNL     1     -11.534  14.980  69.327  1.00  0.00    -0.326 C  
BRANCH   8   9
HETATM    9  C   UNL     1     -12.636  15.102  68.274  1.00  0.00     0.750 C  
BRANCH   9  10
HETATM   10  C   UNL     1     -12.392  14.128  67.117  1.00  0.00    -0.213 C  
BRANCH  10  11
HETATM   11  C   UNL     1     -11.078  14.399  66.389  1.00  0.00    -0.326 C  
BRANCH  11  12
HETATM   12  C   UNL     1      -9.936  13.544  66.890  1.00  0.00    -0.256 C  
HETATM   13  O   UNL     1      -8.751  13.754  66.680  1.00  0.00    -0.141 OA 
BRANCH  12  14
HETATM   14  O   UNL     1     -10.440  12.521  67.631  1.00  0.00    -0.213 OA 
BRANCH  14  15
HETATM   15  C   UNL     1      -9.663  12.121  68.768  1.00  0.00     0.012 C  
BRANCH  15  16
HETATM   16  N   UNL     1      -8.356  11.595  68.405  1.00  0.00    -0.154 N  
HETATM   17  C   UNL     1      -7.363  12.560  68.241  1.00  0.00    -0.115 C  
HETATM   18  C   UNL     1      -6.202  12.160  67.372  1.00  0.00    -0.142 C  
HETATM   19  O   UNL     1      -7.457  13.708  68.666  1.00  0.00    -0.113 OA 
HETATM   20  C   UNL     1      -5.672  10.789  67.708  1.00  0.00    -0.043 C  
HETATM   21  C   UNL     1      -6.771   9.790  67.932  1.00  0.00    -0.065 A  
HETATM   22  C   UNL     1      -6.461   8.425  67.826  1.00  0.00    -0.061 A  
HETATM   23  C   UNL     1      -7.411   7.449  68.126  1.00  0.00    -0.105 A  
HETATM   24  C   UNL     1      -8.671   7.835  68.567  1.00  0.00    -0.128 A  
HETATM   25  C   UNL     1      -8.985   9.198  68.661  1.00  0.00    -0.136 A  
HETATM   26  C   UNL     1      -8.057  10.198  68.324  1.00  0.00    -0.102 A  
BRANCH  24  27
HETATM   27  O   UNL     1      -9.687   6.977  68.895  1.00  0.00    -0.144 OA 
BRANCH  27  28
HETATM   28  C   UNL     1     -10.640   7.457  69.848  1.00  0.00    -0.236 C  
BRANCH  28  29
HETATM   29  C   UNL     1     -10.066   7.280  71.255  1.00  0.00    -0.195 C  
BRANCH  29  30
HETATM   30  C   UNL     1      -9.720   5.814  71.556  1.00  0.00    -0.193 C  
BRANCH  30  31
HETATM   31  C   UNL     1      -9.888   4.884  70.337  1.00  0.00    -0.232 C  
BRANCH  31  32
HETATM   32  N   UNL     1      -8.823   3.880  70.216  1.00  0.00    -0.079 NA 
HETATM   33  C   UNL     1      -9.192   2.729  69.366  1.00  0.00    -0.139 C  
HETATM   34  C   UNL     1      -9.201   3.048  67.859  1.00  0.00    -0.199 C  
HETATM   35  N   UNL     1      -7.837   3.419  67.445  1.00  0.00    -0.077 NA 
HETATM   36  C   UNL     1      -7.314   4.582  68.189  1.00  0.00    -0.065 C  
HETATM   37  C   UNL     1      -7.547   4.453  69.727  1.00  0.00    -0.054 C  
BRANCH  35  38
HETATM   38  C   UNL     1      -7.211   2.791  66.372  1.00  0.00    -0.065 A  
HETATM   39  C   UNL     1      -7.759   2.572  65.078  1.00  0.00    -0.077 A  
HETATM   40 CL   UNL     1      -9.424   2.944  64.707  1.00  0.00    -0.153 Cl 
HETATM   41  C   UNL     1      -6.994   1.949  64.061  1.00  0.00    -0.032 A  
HETATM   42  C   UNL     1      -5.702   1.484  64.312  1.00  0.00    -0.008 A  
HETATM   43 CL   UNL     1      -7.584   1.713  62.445  1.00  0.00    -0.036 Cl 
HETATM   44  C   UNL     1      -5.149   1.665  65.566  1.00  0.00    -0.005 A  
HETATM   45  C   UNL     1      -5.883   2.326  66.554  1.00  0.00    -0.022 A  
ENDBRANCH  35  38
ENDBRANCH  31  32
ENDBRANCH  30  31
ENDBRANCH  29  30
ENDBRANCH  28  29
ENDBRANCH  27  28
ENDBRANCH  24  27
ENDBRANCH  15  16
ENDBRANCH  14  15
ENDBRANCH  12  14
ENDBRANCH  11  12
ENDBRANCH  10  11
ENDBRANCH   9  10
ENDBRANCH   8   9
ENDBRANCH   7   8
ENDBRANCH   6   7
ENDBRANCH   5   6
ENDBRANCH   4   5
ENDBRANCH   3   4
ENDBRANCH   2   3
TORSDOF 20
ENDMDL
MODEL      160
REMARK 921   NORMALIZED FREE ENERGY PREDICTED BY IDOCK:    4.05 KCAL/MOL
REMARK 922        TOTAL FREE ENERGY PREDICTED BY IDOCK:    4.95 KCAL/MOL
REMARK 923 INTER-LIGAND FREE ENERGY PREDICTED BY IDOCK:    3.71 KCAL/MOL
REMARK 924 INTRA-LIGAND FREE ENERGY PREDICTED BY IDOCK:    1.24 KCAL/MOL
REMARK 927      BINDING AFFINITY PREDICTED BY RF-SCORE:    0.00 PKD
ROOT
HETATM    1  C   UNL     1      -8.251  14.747  71.740  1.00  0.00     4.872 C  
HETATM    2  C   UNL     1      -8.080  15.736  70.598  1.00  0.00     2.155 C  
ENDROOT
BRANCH   2   3
HETATM    3  C   UNL     1      -9.037  15.428  69.448  1.00  0.00    -0.258 C  
BRANCH   3   4
HETATM    4  C   UNL     1      -8.984  13.950  69.061  1.00  0.00     0.223 C  
BRANCH   4   5
HETATM    5  C   UNL     1      -7.637  13.594  68.432  1.00  0.00    -0.132 C  
BRANCH   5   6
HETATM    6  C   UNL     1      -6.810  12.707  69.362  1.00  0.00     0.038 C  
BRANCH   6   7
HETATM    7  C   UNL     1      -5.563  13.439  69.861  1.00  0.00    -0.110 C  
BRANCH   7   8
HETATM    8  C   UNL     1      -5.393  14.779  69.145  1.00  0.00    -0.092 C  
BRANCH   8   9
HETATM    9  C   UNL     1      -5.132  14.583  67.651  1.00  0.00     0.108 C  
BRANCH   9  10
HETATM   10  C   UNL     1      -6.375  14.941  66.831  1.00  0.00     1.173 C  
BRANCH  10  11
HETATM   11  C   UNL     1      -6.669  16.439  66.833  1.00  0.00    -0.205 C  
BRANCH  11  12
HETATM   12  C   UNL     1      -7.964  16.789  66.138  1.00  0.00    -0.238 C  
HETATM   13  O   UNL     1      -8.249  17.887  65.684  1.00  0.00    -0.476 OA 
BRANCH  12  14
HETATM   14  O   UNL     1      -8.750  15.680  66.079  1.00  0.00    -0.292 OA 
BRANCH  14  15
HETATM   15  C   UNL     1      -9.672  15.617  64.982  1.00  0.00     0.344 C  
BRANCH  15  16
HETATM   16  N   UNL     1     -10.707  14.611  65.168  1.00  0.00    -0.385 N  
HETATM   17  C   UNL     1     -12.000  15.042  64.877  1.00  0.00    -0.255 C  
HETATM   18  C   UNL     1     -13.109  14.275  65.543  1.00  0.00    -0.090 C  
HETATM   19  O   UNL     1     -12.247  16.051  64.221  1.00  0.00    -0.522 OA 
HETATM   20  C   UNL     1     -12.924  12.783  65.439  1.00  0.00     0.225 C  
HETATM   21  C   UNL     1     -11.508  12.361  65.703  1.00  0.00    -0.412 A  
HETATM   22  C   UNL     1     -11.267  11.025  66.063  1.00  0.00     0.050 A  
HETATM   23  C   UNL     1      -9.966  10.549  66.218  1.00  0.00    -0.276 A  
HETATM   24  C   UNL     1      -8.894  11.400  65.982  1.00  0.00    -0.174 A  
HETATM   25  C   UNL     1      -9.134  12.736  65.635  1.00  0.00     0.410 A  
HETATM   26  C   UNL     1     -10.436  13.249  65.514  1.00  0.00    -0.288 A  
BRANCH  24  27
HETATM   27  O   UNL     1      -7.573  11.054  66.096  1.00  0.00    -0.145 OA 
BRANCH  27  28
HETATM   28  C   UNL     1      -7.173  10.481  67.343  1.00  0.00    -0.092 C  
BRANCH  28  29
HETATM   29  C   UNL     1      -5.958   9.581  67.108  1.00  0.00    -0.052 C  
BRANCH  29  30
HETATM   30  C   UNL     1      -5.756   8.575  68.251  1.00  0.00    -0.038 C  
BRANCH  30  31
HETATM   31  C   UNL     1      -5.503   9.246  69.617  1.00  0.00    -0.034 C  
BRANCH  31  32
HETATM   32  N   UNL     1      -5.963   8.443  70.757  1.00  0.00    -0.032 NA 
HETATM   33  C   UNL     1      -7.421   8.207  70.763  1.00  0.00    -0.066 C  
HETATM   34  C   UNL     1      -7.888   7.176  69.718  1.00  0.00    -0.118 C  
HETATM   35  N   UNL     1      -7.280   5.872  70.035  1.00  0.00    -0.071 NA 
HETATM   36  C   UNL     1      -5.805   5.922  70.050  1.00  0.00    -0.024 C  
HETATM   37  C   UNL     1      -5.262   7.141  70.861  1.00  0.00    -0.023 C  
BRANCH  35  38
HETATM   38  C   UNL     1      -8.057   4.725  70.164  1.00  0.00    -0.068 A  
HETATM   39  C   UNL     1      -8.472   3.856  69.116  1.00  0.00    -0.076 A  
HETATM   40 CL   UNL     1      -8.172   4.230  67.438  1.00  0.00    -0.099 Cl 
HETATM   41  C   UNL     1      -9.235   2.696  69.395  1.00  0.00    -0.128 A  
HETATM   42  C   UNL     1      -9.647   2.397  70.694  1.00  0.00    -0.152 A  
HETATM   43 CL   UNL     1      -9.715   1.564  68.167  1.00  0.00    -0.167 Cl 
HETATM   44  C   UNL     1      -9.276   3.231  71.731  1.00  0.00    -0.186 A  
HETATM   45  C   UNL     1      -8.479   4.349  71.465  1.00  0.00    -0.112 A  
ENDBRANCH  35  38
ENDBRANCH  31  32
ENDBRANCH  30  31
ENDBRANCH  29  30
ENDBRANCH  28  29
ENDBRANCH  27  28
ENDBRANCH  24  27
ENDBRANCH  15  16
ENDBRANCH  14  15
ENDBRANCH  12  14
ENDBRANCH  11  12
ENDBRANCH  10  11
ENDBRANCH   9  10
ENDBRANCH   8   9
ENDBRANCH   7   8
ENDBRANCH   6   7
ENDBRANCH   5   6
ENDBRANCH   4   5
ENDBRANCH   3   4
ENDBRANCH   2   3
TORSDOF 20
ENDMDL
MODEL      161
REMARK 921   NORMALIZED FREE ENERGY PREDICTED BY IDOCK:    4.46 KCAL/MOL
REMARK 922        TOTAL FREE ENERGY PREDICTED BY IDOCK:    5.84 KCAL/MOL
REMARK 923 INTER-LIGAND FREE ENERGY PREDICTED BY IDOCK:   -1.51 KCAL/MOL
REMARK 924 INTRA-LIGAND FREE ENERGY PREDICTED BY IDOCK:    7.34 KCAL/MOL
REMARK 927      BINDING AFFINITY PREDICTED BY RF-SCORE:    0.00 PKD
ROOT
HETATM    1  C   UNL     1     -10.047  12.220  64.061  1.00  0.00    -0.351 C  
HETATM    2  C   UNL     1     -11.244  12.350  63.134  1.00  0.00    -0.191 C  
ENDROOT
BRANCH   2   3
HETATM    3  C   UNL     1     -12.556  12.135  63.887  1.00  0.00    -0.545 C  
BRANCH   3   4
HETATM    4  C   UNL     1     -12.355  11.240  65.109  1.00  0.00     1.737 C  
BRANCH   4   5
HETATM    5  C   UNL     1     -10.869  11.017  65.389  1.00  0.00    -0.168 C  
BRANCH   5   6
HETATM    6  C   UNL     1     -10.138  10.529  64.139  1.00  0.00    -0.351 C  
BRANCH   6   7
HETATM    7  C   UNL     1      -9.372   9.235  64.415  1.00  0.00     0.102 C  
BRANCH   7   8
HETATM    8  C   UNL     1      -9.682   8.705  65.814  1.00  0.00    -0.053 C  
BRANCH   8   9
HETATM    9  C   UNL     1      -8.476   7.981  66.415  1.00  0.00    -0.138 C  
BRANCH   9  10
HETATM   10  C   UNL     1      -8.876   6.597  66.934  1.00  0.00    -0.118 C  
BRANCH  10  11
HETATM   11  C   UNL     1     -10.265   6.585  67.568  1.00  0.00    -0.221 C  
BRANCH  11  12
HETATM   12  C   UNL     1     -10.362   5.669  68.765  1.00  0.00    -0.218 C  
HETATM   13  O   UNL     1     -11.402   5.273  69.272  1.00  0.00     0.632 OA 
BRANCH  12  14
HETATM   14  O   UNL     1      -9.107   5.336  69.172  1.00  0.00    -0.104 OA 
BRANCH  14  15
HETATM   15  C   UNL     1      -8.836   3.933  69.302  1.00  0.00    -0.093 C  
BRANCH  15  16
HETATM   16  N   UNL     1      -7.629   3.657  70.066  1.00  0.00    -0.048 N  
HETATM   17  C   UNL     1      -7.097   2.382  69.879  1.00  0.00    -0.033 C  
HETATM   18  C   UNL     1      -6.228   1.868  70.992  1.00  0.00    -0.019 C  
HETATM   19  O   UNL     1      -7.396   1.655  68.935  1.00  0.00    -0.042 OA 
HETATM   20  C   UNL     1      -5.219   2.888  71.458  1.00  0.00    -0.004 C  
HETATM   21  C   UNL     1      -5.814   4.260  71.594  1.00  0.00    -0.016 A  
HETATM   22  C   UNL     1      -5.150   5.196  72.403  1.00  0.00    -0.008 A  
HETATM   23  C   UNL     1      -5.594   6.515  72.485  1.00  0.00    -0.037 A  
HETATM   24  C   UNL     1      -6.690   6.915  71.730  1.00  0.00    -0.053 A  
HETATM   25  C   UNL     1      -7.361   5.978  70.933  1.00  0.00    -0.082 A  
HETATM   26  C   UNL     1      -6.956   4.634  70.867  1.00  0.00    -0.037 A  
BRANCH  24  27
HETATM   27  O   UNL     1      -7.220   8.178  71.720  1.00  0.00    -0.070 OA 
BRANCH  27  28
HETATM   28  C   UNL     1      -8.425   8.367  72.467  1.00  0.00    -0.162 C  
BRANCH  28  29
HETATM   29  C   UNL     1      -9.402   9.195  71.630  1.00  0.00    -0.132 C  
BRANCH  29  30
HETATM   30  C   UNL     1     -10.469   8.319  70.956  1.00  0.00    -0.241 C  
BRANCH  30  31
HETATM   31  C   UNL     1     -11.909   8.809  71.208  1.00  0.00    -0.303 C  
BRANCH  31  32
HETATM   32  N   UNL     1     -12.454   9.613  70.107  1.00  0.00     0.215 NA 
HETATM   33  C   UNL     1     -12.427  11.067  70.369  1.00  0.00    -0.313 C  
HETATM   34  C   UNL     1     -11.022  11.691  70.264  1.00  0.00     0.725 C  
HETATM   35  N   UNL     1     -10.536  11.533  68.882  1.00  0.00    -0.213 NA 
HETATM   36  C   UNL     1     -10.479  10.121  68.458  1.00  0.00    -0.195 C  
HETATM   37  C   UNL     1     -11.785   9.343  68.812  1.00  0.00     0.899 C  
BRANCH  35  38
HETATM   38  C   UNL     1     -10.070  12.622  68.152  1.00  0.00    -0.231 A  
HETATM   39  C   UNL     1     -10.808  13.783  67.790  1.00  0.00    -0.250 A  
HETATM   40 CL   UNL     1     -12.520  13.919  68.100  1.00  0.00     0.029 Cl 
HETATM   41  C   UNL     1     -10.195  14.838  67.071  1.00  0.00    -0.253 A  
HETATM   42  C   UNL     1      -8.867  14.750  66.651  1.00  0.00    -0.262 A  
HETATM   43 CL   UNL     1     -11.025  16.307  66.657  1.00  0.00    -0.107 Cl 
HETATM   44  C   UNL     1      -8.129  13.626  66.971  1.00  0.00    -0.004 A  
HETATM   45  C   UNL     1      -8.717  12.607  67.725  1.00  0.00    -0.179 A  
ENDBRANCH  35  38
ENDBRANCH  31  32
ENDBRANCH  30  31
ENDBRANCH  29  30
ENDBRANCH  28  29
ENDBRANCH  27  28
ENDBRANCH  24  27
ENDBRANCH  15  16
ENDBRANCH  14  15
ENDBRANCH  12  14
ENDBRANCH  11  12
ENDBRANCH  10  11
ENDBRANCH   9  10
ENDBRANCH   8   9
ENDBRANCH   7   8
ENDBRANCH   6   7
ENDBRANCH   5   6
ENDBRANCH   4   5
ENDBRANCH   3   4
ENDBRANCH   2   3
TORSDOF 20
ENDMDL
MODEL      162
REMARK 921   NORMALIZED FREE ENERGY PREDICTED BY IDOCK:    5.17 KCAL/MOL
REMARK 922        TOTAL FREE ENERGY PREDICTED BY IDOCK:    7.37 KCAL/MOL
REMARK 923 INTER-LIGAND FREE ENERGY PREDICTED BY IDOCK:    5.99 KCAL/MOL
REMARK 924 INTRA-LIGAND FREE ENERGY PREDICTED BY IDOCK:    1.37 KCAL/MOL
REMARK 927      BINDING AFFINITY PREDICTED BY RF-SCORE:    0.00 PKD
ROOT
HETATM    1  C   UNL     1      -7.475  17.140  65.637  1.00  0.00     0.620 C  
HETATM    2  C   UNL     1      -8.923  17.597  65.706  1.00  0.00     0.278 C  
ENDROOT
BRANCH   2   3
HETATM    3  C   UNL     1      -9.650  16.962  66.890  1.00  0.00    -0.262 C  
BRANCH   3   4
HETATM    4  C   UNL     1      -9.803  15.452  66.704  1.00  0.00    -0.269 C  
BRANCH   4   5
HETATM    5  C   UNL     1     -10.799  15.134  65.589  1.00  0.00    -0.367 C  
BRANCH   5   6
HETATM    6  C   UNL     1     -10.462  13.807  64.909  1.00  0.00    -0.437 C  
BRANCH   6   7
HETATM    7  C   UNL     1      -9.737  12.862  65.868  1.00  0.00    -0.190 C  
BRANCH   7   8
HETATM    8  C   UNL     1     -10.625  12.505  67.059  1.00  0.00    -0.251 C  
BRANCH   8   9
HETATM    9  C   UNL     1     -11.493  13.690  67.483  1.00  0.00    -0.360 C  
BRANCH   9  10
HETATM   10  C   UNL     1     -12.313  13.346  68.730  1.00  0.00     0.037 C  
BRANCH  10  11
HETATM   11  C   UNL     1     -12.837  14.586  69.449  1.00  0.00     0.428 C  
BRANCH  11  12
HETATM   12  C   UNL     1     -11.748  15.378  70.135  1.00  0.00    -0.330 C  
HETATM   13  O   UNL     1     -11.074  14.987  71.077  1.00  0.00    -0.267 OA 
BRANCH  12  14
HETATM   14  O   UNL     1     -11.623  16.585  69.519  1.00  0.00    -0.120 OA 
BRANCH  14  15
HETATM   15  C   UNL     1     -11.251  17.687  70.358  1.00  0.00     2.092 C  
BRANCH  15  16
HETATM   16  N   UNL     1     -10.099  18.419  69.855  1.00  0.00     0.592 N  
HETATM   17  C   UNL     1     -10.274  19.800  69.775  1.00  0.00     0.287 C  
HETATM   18  C   UNL     1      -9.383  20.515  68.797  1.00  0.00     0.486 C  
HETATM   19  O   UNL     1     -11.167  20.405  70.362  1.00  0.00     2.166 OA 
HETATM   20  C   UNL     1      -7.941  20.087  68.907  1.00  0.00     0.007 C  
HETATM   21  C   UNL     1      -7.795  18.600  69.047  1.00  0.00    -0.182 A  
HETATM   22  C   UNL     1      -6.556  18.020  68.733  1.00  0.00    -0.233 A  
HETATM   23  C   UNL     1      -6.326  16.661  68.944  1.00  0.00    -0.164 A  
HETATM   24  C   UNL     1      -7.329  15.877  69.502  1.00  0.00    -0.170 A  
HETATM   25  C   UNL     1      -8.570  16.452  69.804  1.00  0.00     0.643 A  
HETATM   26  C   UNL     1      -8.837  17.811  69.562  1.00  0.00     0.700 A  
BRANCH  24  27
HETATM   27  O   UNL     1      -7.227  14.536  69.761  1.00  0.00    -0.112 OA 
BRANCH  27  28
HETATM   28  C   UNL     1      -7.305  14.147  71.135  1.00  0.00     2.543 C  
BRANCH  28  29
HETATM   29  C   UNL     1      -5.909  13.750  71.618  1.00  0.00    -0.046 C  
BRANCH  29  30
HETATM   30  C   UNL     1      -5.504  12.354  71.123  1.00  0.00    -0.071 C  
BRANCH  30  31
HETATM   31  C   UNL     1      -6.438  11.799  70.028  1.00  0.00    -0.021 C  
BRANCH  31  32
HETATM   32  N   UNL     1      -5.825  10.737  69.220  1.00  0.00    -0.041 NA 
HETATM   33  C   UNL     1      -5.603   9.482  69.966  1.00  0.00    -0.035 C  
HETATM   34  C   UNL     1      -6.892   8.678  70.228  1.00  0.00    -0.040 C  
HETATM   35  N   UNL     1      -7.465   8.269  68.935  1.00  0.00    -0.090 NA 
HETATM   36  C   UNL     1      -7.773   9.417  68.060  1.00  0.00    -0.084 C  
HETATM   37  C   UNL     1      -6.594  10.438  67.988  1.00  0.00    -0.061 C  
BRANCH  35  38
HETATM   38  C   UNL     1      -7.785   6.939  68.676  1.00  0.00    -0.113 A  
HETATM   39  C   UNL     1      -6.884   5.839  68.638  1.00  0.00    -0.062 A  
HETATM   40 CL   UNL     1      -5.157   6.059  68.765  1.00  0.00    -0.004 Cl 
HETATM   41  C   UNL     1      -7.353   4.525  68.395  1.00  0.00    -0.065 A  
HETATM   42  C   UNL     1      -8.701   4.275  68.135  1.00  0.00    -0.118 A  
HETATM   43 CL   UNL     1      -6.312   3.134  68.401  1.00  0.00    -0.032 Cl 
HETATM   44  C   UNL     1      -9.598   5.326  68.146  1.00  0.00    -0.164 A  
HETATM   45  C   UNL     1      -9.146   6.616  68.436  1.00  0.00    -0.124 A  
ENDBRANCH  35  38
ENDBRANCH  31  32
ENDBRANCH  30  31
ENDBRANCH  29  30
ENDBRANCH  28  29
ENDBRANCH  27  28
ENDBRANCH  24  27
ENDBRANCH  15  16
ENDBRANCH  14  15
ENDBRANCH  12  14
ENDBRANCH  11  12
ENDBRANCH  10  11
ENDBRANCH   9  10
ENDBRANCH   8   9
ENDBRANCH   7   8
ENDBRANCH   6   7
ENDBRANCH   5   6
ENDBRANCH   4   5
ENDBRANCH   3   4
ENDBRANCH   2   3
TORSDOF 20
ENDMDL
MODEL      163
REMARK 921   NORMALIZED FREE ENERGY PREDICTED BY IDOCK:    5.64 KCAL/MOL
REMARK 922        TOTAL FREE ENERGY PREDICTED BY IDOCK:    8.39 KCAL/MOL
REMARK 923 INTER-LIGAND FREE ENERGY PREDICTED BY IDOCK:    7.22 KCAL/MOL
REMARK 924 INTRA-LIGAND FREE ENERGY PREDICTED BY IDOCK:    1.18 KCAL/MOL
REMARK 927      BINDING AFFINITY PREDICTED BY RF-SCORE:    0.00 PKD
ROOT
HETATM    1  C   UNL     1     -12.167  19.992  66.009  1.00  0.00     3.869 C  
HETATM    2  C   UNL     1     -12.262  19.163  67.279  1.00  0.00     3.244 C  
ENDROOT
BRANCH   2   3
HETATM    3  C   UNL     1     -11.870  17.708  67.025  1.00  0.00     2.335 C  
BRANCH   3   4
HETATM    4  C   UNL     1     -10.659  17.304  67.865  1.00  0.00    -0.384 C  
BRANCH   4   5
HETATM    5  C   UNL     1      -9.564  18.368  67.800  1.00  0.00    -0.300 C  
BRANCH   5   6
HETATM    6  C   UNL     1      -9.029  18.523  66.377  1.00  0.00    -0.276 C  
BRANCH   6   7
HETATM    7  C   UNL     1      -7.704  17.780  66.200  1.00  0.00    -0.280 C  
BRANCH   7   8
HETATM    8  C   UNL     1      -7.882  16.281  66.439  1.00  0.00    -0.249 C  
BRANCH   8   9
HETATM    9  C   UNL     1      -7.008  15.794  67.596  1.00  0.00    -0.194 C  
BRANCH   9  10
HETATM   10  C   UNL     1      -6.466  14.390  67.314  1.00  0.00     0.312 C  
BRANCH  10  11
HETATM   11  C   UNL     1      -7.378  13.582  66.395  1.00  0.00     2.168 C  
BRANCH  11  12
HETATM   12  C   UNL     1      -8.014  12.397  67.084  1.00  0.00    -0.153 C  
HETATM   13  O   UNL     1      -8.880  11.680  66.605  1.00  0.00    -0.178 OA 
BRANCH  12  14
HETATM   14  O   UNL     1      -7.449  12.242  68.312  1.00  0.00    -0.102 OA 
BRANCH  14  15
HETATM   15  C   UNL     1      -6.223  11.497  68.355  1.00  0.00    -0.049 C  
BRANCH  15  16
HETATM   16  N   UNL     1      -6.204  10.383  67.420  1.00  0.00    -0.057 N  
HETATM   17  C   UNL     1      -5.804  10.712  66.126  1.00  0.00    -0.112 C  
HETATM   18  C   UNL     1      -6.272   9.781  65.041  1.00  0.00    -0.094 C  
HETATM   19  O   UNL     1      -5.212  11.750  65.843  1.00  0.00    -0.245 OA 
HETATM   20  C   UNL     1      -6.063   8.330  65.395  1.00  0.00    -0.045 C  
HETATM   21  C   UNL     1      -6.452   8.024  66.812  1.00  0.00    -0.056 A  
HETATM   22  C   UNL     1      -6.723   6.690  67.155  1.00  0.00    -0.063 A  
HETATM   23  C   UNL     1      -6.986   6.329  68.476  1.00  0.00    -0.080 A  
HETATM   24  C   UNL     1      -6.947   7.299  69.470  1.00  0.00    -0.057 A  
HETATM   25  C   UNL     1      -6.689   8.633  69.127  1.00  0.00    -0.047 A  
HETATM   26  C   UNL     1      -6.462   9.026  67.797  1.00  0.00    -0.057 A  
BRANCH  24  27
HETATM   27  O   UNL     1      -7.181   7.073  70.801  1.00  0.00    -0.069 OA 
BRANCH  27  28
HETATM   28  C   UNL     1      -8.035   5.970  71.116  1.00  0.00    -0.116 C  
BRANCH  28  29
HETATM   29  C   UNL     1      -9.383   6.172  70.421  1.00  0.00    -0.173 C  
BRANCH  29  30
HETATM   30  C   UNL     1     -10.024   7.519  70.788  1.00  0.00    -0.182 C  
BRANCH  30  31
HETATM   31  C   UNL     1     -11.506   7.397  71.197  1.00  0.00    -0.279 C  
BRANCH  31  32
HETATM   32  N   UNL     1     -12.388   8.333  70.487  1.00  0.00     0.194 NA 
HETATM   33  C   UNL     1     -13.277   9.101  71.382  1.00  0.00    -0.299 C  
HETATM   34  C   UNL     1     -12.556  10.216  72.165  1.00  0.00    -0.138 C  
HETATM   35  N   UNL     1     -12.022  11.198  71.206  1.00  0.00    -0.098 NA 
HETATM   36  C   UNL     1     -11.086  10.596  70.237  1.00  0.00    -0.233 C  
HETATM   37  C   UNL     1     -11.643   9.275  69.619  1.00  0.00     0.267 C  
BRANCH  35  38
HETATM   38  C   UNL     1     -12.301  12.556  71.332  1.00  0.00     0.056 A  
HETATM   39  C   UNL     1     -12.377  13.509  70.279  1.00  0.00    -0.300 A  
HETATM   40 CL   UNL     1     -11.958  13.102  68.635  1.00  0.00    -0.358 Cl 
HETATM   41  C   UNL     1     -12.707  14.861  70.546  1.00  0.00    -0.347 A  
HETATM   42  C   UNL     1     -12.914  15.310  71.851  1.00  0.00    -0.467 A  
HETATM   43 CL   UNL     1     -12.880  16.056  69.297  1.00  0.00     0.787 Cl 
HETATM   44  C   UNL     1     -12.827  14.411  72.898  1.00  0.00    -0.512 A  
HETATM   45  C   UNL     1     -12.553  13.067  72.631  1.00  0.00     0.634 A  
ENDBRANCH  35  38
ENDBRANCH  31  32
ENDBRANCH  30  31
ENDBRANCH  29  30
ENDBRANCH  28  29
ENDBRANCH  27  28
ENDBRANCH  24  27
ENDBRANCH  15  16
ENDBRANCH  14  15
ENDBRANCH  12  14
ENDBRANCH  11  12
ENDBRANCH  10  11
ENDBRANCH   9  10
ENDBRANCH   8   9
ENDBRANCH   7   8
ENDBRANCH   6   7
ENDBRANCH   5   6
ENDBRANCH   4   5
ENDBRANCH   3   4
ENDBRANCH   2   3
TORSDOF 20
ENDMDL
MODEL      164
REMARK 921   NORMALIZED FREE ENERGY PREDICTED BY IDOCK:    6.35 KCAL/MOL
REMARK 922        TOTAL FREE ENERGY PREDICTED BY IDOCK:    9.94 KCAL/MOL
REMARK 923 INTER-LIGAND FREE ENERGY PREDICTED BY IDOCK:    5.68 KCAL/MOL
REMARK 924 INTRA-LIGAND FREE ENERGY PREDICTED BY IDOCK:    4.25 KCAL/MOL
REMARK 927      BINDING AFFINITY PREDICTED BY RF-SCORE:    0.00 PKD
ROOT
HETATM    1  C   UNL     1      -8.786  18.306  64.916  1.00  0.00     3.961 C  
HETATM    2  C   UNL     1     -10.301  18.183  64.960  1.00  0.00     1.386 C  
ENDROOT
BRANCH   2   3
HETATM    3  C   UNL     1     -10.737  16.724  65.079  1.00  0.00    -0.118 C  
BRANCH   3   4
HETATM    4  C   UNL     1     -11.632  16.314  63.911  1.00  0.00     0.724 C  
BRANCH   4   5
HETATM    5  C   UNL     1     -13.090  16.189  64.353  1.00  0.00     2.568 C  
BRANCH   5   6
HETATM    6  C   UNL     1     -13.409  14.766  64.812  1.00  0.00     1.249 C  
BRANCH   6   7
HETATM    7  C   UNL     1     -12.775  14.468  66.171  1.00  0.00     0.077 C  
BRANCH   7   8
HETATM    8  C   UNL     1     -12.546  12.968  66.350  1.00  0.00     0.178 C  
BRANCH   8   9
HETATM    9  C   UNL     1     -11.333  12.692  67.239  1.00  0.00    -0.372 C  
BRANCH   9  10
HETATM   10  C   UNL     1     -11.004  13.911  68.105  1.00  0.00    -0.267 C  
BRANCH  10  11
HETATM   11  C   UNL     1      -9.650  13.790  68.800  1.00  0.00    -0.044 C  
BRANCH  11  12
HETATM   12  C   UNL     1      -9.035  12.416  68.666  1.00  0.00     0.036 C  
HETATM   13  O   UNL     1      -8.035  12.148  68.018  1.00  0.00    -0.132 OA 
BRANCH  12  14
HETATM   14  O   UNL     1      -9.760  11.533  69.404  1.00  0.00     0.167 OA 
BRANCH  14  15
HETATM   15  C   UNL     1     -10.617  10.648  68.669  1.00  0.00    -0.203 C  
BRANCH  15  16
HETATM   16  N   UNL     1     -10.987   9.460  69.423  1.00  0.00    -0.192 N  
HETATM   17  C   UNL     1     -11.593   9.713  70.652  1.00  0.00    -0.299 C  
HETATM   18  C   UNL     1     -11.497   8.609  71.668  1.00  0.00    -0.375 C  
HETATM   19  O   UNL     1     -12.078  10.800  70.957  1.00  0.00    -0.341 OA 
HETATM   20  C   UNL     1     -11.833   7.258  71.088  1.00  0.00    -0.345 C  
HETATM   21  C   UNL     1     -11.207   7.042  69.740  1.00  0.00    -0.257 A  
HETATM   22  C   UNL     1     -11.064   5.725  69.275  1.00  0.00    -0.242 A  
HETATM   23  C   UNL     1     -10.588   5.467  67.990  1.00  0.00    -0.157 A  
HETATM   24  C   UNL     1     -10.283   6.529  67.148  1.00  0.00    -0.198 A  
HETATM   25  C   UNL     1     -10.414   7.843  67.615  1.00  0.00    -0.303 A  
HETATM   26  C   UNL     1     -10.852   8.126  68.920  1.00  0.00     0.035 A  
BRANCH  24  27
HETATM   27  O   UNL     1      -9.814   6.408  65.867  1.00  0.00     0.113 OA 
BRANCH  27  28
HETATM   28  C   UNL     1      -9.448   5.091  65.446  1.00  0.00    -0.085 C  
BRANCH  28  29
HETATM   29  C   UNL     1      -8.700   5.186  64.115  1.00  0.00    -0.059 C  
BRANCH  29  30
HETATM   30  C   UNL     1      -7.703   6.355  64.096  1.00  0.00    -0.105 C  
BRANCH  30  31
HETATM   31  C   UNL     1      -7.551   7.049  65.465  1.00  0.00    -0.091 C  
BRANCH  31  32
HETATM   32  N   UNL     1      -6.895   8.361  65.385  1.00  0.00    -0.065 NA 
HETATM   33  C   UNL     1      -7.675   9.450  66.007  1.00  0.00    -0.099 C  
HETATM   34  C   UNL     1      -7.660   9.423  67.548  1.00  0.00    -0.091 C  
HETATM   35  N   UNL     1      -6.277   9.619  68.011  1.00  0.00    -0.055 NA 
HETATM   36  C   UNL     1      -5.352   8.591  67.494  1.00  0.00    -0.034 C  
HETATM   37  C   UNL     1      -5.529   8.355  65.961  1.00  0.00    -0.031 C  
BRANCH  35  38
HETATM   38  C   UNL     1      -5.959  10.604  68.942  1.00  0.00    -0.040 A  
HETATM   39  C   UNL     1      -5.717  11.980  68.675  1.00  0.00    -0.052 A  
HETATM   40 CL   UNL     1      -5.632  12.601  67.046  1.00  0.00     0.070 Cl 
HETATM   41  C   UNL     1      -5.438  12.886  69.728  1.00  0.00    -0.095 A  
HETATM   42  C   UNL     1      -5.339  12.449  71.049  1.00  0.00    -0.143 A  
HETATM   43 CL   UNL     1      -5.198  14.587  69.472  1.00  0.00    -0.090 Cl 
HETATM   44  C   UNL     1      -5.550  11.114  71.339  1.00  0.00     0.181 A  
HETATM   45  C   UNL     1      -5.877  10.229  70.308  1.00  0.00    -0.079 A  
ENDBRANCH  35  38
ENDBRANCH  31  32
ENDBRANCH  30  31
ENDBRANCH  29  30
ENDBRANCH  28  29
ENDBRANCH  27  28
ENDBRANCH  24  27
ENDBRANCH  15  16
ENDBRANCH  14  15
ENDBRANCH  12  14
ENDBRANCH  11  12
ENDBRANCH  10  11
ENDBRANCH   9  10
ENDBRANCH   8   9
ENDBRANCH   7   8
ENDBRANCH   6   7
ENDBRANCH   5   6
ENDBRANCH   4   5
ENDBRANCH   3   4
ENDBRANCH   2   3
TORSDOF 20
ENDMDL
MODEL      165
REMARK 921   NORMALIZED FREE ENERGY PREDICTED BY IDOCK:    6.42 KCAL/MOL
REMARK 922        TOTAL FREE ENERGY PREDICTED BY IDOCK:   10.08 KCAL/MOL
REMARK 923 INTER-LIGAND FREE ENERGY PREDICTED BY IDOCK:    5.76 KCAL/MOL
REMARK 924 INTRA-LIGAND FREE ENERGY PREDICTED BY IDOCK:    4.32 KCAL/MOL
REMARK 927      BINDING AFFINITY PREDICTED BY RF-SCORE:    0.00 PKD
ROOT
HETATM    1  C   UNL     1      -5.525  12.186  71.122  1.00  0.00    -0.043 C  
HETATM    2  C   UNL     1      -6.703  11.587  71.874  1.00  0.00     4.662 C  
ENDROOT
BRANCH   2   3
HETATM    3  C   UNL     1      -7.836  11.208  70.921  1.00  0.00     4.072 C  
BRANCH   3   4
HETATM    4  C   UNL     1      -8.434   9.849  71.282  1.00  0.00     1.419 C  
BRANCH   4   5
HETATM    5  C   UNL     1      -8.322   9.580  72.783  1.00  0.00     2.591 C  
BRANCH   5   6
HETATM    6  C   UNL     1      -7.311   8.471  73.072  1.00  0.00    -0.042 C  
BRANCH   6   7
HETATM    7  C   UNL     1      -6.554   8.069  71.806  1.00  0.00    -0.052 C  
BRANCH   7   8
HETATM    8  C   UNL     1      -6.545   6.550  71.634  1.00  0.00    -0.057 C  
BRANCH   8   9
HETATM    9  C   UNL     1      -6.874   6.151  70.195  1.00  0.00    -0.057 C  
BRANCH   9  10
HETATM   10  C   UNL     1      -8.364   5.832  70.047  1.00  0.00    -0.123 C  
BRANCH  10  11
HETATM   11  C   UNL     1      -8.925   6.262  68.694  1.00  0.00    -0.127 C  
BRANCH  11  12
HETATM   12  C   UNL     1      -9.033   5.122  67.707  1.00  0.00    -0.110 C  
HETATM   13  O   UNL     1      -8.695   3.967  67.920  1.00  0.00    -0.095 OA 
BRANCH  12  14
HETATM   14  O   UNL     1      -9.589   5.584  66.555  1.00  0.00    -0.143 OA 
BRANCH  14  15
HETATM   15  C   UNL     1      -9.270   6.936  66.196  1.00  0.00    -0.079 C  
BRANCH  15  16
HETATM   16  N   UNL     1      -8.009   7.050  65.480  1.00  0.00    -0.122 N  
HETATM   17  C   UNL     1      -7.052   6.097  65.825  1.00  0.00    -0.073 C  
HETATM   18  C   UNL     1      -5.623   6.476  65.549  1.00  0.00    -0.025 C  
HETATM   19  O   UNL     1      -7.316   5.058  66.425  1.00  0.00    -0.082 OA 
HETATM   20  C   UNL     1      -5.435   7.059  64.171  1.00  0.00    -0.032 C  
HETATM   21  C   UNL     1      -6.514   8.039  63.812  1.00  0.00    -0.067 A  
HETATM   22  C   UNL     1      -6.261   8.963  62.786  1.00  0.00    -0.091 A  
HETATM   23  C   UNL     1      -7.258   9.827  62.336  1.00  0.00    -0.117 A  
HETATM   24  C   UNL     1      -8.530   9.749  62.890  1.00  0.00    -0.177 A  
HETATM   25  C   UNL     1      -8.781   8.836  63.923  1.00  0.00     0.008 A  
HETATM   26  C   UNL     1      -7.779   7.985  64.420  1.00  0.00    -0.130 A  
BRANCH  24  27
HETATM   27  O   UNL     1      -9.594  10.536  62.534  1.00  0.00    -0.284 OA 
BRANCH  27  28
HETATM   28  C   UNL     1      -9.681  11.812  63.173  1.00  0.00    -0.293 C  
BRANCH  28  29
HETATM   29  C   UNL     1      -9.937  11.601  64.667  1.00  0.00    -0.291 C  
BRANCH  29  30
HETATM   30  C   UNL     1     -11.391  11.912  65.052  1.00  0.00    -0.333 C  
BRANCH  30  31
HETATM   31  C   UNL     1     -11.568  12.258  66.544  1.00  0.00    -0.377 C  
BRANCH  31  32
HETATM   32  N   UNL     1     -10.304  12.562  67.227  1.00  0.00    -0.219 NA 
HETATM   33  C   UNL     1      -9.340  13.299  66.385  1.00  0.00    -0.174 C  
HETATM   34  C   UNL     1      -9.703  14.783  66.180  1.00  0.00    -0.312 C  
HETATM   35  N   UNL     1      -9.680  15.461  67.487  1.00  0.00    -0.208 NA 
HETATM   36  C   UNL     1     -10.613  14.857  68.457  1.00  0.00    -0.245 C  
HETATM   37  C   UNL     1     -10.501  13.301  68.497  1.00  0.00    -0.250 C  
BRANCH  35  38
HETATM   38  C   UNL     1      -8.938  16.622  67.685  1.00  0.00    -0.205 A  
HETATM   39  C   UNL     1      -9.230  17.916  67.172  1.00  0.00    -0.258 A  
HETATM   40 CL   UNL     1     -10.535  18.187  66.045  1.00  0.00    -0.399 Cl 
HETATM   41  C   UNL     1      -8.404  19.024  67.484  1.00  0.00    -0.278 A  
HETATM   42  C   UNL     1      -7.253  18.871  68.258  1.00  0.00    -0.297 A  
HETATM   43 CL   UNL     1      -8.745  20.638  66.941  1.00  0.00    -0.277 Cl 
HETATM   44  C   UNL     1      -6.932  17.623  68.756  1.00  0.00    -0.245 A  
HETATM   45  C   UNL     1      -7.774  16.538  68.492  1.00  0.00    -0.204 A  
ENDBRANCH  35  38
ENDBRANCH  31  32
ENDBRANCH  30  31
ENDBRANCH  29  30
ENDBRANCH  28  29
ENDBRANCH  27  28
ENDBRANCH  24  27
ENDBRANCH  15  16
ENDBRANCH  14  15
ENDBRANCH  12  14
ENDBRANCH  11  12
ENDBRANCH  10  11
ENDBRANCH   9  10
ENDBRANCH   8   9
ENDBRANCH   7   8
ENDBRANCH   6   7
ENDBRANCH   5   6
ENDBRANCH   4   5
ENDBRANCH   3   4
ENDBRANCH   2   3
TORSDOF 20
ENDMDL
MODEL      166
REMARK 921   NORMALIZED FREE ENERGY PREDICTED BY IDOCK:    7.12 KCAL/MOL
REMARK 922        TOTAL FREE ENERGY PREDICTED BY IDOCK:   11.59 KCAL/MOL
REMARK 923 INTER-LIGAND FREE ENERGY PREDICTED BY IDOCK:    1.98 KCAL/MOL
REMARK 924 INTRA-LIGAND FREE ENERGY PREDICTED BY IDOCK:    9.61 KCAL/MOL
REMARK 927      BINDING AFFINITY PREDICTED BY RF-SCORE:    0.00 PKD
ROOT
HETATM    1  C   UNL     1     -10.623  19.261  66.914  1.00  0.00    -0.557 C  
HETATM    2  C   UNL     1      -9.360  20.103  67.005  1.00  0.00    -0.523 C  
ENDROOT
BRANCH   2   3
HETATM    3  C   UNL     1      -9.128  20.899  65.722  1.00  0.00     0.998 C  
BRANCH   3   4
HETATM    4  C   UNL     1      -8.555  20.016  64.615  1.00  0.00     2.717 C  
BRANCH   4   5
HETATM    5  C   UNL     1      -7.445  19.113  65.152  1.00  0.00     0.659 C  
BRANCH   5   6
HETATM    6  C   UNL     1      -7.867  18.433  66.454  1.00  0.00    -0.291 C  
BRANCH   6   7
HETATM    7  C   UNL     1      -9.053  17.495  66.230  1.00  0.00    -0.221 C  
BRANCH   7   8
HETATM    8  C   UNL     1      -8.728  16.079  66.702  1.00  0.00    -0.309 C  
BRANCH   8   9
HETATM    9  C   UNL     1      -8.633  15.107  65.525  1.00  0.00     1.779 C  
BRANCH   9  10
HETATM   10  C   UNL     1      -9.982  14.986  64.811  1.00  0.00     0.140 C  
BRANCH  10  11
HETATM   11  C   UNL     1     -11.018  15.975  65.338  1.00  0.00    -0.261 C  
BRANCH  11  12
HETATM   12  C   UNL     1     -11.730  15.485  66.577  1.00  0.00     0.306 C  
HETATM   13  O   UNL     1     -12.721  14.770  66.588  1.00  0.00     0.212 OA 
BRANCH  12  14
HETATM   14  O   UNL     1     -11.076  15.946  67.677  1.00  0.00    -0.323 OA 
BRANCH  14  15
HETATM   15  C   UNL     1     -10.645  14.955  68.620  1.00  0.00    -0.251 C  
BRANCH  15  16
HETATM   16  N   UNL     1     -11.722  14.476  69.472  1.00  0.00    -0.295 N  
HETATM   17  C   UNL     1     -12.784  15.366  69.627  1.00  0.00     0.083 C  
HETATM   18  C   UNL     1     -13.617  15.179  70.865  1.00  0.00    -0.397 C  
HETATM   19  O   UNL     1     -12.979  16.324  68.884  1.00  0.00     1.061 OA 
HETATM   20  C   UNL     1     -13.989  13.737  71.100  1.00  0.00     0.200 C  
HETATM   21  C   UNL     1     -12.836  12.803  70.869  1.00  0.00    -0.187 A  
HETATM   22  C   UNL     1     -12.890  11.524  71.444  1.00  0.00    -0.489 A  
HETATM   23  C   UNL     1     -11.902  10.577  71.180  1.00  0.00    -0.391 A  
HETATM   24  C   UNL     1     -10.866  10.895  70.309  1.00  0.00     0.135 A  
HETATM   25  C   UNL     1     -10.805  12.176  69.745  1.00  0.00     0.325 A  
HETATM   26  C   UNL     1     -11.768  13.159  70.030  1.00  0.00    -0.221 A  
BRANCH  24  27
HETATM   27  O   UNL     1      -9.840  10.054  69.966  1.00  0.00    -0.241 OA 
BRANCH  27  28
HETATM   28  C   UNL     1      -8.616  10.677  69.569  1.00  0.00     0.042 C  
BRANCH  28  29
HETATM   29  C   UNL     1      -8.218  10.151  68.188  1.00  0.00    -0.113 C  
BRANCH  29  30
HETATM   30  C   UNL     1      -8.985   8.873  67.816  1.00  0.00    -0.140 C  
BRANCH  30  31
HETATM   31  C   UNL     1      -8.241   7.580  68.206  1.00  0.00    -0.125 C  
BRANCH  31  32
HETATM   32  N   UNL     1      -7.989   7.462  69.648  1.00  0.00    -0.123 NA 
HETATM   33  C   UNL     1      -9.157   6.980  70.414  1.00  0.00    -0.156 C  
HETATM   34  C   UNL     1      -9.436   5.475  70.237  1.00  0.00    -0.165 C  
HETATM   35  N   UNL     1      -8.286   4.716  70.758  1.00  0.00    -0.090 NA 
HETATM   36  C   UNL     1      -7.022   5.063  70.079  1.00  0.00    -0.049 C  
HETATM   37  C   UNL     1      -6.820   6.606  69.958  1.00  0.00    -0.054 C  
BRANCH  35  38
HETATM   38  C   UNL     1      -8.455   3.699  71.693  1.00  0.00    -0.084 A  
HETATM   39  C   UNL     1      -9.627   3.429  72.453  1.00  0.00    -0.133 A  
HETATM   40 CL   UNL     1     -11.014   4.487  72.416  1.00  0.00    -0.094 Cl 
HETATM   41  C   UNL     1      -9.673   2.333  73.350  1.00  0.00    -0.095 A  
HETATM   42  C   UNL     1      -8.558   1.519  73.555  1.00  0.00    -0.053 A  
HETATM   43 CL   UNL     1     -11.095   1.913  74.255  1.00  0.00    -0.172 Cl 
HETATM   44  C   UNL     1      -7.399   1.769  72.845  1.00  0.00    -0.032 A  
HETATM   45  C   UNL     1      -7.367   2.818  71.922  1.00  0.00    -0.040 A  
ENDBRANCH  35  38
ENDBRANCH  31  32
ENDBRANCH  30  31
ENDBRANCH  29  30
ENDBRANCH  28  29
ENDBRANCH  27  28
ENDBRANCH  24  27
ENDBRANCH  15  16
ENDBRANCH  14  15
ENDBRANCH  12  14
ENDBRANCH  11  12
ENDBRANCH  10  11
ENDBRANCH   9  10
ENDBRANCH   8   9
ENDBRANCH   7   8
ENDBRANCH   6   7
ENDBRANCH   5   6
ENDBRANCH   4   5
ENDBRANCH   3   4
ENDBRANCH   2   3
TORSDOF 20
ENDMDL
MODEL      167
REMARK 921   NORMALIZED FREE ENERGY PREDICTED BY IDOCK:    8.28 KCAL/MOL
REMARK 922        TOTAL FREE ENERGY PREDICTED BY IDOCK:   14.12 KCAL/MOL
REMARK 923 INTER-LIGAND FREE ENERGY PREDICTED BY IDOCK:    9.81 KCAL/MOL
REMARK 924 INTRA-LIGAND FREE ENERGY PREDICTED BY IDOCK:    4.31 KCAL/MOL
REMARK 927      BINDING AFFINITY PREDICTED BY RF-SCORE:    0.00 PKD
ROOT
HETATM    1  C   UNL     1      -8.419   9.512  68.885  1.00  0.00    -0.123 C  
HETATM    2  C   UNL     1      -8.099   9.650  70.365  1.00  0.00    -0.198 C  
ENDROOT
BRANCH   2   3
HETATM    3  C   UNL     1      -8.523   8.406  71.144  1.00  0.00    -0.178 C  
BRANCH   3   4
HETATM    4  C   UNL     1      -9.135   7.354  70.221  1.00  0.00    -0.151 C  
BRANCH   4   5
HETATM    5  C   UNL     1     -10.057   6.412  70.996  1.00  0.00    -0.212 C  
BRANCH   5   6
HETATM    6  C   UNL     1     -10.798   7.154  72.107  1.00  0.00    -0.255 C  
BRANCH   6   7
HETATM    7  C   UNL     1     -12.095   6.438  72.482  1.00  0.00    -0.069 C  
BRANCH   7   8
HETATM    8  C   UNL     1     -13.253   6.909  71.604  1.00  0.00    -0.315 C  
BRANCH   8   9
HETATM    9  C   UNL     1     -13.097   6.417  70.164  1.00  0.00     2.681 C  
BRANCH   9  10
HETATM   10  C   UNL     1     -12.879   7.592  69.208  1.00  0.00     4.237 C  
BRANCH  10  11
HETATM   11  C   UNL     1     -11.447   7.666  68.684  1.00  0.00     0.804 C  
BRANCH  11  12
HETATM   12  C   UNL     1     -11.303   7.140  67.275  1.00  0.00     0.250 C  
HETATM   13  O   UNL     1     -11.235   7.826  66.267  1.00  0.00     1.353 OA 
BRANCH  12  14
HETATM   14  O   UNL     1     -11.238   5.782  67.314  1.00  0.00    -0.056 OA 
BRANCH  14  15
HETATM   15  C   UNL     1     -11.079   5.120  66.051  1.00  0.00     0.198 C  
BRANCH  15  16
HETATM   16  N   UNL     1      -9.820   4.400  65.942  1.00  0.00    -0.209 N  
HETATM   17  C   UNL     1      -9.779   3.187  66.628  1.00  0.00     0.173 C  
HETATM   18  C   UNL     1      -8.408   2.692  66.998  1.00  0.00    -0.096 C  
HETATM   19  O   UNL     1     -10.781   2.597  67.022  1.00  0.00     3.257 OA 
HETATM   20  C   UNL     1      -7.432   2.780  65.852  1.00  0.00    -0.072 C  
HETATM   21  C   UNL     1      -7.543   4.076  65.103  1.00  0.00    -0.081 A  
HETATM   22  C   UNL     1      -6.456   4.485  64.314  1.00  0.00    -0.038 A  
HETATM   23  C   UNL     1      -6.539   5.624  63.514  1.00  0.00    -0.033 A  
HETATM   24  C   UNL     1      -7.727   6.345  63.473  1.00  0.00    -0.106 A  
HETATM   25  C   UNL     1      -8.808   5.944  64.269  1.00  0.00     0.343 A  
HETATM   26  C   UNL     1      -8.732   4.824  65.114  1.00  0.00    -0.144 A  
BRANCH  24  27
HETATM   27  O   UNL     1      -7.937   7.474  62.727  1.00  0.00    -0.132 OA 
BRANCH  27  28
HETATM   28  C   UNL     1      -6.930   8.486  62.810  1.00  0.00    -0.090 C  
BRANCH  28  29
HETATM   29  C   UNL     1      -5.940   8.110  63.914  1.00  0.00    -0.066 C  
BRANCH  29  30
HETATM   30  C   UNL     1      -6.615   8.035  65.292  1.00  0.00    -0.051 C  
BRANCH  30  31
HETATM   31  C   UNL     1      -5.826   7.191  66.313  1.00  0.00    -0.035 C  
BRANCH  31  32
HETATM   32  N   UNL     1      -6.164   7.497  67.709  1.00  0.00    -0.047 NA 
HETATM   33  C   UNL     1      -7.497   7.004  68.115  1.00  0.00    -0.099 C  
HETATM   34  C   UNL     1      -7.556   5.479  68.328  1.00  0.00    -0.081 C  
HETATM   35  N   UNL     1      -6.652   5.120  69.434  1.00  0.00    -0.045 NA 
HETATM   36  C   UNL     1      -5.256   5.526  69.182  1.00  0.00    -0.003 C  
HETATM   37  C   UNL     1      -5.151   6.996  68.668  1.00  0.00    -0.016 C  
BRANCH  35  38
HETATM   38  C   UNL     1      -7.097   4.362  70.514  1.00  0.00    -0.041 A  
HETATM   39  C   UNL     1      -7.364   4.832  71.830  1.00  0.00    -0.071 A  
HETATM   40 CL   UNL     1      -7.000   6.468  72.315  1.00  0.00    -0.072 Cl 
HETATM   41  C   UNL     1      -7.850   3.953  72.829  1.00  0.00    -0.075 A  
HETATM   42  C   UNL     1      -8.030   2.594  72.570  1.00  0.00    -0.055 A  
HETATM   43 CL   UNL     1      -8.256   4.480  74.434  1.00  0.00    -0.094 Cl 
HETATM   44  C   UNL     1      -7.760   2.103  71.307  1.00  0.00    -0.040 A  
HETATM   45  C   UNL     1      -7.331   2.978  70.305  1.00  0.00    -0.040 A  
ENDBRANCH  35  38
ENDBRANCH  31  32
ENDBRANCH  30  31
ENDBRANCH  29  30
ENDBRANCH  28  29
ENDBRANCH  27  28
ENDBRANCH  24  27
ENDBRANCH  15  16
ENDBRANCH  14  15
ENDBRANCH  12  14
ENDBRANCH  11  12
ENDBRANCH  10  11
ENDBRANCH   9  10
ENDBRANCH   8   9
ENDBRANCH   7   8
ENDBRANCH   6   7
ENDBRANCH   5   6
ENDBRANCH   4   5
ENDBRANCH   3   4
ENDBRANCH   2   3
TORSDOF 20
ENDMDL
MODEL      168
REMARK 921   NORMALIZED FREE ENERGY PREDICTED BY IDOCK:    8.35 KCAL/MOL
REMARK 922        TOTAL FREE ENERGY PREDICTED BY IDOCK:   14.27 KCAL/MOL
REMARK 923 INTER-LIGAND FREE ENERGY PREDICTED BY IDOCK:    3.18 KCAL/MOL
REMARK 924 INTRA-LIGAND FREE ENERGY PREDICTED BY IDOCK:   11.09 KCAL/MOL
REMARK 927      BINDING AFFINITY PREDICTED BY RF-SCORE:    0.00 PKD
ROOT
HETATM    1  C   UNL     1     -13.545  13.887  65.220  1.00  0.00     1.031 C  
HETATM    2  C   UNL     1     -12.294  13.031  65.340  1.00  0.00    -0.538 C  
ENDROOT
BRANCH   2   3
HETATM    3  C   UNL     1     -12.417  11.748  64.520  1.00  0.00     0.042 C  
BRANCH   3   4
HETATM    4  C   UNL     1     -11.737  11.890  63.159  1.00  0.00    -0.249 C  
BRANCH   4   5
HETATM    5  C   UNL     1     -10.515  10.978  63.057  1.00  0.00    -0.074 C  
BRANCH   5   6
HETATM    6  C   UNL     1     -10.435  10.025  64.248  1.00  0.00     0.985 C  
BRANCH   6   7
HETATM    7  C   UNL     1      -9.244  10.359  65.147  1.00  0.00    -0.250 C  
BRANCH   7   8
HETATM    8  C   UNL     1      -8.927   9.198  66.088  1.00  0.00    -0.211 C  
BRANCH   8   9
HETATM    9  C   UNL     1      -7.734   9.521  66.989  1.00  0.00    -0.091 C  
BRANCH   9  10
HETATM   10  C   UNL     1      -8.204  10.005  68.363  1.00  0.00    -0.106 C  
BRANCH  10  11
HETATM   11  C   UNL     1      -7.275  11.056  68.965  1.00  0.00    -0.111 C  
BRANCH  11  12
HETATM   12  C   UNL     1      -7.605  12.463  68.523  1.00  0.00    -0.122 C  
HETATM   13  O   UNL     1      -7.782  13.416  69.267  1.00  0.00     0.168 OA 
BRANCH  12  14
HETATM   14  O   UNL     1      -7.650  12.502  67.163  1.00  0.00    -0.148 OA 
BRANCH  14  15
HETATM   15  C   UNL     1      -8.947  12.353  66.569  1.00  0.00    -0.145 C  
BRANCH  15  16
HETATM   16  N   UNL     1      -9.798  13.516  66.766  1.00  0.00    -0.259 N  
HETATM   17  C   UNL     1      -9.613  14.539  65.837  1.00  0.00    -0.247 C  
HETATM   18  C   UNL     1     -10.034  15.912  66.286  1.00  0.00    -0.318 C  
HETATM   19  O   UNL     1      -9.040  14.384  64.763  1.00  0.00     1.370 OA 
HETATM   20  C   UNL     1     -11.393  15.917  66.939  1.00  0.00     0.123 C  
HETATM   21  C   UNL     1     -11.575  14.770  67.891  1.00  0.00    -0.373 A  
HETATM   22  C   UNL     1     -12.575  14.869  68.870  1.00  0.00     0.260 A  
HETATM   23  C   UNL     1     -12.863  13.796  69.713  1.00  0.00     0.305 A  
HETATM   24  C   UNL     1     -12.170  12.602  69.559  1.00  0.00    -0.090 A  
HETATM   25  C   UNL     1     -11.162  12.506  68.590  1.00  0.00    -0.319 A  
HETATM   26  C   UNL     1     -10.828  13.588  67.757  1.00  0.00    -0.253 A  
BRANCH  24  27
HETATM   27  O   UNL     1     -12.360  11.477  70.318  1.00  0.00    -0.304 OA 
BRANCH  27  28
HETATM   28  C   UNL     1     -13.470  11.500  71.218  1.00  0.00     0.392 C  
BRANCH  28  29
HETATM   29  C   UNL     1     -13.146  12.440  72.381  1.00  0.00    -0.091 C  
BRANCH  29  30
HETATM   30  C   UNL     1     -13.733  13.844  72.167  1.00  0.00    -0.619 C  
BRANCH  30  31
HETATM   31  C   UNL     1     -13.390  14.828  73.304  1.00  0.00    -0.227 C  
BRANCH  31  32
HETATM   32  N   UNL     1     -11.988  15.263  73.297  1.00  0.00    -0.437 NA 
HETATM   33  C   UNL     1     -11.232  14.801  72.115  1.00  0.00     0.466 C  
HETATM   34  C   UNL     1     -11.580  15.562  70.820  1.00  0.00    -0.367 C  
HETATM   35  N   UNL     1     -11.213  16.978  70.990  1.00  0.00     0.476 NA 
HETATM   36  C   UNL     1     -11.903  17.611  72.131  1.00  0.00     2.969 C  
HETATM   37  C   UNL     1     -11.842  16.733  73.420  1.00  0.00    -0.074 C  
BRANCH  35  38
HETATM   38  C   UNL     1     -10.403  17.631  70.066  1.00  0.00     0.768 A  
HETATM   39  C   UNL     1      -9.388  17.044  69.260  1.00  0.00     0.018 A  
HETATM   40 CL   UNL     1      -8.906  15.378  69.455  1.00  0.00    -0.257 Cl 
HETATM   41  C   UNL     1      -8.660  17.823  68.328  1.00  0.00    -0.277 A  
HETATM   42  C   UNL     1      -8.876  19.197  68.210  1.00  0.00    -0.377 A  
HETATM   43 CL   UNL     1      -7.455  17.152  67.271  1.00  0.00    -0.177 Cl 
HETATM   44  C   UNL     1      -9.842  19.800  68.993  1.00  0.00    -0.419 A  
HETATM   45  C   UNL     1     -10.598  19.023  69.876  1.00  0.00     1.334 A  
ENDBRANCH  35  38
ENDBRANCH  31  32
ENDBRANCH  30  31
ENDBRANCH  29  30
ENDBRANCH  28  29
ENDBRANCH  27  28
ENDBRANCH  24  27
ENDBRANCH  15  16
ENDBRANCH  14  15
ENDBRANCH  12  14
ENDBRANCH  11  12
ENDBRANCH  10  11
ENDBRANCH   9  10
ENDBRANCH   8   9
ENDBRANCH   7   8
ENDBRANCH   6   7
ENDBRANCH   5   6
ENDBRANCH   4   5
ENDBRANCH   3   4
ENDBRANCH   2   3
TORSDOF 20
ENDMDL
MODEL      169
REMARK 921   NORMALIZED FREE ENERGY PREDICTED BY IDOCK:    9.69 KCAL/MOL
REMARK 922        TOTAL FREE ENERGY PREDICTED BY IDOCK:   17.19 KCAL/MOL
REMARK 923 INTER-LIGAND FREE ENERGY PREDICTED BY IDOCK:    8.08 KCAL/MOL
REMARK 924 INTRA-LIGAND FREE ENERGY PREDICTED BY IDOCK:    9.11 KCAL/MOL
REMARK 927      BINDING AFFINITY PREDICTED BY RF-SCORE:    0.00 PKD
ROOT
HETATM    1  C   UNL     1      -9.680  11.913  65.077  1.00  0.00    -0.177 C  
HETATM    2  C   UNL     1     -10.778  12.274  64.089  1.00  0.00    -0.412 C  
ENDROOT
BRANCH   2   3
HETATM    3  C   UNL     1     -12.117  12.479  64.797  1.00  0.00    -0.497 C  
BRANCH   3   4
HETATM    4  C   UNL     1     -12.177  11.699  66.109  1.00  0.00     1.056 C  
BRANCH   4   5
HETATM    5  C   UNL     1     -10.816  11.094  66.452  1.00  0.00    -0.284 C  
BRANCH   5   6
HETATM    6  C   UNL     1     -10.275  10.257  65.293  1.00  0.00    -0.308 C  
BRANCH   6   7
HETATM    7  C   UNL     1     -10.081   8.798  65.707  1.00  0.00     0.304 C  
BRANCH   7   8
HETATM    8  C   UNL     1     -10.686   8.536  67.086  1.00  0.00    -0.209 C  
BRANCH   8   9
HETATM    9  C   UNL     1      -9.867   7.508  67.868  1.00  0.00    -0.185 C  
BRANCH   9  10
HETATM   10  C   UNL     1     -10.782   6.483  68.543  1.00  0.00    -0.329 C  
BRANCH  10  11
HETATM   11  C   UNL     1     -12.118   7.083  68.976  1.00  0.00     1.346 C  
BRANCH  11  12
HETATM   12  C   UNL     1     -12.590   6.574  70.318  1.00  0.00     0.810 C  
HETATM   13  O   UNL     1     -13.740   6.618  70.727  1.00  0.00     0.443 OA 
BRANCH  12  14
HETATM   14  O   UNL     1     -11.532   6.037  70.985  1.00  0.00    -0.280 OA 
BRANCH  14  15
HETATM   15  C   UNL     1     -11.752   4.756  71.592  1.00  0.00     1.649 C  
BRANCH  15  16
HETATM   16  N   UNL     1     -10.720   4.400  72.553  1.00  0.00    -0.139 N  
HETATM   17  C   UNL     1     -10.791   3.092  73.029  1.00  0.00    -0.087 C  
HETATM   18  C   UNL     1     -10.138   2.845  74.361  1.00  0.00    -0.185 C  
HETATM   19  O   UNL     1     -11.437   2.205  72.478  1.00  0.00     0.363 OA 
HETATM   20  C   UNL     1      -8.762   3.455  74.453  1.00  0.00    -0.089 C  
HETATM   21  C   UNL     1      -8.712   4.843  73.882  1.00  0.00    -0.108 A  
HETATM   22  C   UNL     1      -7.657   5.685  74.269  1.00  0.00    -0.095 A  
HETATM   23  C   UNL     1      -7.498   6.944  73.694  1.00  0.00    -0.085 A  
HETATM   24  C   UNL     1      -8.376   7.358  72.699  1.00  0.00    -0.109 A  
HETATM   25  C   UNL     1      -9.436   6.523  72.321  1.00  0.00    -0.144 A  
HETATM   26  C   UNL     1      -9.641   5.267  72.917  1.00  0.00    -0.144 A  
BRANCH  24  27
HETATM   27  O   UNL     1      -8.324   8.565  72.055  1.00  0.00    -0.156 OA 
BRANCH  27  28
HETATM   28  C   UNL     1      -9.330   9.517  72.409  1.00  0.00     2.262 C  
BRANCH  28  29
HETATM   29  C   UNL     1      -9.754  10.281  71.152  1.00  0.00     1.864 C  
BRANCH  29  30
HETATM   30  C   UNL     1     -11.021   9.688  70.518  1.00  0.00    -0.374 C  
BRANCH  30  31
HETATM   31  C   UNL     1     -12.314  10.063  71.270  1.00  0.00    -0.398 C  
BRANCH  31  32
HETATM   32  N   UNL     1     -12.940  11.296  70.777  1.00  0.00    -0.169 NA 
HETATM   33  C   UNL     1     -12.506  12.508  71.502  1.00  0.00    -0.017 C  
HETATM   34  C   UNL     1     -11.080  12.969  71.143  1.00  0.00     3.157 C  
HETATM   35  N   UNL     1     -11.045  13.332  69.716  1.00  0.00     0.043 NA 
HETATM   36  C   UNL     1     -11.435  12.214  68.835  1.00  0.00    -0.297 C  
HETATM   37  C   UNL     1     -12.735  11.502  69.324  1.00  0.00     0.627 C  
BRANCH  35  38
HETATM   38  C   UNL     1     -10.559  14.567  69.297  1.00  0.00    -0.212 A  
HETATM   39  C   UNL     1     -10.949  15.845  69.785  1.00  0.00    -0.328 A  
HETATM   40 CL   UNL     1     -12.263  16.036  70.918  1.00  0.00    -0.371 Cl 
HETATM   41  C   UNL     1     -10.344  17.027  69.291  1.00  0.00    -0.276 A  
HETATM   42  C   UNL     1      -9.387  16.978  68.276  1.00  0.00    -0.255 A  
HETATM   43 CL   UNL     1     -10.731  18.609  69.894  1.00  0.00     1.257 Cl 
HETATM   44  C   UNL     1      -9.001  15.753  67.767  1.00  0.00    -0.176 A  
HETATM   45  C   UNL     1      -9.560  14.583  68.290  1.00  0.00    -0.212 A  
ENDBRANCH  35  38
ENDBRANCH  31  32
ENDBRANCH  30  31
ENDBRANCH  29  30
ENDBRANCH  28  29
ENDBRANCH  27  28
ENDBRANCH  24  27
ENDBRANCH  15  16
ENDBRANCH  14  15
ENDBRANCH  12  14
ENDBRANCH  11  12
ENDBRANCH  10  11
ENDBRANCH   9  10
ENDBRANCH   8   9
ENDBRANCH   7   8
ENDBRANCH   6   7
ENDBRANCH   5   6
ENDBRANCH   4   5
ENDBRANCH   3   4
ENDBRANCH   2   3
TORSDOF 20
ENDMDL
MODEL      170
REMARK 921   NORMALIZED FREE ENERGY PREDICTED BY IDOCK:   12.48 KCAL/MOL
REMARK 922        TOTAL FREE ENERGY PREDICTED BY IDOCK:   23.23 KCAL/MOL
REMARK 923 INTER-LIGAND FREE ENERGY PREDICTED BY IDOCK:   12.36 KCAL/MOL
REMARK 924 INTRA-LIGAND FREE ENERGY PREDICTED BY IDOCK:   10.86 KCAL/MOL
REMARK 927      BINDING AFFINITY PREDICTED BY RF-SCORE:    0.00 PKD
ROOT
HETATM    1  C   UNL     1      -6.551  16.873  65.798  1.00  0.00     0.930 C  
HETATM    2  C   UNL     1      -7.789  17.360  66.532  1.00  0.00    -0.320 C  
ENDROOT
BRANCH   2   3
HETATM    3  C   UNL     1      -8.173  16.412  67.667  1.00  0.00    -0.166 C  
BRANCH   3   4
HETATM    4  C   UNL     1      -8.834  15.143  67.131  1.00  0.00    -0.236 C  
BRANCH   4   5
HETATM    5  C   UNL     1      -9.713  15.450  65.918  1.00  0.00    -0.392 C  
BRANCH   5   6
HETATM    6  C   UNL     1      -9.285  14.628  64.703  1.00  0.00     2.737 C  
BRANCH   6   7
HETATM    7  C   UNL     1      -9.374  13.129  64.990  1.00  0.00     0.635 C  
BRANCH   7   8
HETATM    8  C   UNL     1     -10.654  12.793  65.753  1.00  0.00    -0.295 C  
BRANCH   8   9
HETATM    9  C   UNL     1     -11.226  14.027  66.453  1.00  0.00    -0.321 C  
BRANCH   9  10
HETATM   10  C   UNL     1     -12.658  13.768  66.927  1.00  0.00    -0.025 C  
BRANCH  10  11
HETATM   11  C   UNL     1     -13.022  14.578  68.169  1.00  0.00     1.896 C  
BRANCH  11  12
HETATM   12  C   UNL     1     -11.868  14.737  69.132  1.00  0.00    -0.305 C  
HETATM   13  O   UNL     1     -11.185  13.826  69.576  1.00  0.00    -0.236 OA 
BRANCH  12  14
HETATM   14  O   UNL     1     -11.697  16.059  69.405  1.00  0.00    -0.337 OA 
BRANCH  14  15
HETATM   15  C   UNL     1     -10.807  16.371  70.485  1.00  0.00    -0.061 C  
BRANCH  15  16
HETATM   16  N   UNL     1      -9.603  17.061  70.047  1.00  0.00     0.886 N  
HETATM   17  C   UNL     1      -9.751  18.435  69.863  1.00  0.00     0.939 C  
HETATM   18  C   UNL     1      -8.762  19.078  68.930  1.00  0.00    -0.288 C  
HETATM   19  O   UNL     1     -10.687  19.083  70.322  1.00  0.00     1.269 OA 
HETATM   20  C   UNL     1      -7.343  18.648  69.204  1.00  0.00    -0.199 C  
HETATM   21  C   UNL     1      -7.231  17.171  69.452  1.00  0.00    -0.042 A  
HETATM   22  C   UNL     1      -5.975  16.563  69.295  1.00  0.00    -0.165 A  
HETATM   23  C   UNL     1      -5.785  15.219  69.613  1.00  0.00    -0.113 A  
HETATM   24  C   UNL     1      -6.847  14.481  70.123  1.00  0.00    -0.026 A  
HETATM   25  C   UNL     1      -8.103  15.084  70.268  1.00  0.00     0.743 A  
HETATM   26  C   UNL     1      -8.327  16.425  69.915  1.00  0.00     0.942 A  
BRANCH  24  27
HETATM   27  O   UNL     1      -6.788  13.158  70.476  1.00  0.00     0.521 OA 
BRANCH  27  28
HETATM   28  C   UNL     1      -6.772  12.876  71.877  1.00  0.00     4.493 C  
BRANCH  28  29
HETATM   29  C   UNL     1      -5.375  12.392  72.270  1.00  0.00     0.435 C  
BRANCH  29  30
HETATM   30  C   UNL     1      -5.130  10.935  71.848  1.00  0.00     0.060 C  
BRANCH  30  31
HETATM   31  C   UNL     1      -6.256  10.358  70.967  1.00  0.00     0.111 C  
BRANCH  31  32
HETATM   32  N   UNL     1      -6.076   8.936  70.645  1.00  0.00    -0.034 NA 
HETATM   33  C   UNL     1      -6.260   8.040  71.806  1.00  0.00    -0.042 C  
HETATM   34  C   UNL     1      -7.732   7.863  72.226  1.00  0.00    -0.104 C  
HETATM   35  N   UNL     1      -8.466   7.226  71.119  1.00  0.00    -0.116 NA 
HETATM   36  C   UNL     1      -8.404   8.009  69.870  1.00  0.00    -0.121 C  
HETATM   37  C   UNL     1      -6.953   8.482  69.540  1.00  0.00    -0.048 C  
BRANCH  35  38
HETATM   38  C   UNL     1      -9.229   6.079  71.323  1.00  0.00    -0.146 A  
HETATM   39  C   UNL     1      -9.202   4.890  70.543  1.00  0.00    -0.142 A  
HETATM   40 CL   UNL     1      -8.277   4.777  69.068  1.00  0.00    -0.081 Cl 
HETATM   41  C   UNL     1     -10.010   3.778  70.886  1.00  0.00    -0.027 A  
HETATM   42  C   UNL     1     -10.893   3.833  71.966  1.00  0.00     0.445 A  
HETATM   43 CL   UNL     1      -9.974   2.278  70.011  1.00  0.00     0.221 Cl 
HETATM   44  C   UNL     1     -10.955   4.982  72.732  1.00  0.00    -0.312 A  
HETATM   45  C   UNL     1     -10.122   6.061  72.426  1.00  0.00    -0.199 A  
ENDBRANCH  35  38
ENDBRANCH  31  32
ENDBRANCH  30  31
ENDBRANCH  29  30
ENDBRANCH  28  29
ENDBRANCH  27  28
ENDBRANCH  24  27
ENDBRANCH  15  16
ENDBRANCH  14  15
ENDBRANCH  12  14
ENDBRANCH  11  12
ENDBRANCH  10  11
ENDBRANCH   9  10
ENDBRANCH   8   9
ENDBRANCH   7   8
ENDBRANCH   6   7
ENDBRANCH   5   6
ENDBRANCH   4   5
ENDBRANCH   3   4
ENDBRANCH   2   3
TORSDOF 20
ENDMDL
MODEL      171
REMARK 921   NORMALIZED FREE ENERGY PREDICTED BY IDOCK:   13.61 KCAL/MOL
REMARK 922        TOTAL FREE ENERGY PREDICTED BY IDOCK:   25.68 KCAL/MOL
REMARK 923 INTER-LIGAND FREE ENERGY PREDICTED BY IDOCK:   14.70 KCAL/MOL
REMARK 924 INTRA-LIGAND FREE ENERGY PREDICTED BY IDOCK:   10.98 KCAL/MOL
REMARK 927      BINDING AFFINITY PREDICTED BY RF-SCORE:    0.00 PKD
ROOT
HETATM    1  C   UNL     1     -12.352  11.460  66.495  1.00  0.00     2.104 C  
HETATM    2  C   UNL     1     -13.218  12.156  65.458  1.00  0.00     2.591 C  
ENDROOT
BRANCH   2   3
HETATM    3  C   UNL     1     -12.429  13.226  64.703  1.00  0.00    -0.408 C  
BRANCH   3   4
HETATM    4  C   UNL     1     -10.969  13.259  65.151  1.00  0.00    -0.314 C  
BRANCH   4   5
HETATM    5  C   UNL     1     -10.835  13.862  66.549  1.00  0.00    -0.295 C  
BRANCH   5   6
HETATM    6  C   UNL     1      -9.492  13.501  67.181  1.00  0.00    -0.244 C  
BRANCH   6   7
HETATM    7  C   UNL     1      -9.543  12.124  67.842  1.00  0.00    -0.198 C  
BRANCH   7   8
HETATM    8  C   UNL     1      -8.180  11.436  67.779  1.00  0.00    -0.125 C  
BRANCH   8   9
HETATM    9  C   UNL     1      -7.348  11.955  66.605  1.00  0.00     0.068 C  
BRANCH   9  10
HETATM   10  C   UNL     1      -8.240  12.258  65.398  1.00  0.00     1.661 C  
BRANCH  10  11
HETATM   11  C   UNL     1      -8.818  10.996  64.763  1.00  0.00    -0.041 C  
BRANCH  11  12
HETATM   12  C   UNL     1      -7.849   9.836  64.762  1.00  0.00    -0.134 C  
HETATM   13  O   UNL     1      -6.632   9.930  64.715  1.00  0.00    -0.107 OA 
BRANCH  12  14
HETATM   14  O   UNL     1      -8.550   8.673  64.847  1.00  0.00    -0.179 OA 
BRANCH  14  15
HETATM   15  C   UNL     1      -9.045   8.326  66.148  1.00  0.00    -0.189 C  
BRANCH  15  16
HETATM   16  N   UNL     1      -7.983   8.082  67.112  1.00  0.00    -0.111 N  
HETATM   17  C   UNL     1      -6.723   7.873  66.553  1.00  0.00    -0.058 C  
HETATM   18  C   UNL     1      -5.750   7.106  67.406  1.00  0.00    -0.025 C  
HETATM   19  O   UNL     1      -6.435   8.177  65.399  1.00  0.00    -0.048 OA 
HETATM   20  C   UNL     1      -5.712   7.601  68.829  1.00  0.00    -0.023 C  
HETATM   21  C   UNL     1      -7.084   7.869  69.379  1.00  0.00    -0.064 A  
HETATM   22  C   UNL     1      -7.246   7.913  70.773  1.00  0.00    -0.053 A  
HETATM   23  C   UNL     1      -8.470   8.260  71.341  1.00  0.00    -0.172 A  
HETATM   24  C   UNL     1      -9.536   8.598  70.515  1.00  0.00    -0.178 A  
HETATM   25  C   UNL     1      -9.378   8.542  69.124  1.00  0.00    -0.153 A  
HETATM   26  C   UNL     1      -8.166   8.154  68.530  1.00  0.00    -0.125 A  
BRANCH  24  27
HETATM   27  O   UNL     1     -10.784   8.960  70.949  1.00  0.00    -0.204 OA 
BRANCH  27  28
HETATM   28  C   UNL     1     -11.801   9.054  69.948  1.00  0.00     0.421 C  
BRANCH  28  29
HETATM   29  C   UNL     1     -13.170   8.944  70.621  1.00  0.00     0.484 C  
BRANCH  29  30
HETATM   30  C   UNL     1     -13.051   8.716  72.135  1.00  0.00    -0.423 C  
BRANCH  30  31
HETATM   31  C   UNL     1     -13.099  10.022  72.954  1.00  0.00     1.039 C  
BRANCH  31  32
HETATM   32  N   UNL     1     -13.919  11.071  72.335  1.00  0.00     0.474 NA 
HETATM   33  C   UNL     1     -13.723  12.406  72.936  1.00  0.00     1.297 C  
HETATM   34  C   UNL     1     -12.390  13.074  72.543  1.00  0.00     1.094 C  
HETATM   35  N   UNL     1     -12.383  13.296  71.087  1.00  0.00    -0.308 NA 
HETATM   36  C   UNL     1     -12.549  12.045  70.321  1.00  0.00     0.016 C  
HETATM   37  C   UNL     1     -13.717  11.166  70.869  1.00  0.00     1.216 C  
BRANCH  35  38
HETATM   38  C   UNL     1     -12.111  14.550  70.549  1.00  0.00    -0.325 A  
HETATM   39  C   UNL     1     -12.429  14.999  69.237  1.00  0.00     0.018 A  
HETATM   40 CL   UNL     1     -13.095  13.927  68.032  1.00  0.00     2.020 Cl 
HETATM   41  C   UNL     1     -12.125  16.321  68.829  1.00  0.00     0.334 A  
HETATM   42  C   UNL     1     -11.457  17.204  69.679  1.00  0.00     1.087 A  
HETATM   43 CL   UNL     1     -12.546  16.948  67.265  1.00  0.00     3.398 Cl 
HETATM   44  C   UNL     1     -11.117  16.790  70.953  1.00  0.00     0.354 A  
HETATM   45  C   UNL     1     -11.463  15.504  71.376  1.00  0.00    -0.478 A  
ENDBRANCH  35  38
ENDBRANCH  31  32
ENDBRANCH  30  31
ENDBRANCH  29  30
ENDBRANCH  28  29
ENDBRANCH  27  28
ENDBRANCH  24  27
ENDBRANCH  15  16
ENDBRANCH  14  15
ENDBRANCH  12  14
ENDBRANCH  11  12
ENDBRANCH  10  11
ENDBRANCH   9  10
ENDBRANCH   8   9
ENDBRANCH   7   8
ENDBRANCH   6   7
ENDBRANCH   5   6
ENDBRANCH   4   5
ENDBRANCH   3   4
ENDBRANCH   2   3
TORSDOF 20
ENDMDL
MODEL      172
REMARK 921   NORMALIZED FREE ENERGY PREDICTED BY IDOCK:   14.93 KCAL/MOL
REMARK 922        TOTAL FREE ENERGY PREDICTED BY IDOCK:   28.54 KCAL/MOL
REMARK 923 INTER-LIGAND FREE ENERGY PREDICTED BY IDOCK:   17.56 KCAL/MOL
REMARK 924 INTRA-LIGAND FREE ENERGY PREDICTED BY IDOCK:   10.98 KCAL/MOL
REMARK 927      BINDING AFFINITY PREDICTED BY RF-SCORE:    0.00 PKD
ROOT
HETATM    1  C   UNL     1     -12.631  20.073  65.899  1.00  0.00     6.153 C  
HETATM    2  C   UNL     1     -13.064  19.414  67.199  1.00  0.00     6.585 C  
ENDROOT
BRANCH   2   3
HETATM    3  C   UNL     1     -12.779  17.912  67.183  1.00  0.00     6.301 C  
BRANCH   3   4
HETATM    4  C   UNL     1     -11.542  17.573  68.014  1.00  0.00     0.933 C  
BRANCH   4   5
HETATM    5  C   UNL     1     -10.462  18.643  67.856  1.00  0.00    -0.431 C  
BRANCH   5   6
HETATM    6  C   UNL     1     -10.148  18.897  66.382  1.00  0.00    -0.457 C  
BRANCH   6   7
HETATM    7  C   UNL     1      -8.801  18.289  65.990  1.00  0.00     0.013 C  
BRANCH   7   8
HETATM    8  C   UNL     1      -8.708  16.832  66.441  1.00  0.00    -0.337 C  
BRANCH   8   9
HETATM    9  C   UNL     1      -7.555  16.626  67.425  1.00  0.00    -0.191 C  
BRANCH   9  10
HETATM   10  C   UNL     1      -7.105  15.162  67.436  1.00  0.00    -0.219 C  
BRANCH  10  11
HETATM   11  C   UNL     1      -8.237  14.197  67.094  1.00  0.00    -0.166 C  
BRANCH  11  12
HETATM   12  C   UNL     1      -8.851  13.548  68.312  1.00  0.00    -0.179 C  
HETATM   13  O   UNL     1      -9.766  12.738  68.297  1.00  0.00    -0.218 OA 
BRANCH  12  14
HETATM   14  O   UNL     1      -8.206  13.992  69.424  1.00  0.00     0.231 OA 
BRANCH  14  15
HETATM   15  C   UNL     1      -6.859  13.533  69.600  1.00  0.00     0.107 C  
BRANCH  15  16
HETATM   16  N   UNL     1      -6.527  12.407  68.740  1.00  0.00    -0.077 N  
HETATM   17  C   UNL     1      -5.858  12.746  67.565  1.00  0.00    -0.132 C  
HETATM   18  C   UNL     1      -5.976  11.757  66.438  1.00  0.00     0.191 C  
HETATM   19  O   UNL     1      -5.301  13.826  67.390  1.00  0.00    -0.343 OA 
HETATM   20  C   UNL     1      -5.742  10.337  66.887  1.00  0.00    -0.046 C  
HETATM   21  C   UNL     1      -6.432  10.025  68.184  1.00  0.00    -0.055 A  
HETATM   22  C   UNL     1      -6.668   8.679  68.505  1.00  0.00    -0.060 A  
HETATM   23  C   UNL     1      -7.209   8.322  69.739  1.00  0.00    -0.060 A  
HETATM   24  C   UNL     1      -7.486   9.310  70.676  1.00  0.00    -0.136 A  
HETATM   25  C   UNL     1      -7.262  10.654  70.351  1.00  0.00     0.409 A  
HETATM   26  C   UNL     1      -6.757  11.040  69.098  1.00  0.00    -0.084 A  
BRANCH  24  27
HETATM   27  O   UNL     1      -8.013   9.089  71.921  1.00  0.00    -0.348 OA 
BRANCH  27  28
HETATM   28  C   UNL     1      -9.160   8.238  71.983  1.00  0.00    -0.202 C  
BRANCH  28  29
HETATM   29  C   UNL     1     -10.124   8.623  70.859  1.00  0.00    -0.262 C  
BRANCH  29  30
HETATM   30  C   UNL     1     -10.314  10.145  70.759  1.00  0.00     0.117 C  
BRANCH  30  31
HETATM   31  C   UNL     1     -11.289  10.566  69.642  1.00  0.00    -0.281 C  
BRANCH  31  32
HETATM   32  N   UNL     1     -11.695   9.456  68.770  1.00  0.00     0.671 NA 
HETATM   33  C   UNL     1     -11.609   9.775  67.330  1.00  0.00     1.389 C  
HETATM   34  C   UNL     1     -10.167   9.809  66.787  1.00  0.00    -0.233 C  
HETATM   35  N   UNL     1      -9.577   8.466  66.926  1.00  0.00    -0.184 NA 
HETATM   36  C   UNL     1      -9.563   7.994  68.325  1.00  0.00    -0.146 C  
HETATM   37  C   UNL     1     -10.936   8.211  69.036  1.00  0.00     0.122 C  
BRANCH  35  38
HETATM   38  C   UNL     1      -8.991   7.818  65.843  1.00  0.00    -0.113 A  
HETATM   39  C   UNL     1      -8.953   6.415  65.610  1.00  0.00    -0.004 A  
HETATM   40 CL   UNL     1      -9.530   5.270  66.793  1.00  0.00    -0.132 Cl 
HETATM   41  C   UNL     1      -8.351   5.890  64.440  1.00  0.00    -0.048 A  
HETATM   42  C   UNL     1      -7.732   6.724  63.509  1.00  0.00    -0.114 A  
HETATM   43 CL   UNL     1      -8.331   4.193  64.070  1.00  0.00    -0.093 Cl 
HETATM   44  C   UNL     1      -7.735   8.091  63.717  1.00  0.00    -0.135 A  
HETATM   45  C   UNL     1      -8.374   8.615  64.844  1.00  0.00    -0.174 A  
ENDBRANCH  35  38
ENDBRANCH  31  32
ENDBRANCH  30  31
ENDBRANCH  29  30
ENDBRANCH  28  29
ENDBRANCH  27  28
ENDBRANCH  24  27
ENDBRANCH  15  16
ENDBRANCH  14  15
ENDBRANCH  12  14
ENDBRANCH  11  12
ENDBRANCH  10  11
ENDBRANCH   9  10
ENDBRANCH   8   9
ENDBRANCH   7   8
ENDBRANCH   6   7
ENDBRANCH   5   6
ENDBRANCH   4   5
ENDBRANCH   3   4
ENDBRANCH   2   3
TORSDOF 20
ENDMDL
MODEL      173
REMARK 921   NORMALIZED FREE ENERGY PREDICTED BY IDOCK:   16.58 KCAL/MOL
REMARK 922        TOTAL FREE ENERGY PREDICTED BY IDOCK:   32.13 KCAL/MOL
REMARK 923 INTER-LIGAND FREE ENERGY PREDICTED BY IDOCK:   23.51 KCAL/MOL
REMARK 924 INTRA-LIGAND FREE ENERGY PREDICTED BY IDOCK:    8.62 KCAL/MOL
REMARK 927      BINDING AFFINITY PREDICTED BY RF-SCORE:    0.00 PKD
ROOT
HETATM    1  C   UNL     1      -8.292  15.103  72.594  1.00  0.00     8.256 C  
HETATM    2  C   UNL     1      -7.222  16.160  72.370  1.00  0.00     8.170 C  
ENDROOT
BRANCH   2   3
HETATM    3  C   UNL     1      -7.704  17.244  71.407  1.00  0.00     7.890 C  
BRANCH   3   4
HETATM    4  C   UNL     1      -8.619  16.663  70.330  1.00  0.00     2.369 C  
BRANCH   4   5
HETATM    5  C   UNL     1      -7.847  15.730  69.397  1.00  0.00    -0.210 C  
BRANCH   5   6
HETATM    6  C   UNL     1      -8.104  14.264  69.745  1.00  0.00     0.627 C  
BRANCH   6   7
HETATM    7  C   UNL     1      -7.106  13.760  70.788  1.00  0.00     1.571 C  
BRANCH   7   8
HETATM    8  C   UNL     1      -5.734  14.402  70.588  1.00  0.00    -0.173 C  
BRANCH   8   9
HETATM    9  C   UNL     1      -5.136  14.028  69.231  1.00  0.00    -0.078 C  
BRANCH   9  10
HETATM   10  C   UNL     1      -6.100  14.382  68.095  1.00  0.00    -0.139 C  
BRANCH  10  11
HETATM   11  C   UNL     1      -6.210  15.888  67.867  1.00  0.00    -0.153 C  
BRANCH  11  12
HETATM   12  C   UNL     1      -7.190  16.252  66.775  1.00  0.00    -0.186 C  
HETATM   13  O   UNL     1      -7.125  17.246  66.069  1.00  0.00    -0.267 OA 
BRANCH  12  14
HETATM   14  O   UNL     1      -8.140  15.282  66.691  1.00  0.00    -0.200 OA 
BRANCH  14  15
HETATM   15  C   UNL     1      -9.049  15.382  65.586  1.00  0.00     0.163 C  
BRANCH  15  16
HETATM   16  N   UNL     1     -10.230  14.547  65.745  1.00  0.00    -0.317 N  
HETATM   17  C   UNL     1     -11.397  15.074  65.196  1.00  0.00    -0.372 C  
HETATM   18  C   UNL     1     -12.684  14.558  65.779  1.00  0.00    -0.145 C  
HETATM   19  O   UNL     1     -11.407  15.987  64.374  1.00  0.00    -0.476 OA 
HETATM   20  C   UNL     1     -12.696  13.056  65.915  1.00  0.00     0.012 C  
HETATM   21  C   UNL     1     -11.403  12.519  66.456  1.00  0.00    -0.387 A  
HETATM   22  C   UNL     1     -11.403  11.240  67.033  1.00  0.00    -0.262 A  
HETATM   23  C   UNL     1     -10.215  10.645  67.458  1.00  0.00    -0.236 A  
HETATM   24  C   UNL     1      -9.012  11.317  67.277  1.00  0.00    -0.149 A  
HETATM   25  C   UNL     1      -9.013  12.599  66.713  1.00  0.00    -0.197 A  
HETATM   26  C   UNL     1     -10.202  13.234  66.316  1.00  0.00    -0.296 A  
BRANCH  24  27
HETATM   27  O   UNL     1      -7.782  10.841  67.646  1.00  0.00    -0.102 OA 
BRANCH  27  28
HETATM   28  C   UNL     1      -7.536  10.737  69.051  1.00  0.00    -0.126 C  
BRANCH  28  29
HETATM   29  C   UNL     1      -6.202  10.021  69.269  1.00  0.00    -0.044 C  
BRANCH  29  30
HETATM   30  C   UNL     1      -6.359   8.493  69.249  1.00  0.00    -0.042 C  
BRANCH  30  31
HETATM   31  C   UNL     1      -7.107   7.940  70.479  1.00  0.00    -0.046 C  
BRANCH  31  32
HETATM   32  N   UNL     1      -7.598   6.568  70.296  1.00  0.00    -0.094 NA 
HETATM   33  C   UNL     1      -8.625   6.444  69.241  1.00  0.00    -0.125 C  
HETATM   34  C   UNL     1      -8.059   6.541  67.811  1.00  0.00    -0.115 C  
HETATM   35  N   UNL     1      -7.135   5.416  67.591  1.00  0.00    -0.066 NA 
HETATM   36  C   UNL     1      -6.020   5.398  68.558  1.00  0.00    -0.021 C  
HETATM   37  C   UNL     1      -6.509   5.600  70.027  1.00  0.00    -0.035 C  
BRANCH  35  38
HETATM   38  C   UNL     1      -7.272   4.571  66.493  1.00  0.00    -0.080 A  
HETATM   39  C   UNL     1      -6.992   4.890  65.135  1.00  0.00    -0.062 A  
HETATM   40 CL   UNL     1      -6.570   6.508  64.637  1.00  0.00    -0.037 Cl 
HETATM   41  C   UNL     1      -7.142   3.918  64.115  1.00  0.00    -0.050 A  
HETATM   42  C   UNL     1      -7.618   2.638  64.403  1.00  0.00    -0.075 A  
HETATM   43 CL   UNL     1      -6.755   4.227  62.450  1.00  0.00    -0.029 Cl 
HETATM   44  C   UNL     1      -7.916   2.304  65.710  1.00  0.00    -0.082 A  
HETATM   45  C   UNL     1      -7.720   3.245  66.724  1.00  0.00    -0.076 A  
ENDBRANCH  35  38
ENDBRANCH  31  32
ENDBRANCH  30  31
ENDBRANCH  29  30
ENDBRANCH  28  29
ENDBRANCH  27  28
ENDBRANCH  24  27
ENDBRANCH  15  16
ENDBRANCH  14  15
ENDBRANCH  12  14
ENDBRANCH  11  12
ENDBRANCH  10  11
ENDBRANCH   9  10
ENDBRANCH   8   9
ENDBRANCH   7   8
ENDBRANCH   6   7
ENDBRANCH   5   6
ENDBRANCH   4   5
ENDBRANCH   3   4
ENDBRANCH   2   3
TORSDOF 20
ENDMDL
MODEL      174
REMARK 921   NORMALIZED FREE ENERGY PREDICTED BY IDOCK:   17.90 KCAL/MOL
REMARK 922        TOTAL FREE ENERGY PREDICTED BY IDOCK:   34.98 KCAL/MOL
REMARK 923 INTER-LIGAND FREE ENERGY PREDICTED BY IDOCK:   27.49 KCAL/MOL
REMARK 924 INTRA-LIGAND FREE ENERGY PREDICTED BY IDOCK:    7.50 KCAL/MOL
REMARK 927      BINDING AFFINITY PREDICTED BY RF-SCORE:    0.00 PKD
ROOT
HETATM    1  C   UNL     1     -10.549  19.536  73.053  1.00  0.00     3.865 C  
HETATM    2  C   UNL     1      -9.889  19.130  71.746  1.00  0.00     4.075 C  
ENDROOT
BRANCH   2   3
HETATM    3  C   UNL     1     -10.886  18.449  70.808  1.00  0.00     2.727 C  
BRANCH   3   4
HETATM    4  C   UNL     1     -11.785  19.472  70.115  1.00  0.00     7.241 C  
BRANCH   4   5
HETATM    5  C   UNL     1     -10.975  20.373  69.182  1.00  0.00     1.066 C  
BRANCH   5   6
HETATM    6  C   UNL     1      -9.526  20.496  69.653  1.00  0.00     0.976 C  
BRANCH   6   7
HETATM    7  C   UNL     1      -8.714  19.257  69.273  1.00  0.00    -0.030 C  
BRANCH   7   8
HETATM    8  C   UNL     1      -7.621  19.608  68.265  1.00  0.00    -0.351 C  
BRANCH   8   9
HETATM    9  C   UNL     1      -6.562  18.508  68.185  1.00  0.00    -0.227 C  
BRANCH   9  10
HETATM   10  C   UNL     1      -7.175  17.201  67.673  1.00  0.00    -0.172 C  
BRANCH  10  11
HETATM   11  C   UNL     1      -8.696  17.266  67.569  1.00  0.00    -0.212 C  
BRANCH  11  12
HETATM   12  C   UNL     1      -9.392  16.176  68.351  1.00  0.00    -0.206 C  
HETATM   13  O   UNL     1     -10.356  16.336  69.084  1.00  0.00    -0.237 OA 
BRANCH  12  14
HETATM   14  O   UNL     1      -8.786  14.986  68.088  1.00  0.00    -0.161 OA 
BRANCH  14  15
HETATM   15  C   UNL     1      -7.630  14.677  68.879  1.00  0.00    -0.139 C  
BRANCH  15  16
HETATM   16  N   UNL     1      -6.864  13.560  68.350  1.00  0.00    -0.091 N  
HETATM   17  C   UNL     1      -5.690  13.917  67.689  1.00  0.00     0.003 C  
HETATM   18  C   UNL     1      -5.171  12.917  66.693  1.00  0.00     1.242 C  
HETATM   19  O   UNL     1      -5.157  15.018  67.802  1.00  0.00    -0.232 OA 
HETATM   20  C   UNL     1      -5.161  11.511  67.236  1.00  0.00    -0.071 C  
HETATM   21  C   UNL     1      -6.418  11.179  67.989  1.00  0.00    -0.057 A  
HETATM   22  C   UNL     1      -6.746   9.827  68.174  1.00  0.00    -0.061 A  
HETATM   23  C   UNL     1      -7.840   9.456  68.954  1.00  0.00    -0.083 A  
HETATM   24  C   UNL     1      -8.597  10.439  69.581  1.00  0.00    -0.040 A  
HETATM   25  C   UNL     1      -8.278  11.789  69.385  1.00  0.00     0.634 A  
HETATM   26  C   UNL     1      -7.205  12.187  68.571  1.00  0.00    -0.102 A  
BRANCH  24  27
HETATM   27  O   UNL     1      -9.690  10.205  70.373  1.00  0.00    -0.082 OA 
BRANCH  27  28
HETATM   28  C   UNL     1     -10.879   9.776  69.704  1.00  0.00    -0.250 C  
BRANCH  28  29
HETATM   29  C   UNL     1     -11.861  10.948  69.638  1.00  0.00    -0.416 C  
BRANCH  29  30
HETATM   30  C   UNL     1     -13.016  10.678  68.662  1.00  0.00     2.965 C  
BRANCH  30  31
HETATM   31  C   UNL     1     -13.382  11.900  67.796  1.00  0.00     6.628 C  
BRANCH  31  32
HETATM   32  N   UNL     1     -12.238  12.465  67.069  1.00  0.00    -0.433 NA 
HETATM   33  C   UNL     1     -10.933  11.938  67.520  1.00  0.00    -0.247 C  
HETATM   34  C   UNL     1     -10.650  10.498  67.051  1.00  0.00    -0.253 C  
HETATM   35  N   UNL     1     -10.591  10.481  65.580  1.00  0.00    -0.135 NA 
HETATM   36  C   UNL     1     -11.838  10.963  64.955  1.00  0.00     1.495 C  
HETATM   37  C   UNL     1     -12.349  12.290  65.601  1.00  0.00     0.048 C  
BRANCH  35  38
HETATM   38  C   UNL     1      -9.503   9.935  64.906  1.00  0.00    -0.291 A  
HETATM   39  C   UNL     1      -8.927   8.651  65.121  1.00  0.00    -0.058 A  
HETATM   40 CL   UNL     1      -9.444   7.617  66.427  1.00  0.00    -0.240 Cl 
HETATM   41  C   UNL     1      -7.837   8.204  64.334  1.00  0.00    -0.136 A  
HETATM   42  C   UNL     1      -7.262   9.025  63.363  1.00  0.00    -0.092 A  
HETATM   43 CL   UNL     1      -7.134   6.625  64.505  1.00  0.00    -0.057 Cl 
HETATM   44  C   UNL     1      -7.787  10.285  63.144  1.00  0.00    -0.144 A  
HETATM   45  C   UNL     1      -8.895  10.708  63.884  1.00  0.00    -0.171 A  
ENDBRANCH  35  38
ENDBRANCH  31  32
ENDBRANCH  30  31
ENDBRANCH  29  30
ENDBRANCH  28  29
ENDBRANCH  27  28
ENDBRANCH  24  27
ENDBRANCH  15  16
ENDBRANCH  14  15
ENDBRANCH  12  14
ENDBRANCH  11  12
ENDBRANCH  10  11
ENDBRANCH   9  10
ENDBRANCH   8   9
ENDBRANCH   7   8
ENDBRANCH   6   7
ENDBRANCH   5   6
ENDBRANCH   4   5
ENDBRANCH   3   4
ENDBRANCH   2   3
TORSDOF 20
ENDMDL
MODEL      175
REMARK 921   NORMALIZED FREE ENERGY PREDICTED BY IDOCK:   18.01 KCAL/MOL
REMARK 922        TOTAL FREE ENERGY PREDICTED BY IDOCK:   35.23 KCAL/MOL
REMARK 923 INTER-LIGAND FREE ENERGY PREDICTED BY IDOCK:    6.50 KCAL/MOL
REMARK 924 INTRA-LIGAND FREE ENERGY PREDICTED BY IDOCK:   28.73 KCAL/MOL
REMARK 927      BINDING AFFINITY PREDICTED BY RF-SCORE:    0.00 PKD
ROOT
HETATM    1  C   UNL     1     -10.041  18.581  67.508  1.00  0.00    -0.383 C  
HETATM    2  C   UNL     1      -9.060  19.697  67.186  1.00  0.00    -0.393 C  
ENDROOT
BRANCH   2   3
HETATM    3  C   UNL     1      -9.643  20.674  66.166  1.00  0.00     0.039 C  
BRANCH   3   4
HETATM    4  C   UNL     1      -9.717  20.046  64.775  1.00  0.00     2.324 C  
BRANCH   4   5
HETATM    5  C   UNL     1      -8.486  19.185  64.494  1.00  0.00     4.972 C  
BRANCH   5   6
HETATM    6  C   UNL     1      -8.148  18.297  65.691  1.00  0.00     0.409 C  
BRANCH   6   7
HETATM    7  C   UNL     1      -9.297  17.343  66.015  1.00  0.00    -0.101 C  
BRANCH   7   8
HETATM    8  C   UNL     1      -8.896  15.893  65.747  1.00  0.00     0.033 C  
BRANCH   8   9
HETATM    9  C   UNL     1      -9.565  15.354  64.481  1.00  0.00     2.293 C  
BRANCH   9  10
HETATM   10  C   UNL     1     -11.064  15.666  64.483  1.00  0.00    -0.303 C  
BRANCH  10  11
HETATM   11  C   UNL     1     -11.448  16.697  65.541  1.00  0.00     0.665 C  
BRANCH  11  12
HETATM   12  C   UNL     1     -11.526  16.117  66.934  1.00  0.00     0.415 C  
HETATM   13  O   UNL     1     -12.536  15.674  67.460  1.00  0.00     1.111 OA 
BRANCH  12  14
HETATM   14  O   UNL     1     -10.288  16.145  67.497  1.00  0.00    -0.273 OA 
BRANCH  14  15
HETATM   15  C   UNL     1      -9.753  14.881  67.912  1.00  0.00    -0.206 C  
BRANCH  15  16
HETATM   16  N   UNL     1     -10.673  14.123  68.747  1.00  0.00    -0.251 N  
HETATM   17  C   UNL     1     -11.813  14.820  69.143  1.00  0.00    -0.305 C  
HETATM   18  C   UNL     1     -12.487  14.314  70.389  1.00  0.00    -0.426 C  
HETATM   19  O   UNL     1     -12.198  15.852  68.602  1.00  0.00    -0.139 OA 
HETATM   20  C   UNL     1     -12.656  12.816  70.389  1.00  0.00    -0.126 C  
HETATM   21  C   UNL     1     -11.428  12.101  69.904  1.00  0.00    -0.210 A  
HETATM   22  C   UNL     1     -11.268  10.748  70.242  1.00  0.00    -0.326 A  
HETATM   23  C   UNL     1     -10.204  10.004  69.734  1.00  0.00    -0.286 A  
HETATM   24  C   UNL     1      -9.308  10.603  68.856  1.00  0.00    -0.184 A  
HETATM   25  C   UNL     1      -9.460  11.957  68.529  1.00  0.00    -0.151 A  
HETATM   26  C   UNL     1     -10.501  12.736  69.061  1.00  0.00     0.014 A  
BRANCH  24  27
HETATM   27  O   UNL     1      -8.228   9.981  68.287  1.00  0.00    -0.103 OA 
BRANCH  27  28
HETATM   28  C   UNL     1      -7.114  10.816  67.962  1.00  0.00    -0.081 C  
BRANCH  28  29
HETATM   29  C   UNL     1      -6.806  10.673  66.470  1.00  0.00    -0.124 C  
BRANCH  29  30
HETATM   30  C   UNL     1      -7.634   9.557  65.816  1.00  0.00    -0.100 C  
BRANCH  30  31
HETATM   31  C   UNL     1      -7.050   8.148  66.048  1.00  0.00    -0.061 C  
BRANCH  31  32
HETATM   32  N   UNL     1      -6.965   7.777  67.466  1.00  0.00    -0.076 NA 
HETATM   33  C   UNL     1      -8.258   7.361  68.046  1.00  0.00    -0.124 C  
HETATM   34  C   UNL     1      -8.715   5.958  67.601  1.00  0.00    -0.104 C  
HETATM   35  N   UNL     1      -7.736   4.968  68.080  1.00  0.00    -0.083 NA 
HETATM   36  C   UNL     1      -6.374   5.223  67.571  1.00  0.00    -0.040 C  
HETATM   37  C   UNL     1      -5.957   6.721  67.723  1.00  0.00    -0.027 C  
BRANCH  35  38
HETATM   38  C   UNL     1      -8.133   3.857  68.818  1.00  0.00    -0.070 A  
HETATM   39  C   UNL     1      -7.777   3.558  70.163  1.00  0.00    -0.047 A  
HETATM   40 CL   UNL     1      -6.615   4.517  71.043  1.00  0.00    -0.029 Cl 
HETATM   41  C   UNL     1      -8.285   2.404  70.808  1.00  0.00    -0.049 A  
HETATM   42  C   UNL     1      -9.104   1.499  70.132  1.00  0.00    -0.143 A  
HETATM   43 CL   UNL     1      -7.939   2.020  72.467  1.00  0.00    -0.052 Cl 
HETATM   44  C   UNL     1      -9.452   1.752  68.819  1.00  0.00    -0.203 A  
HETATM   45  C   UNL     1      -8.994   2.916  68.196  1.00  0.00    -0.196 A  
ENDBRANCH  35  38
ENDBRANCH  31  32
ENDBRANCH  30  31
ENDBRANCH  29  30
ENDBRANCH  28  29
ENDBRANCH  27  28
ENDBRANCH  24  27
ENDBRANCH  15  16
ENDBRANCH  14  15
ENDBRANCH  12  14
ENDBRANCH  11  12
ENDBRANCH  10  11
ENDBRANCH   9  10
ENDBRANCH   8   9
ENDBRANCH   7   8
ENDBRANCH   6   7
ENDBRANCH   5   6
ENDBRANCH   4   5
ENDBRANCH   3   4
ENDBRANCH   2   3
TORSDOF 20
ENDMDL
MODEL      176
REMARK 921   NORMALIZED FREE ENERGY PREDICTED BY IDOCK:   18.67 KCAL/MOL
REMARK 922        TOTAL FREE ENERGY PREDICTED BY IDOCK:   36.64 KCAL/MOL
REMARK 923 INTER-LIGAND FREE ENERGY PREDICTED BY IDOCK:   17.89 KCAL/MOL
REMARK 924 INTRA-LIGAND FREE ENERGY PREDICTED BY IDOCK:   18.76 KCAL/MOL
REMARK 927      BINDING AFFINITY PREDICTED BY RF-SCORE:    0.00 PKD
ROOT
HETATM    1  C   UNL     1      -7.025   5.742  71.301  1.00  0.00    -0.067 C  
HETATM    2  C   UNL     1      -6.447   5.655  72.704  1.00  0.00    -0.065 C  
ENDROOT
BRANCH   2   3
HETATM    3  C   UNL     1      -7.323   4.795  73.614  1.00  0.00    -0.082 C  
BRANCH   3   4
HETATM    4  C   UNL     1      -8.290   5.654  74.428  1.00  0.00    -0.105 C  
BRANCH   4   5
HETATM    5  C   UNL     1      -9.092   6.588  73.521  1.00  0.00    -0.139 C  
BRANCH   5   6
HETATM    6  C   UNL     1      -9.755   5.816  72.381  1.00  0.00    -0.178 C  
BRANCH   6   7
HETATM    7  C   UNL     1      -8.712   5.134  71.494  1.00  0.00    -0.141 C  
BRANCH   7   8
HETATM    8  C   UNL     1      -9.262   4.894  70.089  1.00  0.00    -0.185 C  
BRANCH   8   9
HETATM    9  C   UNL     1      -9.140   6.146  69.220  1.00  0.00    -0.129 C  
BRANCH   9  10
HETATM   10  C   UNL     1      -8.088   5.948  68.126  1.00  0.00    -0.109 C  
BRANCH  10  11
HETATM   11  C   UNL     1      -8.664   6.109  66.721  1.00  0.00    -0.116 C  
BRANCH  11  12
HETATM   12  C   UNL     1     -10.050   6.712  66.714  1.00  0.00    -0.175 C  
HETATM   13  O   UNL     1     -10.865   6.603  65.810  1.00  0.00     1.357 OA 
BRANCH  12  14
HETATM   14  O   UNL     1     -10.251   7.374  67.885  1.00  0.00    -0.175 OA 
BRANCH  14  15
HETATM   15  C   UNL     1     -11.597   7.791  68.152  1.00  0.00     1.439 C  
BRANCH  15  16
HETATM   16  N   UNL     1     -11.667   9.015  68.936  1.00  0.00     0.924 N  
HETATM   17  C   UNL     1     -12.685   9.043  69.888  1.00  0.00     1.626 C  
HETATM   18  C   UNL     1     -13.139  10.410  70.318  1.00  0.00    -0.010 C  
HETATM   19  O   UNL     1     -13.273   8.039  70.279  1.00  0.00     0.997 OA 
HETATM   20  C   UNL     1     -11.986  11.332  70.629  1.00  0.00    -0.435 C  
HETATM   21  C   UNL     1     -10.885  11.235  69.613  1.00  0.00    -0.155 A  
HETATM   22  C   UNL     1      -9.973  12.297  69.516  1.00  0.00     0.964 A  
HETATM   23  C   UNL     1      -8.870  12.219  68.667  1.00  0.00     0.022 A  
HETATM   24  C   UNL     1      -8.654  11.059  67.932  1.00  0.00    -0.133 A  
HETATM   25  C   UNL     1      -9.571  10.004  68.019  1.00  0.00    -0.154 A  
HETATM   26  C   UNL     1     -10.712  10.077  68.836  1.00  0.00    -0.219 A  
BRANCH  24  27
HETATM   27  O   UNL     1      -7.609  10.857  67.069  1.00  0.00    -0.110 OA 
BRANCH  27  28
HETATM   28  C   UNL     1      -7.718  11.476  65.785  1.00  0.00     0.461 C  
BRANCH  28  29
HETATM   29  C   UNL     1      -7.127  12.885  65.862  1.00  0.00     3.796 C  
BRANCH  29  30
HETATM   30  C   UNL     1      -8.091  13.879  66.527  1.00  0.00     0.722 C  
BRANCH  30  31
HETATM   31  C   UNL     1      -8.700  14.894  65.538  1.00  0.00     1.627 C  
BRANCH  31  32
HETATM   32  N   UNL     1     -10.100  15.225  65.829  1.00  0.00    -0.328 NA 
HETATM   33  C   UNL     1     -10.824  14.155  66.546  1.00  0.00    -0.298 C  
HETATM   34  C   UNL     1     -10.438  14.034  68.033  1.00  0.00    -0.241 C  
HETATM   35  N   UNL     1     -10.806  15.283  68.721  1.00  0.00    -0.244 NA 
HETATM   36  C   UNL     1     -10.146  16.468  68.138  1.00  0.00    -0.255 C  
HETATM   37  C   UNL     1     -10.245  16.494  66.580  1.00  0.00    -0.300 C  
BRANCH  35  38
HETATM   38  C   UNL     1     -11.588  15.272  69.872  1.00  0.00    -0.311 A  
HETATM   39  C   UNL     1     -11.344  14.525  71.058  1.00  0.00     0.020 A  
HETATM   40 CL   UNL     1     -10.054  13.354  71.160  1.00  0.00     5.847 Cl 
HETATM   41  C   UNL     1     -12.208  14.635  72.176  1.00  0.00    -0.271 A  
HETATM   42  C   UNL     1     -13.349  15.436  72.129  1.00  0.00    -0.541 A  
HETATM   43 CL   UNL     1     -11.927  13.800  73.672  1.00  0.00     1.681 Cl 
HETATM   44  C   UNL     1     -13.624  16.159  70.984  1.00  0.00     1.540 A  
HETATM   45  C   UNL     1     -12.745  16.092  69.899  1.00  0.00     0.536 A  
ENDBRANCH  35  38
ENDBRANCH  31  32
ENDBRANCH  30  31
ENDBRANCH  29  30
ENDBRANCH  28  29
ENDBRANCH  27  28
ENDBRANCH  24  27
ENDBRANCH  15  16
ENDBRANCH  14  15
ENDBRANCH  12  14
ENDBRANCH  11  12
ENDBRANCH  10  11
ENDBRANCH   9  10
ENDBRANCH   8   9
ENDBRANCH   7   8
ENDBRANCH   6   7
ENDBRANCH   5   6
ENDBRANCH   4   5
ENDBRANCH   3   4
ENDBRANCH   2   3
TORSDOF 20
ENDMDL
MODEL      177
REMARK 921   NORMALIZED FREE ENERGY PREDICTED BY IDOCK:   21.82 KCAL/MOL
REMARK 922        TOTAL FREE ENERGY PREDICTED BY IDOCK:   43.49 KCAL/MOL
REMARK 923 INTER-LIGAND FREE ENERGY PREDICTED BY IDOCK:   23.85 KCAL/MOL
REMARK 924 INTRA-LIGAND FREE ENERGY PREDICTED BY IDOCK:   19.64 KCAL/MOL
REMARK 927      BINDING AFFINITY PREDICTED BY RF-SCORE:    0.00 PKD
ROOT
HETATM    1  C   UNL     1      -5.239  17.190  66.165  1.00  0.00     0.032 C  
HETATM    2  C   UNL     1      -6.447  17.794  66.863  1.00  0.00    -0.203 C  
ENDROOT
BRANCH   2   3
HETATM    3  C   UNL     1      -7.013  16.843  67.917  1.00  0.00    -0.158 C  
BRANCH   3   4
HETATM    4  C   UNL     1      -7.689  15.635  67.270  1.00  0.00    -0.239 C  
BRANCH   4   5
HETATM    5  C   UNL     1      -8.212  15.979  65.875  1.00  0.00     0.460 C  
BRANCH   5   6
HETATM    6  C   UNL     1      -7.578  15.085  64.811  1.00  0.00    11.837 C  
BRANCH   6   7
HETATM    7  C   UNL     1      -7.929  13.615  65.041  1.00  0.00     7.171 C  
BRANCH   7   8
HETATM    8  C   UNL     1      -9.382  13.464  65.490  1.00  0.00     0.323 C  
BRANCH   8   9
HETATM    9  C   UNL     1      -9.966  14.802  65.948  1.00  0.00    -0.351 C  
BRANCH   9  10
HETATM   10  C   UNL     1     -11.495  14.739  65.998  1.00  0.00    -0.316 C  
BRANCH  10  11
HETATM   11  C   UNL     1     -12.091  15.725  67.000  1.00  0.00     0.978 C  
BRANCH  11  12
HETATM   12  C   UNL     1     -11.230  15.917  68.227  1.00  0.00    -0.354 C  
HETATM   13  O   UNL     1     -10.753  15.019  68.905  1.00  0.00    -0.225 OA 
BRANCH  12  14
HETATM   14  O   UNL     1     -11.051  17.248  68.440  1.00  0.00    -0.254 OA 
BRANCH  14  15
HETATM   15  C   UNL     1     -10.427  17.613  69.679  1.00  0.00     0.341 C  
BRANCH  15  16
HETATM   16  N   UNL     1      -9.119  18.224  69.497  1.00  0.00     0.460 N  
HETATM   17  C   UNL     1      -9.142  19.602  69.289  1.00  0.00     0.044 C  
HETATM   18  C   UNL     1      -7.946  20.175  68.579  1.00  0.00    -0.031 C  
HETATM   19  O   UNL     1     -10.111  20.310  69.549  1.00  0.00    -0.111 OA 
HETATM   20  C   UNL     1      -6.642  19.662  69.135  1.00  0.00    -0.369 C  
HETATM   21  C   UNL     1      -6.673  18.184  69.398  1.00  0.00    -0.174 A  
HETATM   22  C   UNL     1      -5.452  17.500  69.499  1.00  0.00    -0.202 A  
HETATM   23  C   UNL     1      -5.413  16.150  69.846  1.00  0.00    -0.147 A  
HETATM   24  C   UNL     1      -6.599  15.482  70.127  1.00  0.00    -0.007 A  
HETATM   25  C   UNL     1      -7.820  16.162  70.014  1.00  0.00     0.853 A  
HETATM   26  C   UNL     1      -7.885  17.511  69.626  1.00  0.00     0.754 A  
BRANCH  24  27
HETATM   27  O   UNL     1      -6.695  14.163  70.482  1.00  0.00     0.005 OA 
BRANCH  27  28
HETATM   28  C   UNL     1      -6.887  13.892  71.872  1.00  0.00     2.842 C  
BRANCH  28  29
HETATM   29  C   UNL     1      -5.627  13.222  72.425  1.00  0.00     0.333 C  
BRANCH  29  30
HETATM   30  C   UNL     1      -5.554  11.734  72.049  1.00  0.00     0.805 C  
BRANCH  30  31
HETATM   31  C   UNL     1      -6.548  11.335  70.940  1.00  0.00     1.161 C  
BRANCH  31  32
HETATM   32  N   UNL     1      -6.044  11.590  69.584  1.00  0.00    -0.099 NA 
HETATM   33  C   UNL     1      -5.704  10.360  68.840  1.00  0.00    -0.041 C  
HETATM   34  C   UNL     1      -6.933   9.574  68.344  1.00  0.00    -0.066 C  
HETATM   35  N   UNL     1      -7.679  10.414  67.392  1.00  0.00    -0.095 NA 
HETATM   36  C   UNL     1      -8.121  11.692  67.985  1.00  0.00    -0.139 C  
HETATM   37  C   UNL     1      -6.975  12.406  68.770  1.00  0.00    -0.094 C  
BRANCH  35  38
HETATM   38  C   UNL     1      -8.017   9.945  66.126  1.00  0.00    -0.109 A  
HETATM   39  C   UNL     1      -7.273   9.031  65.331  1.00  0.00    -0.084 A  
HETATM   40 CL   UNL     1      -5.687   8.478  65.805  1.00  0.00    -0.043 Cl 
HETATM   41  C   UNL     1      -7.754   8.608  64.067  1.00  0.00    -0.134 A  
HETATM   42  C   UNL     1      -8.944   9.114  63.542  1.00  0.00     0.022 A  
HETATM   43 CL   UNL     1      -6.923   7.445  63.080  1.00  0.00    -0.061 Cl 
HETATM   44  C   UNL     1      -9.681  10.018  64.282  1.00  0.00    -0.242 A  
HETATM   45  C   UNL     1      -9.233  10.397  65.551  1.00  0.00    -0.223 A  
ENDBRANCH  35  38
ENDBRANCH  31  32
ENDBRANCH  30  31
ENDBRANCH  29  30
ENDBRANCH  28  29
ENDBRANCH  27  28
ENDBRANCH  24  27
ENDBRANCH  15  16
ENDBRANCH  14  15
ENDBRANCH  12  14
ENDBRANCH  11  12
ENDBRANCH  10  11
ENDBRANCH   9  10
ENDBRANCH   8   9
ENDBRANCH   7   8
ENDBRANCH   6   7
ENDBRANCH   5   6
ENDBRANCH   4   5
ENDBRANCH   3   4
ENDBRANCH   2   3
TORSDOF 20
ENDMDL
MODEL      178
REMARK 921   NORMALIZED FREE ENERGY PREDICTED BY IDOCK:   21.86 KCAL/MOL
REMARK 922        TOTAL FREE ENERGY PREDICTED BY IDOCK:   43.58 KCAL/MOL
REMARK 923 INTER-LIGAND FREE ENERGY PREDICTED BY IDOCK:    9.41 KCAL/MOL
REMARK 924 INTRA-LIGAND FREE ENERGY PREDICTED BY IDOCK:   34.17 KCAL/MOL
REMARK 927      BINDING AFFINITY PREDICTED BY RF-SCORE:    0.00 PKD
ROOT
HETATM    1  C   UNL     1      -8.970  17.203  70.111  1.00  0.00     2.255 C  
HETATM    2  C   UNL     1      -8.820  15.696  69.976  1.00  0.00     0.420 C  
ENDROOT
BRANCH   2   3
HETATM    3  C   UNL     1      -9.897  14.957  70.770  1.00  0.00     1.174 C  
BRANCH   3   4
HETATM    4  C   UNL     1     -10.842  15.934  71.468  1.00  0.00     0.302 C  
BRANCH   4   5
HETATM    5  C   UNL     1     -10.614  15.935  72.979  1.00  0.00     3.341 C  
BRANCH   5   6
HETATM    6  C   UNL     1     -11.634  15.048  73.693  1.00  0.00     0.047 C  
BRANCH   6   7
HETATM    7  C   UNL     1     -12.204  13.990  72.747  1.00  0.00     0.220 C  
BRANCH   7   8
HETATM    8  C   UNL     1     -12.129  14.458  71.294  1.00  0.00    -0.405 C  
BRANCH   8   9
HETATM    9  C   UNL     1     -13.389  15.225  70.890  1.00  0.00    -0.475 C  
BRANCH   9  10
HETATM   10  C   UNL     1     -14.075  14.554  69.697  1.00  0.00     4.081 C  
BRANCH  10  11
HETATM   11  C   UNL     1     -13.199  14.539  68.447  1.00  0.00     3.009 C  
BRANCH  11  12
HETATM   12  C   UNL     1     -12.327  13.309  68.348  1.00  0.00     0.142 C  
HETATM   13  O   UNL     1     -11.395  13.162  67.572  1.00  0.00    -0.270 OA 
BRANCH  12  14
HETATM   14  O   UNL     1     -12.733  12.402  69.278  1.00  0.00     0.427 OA 
BRANCH  14  15
HETATM   15  C   UNL     1     -11.715  11.540  69.806  1.00  0.00    -0.353 C  
BRANCH  15  16
HETATM   16  N   UNL     1     -10.965  10.847  68.770  1.00  0.00    -0.217 N  
HETATM   17  C   UNL     1     -10.358  11.681  67.832  1.00  0.00    -0.188 C  
HETATM   18  C   UNL     1     -10.056  11.052  66.499  1.00  0.00    -0.270 C  
HETATM   19  O   UNL     1     -10.178  12.883  68.009  1.00  0.00    -0.217 OA 
HETATM   20  C   UNL     1      -9.400   9.701  66.632  1.00  0.00    -0.200 C  
HETATM   21  C   UNL     1     -10.044   8.853  67.689  1.00  0.00    -0.274 A  
HETATM   22  C   UNL     1      -9.846   7.464  67.641  1.00  0.00    -0.194 A  
HETATM   23  C   UNL     1     -10.330   6.636  68.653  1.00  0.00    -0.208 A  
HETATM   24  C   UNL     1     -10.990   7.197  69.739  1.00  0.00    -0.231 A  
HETATM   25  C   UNL     1     -11.199   8.582  69.781  1.00  0.00     0.023 A  
HETATM   26  C   UNL     1     -10.756   9.431  68.753  1.00  0.00    -0.171 A  
BRANCH  24  27
HETATM   27  O   UNL     1     -11.507   6.495  70.795  1.00  0.00    -0.318 OA 
BRANCH  27  28
HETATM   28  C   UNL     1     -11.855   7.257  71.954  1.00  0.00    -0.297 C  
BRANCH  28  29
HETATM   29  C   UNL     1     -10.611   7.990  72.458  1.00  0.00    -0.397 C  
BRANCH  29  30
HETATM   30  C   UNL     1      -9.318   7.235  72.113  1.00  0.00    -0.156 C  
BRANCH  30  31
HETATM   31  C   UNL     1      -9.543   6.044  71.160  1.00  0.00    -0.172 C  
BRANCH  31  32
HETATM   32  N   UNL     1      -8.341   5.662  70.408  1.00  0.00    -0.117 NA 
HETATM   33  C   UNL     1      -8.234   4.208  70.166  1.00  0.00    -0.057 C  
HETATM   34  C   UNL     1      -9.199   3.686  69.084  1.00  0.00    -0.159 C  
HETATM   35  N   UNL     1      -8.860   4.323  67.800  1.00  0.00    -0.106 NA 
HETATM   36  C   UNL     1      -8.939   5.796  67.858  1.00  0.00    -0.111 C  
HETATM   37  C   UNL     1      -8.220   6.378  69.116  1.00  0.00    -0.111 C  
BRANCH  35  38
HETATM   38  C   UNL     1      -8.630   3.565  66.656  1.00  0.00    -0.113 A  
HETATM   39  C   UNL     1      -7.671   3.830  65.639  1.00  0.00    -0.086 A  
HETATM   40 CL   UNL     1      -6.725   5.296  65.624  1.00  0.00    -0.051 Cl 
HETATM   41  C   UNL     1      -7.518   2.949  64.539  1.00  0.00    -0.075 A  
HETATM   42  C   UNL     1      -8.336   1.829  64.392  1.00  0.00    -0.078 A  
HETATM   43 CL   UNL     1      -6.322   3.184  63.302  1.00  0.00    -0.021 Cl 
HETATM   44  C   UNL     1      -9.290   1.555  65.353  1.00  0.00     0.026 A  
HETATM   45  C   UNL     1      -9.408   2.394  66.466  1.00  0.00     0.042 A  
ENDBRANCH  35  38
ENDBRANCH  31  32
ENDBRANCH  30  31
ENDBRANCH  29  30
ENDBRANCH  28  29
ENDBRANCH  27  28
ENDBRANCH  24  27
ENDBRANCH  15  16
ENDBRANCH  14  15
ENDBRANCH  12  14
ENDBRANCH  11  12
ENDBRANCH  10  11
ENDBRANCH   9  10
ENDBRANCH   8   9
ENDBRANCH   7   8
ENDBRANCH   6   7
ENDBRANCH   5   6
ENDBRANCH   4   5
ENDBRANCH   3   4
ENDBRANCH   2   3
TORSDOF 20
ENDMDL
MODEL      179
REMARK 921   NORMALIZED FREE ENERGY PREDICTED BY IDOCK:   27.86 KCAL/MOL
REMARK 922        TOTAL FREE ENERGY PREDICTED BY IDOCK:   56.58 KCAL/MOL
REMARK 923 INTER-LIGAND FREE ENERGY PREDICTED BY IDOCK:   33.65 KCAL/MOL
REMARK 924 INTRA-LIGAND FREE ENERGY PREDICTED BY IDOCK:   22.93 KCAL/MOL
REMARK 927      BINDING AFFINITY PREDICTED BY RF-SCORE:    0.00 PKD
ROOT
HETATM    1  C   UNL     1     -10.566  19.544  73.060  1.00  0.00     3.865 C  
HETATM    2  C   UNL     1     -10.003  19.118  71.714  1.00  0.00     3.821 C  
ENDROOT
BRANCH   2   3
HETATM    3  C   UNL     1     -11.076  18.464  70.844  1.00  0.00     3.482 C  
BRANCH   3   4
HETATM    4  C   UNL     1     -12.146  19.473  70.428  1.00  0.00    11.886 C  
BRANCH   4   5
HETATM    5  C   UNL     1     -11.565  20.536  69.495  1.00  0.00     3.308 C  
BRANCH   5   6
HETATM    6  C   UNL     1     -10.067  20.721  69.733  1.00  0.00     0.813 C  
BRANCH   6   7
HETATM    7  C   UNL     1      -9.263  19.577  69.116  1.00  0.00    -0.209 C  
BRANCH   7   8
HETATM    8  C   UNL     1      -8.388  20.079  67.969  1.00  0.00    -0.253 C  
BRANCH   8   9
HETATM    9  C   UNL     1      -7.316  19.055  67.595  1.00  0.00    -0.245 C  
BRANCH   9  10
HETATM   10  C   UNL     1      -7.955  17.750  67.112  1.00  0.00    -0.229 C  
BRANCH  10  11
HETATM   11  C   UNL     1      -9.365  17.548  67.661  1.00  0.00    -0.244 C  
BRANCH  11  12
HETATM   12  C   UNL     1      -9.445  16.457  68.703  1.00  0.00    -0.239 C  
HETATM   13  O   UNL     1     -10.026  16.543  69.775  1.00  0.00    -0.119 OA 
BRANCH  12  14
HETATM   14  O   UNL     1      -8.788  15.357  68.245  1.00  0.00    -0.169 OA 
BRANCH  14  15
HETATM   15  C   UNL     1      -7.433  15.200  68.689  1.00  0.00    -0.124 C  
BRANCH  15  16
HETATM   16  N   UNL     1      -6.712  14.172  67.955  1.00  0.00    -0.130 N  
HETATM   17  C   UNL     1      -5.826  14.653  66.993  1.00  0.00     1.189 C  
HETATM   18  C   UNL     1      -5.486  13.697  65.882  1.00  0.00     6.718 C  
HETATM   19  O   UNL     1      -5.425  15.813  66.961  1.00  0.00    -0.315 OA 
HETATM   20  C   UNL     1      -5.149  12.317  66.389  1.00  0.00     0.705 C  
HETATM   21  C   UNL     1      -6.091  11.855  67.462  1.00  0.00    -0.100 A  
HETATM   22  C   UNL     1      -6.181  10.479  67.722  1.00  0.00    -0.055 A  
HETATM   23  C   UNL     1      -6.958   9.997  68.775  1.00  0.00    -0.062 A  
HETATM   24  C   UNL     1      -7.625  10.896  69.599  1.00  0.00     0.023 A  
HETATM   25  C   UNL     1      -7.545  12.270  69.333  1.00  0.00     0.458 A  
HETATM   26  C   UNL     1      -6.803  12.774  68.252  1.00  0.00    -0.090 A  
BRANCH  24  27
HETATM   27  O   UNL     1      -8.413  10.552  70.665  1.00  0.00     0.707 OA 
BRANCH  27  28
HETATM   28  C   UNL     1      -9.690   9.988  70.354  1.00  0.00     0.040 C  
BRANCH  28  29
HETATM   29  C   UNL     1     -10.749  11.090  70.426  1.00  0.00     0.537 C  
BRANCH  29  30
HETATM   30  C   UNL     1     -12.067  10.666  69.760  1.00  0.00    -0.343 C  
BRANCH  30  31
HETATM   31  C   UNL     1     -11.863   9.896  68.439  1.00  0.00     0.901 C  
BRANCH  31  32
HETATM   32  N   UNL     1     -10.748   8.942  68.484  1.00  0.00    -0.135 NA 
HETATM   33  C   UNL     1      -9.855   9.132  69.646  1.00  0.00    -0.180 C  
HETATM   34  C   UNL     1     -10.458   8.646  70.978  1.00  0.00    -0.219 C  
HETATM   35  N   UNL     1     -10.685   7.194  70.893  1.00  0.00    -0.228 NA 
HETATM   36  C   UNL     1     -11.585   6.823  69.783  1.00  0.00    -0.227 C  
HETATM   37  C   UNL     1     -11.198   7.531  68.446  1.00  0.00     0.412 C  
BRANCH  35  38
HETATM   38  C   UNL     1     -10.187   6.326  71.861  1.00  0.00    -0.201 A  
HETATM   39  C   UNL     1      -9.034   5.501  71.751  1.00  0.00    -0.136 A  
HETATM   40 CL   UNL     1      -8.146   5.353  70.256  1.00  0.00    -0.095 Cl 
HETATM   41  C   UNL     1      -8.617   4.688  72.834  1.00  0.00    -0.110 A  
HETATM   42  C   UNL     1      -9.353   4.631  74.019  1.00  0.00    -0.121 A  
HETATM   43 CL   UNL     1      -7.183   3.710  72.784  1.00  0.00    -0.048 Cl 
HETATM   44  C   UNL     1     -10.489   5.407  74.149  1.00  0.00    -0.310 A  
HETATM   45  C   UNL     1     -10.872   6.248  73.101  1.00  0.00    -0.281 A  
ENDBRANCH  35  38
ENDBRANCH  31  32
ENDBRANCH  30  31
ENDBRANCH  29  30
ENDBRANCH  28  29
ENDBRANCH  27  28
ENDBRANCH  24  27
ENDBRANCH  15  16
ENDBRANCH  14  15
ENDBRANCH  12  14
ENDBRANCH  11  12
ENDBRANCH  10  11
ENDBRANCH   9  10
ENDBRANCH   8   9
ENDBRANCH   7   8
ENDBRANCH   6   7
ENDBRANCH   5   6
ENDBRANCH   4   5
ENDBRANCH   3   4
ENDBRANCH   2   3
TORSDOF 20
ENDMDL
MODEL      180
REMARK 921   NORMALIZED FREE ENERGY PREDICTED BY IDOCK:   27.94 KCAL/MOL
REMARK 922        TOTAL FREE ENERGY PREDICTED BY IDOCK:   56.77 KCAL/MOL
REMARK 923 INTER-LIGAND FREE ENERGY PREDICTED BY IDOCK:   37.87 KCAL/MOL
REMARK 924 INTRA-LIGAND FREE ENERGY PREDICTED BY IDOCK:   18.90 KCAL/MOL
REMARK 927      BINDING AFFINITY PREDICTED BY RF-SCORE:    0.00 PKD
ROOT
HETATM    1  C   UNL     1      -7.948   6.409  71.085  1.00  0.00    -0.116 C  
HETATM    2  C   UNL     1      -7.363   6.305  72.484  1.00  0.00    -0.085 C  
ENDROOT
BRANCH   2   3
HETATM    3  C   UNL     1      -8.278   5.506  73.412  1.00  0.00    -0.114 C  
BRANCH   3   4
HETATM    4  C   UNL     1      -9.162   6.429  74.249  1.00  0.00    -0.191 C  
BRANCH   4   5
HETATM    5  C   UNL     1      -9.888   7.444  73.366  1.00  0.00    -0.345 C  
BRANCH   5   6
HETATM    6  C   UNL     1     -10.650   6.750  72.237  1.00  0.00    -0.241 C  
BRANCH   6   7
HETATM    7  C   UNL     1      -9.704   5.946  71.344  1.00  0.00    -0.196 C  
BRANCH   7   8
HETATM    8  C   UNL     1     -10.286   5.779  69.941  1.00  0.00    -0.330 C  
BRANCH   8   9
HETATM    9  C   UNL     1      -9.958   6.981  69.055  1.00  0.00    -0.164 C  
BRANCH   9  10
HETATM   10  C   UNL     1      -9.001   6.581  67.928  1.00  0.00    -0.115 C  
BRANCH  10  11
HETATM   11  C   UNL     1      -9.571   6.874  66.543  1.00  0.00    -0.197 C  
BRANCH  11  12
HETATM   12  C   UNL     1     -10.762   7.804  66.575  1.00  0.00     0.397 C  
HETATM   13  O   UNL     1     -11.619   7.887  65.708  1.00  0.00     4.873 OA 
BRANCH  12  14
HETATM   14  O   UNL     1     -10.738   8.514  67.735  1.00  0.00    -0.201 OA 
BRANCH  14  15
HETATM   15  C   UNL     1     -11.913   9.282  68.030  1.00  0.00     2.996 C  
BRANCH  15  16
HETATM   16  N   UNL     1     -11.625  10.493  68.783  1.00  0.00    -0.227 N  
HETATM   17  C   UNL     1     -12.564  10.809  69.763  1.00  0.00    -0.058 C  
HETATM   18  C   UNL     1     -12.621  12.255  70.171  1.00  0.00     0.041 C  
HETATM   19  O   UNL     1     -13.386  10.006  70.199  1.00  0.00     0.097 OA 
HETATM   20  C   UNL     1     -11.254  12.840  70.423  1.00  0.00     0.811 C  
HETATM   21  C   UNL     1     -10.256  12.433  69.378  1.00  0.00     0.531 A  
HETATM   22  C   UNL     1      -9.097  13.210  69.225  1.00  0.00     0.891 A  
HETATM   23  C   UNL     1      -8.086  12.824  68.346  1.00  0.00    -0.129 A  
HETATM   24  C   UNL     1      -8.214  11.637  67.636  1.00  0.00    -0.141 A  
HETATM   25  C   UNL     1      -9.376  10.867  67.778  1.00  0.00    -0.162 A  
HETATM   26  C   UNL     1     -10.426  11.258  68.626  1.00  0.00    -0.203 A  
BRANCH  24  27
HETATM   27  O   UNL     1      -7.293  11.147  66.748  1.00  0.00    -0.132 OA 
BRANCH  27  28
HETATM   28  C   UNL     1      -7.269  11.759  65.456  1.00  0.00     1.522 C  
BRANCH  28  29
HETATM   29  C   UNL     1      -6.299  12.943  65.486  1.00  0.00     6.698 C  
BRANCH  29  30
HETATM   30  C   UNL     1      -6.897  14.158  66.212  1.00  0.00     3.974 C  
BRANCH  30  31
HETATM   31  C   UNL     1      -7.264  15.316  65.262  1.00  0.00     8.660 C  
BRANCH  31  32
HETATM   32  N   UNL     1      -8.492  16.022  65.649  1.00  0.00     0.272 NA 
HETATM   33  C   UNL     1      -9.448  15.178  66.394  1.00  0.00    -0.296 C  
HETATM   34  C   UNL     1      -9.028  14.901  67.851  1.00  0.00    -0.177 C  
HETATM   35  N   UNL     1      -8.983  16.179  68.581  1.00  0.00    -0.210 NA 
HETATM   36  C   UNL     1      -8.047  17.147  67.976  1.00  0.00    -0.210 C  
HETATM   37  C   UNL     1      -8.225  17.254  66.429  1.00  0.00    -0.282 C  
BRANCH  35  38
HETATM   38  C   UNL     1      -9.668  16.351  69.781  1.00  0.00     0.164 A  
HETATM   39  C   UNL     1     -10.089  17.584  70.351  1.00  0.00     1.628 A  
HETATM   40 CL   UNL     1      -9.638  19.121  69.657  1.00  0.00     0.076 Cl 
HETATM   41  C   UNL     1     -10.814  17.612  71.567  1.00  0.00     2.405 A  
HETATM   42  C   UNL     1     -11.091  16.438  72.270  1.00  0.00     0.880 A  
HETATM   43 CL   UNL     1     -11.411  19.080  72.279  1.00  0.00     4.681 Cl 
HETATM   44  C   UNL     1     -10.678  15.225  71.751  1.00  0.00     0.399 A  
HETATM   45  C   UNL     1     -10.008  15.192  70.525  1.00  0.00     0.399 A  
ENDBRANCH  35  38
ENDBRANCH  31  32
ENDBRANCH  30  31
ENDBRANCH  29  30
ENDBRANCH  28  29
ENDBRANCH  27  28
ENDBRANCH  24  27
ENDBRANCH  15  16
ENDBRANCH  14  15
ENDBRANCH  12  14
ENDBRANCH  11  12
ENDBRANCH  10  11
ENDBRANCH   9  10
ENDBRANCH   8   9
ENDBRANCH   7   8
ENDBRANCH   6   7
ENDBRANCH   5   6
ENDBRANCH   4   5
ENDBRANCH   3   4
ENDBRANCH   2   3
TORSDOF 20
ENDMDL
MODEL      181
REMARK 921   NORMALIZED FREE ENERGY PREDICTED BY IDOCK:   29.58 KCAL/MOL
REMARK 922        TOTAL FREE ENERGY PREDICTED BY IDOCK:   60.32 KCAL/MOL
REMARK 923 INTER-LIGAND FREE ENERGY PREDICTED BY IDOCK:   29.78 KCAL/MOL
REMARK 924 INTRA-LIGAND FREE ENERGY PREDICTED BY IDOCK:   30.53 KCAL/MOL
REMARK 927      BINDING AFFINITY PREDICTED BY RF-SCORE:    0.00 PKD
ROOT
HETATM    1  C   UNL     1      -6.905  13.750  73.480  1.00  0.00     3.323 C  
HETATM    2  C   UNL     1      -5.882  14.859  73.295  1.00  0.00     0.495 C  
ENDROOT
BRANCH   2   3
HETATM    3  C   UNL     1      -6.437  15.989  72.429  1.00  0.00     3.801 C  
BRANCH   3   4
HETATM    4  C   UNL     1      -7.602  15.506  71.566  1.00  0.00     3.933 C  
BRANCH   4   5
HETATM    5  C   UNL     1      -7.249  14.207  70.842  1.00  0.00     1.594 C  
BRANCH   5   6
HETATM    6  C   UNL     1      -8.001  13.019  71.440  1.00  0.00     9.727 C  
BRANCH   6   7
HETATM    7  C   UNL     1      -7.281  12.473  72.674  1.00  0.00    10.448 C  
BRANCH   7   8
HETATM    8  C   UNL     1      -5.803  12.861  72.661  1.00  0.00     1.439 C  
BRANCH   8   9
HETATM    9  C   UNL     1      -5.131  12.449  71.351  1.00  0.00    -0.119 C  
BRANCH   9  10
HETATM   10  C   UNL     1      -5.909  12.988  70.147  1.00  0.00    -0.153 C  
BRANCH  10  11
HETATM   11  C   UNL     1      -5.851  14.510  70.043  1.00  0.00    -0.131 C  
BRANCH  11  12
HETATM   12  C   UNL     1      -6.681  15.059  68.907  1.00  0.00    -0.099 C  
HETATM   13  O   UNL     1      -6.445  16.086  68.289  1.00  0.00    -0.111 OA 
BRANCH  12  14
HETATM   14  O   UNL     1      -7.719  14.213  68.667  1.00  0.00    -0.128 OA 
BRANCH  14  15
HETATM   15  C   UNL     1      -8.431  14.417  67.439  1.00  0.00    -0.203 C  
BRANCH  15  16
HETATM   16  N   UNL     1      -9.650  13.628  67.351  1.00  0.00    -0.220 N  
HETATM   17  C   UNL     1     -10.687  14.230  66.640  1.00  0.00    -0.290 C  
HETATM   18  C   UNL     1     -12.071  13.744  66.969  1.00  0.00    -0.436 C  
HETATM   19  O   UNL     1     -10.524  15.179  65.878  1.00  0.00    -0.300 OA 
HETATM   20  C   UNL     1     -12.160  12.240  67.021  1.00  0.00    -0.019 C  
HETATM   21  C   UNL     1     -10.998  11.623  67.745  1.00  0.00    -0.287 A  
HETATM   22  C   UNL     1     -11.142  10.319  68.246  1.00  0.00    -0.311 A  
HETATM   23  C   UNL     1     -10.066   9.655  68.833  1.00  0.00    -0.198 A  
HETATM   24  C   UNL     1      -8.827  10.281  68.895  1.00  0.00    -0.157 A  
HETATM   25  C   UNL     1      -8.687  11.587  68.408  1.00  0.00    -0.160 A  
HETATM   26  C   UNL     1      -9.767  12.291  67.849  1.00  0.00    -0.202 A  
BRANCH  24  27
HETATM   27  O   UNL     1      -7.696   9.735  69.442  1.00  0.00    -0.088 OA 
BRANCH  27  28
HETATM   28  C   UNL     1      -7.644   9.680  70.870  1.00  0.00     0.106 C  
BRANCH  28  29
HETATM   29  C   UNL     1      -6.349   8.983  71.292  1.00  0.00    -0.075 C  
BRANCH  29  30
HETATM   30  C   UNL     1      -6.487   7.453  71.279  1.00  0.00    -0.036 C  
BRANCH  30  31
HETATM   31  C   UNL     1      -6.862   6.863  72.653  1.00  0.00    -0.069 C  
BRANCH  31  32
HETATM   32  N   UNL     1      -7.402   5.499  72.576  1.00  0.00    -0.093 NA 
HETATM   33  C   UNL     1      -8.709   5.420  71.893  1.00  0.00    -0.135 C  
HETATM   34  C   UNL     1      -8.621   5.581  70.363  1.00  0.00    -0.130 C  
HETATM   35  N   UNL     1      -7.826   4.469  69.815  1.00  0.00    -0.057 NA 
HETATM   36  C   UNL     1      -6.464   4.411  70.381  1.00  0.00    -0.031 C  
HETATM   37  C   UNL     1      -6.464   4.546  71.936  1.00  0.00    -0.022 C  
BRANCH  35  38
HETATM   38  C   UNL     1      -8.311   3.674  68.781  1.00  0.00    -0.073 A  
HETATM   39  C   UNL     1      -8.212   3.938  67.387  1.00  0.00    -0.094 A  
HETATM   40 CL   UNL     1      -7.574   5.444  66.778  1.00  0.00    -0.088 Cl 
HETATM   41  C   UNL     1      -8.721   3.019  66.436  1.00  0.00    -0.133 A  
HETATM   42  C   UNL     1      -9.380   1.857  66.836  1.00  0.00     0.049 A  
HETATM   43 CL   UNL     1      -8.572   3.255  64.721  1.00  0.00    -0.098 Cl 
HETATM   44  C   UNL     1      -9.510   1.581  68.184  1.00  0.00    -0.217 A  
HETATM   45  C   UNL     1      -8.962   2.460  69.123  1.00  0.00    -0.168 A  
ENDBRANCH  35  38
ENDBRANCH  31  32
ENDBRANCH  30  31
ENDBRANCH  29  30
ENDBRANCH  28  29
ENDBRANCH  27  28
ENDBRANCH  24  27
ENDBRANCH  15  16
ENDBRANCH  14  15
ENDBRANCH  12  14
ENDBRANCH  11  12
ENDBRANCH  10  11
ENDBRANCH   9  10
ENDBRANCH   8   9
ENDBRANCH   7   8
ENDBRANCH   6   7
ENDBRANCH   5   6
ENDBRANCH   4   5
ENDBRANCH   3   4
ENDBRANCH   2   3
TORSDOF 20
ENDMDL
MODEL      182
REMARK 921   NORMALIZED FREE ENERGY PREDICTED BY IDOCK:   35.29 KCAL/MOL
REMARK 922        TOTAL FREE ENERGY PREDICTED BY IDOCK:   72.70 KCAL/MOL
REMARK 923 INTER-LIGAND FREE ENERGY PREDICTED BY IDOCK:   42.91 KCAL/MOL
REMARK 924 INTRA-LIGAND FREE ENERGY PREDICTED BY IDOCK:   29.79 KCAL/MOL
REMARK 927      BINDING AFFINITY PREDICTED BY RF-SCORE:    0.00 PKD
ROOT
HETATM    1  C   UNL     1     -12.594  11.453  66.557  1.00  0.00     3.384 C  
HETATM    2  C   UNL     1     -13.963  11.764  65.976  1.00  0.00    10.992 C  
ENDROOT
BRANCH   2   3
HETATM    3  C   UNL     1     -13.893  12.912  64.970  1.00  0.00     2.696 C  
BRANCH   3   4
HETATM    4  C   UNL     1     -12.448  13.333  64.707  1.00  0.00    -0.439 C  
BRANCH   4   5
HETATM    5  C   UNL     1     -11.876  14.106  65.895  1.00  0.00    -0.391 C  
BRANCH   5   6
HETATM    6  C   UNL     1     -10.350  14.165  65.833  1.00  0.00    -0.326 C  
BRANCH   6   7
HETATM    7  C   UNL     1      -9.723  12.905  66.431  1.00  0.00    -0.263 C  
BRANCH   7   8
HETATM    8  C   UNL     1      -8.505  12.463  65.621  1.00  0.00     1.029 C  
BRANCH   8   9
HETATM    9  C   UNL     1      -8.530  13.053  64.210  1.00  0.00     4.863 C  
BRANCH   9  10
HETATM   10  C   UNL     1      -9.942  13.517  63.840  1.00  0.00     1.272 C  
BRANCH  10  11
HETATM   11  C   UNL     1     -10.980  12.406  63.976  1.00  0.00    -0.442 C  
BRANCH  11  12
HETATM   12  C   UNL     1     -10.394  11.023  63.810  1.00  0.00    -0.364 C  
HETATM   13  O   UNL     1      -9.415  10.746  63.134  1.00  0.00    -0.267 OA 
BRANCH  12  14
HETATM   14  O   UNL     1     -11.118  10.143  64.552  1.00  0.00     1.222 OA 
BRANCH  14  15
HETATM   15  C   UNL     1     -10.943  10.220  65.974  1.00  0.00     0.304 C  
BRANCH  15  16
HETATM   16  N   UNL     1      -9.558  10.046  66.384  1.00  0.00    -0.185 N  
HETATM   17  C   UNL     1      -8.738   9.439  65.434  1.00  0.00    -0.166 C  
HETATM   18  C   UNL     1      -7.507   8.762  65.970  1.00  0.00    -0.089 C  
HETATM   19  O   UNL     1      -9.034   9.343  64.246  1.00  0.00    -0.219 OA 
HETATM   20  C   UNL     1      -6.762   9.617  66.963  1.00  0.00    -0.075 C  
HETATM   21  C   UNL     1      -7.681  10.299  67.935  1.00  0.00    -0.089 A  
HETATM   22  C   UNL     1      -7.143  10.763  69.146  1.00  0.00    -0.101 A  
HETATM   23  C   UNL     1      -7.921  11.495  70.042  1.00  0.00     1.694 A  
HETATM   24  C   UNL     1      -9.238  11.796  69.715  1.00  0.00     1.838 A  
HETATM   25  C   UNL     1      -9.779  11.322  68.513  1.00  0.00    -0.199 A  
HETATM   26  C   UNL     1      -9.025  10.547  67.615  1.00  0.00    -0.138 A  
BRANCH  24  27
HETATM   27  O   UNL     1     -10.102  12.508  70.504  1.00  0.00     3.444 OA 
BRANCH  27  28
HETATM   28  C   UNL     1     -11.450  12.608  70.040  1.00  0.00    -0.013 C  
BRANCH  28  29
HETATM   29  C   UNL     1     -12.336  13.092  71.190  1.00  0.00    -0.295 C  
BRANCH  29  30
HETATM   30  C   UNL     1     -11.597  13.065  72.536  1.00  0.00     4.386 C  
BRANCH  30  31
HETATM   31  C   UNL     1     -10.678  14.284  72.753  1.00  0.00     3.902 C  
BRANCH  31  32
HETATM   32  N   UNL     1     -11.072  15.460  71.967  1.00  0.00    -0.278 NA 
HETATM   33  C   UNL     1     -10.018  16.491  71.880  1.00  0.00     5.296 C  
HETATM   34  C   UNL     1      -8.862  16.119  70.932  1.00  0.00     3.647 C  
HETATM   35  N   UNL     1      -9.395  15.988  69.565  1.00  0.00    -0.211 NA 
HETATM   36  C   UNL     1     -10.458  14.969  69.465  1.00  0.00    -0.235 C  
HETATM   37  C   UNL     1     -11.522  15.112  70.599  1.00  0.00    -0.305 C  
BRANCH  35  38
HETATM   38  C   UNL     1      -8.826  16.678  68.498  1.00  0.00    -0.235 A  
HETATM   39  C   UNL     1      -8.763  18.090  68.336  1.00  0.00    -0.293 A  
HETATM   40 CL   UNL     1      -9.568  19.180  69.435  1.00  0.00    -0.184 Cl 
HETATM   41  C   UNL     1      -8.119  18.663  67.212  1.00  0.00    -0.241 A  
HETATM   42  C   UNL     1      -7.576  17.863  66.205  1.00  0.00    -0.315 A  
HETATM   43 CL   UNL     1      -7.953  20.378  66.991  1.00  0.00    -0.366 Cl 
HETATM   44  C   UNL     1      -7.638  16.488  66.325  1.00  0.00    -0.157 A  
HETATM   45  C   UNL     1      -8.227  15.921  67.459  1.00  0.00    -0.177 A  
ENDBRANCH  35  38
ENDBRANCH  31  32
ENDBRANCH  30  31
ENDBRANCH  29  30
ENDBRANCH  28  29
ENDBRANCH  27  28
ENDBRANCH  24  27
ENDBRANCH  15  16
ENDBRANCH  14  15
ENDBRANCH  12  14
ENDBRANCH  11  12
ENDBRANCH  10  11
ENDBRANCH   9  10
ENDBRANCH   8   9
ENDBRANCH   7   8
ENDBRANCH   6   7
ENDBRANCH   5   6
ENDBRANCH   4   5
ENDBRANCH   3   4
ENDBRANCH   2   3
TORSDOF 20
ENDMDL
MODEL      183
REMARK 921   NORMALIZED FREE ENERGY PREDICTED BY IDOCK:   35.89 KCAL/MOL
REMARK 922        TOTAL FREE ENERGY PREDICTED BY IDOCK:   74.01 KCAL/MOL
REMARK 923 INTER-LIGAND FREE ENERGY PREDICTED BY IDOCK:   12.53 KCAL/MOL
REMARK 924 INTRA-LIGAND FREE ENERGY PREDICTED BY IDOCK:   61.48 KCAL/MOL
REMARK 927      BINDING AFFINITY PREDICTED BY RF-SCORE:    0.00 PKD
ROOT
HETATM    1  C   UNL     1      -8.963  17.203  70.119  1.00  0.00     2.255 C  
HETATM    2  C   UNL     1      -8.803  15.697  69.993  1.00  0.00     0.420 C  
ENDROOT
BRANCH   2   3
HETATM    3  C   UNL     1      -9.845  14.955  70.830  1.00  0.00     1.174 C  
BRANCH   3   4
HETATM    4  C   UNL     1     -10.766  15.930  71.562  1.00  0.00     0.548 C  
BRANCH   4   5
HETATM    5  C   UNL     1     -10.454  15.962  73.059  1.00  0.00     4.010 C  
BRANCH   5   6
HETATM    6  C   UNL     1     -11.415  15.069  73.843  1.00  0.00     0.479 C  
BRANCH   6   7
HETATM    7  C   UNL     1     -12.024  13.990  72.947  1.00  0.00     0.697 C  
BRANCH   7   8
HETATM    8  C   UNL     1     -12.019  14.428  71.483  1.00  0.00    -0.300 C  
BRANCH   8   9
HETATM    9  C   UNL     1     -13.297  15.187  71.124  1.00  0.00    -0.535 C  
BRANCH   9  10
HETATM   10  C   UNL     1     -14.054  14.475  69.999  1.00  0.00     2.446 C  
BRANCH  10  11
HETATM   11  C   UNL     1     -13.252  14.407  68.702  1.00  0.00     2.761 C  
BRANCH  11  12
HETATM   12  C   UNL     1     -12.379  13.177  68.609  1.00  0.00     0.149 C  
HETATM   13  O   UNL     1     -12.740  12.082  68.205  1.00  0.00     0.535 OA 
BRANCH  12  14
HETATM   14  O   UNL     1     -11.122  13.492  69.023  1.00  0.00    -0.252 OA 
BRANCH  14  15
HETATM   15  C   UNL     1     -10.052  12.762  68.408  1.00  0.00    -0.226 C  
BRANCH  15  16
HETATM   16  N   UNL     1     -10.228  11.320  68.490  1.00  0.00    -0.198 N  
HETATM   17  C   UNL     1     -11.507  10.869  68.168  1.00  0.00    -0.295 C  
HETATM   18  C   UNL     1     -11.890   9.531  68.739  1.00  0.00     0.956 C  
HETATM   19  O   UNL     1     -12.332  11.546  67.560  1.00  0.00    -0.202 OA 
HETATM   20  C   UNL     1     -10.811   8.494  68.557  1.00  0.00     0.020 C  
HETATM   21  C   UNL     1      -9.442   9.031  68.860  1.00  0.00    -0.151 A  
HETATM   22  C   UNL     1      -8.418   8.118  69.153  1.00  0.00    -0.135 A  
HETATM   23  C   UNL     1      -7.105   8.549  69.337  1.00  0.00    -0.054 A  
HETATM   24  C   UNL     1      -6.802   9.898  69.198  1.00  0.00    -0.055 A  
HETATM   25  C   UNL     1      -7.827  10.812  68.918  1.00  0.00    -0.136 A  
HETATM   26  C   UNL     1      -9.163  10.405  68.769  1.00  0.00    -0.172 A  
BRANCH  24  27
HETATM   27  O   UNL     1      -5.556  10.445  69.350  1.00  0.00    -0.038 OA 
BRANCH  27  28
HETATM   28  C   UNL     1      -5.377  11.769  68.841  1.00  0.00    -0.050 C  
BRANCH  28  29
HETATM   29  C   UNL     1      -5.829  11.804  67.379  1.00  0.00    -0.104 C  
BRANCH  29  30
HETATM   30  C   UNL     1      -5.896  10.398  66.764  1.00  0.00    -0.058 C  
BRANCH  30  31
HETATM   31  C   UNL     1      -5.792   9.269  67.810  1.00  0.00    -0.045 C  
BRANCH  31  32
HETATM   32  N   UNL     1      -6.468   8.030  67.402  1.00  0.00    -0.056 NA 
HETATM   33  C   UNL     1      -5.601   6.836  67.466  1.00  0.00    -0.016 C  
HETATM   34  C   UNL     1      -5.334   6.338  68.899  1.00  0.00    -0.011 C  
HETATM   35  N   UNL     1      -6.613   5.926  69.503  1.00  0.00    -0.042 NA 
HETATM   36  C   UNL     1      -7.603   7.020  69.541  1.00  0.00    -0.098 C  
HETATM   37  C   UNL     1      -7.706   7.771  68.176  1.00  0.00    -0.119 C  
BRANCH  35  38
HETATM   38  C   UNL     1      -6.768   4.669  70.080  1.00  0.00    -0.037 A  
HETATM   39  C   UNL     1      -7.931   3.851  70.038  1.00  0.00    -0.050 A  
HETATM   40 CL   UNL     1      -9.433   4.421  69.357  1.00  0.00    -0.233 Cl 
HETATM   41  C   UNL     1      -7.940   2.569  70.641  1.00  0.00    -0.042 A  
HETATM   42  C   UNL     1      -6.829   2.092  71.338  1.00  0.00    -0.031 A  
HETATM   43 CL   UNL     1      -9.307   1.500  70.568  1.00  0.00    -0.158 Cl 
HETATM   44  C   UNL     1      -5.690   2.871  71.413  1.00  0.00    -0.013 A  
HETATM   45  C   UNL     1      -5.662   4.114  70.774  1.00  0.00    -0.013 A  
ENDBRANCH  35  38
ENDBRANCH  31  32
ENDBRANCH  30  31
ENDBRANCH  29  30
ENDBRANCH  28  29
ENDBRANCH  27  28
ENDBRANCH  24  27
ENDBRANCH  15  16
ENDBRANCH  14  15
ENDBRANCH  12  14
ENDBRANCH  11  12
ENDBRANCH  10  11
ENDBRANCH   9  10
ENDBRANCH   8   9
ENDBRANCH   7   8
ENDBRANCH   6   7
ENDBRANCH   5   6
ENDBRANCH   4   5
ENDBRANCH   3   4
ENDBRANCH   2   3
TORSDOF 20
ENDMDL
MODEL      184
REMARK 921   NORMALIZED FREE ENERGY PREDICTED BY IDOCK:   35.94 KCAL/MOL
REMARK 922        TOTAL FREE ENERGY PREDICTED BY IDOCK:   74.12 KCAL/MOL
REMARK 923 INTER-LIGAND FREE ENERGY PREDICTED BY IDOCK:   69.98 KCAL/MOL
REMARK 924 INTRA-LIGAND FREE ENERGY PREDICTED BY IDOCK:    4.14 KCAL/MOL
REMARK 927      BINDING AFFINITY PREDICTED BY RF-SCORE:    0.00 PKD
ROOT
HETATM    1  C   UNL     1      -5.451  11.956  70.392  1.00  0.00    -0.142 C  
HETATM    2  C   UNL     1      -6.607  11.817  71.368  1.00  0.00     2.941 C  
ENDROOT
BRANCH   2   3
HETATM    3  C   UNL     1      -7.929  11.587  70.636  1.00  0.00     4.276 C  
BRANCH   3   4
HETATM    4  C   UNL     1      -8.852  10.665  71.432  1.00  0.00     5.475 C  
BRANCH   4   5
HETATM    5  C   UNL     1      -8.638  10.838  72.936  1.00  0.00    13.495 C  
BRANCH   5   6
HETATM    6  C   UNL     1      -9.632  11.839  73.524  1.00  0.00    23.904 C  
BRANCH   6   7
HETATM    7  C   UNL     1     -10.612  12.336  72.460  1.00  0.00    13.967 C  
BRANCH   7   8
HETATM    8  C   UNL     1     -10.804  13.849  72.559  1.00  0.00     4.784 C  
BRANCH   8   9
HETATM    9  C   UNL     1     -10.952  14.483  71.175  1.00  0.00     0.554 C  
BRANCH   9  10
HETATM   10  C   UNL     1      -9.614  15.046  70.689  1.00  0.00     1.110 C  
BRANCH  10  11
HETATM   11  C   UNL     1      -9.424  14.888  69.182  1.00  0.00    -0.158 C  
BRANCH  11  12
HETATM   12  C   UNL     1      -9.770  16.138  68.407  1.00  0.00    -0.219 C  
HETATM   13  O   UNL     1     -10.223  17.166  68.888  1.00  0.00    -0.299 OA 
BRANCH  12  14
HETATM   14  O   UNL     1      -9.474  15.942  67.094  1.00  0.00    -0.209 OA 
BRANCH  14  15
HETATM   15  C   UNL     1      -9.595  14.596  66.613  1.00  0.00    -0.278 C  
BRANCH  15  16
HETATM   16  N   UNL     1     -10.960  14.243  66.255  1.00  0.00    -0.312 N  
HETATM   17  C   UNL     1     -11.947  14.915  66.974  1.00  0.00    -0.107 C  
HETATM   18  C   UNL     1     -13.284  14.232  67.044  1.00  0.00     2.503 C  
HETATM   19  O   UNL     1     -11.735  15.939  67.618  1.00  0.00    -0.076 OA 
HETATM   20  C   UNL     1     -13.746  13.725  65.702  1.00  0.00     1.843 C  
HETATM   21  C   UNL     1     -12.645  13.055  64.932  1.00  0.00    -0.490 A  
HETATM   22  C   UNL     1     -12.995  12.176  63.895  1.00  0.00    -0.323 A  
HETATM   23  C   UNL     1     -12.020  11.607  63.078  1.00  0.00     0.066 A  
HETATM   24  C   UNL     1     -10.685  11.941  63.273  1.00  0.00    -0.353 A  
HETATM   25  C   UNL     1     -10.333  12.808  64.316  1.00  0.00    -0.402 A  
HETATM   26  C   UNL     1     -11.296  13.361  65.178  1.00  0.00    -0.299 A  
BRANCH  24  27
HETATM   27  O   UNL     1      -9.636  11.455  62.538  1.00  0.00    -0.249 OA 
BRANCH  27  28
HETATM   28  C   UNL     1      -9.026  10.255  63.019  1.00  0.00    -0.247 C  
BRANCH  28  29
HETATM   29  C   UNL     1      -8.314  10.557  64.340  1.00  0.00    -0.097 C  
BRANCH  29  30
HETATM   30  C   UNL     1      -6.787  10.598  64.174  1.00  0.00     0.237 C  
BRANCH  30  31
HETATM   31  C   UNL     1      -6.024  10.451  65.507  1.00  0.00    -0.123 C  
BRANCH  31  32
HETATM   32  N   UNL     1      -6.901  10.441  66.684  1.00  0.00    -0.093 NA 
HETATM   33  C   UNL     1      -7.751   9.236  66.778  1.00  0.00    -0.094 C  
HETATM   34  C   UNL     1      -6.987   7.970  67.210  1.00  0.00    -0.075 C  
HETATM   35  N   UNL     1      -6.454   8.179  68.567  1.00  0.00    -0.053 NA 
HETATM   36  C   UNL     1      -5.555   9.347  68.651  1.00  0.00    -0.040 C  
HETATM   37  C   UNL     1      -6.157  10.608  67.955  1.00  0.00    -0.050 C  
BRANCH  35  38
HETATM   38  C   UNL     1      -6.698   7.265  69.588  1.00  0.00    -0.045 A  
HETATM   39  C   UNL     1      -6.145   5.961  69.713  1.00  0.00    -0.026 A  
HETATM   40 CL   UNL     1      -5.165   5.253  68.455  1.00  0.00    -0.003 Cl 
HETATM   41  C   UNL     1      -6.454   5.145  70.829  1.00  0.00    -0.027 A  
HETATM   42  C   UNL     1      -7.348   5.573  71.811  1.00  0.00    -0.091 A  
HETATM   43 CL   UNL     1      -5.760   3.571  71.069  1.00  0.00    -0.012 Cl 
HETATM   44  C   UNL     1      -7.916   6.828  71.709  1.00  0.00    -0.101 A  
HETATM   45  C   UNL     1      -7.573   7.655  70.635  1.00  0.00    -0.080 A  
ENDBRANCH  35  38
ENDBRANCH  31  32
ENDBRANCH  30  31
ENDBRANCH  29  30
ENDBRANCH  28  29
ENDBRANCH  27  28
ENDBRANCH  24  27
ENDBRANCH  15  16
ENDBRANCH  14  15
ENDBRANCH  12  14
ENDBRANCH  11  12
ENDBRANCH  10  11
ENDBRANCH   9  10
ENDBRANCH   8   9
ENDBRANCH   7   8
ENDBRANCH   6   7
ENDBRANCH   5   6
ENDBRANCH   4   5
ENDBRANCH   3   4
ENDBRANCH   2   3
TORSDOF 20
ENDMDL
MODEL      185
REMARK 921   NORMALIZED FREE ENERGY PREDICTED BY IDOCK:   46.42 KCAL/MOL
REMARK 922        TOTAL FREE ENERGY PREDICTED BY IDOCK:   96.85 KCAL/MOL
REMARK 923 INTER-LIGAND FREE ENERGY PREDICTED BY IDOCK:   26.97 KCAL/MOL
REMARK 924 INTRA-LIGAND FREE ENERGY PREDICTED BY IDOCK:   69.87 KCAL/MOL
REMARK 927      BINDING AFFINITY PREDICTED BY RF-SCORE:    0.00 PKD
ROOT
HETATM    1  C   UNL     1     -10.056  18.615  67.387  1.00  0.00    -0.397 C  
HETATM    2  C   UNL     1      -8.957  19.636  67.141  1.00  0.00    -0.385 C  
ENDROOT
BRANCH   2   3
HETATM    3  C   UNL     1      -9.431  20.752  66.211  1.00  0.00     0.193 C  
BRANCH   3   4
HETATM    4  C   UNL     1      -9.597  20.249  64.778  1.00  0.00     2.099 C  
BRANCH   4   5
HETATM    5  C   UNL     1      -8.576  19.157  64.457  1.00  0.00     5.192 C  
BRANCH   5   6
HETATM    6  C   UNL     1      -8.496  18.127  65.584  1.00  0.00     0.602 C  
BRANCH   6   7
HETATM    7  C   UNL     1      -9.870  17.531  65.888  1.00  0.00    -0.113 C  
BRANCH   7   8
HETATM    8  C   UNL     1      -9.941  16.069  65.449  1.00  0.00    -0.187 C  
BRANCH   8   9
HETATM    9  C   UNL     1     -10.695  15.920  64.127  1.00  0.00     1.064 C  
BRANCH   9  10
HETATM   10  C   UNL     1     -11.810  16.962  64.016  1.00  0.00     2.136 C  
BRANCH  10  11
HETATM   11  C   UNL     1     -11.465  18.270  64.725  1.00  0.00     3.020 C  
BRANCH  11  12
HETATM   12  C   UNL     1     -11.404  18.130  66.229  1.00  0.00     1.216 C  
HETATM   13  O   UNL     1     -12.332  18.336  66.997  1.00  0.00     3.495 OA 
BRANCH  12  14
HETATM   14  O   UNL     1     -10.159  17.716  66.586  1.00  0.00    -0.306 OA 
BRANCH  14  15
HETATM   15  C   UNL     1     -10.088  16.486  67.321  1.00  0.00    -0.273 C  
BRANCH  15  16
HETATM   16  N   UNL     1     -11.021  16.438  68.437  1.00  0.00    -0.341 N  
HETATM   17  C   UNL     1     -11.711  17.626  68.673  1.00  0.00     1.904 C  
HETATM   18  C   UNL     1     -12.240  17.807  70.069  1.00  0.00     7.385 C  
HETATM   19  O   UNL     1     -11.794  18.536  67.853  1.00  0.00     1.322 OA 
HETATM   20  C   UNL     1     -12.946  16.578  70.584  1.00  0.00     2.797 C  
HETATM   21  C   UNL     1     -12.202  15.314  70.263  1.00  0.00    -0.403 A  
HETATM   22  C   UNL     1     -12.484  14.165  71.018  1.00  0.00    -0.438 A  
HETATM   23  C   UNL     1     -11.904  12.937  70.699  1.00  0.00    -0.044 A  
HETATM   24  C   UNL     1     -11.061  12.845  69.598  1.00  0.00     0.094 A  
HETATM   25  C   UNL     1     -10.770  13.994  68.851  1.00  0.00    -0.265 A  
HETATM   26  C   UNL     1     -11.310  15.249  69.180  1.00  0.00    -0.297 A  
BRANCH  24  27
HETATM   27  O   UNL     1     -10.435  11.701  69.180  1.00  0.00    -0.172 OA 
BRANCH  27  28
HETATM   28  C   UNL     1      -9.618  11.816  68.012  1.00  0.00    -0.187 C  
BRANCH  28  29
HETATM   29  C   UNL     1     -10.148  10.861  66.940  1.00  0.00    -0.253 C  
BRANCH  29  30
HETATM   30  C   UNL     1     -11.262   9.951  67.480  1.00  0.00     0.010 C  
BRANCH  30  31
HETATM   31  C   UNL     1     -10.809   8.494  67.697  1.00  0.00    -0.002 C  
BRANCH  31  32
HETATM   32  N   UNL     1      -9.724   8.359  68.677  1.00  0.00    -0.160 NA 
HETATM   33  C   UNL     1     -10.137   7.686  69.926  1.00  0.00    -0.198 C  
HETATM   34  C   UNL     1     -10.328   6.164  69.777  1.00  0.00    -0.211 C  
HETATM   35  N   UNL     1      -9.035   5.558  69.415  1.00  0.00    -0.105 NA 
HETATM   36  C   UNL     1      -8.481   6.107  68.162  1.00  0.00    -0.116 C  
HETATM   37  C   UNL     1      -8.535   7.667  68.125  1.00  0.00    -0.124 C  
BRANCH  35  38
HETATM   38  C   UNL     1      -8.508   4.493  70.139  1.00  0.00    -0.073 A  
HETATM   39  C   UNL     1      -7.297   4.490  70.886  1.00  0.00    -0.051 A  
HETATM   40 CL   UNL     1      -6.191   5.839  70.854  1.00  0.00    -0.033 Cl 
HETATM   41  C   UNL     1      -6.894   3.341  71.611  1.00  0.00    -0.030 A  
HETATM   42  C   UNL     1      -7.643   2.164  71.573  1.00  0.00    -0.040 A  
HETATM   43 CL   UNL     1      -5.461   3.297  72.591  1.00  0.00     0.000 Cl 
HETATM   44  C   UNL     1      -8.815   2.130  70.841  1.00  0.00    -0.128 A  
HETATM   45  C   UNL     1      -9.240   3.279  70.167  1.00  0.00    -0.226 A  
ENDBRANCH  35  38
ENDBRANCH  31  32
ENDBRANCH  30  31
ENDBRANCH  29  30
ENDBRANCH  28  29
ENDBRANCH  27  28
ENDBRANCH  24  27
ENDBRANCH  15  16
ENDBRANCH  14  15
ENDBRANCH  12  14
ENDBRANCH  11  12
ENDBRANCH  10  11
ENDBRANCH   9  10
ENDBRANCH   8   9
ENDBRANCH   7   8
ENDBRANCH   6   7
ENDBRANCH   5   6
ENDBRANCH   4   5
ENDBRANCH   3   4
ENDBRANCH   2   3
TORSDOF 20
ENDMDL
MODEL      186
REMARK 921   NORMALIZED FREE ENERGY PREDICTED BY IDOCK:   55.84 KCAL/MOL
REMARK 922        TOTAL FREE ENERGY PREDICTED BY IDOCK:  117.28 KCAL/MOL
REMARK 923 INTER-LIGAND FREE ENERGY PREDICTED BY IDOCK:   43.98 KCAL/MOL
REMARK 924 INTRA-LIGAND FREE ENERGY PREDICTED BY IDOCK:   73.30 KCAL/MOL
REMARK 927      BINDING AFFINITY PREDICTED BY RF-SCORE:    0.00 PKD
ROOT
HETATM    1  C   UNL     1     -10.058  18.616  67.385  1.00  0.00    -0.397 C  
HETATM    2  C   UNL     1      -8.955  19.632  67.140  1.00  0.00    -0.385 C  
ENDROOT
BRANCH   2   3
HETATM    3  C   UNL     1      -9.427  20.753  66.215  1.00  0.00     0.193 C  
BRANCH   3   4
HETATM    4  C   UNL     1      -9.607  20.252  64.782  1.00  0.00     2.099 C  
BRANCH   4   5
HETATM    5  C   UNL     1      -8.615  19.134  64.462  1.00  0.00     5.192 C  
BRANCH   5   6
HETATM    6  C   UNL     1      -8.567  18.099  65.585  1.00  0.00     0.644 C  
BRANCH   6   7
HETATM    7  C   UNL     1      -9.960  17.547  65.889  1.00  0.00    -0.155 C  
BRANCH   7   8
HETATM    8  C   UNL     1     -10.079  16.089  65.447  1.00  0.00    -0.260 C  
BRANCH   8   9
HETATM    9  C   UNL     1     -10.828  15.970  64.119  1.00  0.00     0.814 C  
BRANCH   9  10
HETATM   10  C   UNL     1     -11.894  17.062  63.995  1.00  0.00     2.612 C  
BRANCH  10  11
HETATM   11  C   UNL     1     -11.494  18.355  64.701  1.00  0.00     3.611 C  
BRANCH  11  12
HETATM   12  C   UNL     1     -11.462  18.224  66.206  1.00  0.00     1.603 C  
HETATM   13  O   UNL     1     -12.386  18.491  66.960  1.00  0.00     3.376 OA 
BRANCH  12  14
HETATM   14  O   UNL     1     -10.249  17.738  66.583  1.00  0.00    -0.332 OA 
BRANCH  14  15
HETATM   15  C   UNL     1     -10.262  16.513  67.330  1.00  0.00    -0.287 C  
BRANCH  15  16
HETATM   16  N   UNL     1     -11.461  16.355  68.138  1.00  0.00    -0.213 N  
HETATM   17  C   UNL     1     -12.246  17.502  68.249  1.00  0.00     3.006 C  
HETATM   18  C   UNL     1     -13.147  17.562  69.453  1.00  0.00     9.854 C  
HETATM   19  O   UNL     1     -12.146  18.467  67.497  1.00  0.00     2.036 OA 
HETATM   20  C   UNL     1     -13.906  16.278  69.673  1.00  0.00     4.393 C  
HETATM   21  C   UNL     1     -13.042  15.063  69.490  1.00  0.00     0.662 A  
HETATM   22  C   UNL     1     -13.463  13.854  70.064  1.00  0.00     1.249 A  
HETATM   23  C   UNL     1     -12.759  12.671  69.840  1.00  0.00     0.362 A  
HETATM   24  C   UNL     1     -11.643  12.686  69.013  1.00  0.00    -0.317 A  
HETATM   25  C   UNL     1     -11.215  13.895  68.450  1.00  0.00    -0.291 A  
HETATM   26  C   UNL     1     -11.884  15.106  68.695  1.00  0.00    -0.302 A  
BRANCH  24  27
HETATM   27  O   UNL     1     -10.872  11.595  68.712  1.00  0.00    -0.202 OA 
BRANCH  27  28
HETATM   28  C   UNL     1      -9.771  11.820  67.827  1.00  0.00    -0.183 C  
BRANCH  28  29
HETATM   29  C   UNL     1      -9.942  10.938  66.589  1.00  0.00    -0.250 C  
BRANCH  29  30
HETATM   30  C   UNL     1     -11.121   9.964  66.734  1.00  0.00     0.172 C  
BRANCH  30  31
HETATM   31  C   UNL     1     -10.999   8.719  65.833  1.00  0.00     2.518 C  
BRANCH  31  32
HETATM   32  N   UNL     1      -9.684   8.070  65.906  1.00  0.00     0.069 NA 
HETATM   33  C   UNL     1      -9.715   6.743  66.553  1.00  0.00    -0.125 C  
HETATM   34  C   UNL     1     -10.324   5.636  65.671  1.00  0.00     0.464 C  
HETATM   35  N   UNL     1      -9.483   5.467  64.475  1.00  0.00     0.514 NA 
HETATM   36  C   UNL     1      -9.360   6.709  63.687  1.00  0.00     2.249 C  
HETATM   37  C   UNL     1      -9.031   7.947  64.581  1.00  0.00     0.632 C  
BRANCH  35  38
HETATM   38  C   UNL     1      -8.994   4.218  64.105  1.00  0.00    -0.148 A  
HETATM   39  C   UNL     1      -7.629   3.825  64.036  1.00  0.00    -0.075 A  
HETATM   40 CL   UNL     1      -6.329   4.966  64.270  1.00  0.00    -0.032 Cl 
HETATM   41  C   UNL     1      -7.271   2.502  63.678  1.00  0.00    -0.048 A  
HETATM   42  C   UNL     1      -8.241   1.561  63.329  1.00  0.00    -0.061 A  
HETATM   43 CL   UNL     1      -5.626   1.945  63.639  1.00  0.00    -0.008 Cl 
HETATM   44  C   UNL     1      -9.576   1.918  63.368  1.00  0.00    -0.105 A  
HETATM   45  C   UNL     1      -9.933   3.207  63.772  1.00  0.00    -0.165 A  
ENDBRANCH  35  38
ENDBRANCH  31  32
ENDBRANCH  30  31
ENDBRANCH  29  30
ENDBRANCH  28  29
ENDBRANCH  27  28
ENDBRANCH  24  27
ENDBRANCH  15  16
ENDBRANCH  14  15
ENDBRANCH  12  14
ENDBRANCH  11  12
ENDBRANCH  10  11
ENDBRANCH   9  10
ENDBRANCH   8   9
ENDBRANCH   7   8
ENDBRANCH   6   7
ENDBRANCH   5   6
ENDBRANCH   4   5
ENDBRANCH   3   4
ENDBRANCH   2   3
TORSDOF 20
ENDMDL
MODEL      187
REMARK 921   NORMALIZED FREE ENERGY PREDICTED BY IDOCK:   58.05 KCAL/MOL
REMARK 922        TOTAL FREE ENERGY PREDICTED BY IDOCK:  122.08 KCAL/MOL
REMARK 923 INTER-LIGAND FREE ENERGY PREDICTED BY IDOCK:  113.40 KCAL/MOL
REMARK 924 INTRA-LIGAND FREE ENERGY PREDICTED BY IDOCK:    8.68 KCAL/MOL
REMARK 927      BINDING AFFINITY PREDICTED BY RF-SCORE:    0.00 PKD
ROOT
HETATM    1  C   UNL     1      -8.254  18.065  64.251  1.00  0.00     8.645 C  
HETATM    2  C   UNL     1      -9.619  18.624  63.883  1.00  0.00    11.884 C  
ENDROOT
BRANCH   2   3
HETATM    3  C   UNL     1     -10.687  17.531  63.888  1.00  0.00     5.574 C  
BRANCH   3   4
HETATM    4  C   UNL     1     -11.481  17.524  62.582  1.00  0.00    15.088 C  
BRANCH   4   5
HETATM    5  C   UNL     1     -12.846  18.189  62.766  1.00  0.00    22.064 C  
BRANCH   5   6
HETATM    6  C   UNL     1     -13.590  17.601  63.964  1.00  0.00    14.093 C  
BRANCH   6   7
HETATM    7  C   UNL     1     -13.040  18.150  65.281  1.00  0.00    13.558 C  
BRANCH   7   8
HETATM    8  C   UNL     1     -13.019  17.066  66.358  1.00  0.00     7.508 C  
BRANCH   8   9
HETATM    9  C   UNL     1     -11.813  17.226  67.286  1.00  0.00     1.784 C  
BRANCH   9  10
HETATM   10  C   UNL     1     -11.246  18.645  67.200  1.00  0.00     0.276 C  
BRANCH  10  11
HETATM   11  C   UNL     1      -9.807  18.734  67.701  1.00  0.00    -0.365 C  
BRANCH  11  12
HETATM   12  C   UNL     1      -9.367  17.505  68.463  1.00  0.00    -0.286 C  
HETATM   13  O   UNL     1      -8.525  16.703  68.087  1.00  0.00    -0.188 OA 
BRANCH  12  14
HETATM   14  O   UNL     1     -10.042  17.450  69.642  1.00  0.00    -0.046 OA 
BRANCH  14  15
HETATM   15  C   UNL     1     -11.136  16.524  69.702  1.00  0.00    -0.235 C  
BRANCH  15  16
HETATM   16  N   UNL     1     -11.370  16.008  71.042  1.00  0.00    -0.393 N  
HETATM   17  C   UNL     1     -11.541  16.983  72.022  1.00  0.00     0.710 C  
HETATM   18  C   UNL     1     -11.245  16.551  73.432  1.00  0.00     1.546 C  
HETATM   19  O   UNL     1     -11.799  18.158  71.772  1.00  0.00     3.933 OA 
HETATM   20  C   UNL     1     -11.874  15.224  73.774  1.00  0.00    -0.363 C  
HETATM   21  C   UNL     1     -11.719  14.216  72.673  1.00  0.00     0.969 A  
HETATM   22  C   UNL     1     -11.855  12.855  72.991  1.00  0.00     5.033 A  
HETATM   23  C   UNL     1     -11.827  11.880  71.995  1.00  0.00     2.582 A  
HETATM   24  C   UNL     1     -11.694  12.264  70.666  1.00  0.00     0.266 A  
HETATM   25  C   UNL     1     -11.545  13.620  70.349  1.00  0.00    -0.112 A  
HETATM   26  C   UNL     1     -11.529  14.617  71.340  1.00  0.00    -0.058 A  
BRANCH  24  27
HETATM   27  O   UNL     1     -11.656  11.406  69.599  1.00  0.00    -0.274 OA 
BRANCH  27  28
HETATM   28  C   UNL     1     -11.933  10.032  69.879  1.00  0.00    -0.016 C  
BRANCH  28  29
HETATM   29  C   UNL     1     -11.685   9.208  68.614  1.00  0.00     1.175 C  
BRANCH  29  30
HETATM   30  C   UNL     1     -10.616   9.845  67.713  1.00  0.00    -0.313 C  
BRANCH  30  31
HETATM   31  C   UNL     1      -9.973  11.106  68.325  1.00  0.00    -0.187 C  
BRANCH  31  32
HETATM   32  N   UNL     1      -9.336  11.979  67.331  1.00  0.00    -0.175 NA 
HETATM   33  C   UNL     1      -9.706  13.402  67.472  1.00  0.00    -0.224 C  
HETATM   34  C   UNL     1      -9.033  14.103  68.668  1.00  0.00    -0.132 C  
HETATM   35  N   UNL     1      -7.575  14.096  68.462  1.00  0.00    -0.123 NA 
HETATM   36  C   UNL     1      -7.027  12.733  68.321  1.00  0.00    -0.097 C  
HETATM   37  C   UNL     1      -7.859  11.861  67.328  1.00  0.00    -0.168 C  
BRANCH  35  38
HETATM   38  C   UNL     1      -6.830  15.269  68.535  1.00  0.00    -0.112 A  
HETATM   39  C   UNL     1      -6.655  16.232  67.502  1.00  0.00    -0.164 A  
HETATM   40 CL   UNL     1      -7.257  15.968  65.886  1.00  0.00     1.541 Cl 
HETATM   41  C   UNL     1      -5.894  17.406  67.726  1.00  0.00    -0.127 A  
HETATM   42  C   UNL     1      -5.251  17.629  68.944  1.00  0.00    -0.159 A  
HETATM   43 CL   UNL     1      -5.699  18.647  66.527  1.00  0.00    -0.170 Cl 
HETATM   44  C   UNL     1      -5.387  16.703  69.961  1.00  0.00    -0.187 A  
HETATM   45  C   UNL     1      -6.179  15.569  69.760  1.00  0.00    -0.159 A  
ENDBRANCH  35  38
ENDBRANCH  31  32
ENDBRANCH  30  31
ENDBRANCH  29  30
ENDBRANCH  28  29
ENDBRANCH  27  28
ENDBRANCH  24  27
ENDBRANCH  15  16
ENDBRANCH  14  15
ENDBRANCH  12  14
ENDBRANCH  11  12
ENDBRANCH  10  11
ENDBRANCH   9  10
ENDBRANCH   8   9
ENDBRANCH   7   8
ENDBRANCH   6   7
ENDBRANCH   5   6
ENDBRANCH   4   5
ENDBRANCH   3   4
ENDBRANCH   2   3
TORSDOF 20
ENDMDL
