MODEL        1
REMARK 921   NORMALIZED FREE ENERGY PREDICTED BY IDOCK:   -7.36 KCAL/MOL
REMARK 922        TOTAL FREE ENERGY PREDICTED BY IDOCK:  -11.97 KCAL/MOL
REMARK 923 INTER-LIGAND FREE ENERGY PREDICTED BY IDOCK:  -10.37 KCAL/MOL
REMARK 924 INTRA-LIGAND FREE ENERGY PREDICTED BY IDOCK:   -1.60 KCAL/MOL
REMARK 927      BINDING AFFINITY PREDICTED BY RF-SCORE:    0.00 PKD
ROOT
HETATM    1 CL   UNL     1     -10.827   7.523  73.092  1.00  0.00    -0.445 Cl 
HETATM    2  C   UNL     1     -11.345   8.748  71.977  1.00  0.00    -0.371 A  
HETATM    3  C   UNL     1     -12.565   9.360  72.255  1.00  0.00    -0.378 A  
HETATM    4  C   UNL     1     -13.049  10.337  71.398  1.00  0.00    -0.512 A  
HETATM    5  C   UNL     1     -12.334  10.665  70.245  1.00  0.00    -0.406 A  
HETATM    6  C   UNL     1     -11.101  10.064  69.907  1.00  0.00    -0.288 A  
HETATM    7  C   UNL     1     -10.593   9.112  70.838  1.00  0.00    -0.273 A  
HETATM    8 CL   UNL     1      -8.987   8.447  70.684  1.00  0.00    -0.155 Cl 
ENDROOT
BRANCH   6   9
HETATM    9  N   UNL     1     -10.518  10.400  68.691  1.00  0.00    -0.184 NA 
HETATM   10  C   UNL     1      -9.551  11.506  68.564  1.00  0.00    -0.178 C  
HETATM   11  C   UNL     1      -8.368  11.118  67.648  1.00  0.00    -0.122 C  
HETATM   12  N   UNL     1      -8.754  10.578  66.325  1.00  0.00    -0.147 NA 
HETATM   13  C   UNL     1     -10.898   9.740  67.424  1.00  0.00    -0.197 C  
HETATM   14  C   UNL     1      -9.644   9.418  66.575  1.00  0.00    -0.208 C  
BRANCH  12  15
HETATM   15  C   UNL     1      -9.420  11.587  65.483  1.00  0.00    -0.212 C  
BRANCH  15  16
HETATM   16  C   UNL     1     -10.105  10.998  64.235  1.00  0.00    -0.398 C  
BRANCH  16  17
HETATM   17  C   UNL     1     -10.787  12.034  63.336  1.00  0.00    -0.471 C  
BRANCH  17  18
HETATM   18  C   UNL     1     -12.229  12.253  63.766  1.00  0.00    -0.546 C  
BRANCH  18  19
HETATM   19  O   UNL     1     -12.537  13.645  63.813  1.00  0.00    -0.705 OA 
BRANCH  19  20
HETATM   20  C   UNL     1     -11.960  14.301  64.874  1.00  0.00    -0.425 A  
HETATM   21  C   UNL     1     -12.351  13.852  66.138  1.00  0.00    -0.504 A  
HETATM   22  C   UNL     1     -11.823  14.460  67.277  1.00  0.00    -0.405 A  
HETATM   23  C   UNL     1     -10.903  15.511  67.168  1.00  0.00    -0.316 A  
HETATM   24  C   UNL     1     -10.493  15.929  65.904  1.00  0.00    -0.373 A  
HETATM   25  C   UNL     1     -10.276  16.086  68.404  1.00  0.00    -0.236 C  
HETATM   26  C   UNL     1     -11.012  15.324  64.766  1.00  0.00    -0.403 A  
HETATM   27  C   UNL     1     -11.182  15.945  69.614  1.00  0.00    -0.331 C  
HETATM   28  C   UNL     1     -11.799  14.569  69.717  1.00  0.00    -0.315 C  
HETATM   29  O   UNL     1     -12.056  14.046  70.796  1.00  0.00    -0.331 OA 
HETATM   30  N   UNL     1     -12.178  13.982  68.541  1.00  0.00    -0.537 N  
HETATM   31  H   UNL     1     -12.756  13.143  68.589  1.00  0.00     0.000 HD 
ENDBRANCH  19  20
ENDBRANCH  18  19
ENDBRANCH  17  18
ENDBRANCH  16  17
ENDBRANCH  15  16
ENDBRANCH  12  15
ENDBRANCH   6   9
TORSDOF 7
ENDMDL
MODEL        2
REMARK 921   NORMALIZED FREE ENERGY PREDICTED BY IDOCK:   -7.02 KCAL/MOL
REMARK 922        TOTAL FREE ENERGY PREDICTED BY IDOCK:  -11.50 KCAL/MOL
REMARK 923 INTER-LIGAND FREE ENERGY PREDICTED BY IDOCK:  -10.26 KCAL/MOL
REMARK 924 INTRA-LIGAND FREE ENERGY PREDICTED BY IDOCK:   -1.24 KCAL/MOL
REMARK 927      BINDING AFFINITY PREDICTED BY RF-SCORE:    0.00 PKD
ROOT
HETATM    1 CL   UNL     1      -7.413  19.792  69.172  1.00  0.00    -0.321 Cl 
HETATM    2  C   UNL     1      -8.583  19.196  68.037  1.00  0.00    -0.310 A  
HETATM    3  C   UNL     1      -9.386  20.152  67.418  1.00  0.00    -0.513 A  
HETATM    4  C   UNL     1     -10.354  19.746  66.510  1.00  0.00    -0.621 A  
HETATM    5  C   UNL     1     -10.543  18.387  66.260  1.00  0.00    -0.343 A  
HETATM    6  C   UNL     1      -9.768  17.376  66.870  1.00  0.00    -0.286 A  
HETATM    7  C   UNL     1      -8.737  17.822  67.748  1.00  0.00    -0.241 A  
HETATM    8 CL   UNL     1      -7.553  16.721  68.405  1.00  0.00    -0.195 Cl 
ENDROOT
BRANCH   6   9
HETATM    9  N   UNL     1     -10.099  16.050  66.617  1.00  0.00    -0.269 NA 
HETATM   10  C   UNL     1     -10.768  15.203  67.622  1.00  0.00    -0.285 C  
HETATM   11  C   UNL     1     -11.879  14.341  66.982  1.00  0.00    -0.428 C  
HETATM   12  N   UNL     1     -11.456  13.554  65.802  1.00  0.00    -0.310 NA 
HETATM   13  C   UNL     1      -9.715  15.366  65.364  1.00  0.00    -0.215 C  
HETATM   14  C   UNL     1     -10.890  14.514  64.823  1.00  0.00    -0.393 C  
BRANCH  12  15
HETATM   15  C   UNL     1     -10.478  12.509  66.149  1.00  0.00    -0.249 C  
BRANCH  15  16
HETATM   16  C   UNL     1     -10.906  11.092  65.717  1.00  0.00    -0.218 C  
BRANCH  16  17
HETATM   17  C   UNL     1     -10.405   9.971  66.632  1.00  0.00    -0.281 C  
BRANCH  17  18
HETATM   18  C   UNL     1     -10.044  10.518  68.005  1.00  0.00    -0.165 C  
BRANCH  18  19
HETATM   19  O   UNL     1     -10.574   9.687  69.036  1.00  0.00    -0.209 OA 
BRANCH  19  20
HETATM   20  C   UNL     1     -11.403  10.353  69.908  1.00  0.00    -0.302 A  
HETATM   21  C   UNL     1     -11.490  11.734  69.711  1.00  0.00    -0.320 A  
HETATM   22  C   UNL     1     -12.302  12.498  70.549  1.00  0.00    -0.262 A  
HETATM   23  C   UNL     1     -13.033  11.896  71.582  1.00  0.00    -0.447 A  
HETATM   24  C   UNL     1     -12.967  10.515  71.749  1.00  0.00    -0.582 A  
HETATM   25  C   UNL     1     -13.973  12.722  72.411  1.00  0.00    -0.236 C  
HETATM   26  C   UNL     1     -12.163   9.749  70.914  1.00  0.00    -0.390 A  
HETATM   27  C   UNL     1     -13.530  14.171  72.490  1.00  0.00    -0.634 C  
HETATM   28  C   UNL     1     -13.112  14.723  71.147  1.00  0.00    -0.382 C  
HETATM   29  O   UNL     1     -13.273  15.901  70.843  1.00  0.00    -0.516 OA 
HETATM   30  N   UNL     1     -12.426  13.871  70.326  1.00  0.00    -0.333 N  
HETATM   31  H   UNL     1     -11.976  14.262  69.498  1.00  0.00     0.000 HD 
ENDBRANCH  19  20
ENDBRANCH  18  19
ENDBRANCH  17  18
ENDBRANCH  16  17
ENDBRANCH  15  16
ENDBRANCH  12  15
ENDBRANCH   6   9
TORSDOF 7
ENDMDL
MODEL        3
REMARK 921   NORMALIZED FREE ENERGY PREDICTED BY IDOCK:   -6.93 KCAL/MOL
REMARK 922        TOTAL FREE ENERGY PREDICTED BY IDOCK:  -11.36 KCAL/MOL
REMARK 923 INTER-LIGAND FREE ENERGY PREDICTED BY IDOCK:  -10.68 KCAL/MOL
REMARK 924 INTRA-LIGAND FREE ENERGY PREDICTED BY IDOCK:   -0.68 KCAL/MOL
REMARK 927      BINDING AFFINITY PREDICTED BY RF-SCORE:    0.00 PKD
ROOT
HETATM    1 CL   UNL     1     -11.678  15.854  69.729  1.00  0.00    -0.335 Cl 
HETATM    2  C   UNL     1     -12.404  14.565  70.636  1.00  0.00    -0.339 A  
HETATM    3  C   UNL     1     -13.267  14.942  71.663  1.00  0.00    -0.444 A  
HETATM    4  C   UNL     1     -13.872  13.965  72.440  1.00  0.00    -0.668 A  
HETATM    5  C   UNL     1     -13.577  12.620  72.216  1.00  0.00    -0.508 A  
HETATM    6  C   UNL     1     -12.698  12.183  71.200  1.00  0.00    -0.253 A  
HETATM    7  C   UNL     1     -12.141  13.203  70.373  1.00  0.00    -0.317 A  
HETATM    8 CL   UNL     1     -11.220  12.819  68.941  1.00  0.00    -0.314 Cl 
ENDROOT
BRANCH   6   9
HETATM    9  N   UNL     1     -12.405  10.827  71.121  1.00  0.00    -0.382 NA 
HETATM   10  C   UNL     1     -11.186  10.324  70.462  1.00  0.00    -0.330 C  
HETATM   11  C   UNL     1     -10.534   9.183  71.276  1.00  0.00    -0.328 C  
HETATM   12  N   UNL     1     -11.449   8.079  71.644  1.00  0.00    -0.257 NA 
HETATM   13  C   UNL     1     -13.342   9.789  71.601  1.00  0.00    -0.399 C  
HETATM   14  C   UNL     1     -12.584   8.686  72.381  1.00  0.00    -0.362 C  
BRANCH  12  15
HETATM   15  C   UNL     1     -11.919   7.328  70.468  1.00  0.00    -0.160 C  
BRANCH  15  16
HETATM   16  C   UNL     1     -10.795   6.591  69.714  1.00  0.00    -0.351 C  
BRANCH  16  17
HETATM   17  C   UNL     1     -10.989   6.519  68.196  1.00  0.00    -0.365 C  
BRANCH  17  18
HETATM   18  C   UNL     1      -9.777   7.086  67.472  1.00  0.00    -0.136 C  
BRANCH  18  19
HETATM   19  O   UNL     1      -9.636   8.480  67.735  1.00  0.00    -0.149 OA 
BRANCH  19  20
HETATM   20  C   UNL     1      -9.818   9.271  66.626  1.00  0.00    -0.245 A  
HETATM   21  C   UNL     1     -10.742  10.308  66.778  1.00  0.00    -0.216 A  
HETATM   22  C   UNL     1     -11.001  11.163  65.705  1.00  0.00    -0.091 A  
HETATM   23  C   UNL     1     -10.341  10.995  64.481  1.00  0.00    -0.420 A  
HETATM   24  C   UNL     1      -9.396   9.979  64.348  1.00  0.00    -0.348 A  
HETATM   25  C   UNL     1     -10.562  11.981  63.372  1.00  0.00    -0.478 C  
HETATM   26  C   UNL     1      -9.132   9.129  65.415  1.00  0.00    -0.271 A  
HETATM   27  C   UNL     1     -11.935  12.623  63.454  1.00  0.00    -0.613 C  
HETATM   28  C   UNL     1     -12.288  13.058  64.858  1.00  0.00    -0.459 C  
HETATM   29  O   UNL     1     -12.990  14.037  65.084  1.00  0.00    -0.744 OA 
HETATM   30  N   UNL     1     -11.889  12.227  65.870  1.00  0.00    -0.404 N  
HETATM   31  H   UNL     1     -12.265  12.396  66.803  1.00  0.00     0.000 HD 
ENDBRANCH  19  20
ENDBRANCH  18  19
ENDBRANCH  17  18
ENDBRANCH  16  17
ENDBRANCH  15  16
ENDBRANCH  12  15
ENDBRANCH   6   9
TORSDOF 7
ENDMDL
MODEL        4
REMARK 921   NORMALIZED FREE ENERGY PREDICTED BY IDOCK:   -6.92 KCAL/MOL
REMARK 922        TOTAL FREE ENERGY PREDICTED BY IDOCK:  -11.35 KCAL/MOL
REMARK 923 INTER-LIGAND FREE ENERGY PREDICTED BY IDOCK:  -10.01 KCAL/MOL
REMARK 924 INTRA-LIGAND FREE ENERGY PREDICTED BY IDOCK:   -1.34 KCAL/MOL
REMARK 927      BINDING AFFINITY PREDICTED BY RF-SCORE:    0.00 PKD
ROOT
HETATM    1 CL   UNL     1     -11.837  12.273  63.295  1.00  0.00    -0.517 Cl 
HETATM    2  C   UNL     1     -10.630  11.234  63.984  1.00  0.00    -0.386 A  
HETATM    3  C   UNL     1      -9.765  10.612  63.086  1.00  0.00    -0.375 A  
HETATM    4  C   UNL     1      -8.785   9.755  63.564  1.00  0.00    -0.234 A  
HETATM    5  C   UNL     1      -8.704   9.489  64.932  1.00  0.00    -0.218 A  
HETATM    6  C   UNL     1      -9.565  10.080  65.883  1.00  0.00    -0.224 A  
HETATM    7  C   UNL     1     -10.519  11.007  65.373  1.00  0.00    -0.241 A  
HETATM    8 CL   UNL     1     -11.502  11.986  66.432  1.00  0.00    -0.420 Cl 
ENDROOT
BRANCH   6   9
HETATM    9  N   UNL     1      -9.454   9.677  67.209  1.00  0.00    -0.141 NA 
HETATM   10  C   UNL     1     -10.395   8.718  67.819  1.00  0.00    -0.237 C  
HETATM   11  C   UNL     1      -9.656   7.693  68.708  1.00  0.00    -0.153 C  
HETATM   12  N   UNL     1      -8.749   8.283  69.719  1.00  0.00    -0.133 NA 
HETATM   13  C   UNL     1      -8.452  10.255  68.129  1.00  0.00    -0.123 C  
HETATM   14  C   UNL     1      -7.792   9.148  68.987  1.00  0.00    -0.090 C  
BRANCH  12  15
HETATM   15  C   UNL     1      -9.478   9.046  70.746  1.00  0.00    -0.251 C  
BRANCH  15  16
HETATM   16  C   UNL     1      -9.819   8.223  72.003  1.00  0.00    -0.327 C  
BRANCH  16  17
HETATM   17  C   UNL     1     -11.276   8.340  72.462  1.00  0.00    -0.446 C  
BRANCH  17  18
HETATM   18  C   UNL     1     -12.214   8.401  71.266  1.00  0.00    -0.277 C  
BRANCH  18  19
HETATM   19  O   UNL     1     -13.254   9.352  71.486  1.00  0.00    -0.355 OA 
BRANCH  19  20
HETATM   20  C   UNL     1     -12.906  10.637  71.145  1.00  0.00    -0.420 A  
HETATM   21  C   UNL     1     -13.329  11.626  72.038  1.00  0.00    -0.405 A  
HETATM   22  C   UNL     1     -13.029  12.963  71.775  1.00  0.00    -0.315 A  
HETATM   23  C   UNL     1     -12.306  13.324  70.631  1.00  0.00    -0.416 A  
HETATM   24  C   UNL     1     -11.859  12.329  69.764  1.00  0.00    -0.388 A  
HETATM   25  C   UNL     1     -11.912  14.757  70.417  1.00  0.00    -0.368 C  
HETATM   26  C   UNL     1     -12.152  10.995  70.024  1.00  0.00    -0.441 A  
HETATM   27  C   UNL     1     -12.888  15.714  71.075  1.00  0.00    -0.521 C  
HETATM   28  C   UNL     1     -13.257  15.291  72.479  1.00  0.00    -0.430 C  
HETATM   29  O   UNL     1     -13.517  16.103  73.361  1.00  0.00    -0.606 OA 
HETATM   30  N   UNL     1     -13.411  13.948  72.689  1.00  0.00    -0.555 N  
HETATM   31  H   UNL     1     -13.832  13.647  73.568  1.00  0.00     0.000 HD 
ENDBRANCH  19  20
ENDBRANCH  18  19
ENDBRANCH  17  18
ENDBRANCH  16  17
ENDBRANCH  15  16
ENDBRANCH  12  15
ENDBRANCH   6   9
TORSDOF 7
ENDMDL
MODEL        5
REMARK 921   NORMALIZED FREE ENERGY PREDICTED BY IDOCK:   -6.76 KCAL/MOL
REMARK 922        TOTAL FREE ENERGY PREDICTED BY IDOCK:  -11.13 KCAL/MOL
REMARK 923 INTER-LIGAND FREE ENERGY PREDICTED BY IDOCK:   -9.46 KCAL/MOL
REMARK 924 INTRA-LIGAND FREE ENERGY PREDICTED BY IDOCK:   -1.67 KCAL/MOL
REMARK 927      BINDING AFFINITY PREDICTED BY RF-SCORE:    0.00 PKD
ROOT
HETATM    1 CL   UNL     1     -13.266  12.361  72.092  1.00  0.00    -0.572 Cl 
HETATM    2  C   UNL     1     -12.645  13.437  70.879  1.00  0.00    -0.327 A  
HETATM    3  C   UNL     1     -12.537  14.778  71.242  1.00  0.00    -0.403 A  
HETATM    4  C   UNL     1     -12.062  15.698  70.318  1.00  0.00    -0.413 A  
HETATM    5  C   UNL     1     -11.742  15.281  69.026  1.00  0.00    -0.368 A  
HETATM    6  C   UNL     1     -11.849  13.938  68.601  1.00  0.00    -0.372 A  
HETATM    7  C   UNL     1     -12.275  13.002  69.588  1.00  0.00    -0.158 A  
HETATM    8 CL   UNL     1     -12.244  11.282  69.293  1.00  0.00    -0.352 Cl 
ENDROOT
BRANCH   6   9
HETATM    9  N   UNL     1     -11.589  13.647  67.267  1.00  0.00    -0.335 NA 
HETATM   10  C   UNL     1     -12.627  13.751  66.225  1.00  0.00    -0.321 C  
HETATM   11  C   UNL     1     -12.071  14.400  64.938  1.00  0.00    -0.436 C  
HETATM   12  N   UNL     1     -10.833  13.781  64.412  1.00  0.00    -0.380 NA 
HETATM   13  C   UNL     1     -10.286  13.117  66.814  1.00  0.00    -0.252 C  
HETATM   14  C   UNL     1      -9.834  13.817  65.508  1.00  0.00    -0.163 C  
BRANCH  12  15
HETATM   15  C   UNL     1     -11.054  12.404  63.939  1.00  0.00    -0.415 C  
BRANCH  15  16
HETATM   16  C   UNL     1      -9.829  11.785  63.239  1.00  0.00    -0.402 C  
BRANCH  16  17
HETATM   17  C   UNL     1      -9.533  10.336  63.640  1.00  0.00    -0.348 C  
BRANCH  17  18
HETATM   18  C   UNL     1     -10.018  10.060  65.055  1.00  0.00    -0.250 C  
BRANCH  18  19
HETATM   19  O   UNL     1      -9.141   9.155  65.723  1.00  0.00    -0.183 OA 
BRANCH  19  20
HETATM   20  C   UNL     1      -9.234   9.208  67.093  1.00  0.00    -0.133 A  
HETATM   21  C   UNL     1     -10.202   8.372  67.657  1.00  0.00    -0.298 A  
HETATM   22  C   UNL     1     -10.377   8.359  69.042  1.00  0.00    -0.218 A  
HETATM   23  C   UNL     1      -9.591   9.171  69.871  1.00  0.00    -0.206 A  
HETATM   24  C   UNL     1      -8.606   9.975  69.302  1.00  0.00    -0.172 A  
HETATM   25  C   UNL     1      -9.730   9.071  71.362  1.00  0.00    -0.369 C  
HETATM   26  C   UNL     1      -8.425   9.988  67.924  1.00  0.00    -0.118 A  
HETATM   27  C   UNL     1     -11.123   8.631  71.770  1.00  0.00    -0.396 C  
HETATM   28  C   UNL     1     -11.631   7.473  70.941  1.00  0.00    -0.286 C  
HETATM   29  O   UNL     1     -12.383   6.619  71.399  1.00  0.00    -0.351 OA 
HETATM   30  N   UNL     1     -11.311   7.491  69.611  1.00  0.00    -0.461 N  
HETATM   31  H   UNL     1     -11.785   6.829  68.996  1.00  0.00     0.000 HD 
ENDBRANCH  19  20
ENDBRANCH  18  19
ENDBRANCH  17  18
ENDBRANCH  16  17
ENDBRANCH  15  16
ENDBRANCH  12  15
ENDBRANCH   6   9
TORSDOF 7
ENDMDL
MODEL        6
REMARK 921   NORMALIZED FREE ENERGY PREDICTED BY IDOCK:   -6.74 KCAL/MOL
REMARK 922        TOTAL FREE ENERGY PREDICTED BY IDOCK:  -11.10 KCAL/MOL
REMARK 923 INTER-LIGAND FREE ENERGY PREDICTED BY IDOCK:   -9.81 KCAL/MOL
REMARK 924 INTRA-LIGAND FREE ENERGY PREDICTED BY IDOCK:   -1.30 KCAL/MOL
REMARK 927      BINDING AFFINITY PREDICTED BY RF-SCORE:    0.00 PKD
ROOT
HETATM    1 CL   UNL     1     -10.781  16.313  65.153  1.00  0.00    -0.403 Cl 
HETATM    2  C   UNL     1     -10.967  14.596  64.981  1.00  0.00    -0.405 A  
HETATM    3  C   UNL     1     -11.833  14.166  63.978  1.00  0.00    -0.301 A  
HETATM    4  C   UNL     1     -12.043  12.808  63.793  1.00  0.00    -0.596 A  
HETATM    5  C   UNL     1     -11.421  11.889  64.639  1.00  0.00    -0.345 A  
HETATM    6  C   UNL     1     -10.547  12.270  65.681  1.00  0.00    -0.260 A  
HETATM    7  C   UNL     1     -10.297  13.668  65.808  1.00  0.00    -0.298 A  
HETATM    8 CL   UNL     1      -9.077  14.286  66.892  1.00  0.00    -0.258 Cl 
ENDROOT
BRANCH   6   9
HETATM    9  N   UNL     1     -10.052  11.279  66.521  1.00  0.00    -0.211 NA 
HETATM   10  C   UNL     1     -10.940  10.381  67.283  1.00  0.00    -0.240 C  
HETATM   11  C   UNL     1     -10.428   8.924  67.253  1.00  0.00    -0.277 C  
HETATM   12  N   UNL     1      -9.011   8.753  67.649  1.00  0.00    -0.135 NA 
HETATM   13  C   UNL     1      -8.608  11.120  66.788  1.00  0.00    -0.157 C  
HETATM   14  C   UNL     1      -8.206   9.624  66.758  1.00  0.00    -0.113 C  
BRANCH  12  15
HETATM   15  C   UNL     1      -8.784   9.084  69.066  1.00  0.00    -0.138 C  
BRANCH  15  16
HETATM   16  C   UNL     1      -9.722   8.338  70.034  1.00  0.00    -0.176 C  
BRANCH  16  17
HETATM   17  C   UNL     1      -9.945   9.047  71.374  1.00  0.00    -0.388 C  
BRANCH  17  18
HETATM   18  C   UNL     1     -11.420   9.046  71.744  1.00  0.00    -0.372 C  
BRANCH  18  19
HETATM   19  O   UNL     1     -12.192   9.715  70.748  1.00  0.00    -0.284 OA 
BRANCH  19  20
HETATM   20  C   UNL     1     -12.433  11.038  71.036  1.00  0.00    -0.409 A  
HETATM   21  C   UNL     1     -11.828  11.956  70.173  1.00  0.00    -0.390 A  
HETATM   22  C   UNL     1     -12.009  13.323  70.386  1.00  0.00    -0.275 A  
HETATM   23  C   UNL     1     -12.793  13.784  71.452  1.00  0.00    -0.449 A  
HETATM   24  C   UNL     1     -13.420  12.862  72.287  1.00  0.00    -0.631 A  
HETATM   25  C   UNL     1     -13.052  15.254  71.607  1.00  0.00    -0.507 C  
HETATM   26  C   UNL     1     -13.246  11.499  72.076  1.00  0.00    -0.443 A  
HETATM   27  C   UNL     1     -11.925  16.089  71.029  1.00  0.00    -0.407 C  
HETATM   28  C   UNL     1     -11.475  15.597  69.673  1.00  0.00    -0.340 C  
HETATM   29  O   UNL     1     -11.051  16.356  68.808  1.00  0.00    -0.328 OA 
HETATM   30  N   UNL     1     -11.443  14.240  69.498  1.00  0.00    -0.274 N  
HETATM   31  H   UNL     1     -10.977  13.876  68.667  1.00  0.00     0.000 HD 
ENDBRANCH  19  20
ENDBRANCH  18  19
ENDBRANCH  17  18
ENDBRANCH  16  17
ENDBRANCH  15  16
ENDBRANCH  12  15
ENDBRANCH   6   9
TORSDOF 7
ENDMDL
MODEL        7
REMARK 921   NORMALIZED FREE ENERGY PREDICTED BY IDOCK:   -6.73 KCAL/MOL
REMARK 922        TOTAL FREE ENERGY PREDICTED BY IDOCK:  -11.09 KCAL/MOL
REMARK 923 INTER-LIGAND FREE ENERGY PREDICTED BY IDOCK:   -9.75 KCAL/MOL
REMARK 924 INTRA-LIGAND FREE ENERGY PREDICTED BY IDOCK:   -1.35 KCAL/MOL
REMARK 927      BINDING AFFINITY PREDICTED BY RF-SCORE:    0.00 PKD
ROOT
HETATM    1 CL   UNL     1     -10.247  19.859  65.723  1.00  0.00    -0.539 Cl 
HETATM    2  C   UNL     1     -10.389  18.485  66.774  1.00  0.00    -0.401 A  
HETATM    3  C   UNL     1     -10.200  18.726  68.133  1.00  0.00    -0.433 A  
HETATM    4  C   UNL     1     -10.284  17.672  69.031  1.00  0.00    -0.314 A  
HETATM    5  C   UNL     1     -10.511  16.377  68.561  1.00  0.00    -0.291 A  
HETATM    6  C   UNL     1     -10.694  16.076  67.193  1.00  0.00    -0.283 A  
HETATM    7  C   UNL     1     -10.669  17.185  66.299  1.00  0.00    -0.079 A  
HETATM    8 CL   UNL     1     -11.099  17.015  64.616  1.00  0.00     0.040 Cl 
ENDROOT
BRANCH   6   9
HETATM    9  N   UNL     1     -10.825  14.741  66.826  1.00  0.00    -0.310 NA 
HETATM   10  C   UNL     1     -12.123  14.042  66.860  1.00  0.00    -0.430 C  
HETATM   11  C   UNL     1     -12.315  13.150  65.613  1.00  0.00    -0.461 C  
HETATM   12  N   UNL     1     -11.201  12.215  65.337  1.00  0.00    -0.324 NA 
HETATM   13  C   UNL     1      -9.661  13.902  66.474  1.00  0.00    -0.287 C  
HETATM   14  C   UNL     1      -9.968  13.033  65.229  1.00  0.00    -0.170 C  
BRANCH  12  15
HETATM   15  C   UNL     1     -11.065  11.185  66.381  1.00  0.00    -0.138 C  
BRANCH  15  16
HETATM   16  C   UNL     1     -10.021  10.101  66.049  1.00  0.00    -0.322 C  
BRANCH  16  17
HETATM   17  C   UNL     1      -9.812   9.062  67.155  1.00  0.00    -0.262 C  
BRANCH  17  18
HETATM   18  C   UNL     1      -9.808   9.726  68.523  1.00  0.00    -0.156 C  
BRANCH  18  19
HETATM   19  O   UNL     1     -10.611   8.991  69.445  1.00  0.00    -0.226 OA 
BRANCH  19  20
HETATM   20  C   UNL     1     -11.418   9.784  70.226  1.00  0.00    -0.255 A  
HETATM   21  C   UNL     1     -11.369  11.151  69.938  1.00  0.00    -0.348 A  
HETATM   22  C   UNL     1     -12.149  12.038  70.681  1.00  0.00    -0.274 A  
HETATM   23  C   UNL     1     -12.982  11.574  71.708  1.00  0.00    -0.500 A  
HETATM   24  C   UNL     1     -13.050  10.207  71.965  1.00  0.00    -0.538 A  
HETATM   25  C   UNL     1     -13.882  12.533  72.430  1.00  0.00    -0.171 C  
HETATM   26  C   UNL     1     -12.278   9.318  71.225  1.00  0.00    -0.410 A  
HETATM   27  C   UNL     1     -13.314  13.940  72.442  1.00  0.00    -0.629 C  
HETATM   28  C   UNL     1     -12.782  14.361  71.091  1.00  0.00    -0.352 C  
HETATM   29  O   UNL     1     -12.819  15.525  70.706  1.00  0.00    -0.458 OA 
HETATM   30  N   UNL     1     -12.136  13.398  70.364  1.00  0.00    -0.424 N  
HETATM   31  H   UNL     1     -11.613  13.692  69.540  1.00  0.00     0.000 HD 
ENDBRANCH  19  20
ENDBRANCH  18  19
ENDBRANCH  17  18
ENDBRANCH  16  17
ENDBRANCH  15  16
ENDBRANCH  12  15
ENDBRANCH   6   9
TORSDOF 7
ENDMDL
MODEL        8
REMARK 921   NORMALIZED FREE ENERGY PREDICTED BY IDOCK:   -6.70 KCAL/MOL
REMARK 922        TOTAL FREE ENERGY PREDICTED BY IDOCK:  -11.04 KCAL/MOL
REMARK 923 INTER-LIGAND FREE ENERGY PREDICTED BY IDOCK:   -9.60 KCAL/MOL
REMARK 924 INTRA-LIGAND FREE ENERGY PREDICTED BY IDOCK:   -1.44 KCAL/MOL
REMARK 927      BINDING AFFINITY PREDICTED BY RF-SCORE:    0.00 PKD
ROOT
HETATM    1 CL   UNL     1      -7.448   8.218  72.030  1.00  0.00    -0.111 Cl 
HETATM    2  C   UNL     1      -8.854   8.865  71.244  1.00  0.00    -0.231 A  
HETATM    3  C   UNL     1     -10.046   8.804  71.963  1.00  0.00    -0.397 A  
HETATM    4  C   UNL     1     -11.213   9.289  71.391  1.00  0.00    -0.433 A  
HETATM    5  C   UNL     1     -11.192   9.788  70.089  1.00  0.00    -0.324 A  
HETATM    6  C   UNL     1     -10.016   9.858  69.310  1.00  0.00    -0.207 A  
HETATM    7  C   UNL     1      -8.818   9.416  69.944  1.00  0.00    -0.199 A  
HETATM    8 CL   UNL     1      -7.253   9.643  69.206  1.00  0.00    -0.065 Cl 
ENDROOT
BRANCH   6   9
HETATM    9  N   UNL     1     -10.123  10.290  67.993  1.00  0.00    -0.156 NA 
HETATM   10  C   UNL     1      -9.868  11.689  67.604  1.00  0.00    -0.186 C  
HETATM   11  C   UNL     1      -9.054  11.770  66.292  1.00  0.00    -0.206 C  
HETATM   12  N   UNL     1      -9.607  10.984  65.166  1.00  0.00    -0.225 NA 
HETATM   13  C   UNL     1     -10.598   9.406  66.908  1.00  0.00    -0.167 C  
HETATM   14  C   UNL     1      -9.731   9.583  65.637  1.00  0.00    -0.290 C  
BRANCH  12  15
HETATM   15  C   UNL     1     -10.904  11.507  64.704  1.00  0.00    -0.310 C  
BRANCH  15  16
HETATM   16  C   UNL     1     -10.850  12.976  64.242  1.00  0.00    -0.430 C  
BRANCH  16  17
HETATM   17  C   UNL     1     -12.133  13.771  64.503  1.00  0.00    -0.463 C  
BRANCH  17  18
HETATM   18  C   UNL     1     -12.289  14.070  65.986  1.00  0.00    -0.473 C  
BRANCH  18  19
HETATM   19  O   UNL     1     -11.147  14.763  66.485  1.00  0.00    -0.324 OA 
BRANCH  19  20
HETATM   20  C   UNL     1     -11.277  15.170  67.792  1.00  0.00    -0.323 A  
HETATM   21  C   UNL     1     -12.056  14.338  68.601  1.00  0.00    -0.295 A  
HETATM   22  C   UNL     1     -12.252  14.671  69.942  1.00  0.00    -0.316 A  
HETATM   23  C   UNL     1     -11.675  15.826  70.485  1.00  0.00    -0.400 A  
HETATM   24  C   UNL     1     -10.872  16.631  69.681  1.00  0.00    -0.282 A  
HETATM   25  C   UNL     1     -11.820  16.114  71.951  1.00  0.00    -0.605 C  
HETATM   26  C   UNL     1     -10.670  16.302  68.345  1.00  0.00    -0.311 A  
HETATM   27  C   UNL     1     -13.095  15.520  72.519  1.00  0.00    -0.537 C  
HETATM   28  C   UNL     1     -13.327  14.099  72.059  1.00  0.00    -0.415 C  
HETATM   29  O   UNL     1     -13.889  13.266  72.762  1.00  0.00    -0.690 OA 
HETATM   30  N   UNL     1     -12.992  13.817  70.763  1.00  0.00    -0.223 N  
HETATM   31  H   UNL     1     -13.301  12.927  70.372  1.00  0.00     0.000 HD 
ENDBRANCH  19  20
ENDBRANCH  18  19
ENDBRANCH  17  18
ENDBRANCH  16  17
ENDBRANCH  15  16
ENDBRANCH  12  15
ENDBRANCH   6   9
TORSDOF 7
ENDMDL
MODEL        9
REMARK 921   NORMALIZED FREE ENERGY PREDICTED BY IDOCK:   -6.67 KCAL/MOL
REMARK 922        TOTAL FREE ENERGY PREDICTED BY IDOCK:  -11.01 KCAL/MOL
REMARK 923 INTER-LIGAND FREE ENERGY PREDICTED BY IDOCK:  -10.06 KCAL/MOL
REMARK 924 INTRA-LIGAND FREE ENERGY PREDICTED BY IDOCK:   -0.95 KCAL/MOL
REMARK 927      BINDING AFFINITY PREDICTED BY RF-SCORE:    0.00 PKD
ROOT
HETATM    1 CL   UNL     1      -7.635   5.341  72.415  1.00  0.00    -0.095 Cl 
HETATM    2  C   UNL     1      -9.020   5.920  71.545  1.00  0.00    -0.143 A  
HETATM    3  C   UNL     1      -9.465   5.124  70.491  1.00  0.00    -0.229 A  
HETATM    4  C   UNL     1     -10.559   5.533  69.742  1.00  0.00    -0.388 A  
HETATM    5  C   UNL     1     -11.173   6.754  70.020  1.00  0.00    -0.380 A  
HETATM    6  C   UNL     1     -10.753   7.607  71.065  1.00  0.00    -0.228 A  
HETATM    7  C   UNL     1      -9.670   7.133  71.862  1.00  0.00    -0.156 A  
HETATM    8 CL   UNL     1      -9.179   7.955  73.321  1.00  0.00    -0.322 Cl 
ENDROOT
BRANCH   6   9
HETATM    9  N   UNL     1     -11.378   8.841  71.199  1.00  0.00    -0.270 NA 
HETATM   10  C   UNL     1     -10.914  10.038  70.473  1.00  0.00    -0.326 C  
HETATM   11  C   UNL     1     -12.102  10.853  69.912  1.00  0.00    -0.354 C  
HETATM   12  N   UNL     1     -13.150  11.189  70.903  1.00  0.00    -0.168 NA 
HETATM   13  C   UNL     1     -12.486   9.066  72.151  1.00  0.00    -0.380 C  
HETATM   14  C   UNL     1     -13.608   9.910  71.497  1.00  0.00    -0.241 C  
BRANCH  12  15
HETATM   15  C   UNL     1     -12.661  12.113  71.940  1.00  0.00    -0.097 C  
BRANCH  15  16
HETATM   16  C   UNL     1     -13.667  13.223  72.304  1.00  0.00    -0.686 C  
BRANCH  16  17
HETATM   17  C   UNL     1     -13.053  14.622  72.423  1.00  0.00    -0.472 C  
BRANCH  17  18
HETATM   18  C   UNL     1     -13.063  15.330  71.076  1.00  0.00    -0.482 C  
BRANCH  18  19
HETATM   19  O   UNL     1     -11.785  15.897  70.794  1.00  0.00    -0.351 OA 
BRANCH  19  20
HETATM   20  C   UNL     1     -11.435  15.832  69.466  1.00  0.00    -0.353 A  
HETATM   21  C   UNL     1     -12.152  14.906  68.705  1.00  0.00    -0.212 A  
HETATM   22  C   UNL     1     -11.866  14.763  67.347  1.00  0.00    -0.295 A  
HETATM   23  C   UNL     1     -10.870  15.539  66.739  1.00  0.00    -0.291 A  
HETATM   24  C   UNL     1     -10.183  16.484  67.498  1.00  0.00    -0.283 A  
HETATM   25  C   UNL     1     -10.644  15.437  65.259  1.00  0.00    -0.450 C  
HETATM   26  C   UNL     1     -10.469  16.634  68.850  1.00  0.00    -0.322 A  
HETATM   27  C   UNL     1     -11.022  14.068  64.724  1.00  0.00    -0.410 C  
HETATM   28  C   UNL     1     -12.347  13.581  65.264  1.00  0.00    -0.467 C  
HETATM   29  O   UNL     1     -13.100  12.868  64.609  1.00  0.00    -0.742 OA 
HETATM   30  N   UNL     1     -12.613  13.870  66.575  1.00  0.00    -0.463 N  
HETATM   31  H   UNL     1     -13.406  13.405  67.016  1.00  0.00     0.000 HD 
ENDBRANCH  19  20
ENDBRANCH  18  19
ENDBRANCH  17  18
ENDBRANCH  16  17
ENDBRANCH  15  16
ENDBRANCH  12  15
ENDBRANCH   6   9
TORSDOF 7
ENDMDL
MODEL       10
REMARK 921   NORMALIZED FREE ENERGY PREDICTED BY IDOCK:   -6.67 KCAL/MOL
REMARK 922        TOTAL FREE ENERGY PREDICTED BY IDOCK:  -11.00 KCAL/MOL
REMARK 923 INTER-LIGAND FREE ENERGY PREDICTED BY IDOCK:   -9.44 KCAL/MOL
REMARK 924 INTRA-LIGAND FREE ENERGY PREDICTED BY IDOCK:   -1.56 KCAL/MOL
REMARK 927      BINDING AFFINITY PREDICTED BY RF-SCORE:    0.00 PKD
ROOT
HETATM    1 CL   UNL     1      -9.288  10.569  62.479  1.00  0.00    -0.307 Cl 
HETATM    2  C   UNL     1     -10.055  11.000  63.975  1.00  0.00    -0.350 A  
HETATM    3  C   UNL     1     -10.930  12.083  63.930  1.00  0.00    -0.465 A  
HETATM    4  C   UNL     1     -11.568  12.494  65.092  1.00  0.00    -0.395 A  
HETATM    5  C   UNL     1     -11.293  11.849  66.299  1.00  0.00    -0.394 A  
HETATM    6  C   UNL     1     -10.402  10.757  66.403  1.00  0.00    -0.248 A  
HETATM    7  C   UNL     1      -9.812  10.313  65.184  1.00  0.00    -0.321 A  
HETATM    8 CL   UNL     1      -8.870   8.845  65.104  1.00  0.00    -0.226 Cl 
ENDROOT
BRANCH   6   9
HETATM    9  N   UNL     1     -10.134  10.246  67.668  1.00  0.00    -0.182 NA 
HETATM   10  C   UNL     1     -10.897   9.120  68.237  1.00  0.00    -0.051 C  
HETATM   11  C   UNL     1      -9.968   8.117  68.958  1.00  0.00    -0.189 C  
HETATM   12  N   UNL     1      -9.057   8.719  69.958  1.00  0.00    -0.153 NA 
HETATM   13  C   UNL     1      -9.135  10.857  68.570  1.00  0.00    -0.173 C  
HETATM   14  C   UNL     1      -8.276   9.767  69.256  1.00  0.00    -0.132 C  
BRANCH  12  15
HETATM   15  C   UNL     1      -9.784   9.280  71.110  1.00  0.00    -0.257 C  
BRANCH  15  16
HETATM   16  C   UNL     1     -10.510   8.219  71.960  1.00  0.00    -0.350 C  
BRANCH  16  17
HETATM   17  C   UNL     1     -12.015   8.455  72.122  1.00  0.00    -0.438 C  
BRANCH  17  18
HETATM   18  C   UNL     1     -12.460   9.663  71.311  1.00  0.00    -0.355 C  
BRANCH  18  19
HETATM   19  O   UNL     1     -13.178  10.584  72.129  1.00  0.00    -0.458 OA 
BRANCH  19  20
HETATM   20  C   UNL     1     -12.990  11.899  71.773  1.00  0.00    -0.350 A  
HETATM   21  C   UNL     1     -12.169  12.104  70.661  1.00  0.00    -0.392 A  
HETATM   22  C   UNL     1     -11.913  13.404  70.225  1.00  0.00    -0.308 A  
HETATM   23  C   UNL     1     -12.473  14.505  70.887  1.00  0.00    -0.415 A  
HETATM   24  C   UNL     1     -13.319  14.290  71.973  1.00  0.00    -0.484 A  
HETATM   25  C   UNL     1     -12.263  15.889  70.345  1.00  0.00    -0.292 C  
HETATM   26  C   UNL     1     -13.580  12.996  72.408  1.00  0.00    -0.628 A  
HETATM   27  C   UNL     1     -10.958  16.002  69.579  1.00  0.00    -0.326 C  
HETATM   28  C   UNL     1     -10.736  14.840  68.638  1.00  0.00    -0.253 C  
HETATM   29  O   UNL     1     -10.136  14.963  67.575  1.00  0.00    -0.227 OA 
HETATM   30  N   UNL     1     -11.129  13.609  69.088  1.00  0.00    -0.322 N  
HETATM   31  H   UNL     1     -10.832  12.789  68.559  1.00  0.00     0.000 HD 
ENDBRANCH  19  20
ENDBRANCH  18  19
ENDBRANCH  17  18
ENDBRANCH  16  17
ENDBRANCH  15  16
ENDBRANCH  12  15
ENDBRANCH   6   9
TORSDOF 7
ENDMDL
MODEL       11
REMARK 921   NORMALIZED FREE ENERGY PREDICTED BY IDOCK:   -6.62 KCAL/MOL
REMARK 922        TOTAL FREE ENERGY PREDICTED BY IDOCK:  -10.93 KCAL/MOL
REMARK 923 INTER-LIGAND FREE ENERGY PREDICTED BY IDOCK:  -10.14 KCAL/MOL
REMARK 924 INTRA-LIGAND FREE ENERGY PREDICTED BY IDOCK:   -0.79 KCAL/MOL
REMARK 927      BINDING AFFINITY PREDICTED BY RF-SCORE:    0.00 PKD
ROOT
HETATM    1 CL   UNL     1     -12.530  11.924  63.275  1.00  0.00    -0.632 Cl 
HETATM    2  C   UNL     1     -11.461  11.982  64.641  1.00  0.00    -0.308 A  
HETATM    3  C   UNL     1     -10.484  10.990  64.702  1.00  0.00    -0.398 A  
HETATM    4  C   UNL     1      -9.603  10.965  65.774  1.00  0.00    -0.259 A  
HETATM    5  C   UNL     1      -9.732  11.903  66.799  1.00  0.00    -0.218 A  
HETATM    6  C   UNL     1     -10.714  12.919  66.794  1.00  0.00    -0.261 A  
HETATM    7  C   UNL     1     -11.563  12.963  65.651  1.00  0.00    -0.361 A  
HETATM    8 CL   UNL     1     -12.673  14.284  65.384  1.00  0.00    -0.447 Cl 
ENDROOT
BRANCH   6   9
HETATM    9  N   UNL     1     -10.810  13.746  67.908  1.00  0.00    -0.240 NA 
HETATM   10  C   UNL     1      -9.620  14.213  68.644  1.00  0.00    -0.179 C  
HETATM   11  C   UNL     1      -9.746  15.704  69.029  1.00  0.00    -0.241 C  
HETATM   12  N   UNL     1     -10.997  16.063  69.734  1.00  0.00    -0.308 NA 
HETATM   13  C   UNL     1     -12.111  14.132  68.494  1.00  0.00    -0.277 C  
HETATM   14  C   UNL     1     -12.121  15.635  68.864  1.00  0.00    -0.161 C  
BRANCH  12  15
HETATM   15  C   UNL     1     -11.087  15.438  71.065  1.00  0.00    -0.331 C  
BRANCH  15  16
HETATM   16  C   UNL     1     -12.509  15.449  71.659  1.00  0.00    -0.450 C  
BRANCH  16  17
HETATM   17  C   UNL     1     -12.765  14.366  72.712  1.00  0.00    -0.429 C  
BRANCH  17  18
HETATM   18  C   UNL     1     -13.470  13.169  72.092  1.00  0.00    -0.560 C  
BRANCH  18  19
HETATM   19  O   UNL     1     -12.632  12.531  71.131  1.00  0.00    -0.365 OA 
BRANCH  19  20
HETATM   20  C   UNL     1     -12.601  11.162  71.250  1.00  0.00    -0.398 A  
HETATM   21  C   UNL     1     -11.548  10.529  70.584  1.00  0.00    -0.445 A  
HETATM   22  C   UNL     1     -11.434   9.139  70.642  1.00  0.00    -0.262 A  
HETATM   23  C   UNL     1     -12.360   8.374  71.362  1.00  0.00    -0.328 A  
HETATM   24  C   UNL     1     -13.387   9.015  72.051  1.00  0.00    -0.494 A  
HETATM   25  C   UNL     1     -12.165   6.891  71.490  1.00  0.00    -0.415 C  
HETATM   26  C   UNL     1     -13.502  10.400  72.000  1.00  0.00    -0.360 A  
HETATM   27  C   UNL     1     -11.410   6.318  70.305  1.00  0.00    -0.457 C  
HETATM   28  C   UNL     1     -10.207   7.152  69.926  1.00  0.00    -0.207 C  
HETATM   29  O   UNL     1      -9.189   6.658  69.454  1.00  0.00    -0.142 OA 
HETATM   30  N   UNL     1     -10.356   8.509  70.016  1.00  0.00    -0.205 N  
HETATM   31  H   UNL     1      -9.635   9.098  69.599  1.00  0.00     0.000 HD 
ENDBRANCH  19  20
ENDBRANCH  18  19
ENDBRANCH  17  18
ENDBRANCH  16  17
ENDBRANCH  15  16
ENDBRANCH  12  15
ENDBRANCH   6   9
TORSDOF 7
ENDMDL
MODEL       12
REMARK 921   NORMALIZED FREE ENERGY PREDICTED BY IDOCK:   -6.59 KCAL/MOL
REMARK 922        TOTAL FREE ENERGY PREDICTED BY IDOCK:  -10.89 KCAL/MOL
REMARK 923 INTER-LIGAND FREE ENERGY PREDICTED BY IDOCK:   -9.36 KCAL/MOL
REMARK 924 INTRA-LIGAND FREE ENERGY PREDICTED BY IDOCK:   -1.54 KCAL/MOL
REMARK 927      BINDING AFFINITY PREDICTED BY RF-SCORE:    0.00 PKD
ROOT
HETATM    1 CL   UNL     1     -11.142   7.582  73.170  1.00  0.00    -0.424 Cl 
HETATM    2  C   UNL     1     -11.446   8.800  71.972  1.00  0.00    -0.371 A  
HETATM    3  C   UNL     1     -12.570   9.598  72.174  1.00  0.00    -0.388 A  
HETATM    4  C   UNL     1     -12.883  10.583  71.249  1.00  0.00    -0.532 A  
HETATM    5  C   UNL     1     -12.099  10.735  70.105  1.00  0.00    -0.427 A  
HETATM    6  C   UNL     1     -10.958   9.943  69.843  1.00  0.00    -0.281 A  
HETATM    7  C   UNL     1     -10.620   8.984  70.842  1.00  0.00    -0.250 A  
HETATM    8 CL   UNL     1      -9.124   8.086  70.780  1.00  0.00    -0.144 Cl 
ENDROOT
BRANCH   6   9
HETATM    9  N   UNL     1     -10.300  10.118  68.631  1.00  0.00    -0.178 NA 
HETATM   10  C   UNL     1      -9.230  11.118  68.458  1.00  0.00    -0.183 C  
HETATM   11  C   UNL     1      -8.055  10.547  67.632  1.00  0.00    -0.107 C  
HETATM   12  N   UNL     1      -8.440   9.932  66.342  1.00  0.00    -0.124 NA 
HETATM   13  C   UNL     1     -10.693   9.389  67.407  1.00  0.00    -0.210 C  
HETATM   14  C   UNL     1      -9.443   8.883  66.646  1.00  0.00    -0.202 C  
BRANCH  12  15
HETATM   15  C   UNL     1      -8.975  10.920  65.390  1.00  0.00    -0.193 C  
BRANCH  15  16
HETATM   16  C   UNL     1      -9.452  10.304  64.060  1.00  0.00    -0.356 C  
BRANCH  16  17
HETATM   17  C   UNL     1     -10.092  11.303  63.091  1.00  0.00    -0.385 C  
BRANCH  17  18
HETATM   18  C   UNL     1     -11.295  11.979  63.733  1.00  0.00    -0.445 C  
BRANCH  18  19
HETATM   19  O   UNL     1     -11.033  13.361  63.968  1.00  0.00    -0.358 OA 
BRANCH  19  20
HETATM   20  C   UNL     1     -11.254  13.750  65.267  1.00  0.00    -0.307 A  
HETATM   21  C   UNL     1     -10.820  15.040  65.586  1.00  0.00    -0.356 A  
HETATM   22  C   UNL     1     -10.995  15.524  66.883  1.00  0.00    -0.268 A  
HETATM   23  C   UNL     1     -11.604  14.734  67.866  1.00  0.00    -0.373 A  
HETATM   24  C   UNL     1     -12.065  13.462  67.531  1.00  0.00    -0.323 A  
HETATM   25  C   UNL     1     -11.868  15.308  69.228  1.00  0.00    -0.353 C  
HETATM   26  C   UNL     1     -11.896  12.978  66.240  1.00  0.00    -0.466 A  
HETATM   27  C   UNL     1     -10.870  16.393  69.585  1.00  0.00    -0.346 C  
HETATM   28  C   UNL     1     -10.637  17.363  68.450  1.00  0.00    -0.355 C  
HETATM   29  O   UNL     1     -10.378  18.546  68.641  1.00  0.00    -0.357 OA 
HETATM   30  N   UNL     1     -10.603  16.828  67.191  1.00  0.00    -0.294 N  
HETATM   31  H   UNL     1     -10.271  17.420  66.429  1.00  0.00     0.000 HD 
ENDBRANCH  19  20
ENDBRANCH  18  19
ENDBRANCH  17  18
ENDBRANCH  16  17
ENDBRANCH  15  16
ENDBRANCH  12  15
ENDBRANCH   6   9
TORSDOF 7
ENDMDL
MODEL       13
REMARK 921   NORMALIZED FREE ENERGY PREDICTED BY IDOCK:   -6.58 KCAL/MOL
REMARK 922        TOTAL FREE ENERGY PREDICTED BY IDOCK:  -10.87 KCAL/MOL
REMARK 923 INTER-LIGAND FREE ENERGY PREDICTED BY IDOCK:   -9.55 KCAL/MOL
REMARK 924 INTRA-LIGAND FREE ENERGY PREDICTED BY IDOCK:   -1.32 KCAL/MOL
REMARK 927      BINDING AFFINITY PREDICTED BY RF-SCORE:    0.00 PKD
ROOT
HETATM    1 CL   UNL     1     -10.860   7.671  70.281  1.00  0.00    -0.248 Cl 
HETATM    2  C   UNL     1     -11.639   9.154  70.737  1.00  0.00    -0.276 A  
HETATM    3  C   UNL     1     -12.707   9.042  71.625  1.00  0.00    -0.421 A  
HETATM    4  C   UNL     1     -13.387  10.184  72.021  1.00  0.00    -0.492 A  
HETATM    5  C   UNL     1     -13.025  11.425  71.495  1.00  0.00    -0.505 A  
HETATM    6  C   UNL     1     -11.962  11.592  70.580  1.00  0.00    -0.319 A  
HETATM    7  C   UNL     1     -11.237  10.413  70.240  1.00  0.00    -0.320 A  
HETATM    8 CL   UNL     1      -9.765  10.480  69.305  1.00  0.00    -0.230 Cl 
ENDROOT
BRANCH   6   9
HETATM    9  N   UNL     1     -11.744  12.859  70.050  1.00  0.00    -0.261 NA 
HETATM   10  C   UNL     1     -11.387  13.066  68.634  1.00  0.00    -0.291 C  
HETATM   11  C   UNL     1     -12.150  14.266  68.030  1.00  0.00    -0.254 C  
HETATM   12  N   UNL     1     -12.051  15.523  68.806  1.00  0.00    -0.234 NA 
HETATM   13  C   UNL     1     -11.755  14.077  70.886  1.00  0.00    -0.062 C  
HETATM   14  C   UNL     1     -12.523  15.221  70.179  1.00  0.00    -0.334 C  
BRANCH  12  15
HETATM   15  C   UNL     1     -10.680  16.062  68.821  1.00  0.00    -0.282 C  
BRANCH  15  16
HETATM   16  C   UNL     1     -10.621  17.602  68.794  1.00  0.00    -0.191 C  
BRANCH  16  17
HETATM   17  C   UNL     1     -10.037  18.193  67.507  1.00  0.00    -0.358 C  
BRANCH  17  18
HETATM   18  C   UNL     1      -9.547  17.089  66.582  1.00  0.00    -0.266 C  
BRANCH  18  19
HETATM   19  O   UNL     1     -10.345  17.026  65.402  1.00  0.00    -0.617 OA 
BRANCH  19  20
HETATM   20  C   UNL     1     -10.699  15.746  65.044  1.00  0.00    -0.421 A  
HETATM   21  C   UNL     1      -9.822  14.745  65.470  1.00  0.00    -0.336 A  
HETATM   22  C   UNL     1     -10.092  13.413  65.150  1.00  0.00    -0.246 A  
HETATM   23  C   UNL     1     -11.233  13.071  64.413  1.00  0.00    -0.393 A  
HETATM   24  C   UNL     1     -12.119  14.072  64.022  1.00  0.00    -0.413 A  
HETATM   25  C   UNL     1     -11.554  11.626  64.162  1.00  0.00    -0.342 C  
HETATM   26  C   UNL     1     -11.856  15.399  64.341  1.00  0.00    -0.260 A  
HETATM   27  C   UNL     1     -10.304  10.767  64.138  1.00  0.00    -0.382 C  
HETATM   28  C   UNL     1      -9.359  11.087  65.274  1.00  0.00    -0.216 C  
HETATM   29  O   UNL     1      -8.646  10.235  65.794  1.00  0.00    -0.143 OA 
HETATM   30  N   UNL     1      -9.242  12.407  65.614  1.00  0.00    -0.435 N  
HETATM   31  H   UNL     1      -8.486  12.673  66.245  1.00  0.00     0.000 HD 
ENDBRANCH  19  20
ENDBRANCH  18  19
ENDBRANCH  17  18
ENDBRANCH  16  17
ENDBRANCH  15  16
ENDBRANCH  12  15
ENDBRANCH   6   9
TORSDOF 7
ENDMDL
MODEL       14
REMARK 921   NORMALIZED FREE ENERGY PREDICTED BY IDOCK:   -6.57 KCAL/MOL
REMARK 922        TOTAL FREE ENERGY PREDICTED BY IDOCK:  -10.86 KCAL/MOL
REMARK 923 INTER-LIGAND FREE ENERGY PREDICTED BY IDOCK:   -9.67 KCAL/MOL
REMARK 924 INTRA-LIGAND FREE ENERGY PREDICTED BY IDOCK:   -1.19 KCAL/MOL
REMARK 927      BINDING AFFINITY PREDICTED BY RF-SCORE:    0.00 PKD
ROOT
HETATM    1 CL   UNL     1     -12.953   8.989  72.794  1.00  0.00    -0.336 Cl 
HETATM    2  C   UNL     1     -12.008   8.359  71.482  1.00  0.00    -0.299 A  
HETATM    3  C   UNL     1     -11.598   7.032  71.598  1.00  0.00    -0.320 A  
HETATM    4  C   UNL     1     -10.826   6.467  70.593  1.00  0.00    -0.331 A  
HETATM    5  C   UNL     1     -10.431   7.242  69.503  1.00  0.00    -0.238 A  
HETATM    6  C   UNL     1     -10.804   8.595  69.344  1.00  0.00    -0.095 A  
HETATM    7  C   UNL     1     -11.652   9.133  70.356  1.00  0.00    -0.146 A  
HETATM    8 CL   UNL     1     -12.382  10.710  70.196  1.00  0.00    -0.376 Cl 
ENDROOT
BRANCH   6   9
HETATM    9  N   UNL     1     -10.282   9.299  68.265  1.00  0.00    -0.193 NA 
HETATM   10  C   UNL     1      -9.471  10.518  68.443  1.00  0.00    -0.157 C  
HETATM   11  C   UNL     1      -8.256  10.531  67.488  1.00  0.00    -0.114 C  
HETATM   12  N   UNL     1      -8.581  10.296  66.063  1.00  0.00    -0.141 NA 
HETATM   13  C   UNL     1     -10.585   8.937  66.865  1.00  0.00    -0.184 C  
HETATM   14  C   UNL     1      -9.307   9.004  65.993  1.00  0.00    -0.242 C  
BRANCH  12  15
HETATM   15  C   UNL     1      -9.382  11.389  65.486  1.00  0.00    -0.208 C  
BRANCH  15  16
HETATM   16  C   UNL     1     -10.053  11.024  64.147  1.00  0.00    -0.403 C  
BRANCH  16  17
HETATM   17  C   UNL     1     -10.644  12.216  63.388  1.00  0.00    -0.454 C  
BRANCH  17  18
HETATM   18  C   UNL     1     -12.137  12.336  63.653  1.00  0.00    -0.554 C  
BRANCH  18  19
HETATM   19  O   UNL     1     -12.524  13.705  63.761  1.00  0.00    -0.703 OA 
BRANCH  19  20
HETATM   20  C   UNL     1     -11.961  14.353  64.834  1.00  0.00    -0.426 A  
HETATM   21  C   UNL     1     -12.366  13.891  66.089  1.00  0.00    -0.504 A  
HETATM   22  C   UNL     1     -11.853  14.490  67.241  1.00  0.00    -0.392 A  
HETATM   23  C   UNL     1     -10.935  15.545  67.152  1.00  0.00    -0.295 A  
HETATM   24  C   UNL     1     -10.512  15.977  65.897  1.00  0.00    -0.373 A  
HETATM   25  C   UNL     1     -10.325  16.111  68.400  1.00  0.00    -0.257 C  
HETATM   26  C   UNL     1     -11.016  15.380  64.747  1.00  0.00    -0.411 A  
HETATM   27  C   UNL     1     -11.244  15.956  69.598  1.00  0.00    -0.331 C  
HETATM   28  C   UNL     1     -11.858  14.577  69.682  1.00  0.00    -0.318 C  
HETATM   29  O   UNL     1     -12.126  14.043  70.753  1.00  0.00    -0.331 OA 
HETATM   30  N   UNL     1     -12.222  14.000  68.495  1.00  0.00    -0.537 N  
HETATM   31  H   UNL     1     -12.797  13.159  68.530  1.00  0.00     0.000 HD 
ENDBRANCH  19  20
ENDBRANCH  18  19
ENDBRANCH  17  18
ENDBRANCH  16  17
ENDBRANCH  15  16
ENDBRANCH  12  15
ENDBRANCH   6   9
TORSDOF 7
ENDMDL
MODEL       15
REMARK 921   NORMALIZED FREE ENERGY PREDICTED BY IDOCK:   -6.53 KCAL/MOL
REMARK 922        TOTAL FREE ENERGY PREDICTED BY IDOCK:  -10.80 KCAL/MOL
REMARK 923 INTER-LIGAND FREE ENERGY PREDICTED BY IDOCK:   -9.58 KCAL/MOL
REMARK 924 INTRA-LIGAND FREE ENERGY PREDICTED BY IDOCK:   -1.22 KCAL/MOL
REMARK 927      BINDING AFFINITY PREDICTED BY RF-SCORE:    0.00 PKD
ROOT
HETATM    1 CL   UNL     1     -10.005   4.699  71.152  1.00  0.00    -0.266 Cl 
HETATM    2  C   UNL     1     -10.085   6.433  71.109  1.00  0.00    -0.185 A  
HETATM    3  C   UNL     1     -10.457   7.063  72.294  1.00  0.00    -0.234 A  
HETATM    4  C   UNL     1     -10.557   8.446  72.329  1.00  0.00    -0.412 A  
HETATM    5  C   UNL     1     -10.328   9.188  71.169  1.00  0.00    -0.387 A  
HETATM    6  C   UNL     1      -9.964   8.598  69.938  1.00  0.00    -0.186 A  
HETATM    7  C   UNL     1      -9.803   7.182  69.946  1.00  0.00    -0.174 A  
HETATM    8 CL   UNL     1      -9.143   6.328  68.575  1.00  0.00    -0.126 Cl 
ENDROOT
BRANCH   6   9
HETATM    9  N   UNL     1      -9.847   9.422  68.824  1.00  0.00    -0.159 NA 
HETATM   10  C   UNL     1     -10.885   9.478  67.778  1.00  0.00    -0.195 C  
HETATM   11  C   UNL     1     -11.147  10.931  67.322  1.00  0.00    -0.283 C  
HETATM   12  N   UNL     1      -9.937  11.689  66.930  1.00  0.00    -0.200 NA 
HETATM   13  C   UNL     1      -8.633  10.221  68.557  1.00  0.00    -0.126 C  
HETATM   14  C   UNL     1      -9.008  11.647  68.085  1.00  0.00    -0.182 C  
BRANCH  12  15
HETATM   15  C   UNL     1      -9.305  11.142  65.718  1.00  0.00    -0.214 C  
BRANCH  15  16
HETATM   16  C   UNL     1     -10.279  10.963  64.538  1.00  0.00    -0.422 C  
BRANCH  16  17
HETATM   17  C   UNL     1     -10.615  12.256  63.789  1.00  0.00    -0.488 C  
BRANCH  17  18
HETATM   18  C   UNL     1     -12.118  12.491  63.768  1.00  0.00    -0.529 C  
BRANCH  18  19
HETATM   19  O   UNL     1     -12.414  13.884  63.835  1.00  0.00    -0.698 OA 
BRANCH  19  20
HETATM   20  C   UNL     1     -11.870  14.511  64.930  1.00  0.00    -0.416 A  
HETATM   21  C   UNL     1     -12.365  14.088  66.167  1.00  0.00    -0.491 A  
HETATM   22  C   UNL     1     -11.878  14.669  67.338  1.00  0.00    -0.348 A  
HETATM   23  C   UNL     1     -10.897  15.669  67.288  1.00  0.00    -0.298 A  
HETATM   24  C   UNL     1     -10.385  16.061  66.053  1.00  0.00    -0.366 A  
HETATM   25  C   UNL     1     -10.320  16.213  68.562  1.00  0.00    -0.254 C  
HETATM   26  C   UNL     1     -10.864  15.481  64.884  1.00  0.00    -0.447 A  
HETATM   27  C   UNL     1     -11.307  16.124  69.711  1.00  0.00    -0.323 C  
HETATM   28  C   UNL     1     -12.003  14.784  69.774  1.00  0.00    -0.321 C  
HETATM   29  O   UNL     1     -12.356  14.278  70.835  1.00  0.00    -0.313 OA 
HETATM   30  N   UNL     1     -12.338  14.215  68.576  1.00  0.00    -0.541 N  
HETATM   31  H   UNL     1     -12.963  13.409  68.587  1.00  0.00     0.000 HD 
ENDBRANCH  19  20
ENDBRANCH  18  19
ENDBRANCH  17  18
ENDBRANCH  16  17
ENDBRANCH  15  16
ENDBRANCH  12  15
ENDBRANCH   6   9
TORSDOF 7
ENDMDL
MODEL       16
REMARK 921   NORMALIZED FREE ENERGY PREDICTED BY IDOCK:   -6.51 KCAL/MOL
REMARK 922        TOTAL FREE ENERGY PREDICTED BY IDOCK:  -10.78 KCAL/MOL
REMARK 923 INTER-LIGAND FREE ENERGY PREDICTED BY IDOCK:   -9.48 KCAL/MOL
REMARK 924 INTRA-LIGAND FREE ENERGY PREDICTED BY IDOCK:   -1.30 KCAL/MOL
REMARK 927      BINDING AFFINITY PREDICTED BY RF-SCORE:    0.00 PKD
ROOT
HETATM    1 CL   UNL     1     -13.305  15.595  71.780  1.00  0.00    -0.556 Cl 
HETATM    2  C   UNL     1     -12.933  13.960  71.333  1.00  0.00    -0.355 A  
HETATM    3  C   UNL     1     -13.356  12.968  72.215  1.00  0.00    -0.606 A  
HETATM    4  C   UNL     1     -13.080  11.638  71.930  1.00  0.00    -0.490 A  
HETATM    5  C   UNL     1     -12.343  11.312  70.791  1.00  0.00    -0.495 A  
HETATM    6  C   UNL     1     -11.876  12.279  69.873  1.00  0.00    -0.311 A  
HETATM    7  C   UNL     1     -12.231  13.631  70.153  1.00  0.00    -0.342 A  
HETATM    8 CL   UNL     1     -11.927  14.914  69.009  1.00  0.00    -0.328 Cl 
ENDROOT
BRANCH   6   9
HETATM    9  N   UNL     1     -11.076  11.853  68.819  1.00  0.00    -0.229 NA 
HETATM   10  C   UNL     1      -9.616  12.056  68.811  1.00  0.00     0.016 C  
HETATM   11  C   UNL     1      -8.875  10.803  68.292  1.00  0.00    -0.139 C  
HETATM   12  N   UNL     1      -9.360  10.286  66.991  1.00  0.00    -0.153 NA 
HETATM   13  C   UNL     1     -11.641  11.258  67.589  1.00  0.00    -0.210 C  
HETATM   14  C   UNL     1     -10.813  10.028  67.144  1.00  0.00    -0.170 C  
BRANCH  12  15
HETATM   15  C   UNL     1      -9.100  11.223  65.886  1.00  0.00    -0.204 C  
BRANCH  15  16
HETATM   16  C   UNL     1     -10.034  11.029  64.676  1.00  0.00    -0.357 C  
BRANCH  16  17
HETATM   17  C   UNL     1     -10.331  12.310  63.890  1.00  0.00    -0.455 C  
BRANCH  17  18
HETATM   18  C   UNL     1     -11.286  13.206  64.664  1.00  0.00    -0.340 C  
BRANCH  18  19
HETATM   19  O   UNL     1     -11.039  14.580  64.372  1.00  0.00    -0.300 OA 
BRANCH  19  20
HETATM   20  C   UNL     1     -10.402  15.253  65.388  1.00  0.00    -0.393 A  
HETATM   21  C   UNL     1     -10.668  16.623  65.454  1.00  0.00    -0.228 A  
HETATM   22  C   UNL     1     -10.063  17.394  66.448  1.00  0.00    -0.327 A  
HETATM   23  C   UNL     1      -9.197  16.808  67.381  1.00  0.00    -0.220 A  
HETATM   24  C   UNL     1      -8.964  15.436  67.328  1.00  0.00    -0.213 A  
HETATM   25  C   UNL     1      -8.633  17.637  68.498  1.00  0.00    -0.285 C  
HETATM   26  C   UNL     1      -9.568  14.664  66.343  1.00  0.00    -0.323 A  
HETATM   27  C   UNL     1      -8.514  19.099  68.112  1.00  0.00    -0.355 C  
HETATM   28  C   UNL     1      -9.751  19.616  67.413  1.00  0.00    -0.354 C  
HETATM   29  O   UNL     1     -10.129  20.777  67.524  1.00  0.00    -0.352 OA 
HETATM   30  N   UNL     1     -10.364  18.754  66.544  1.00  0.00    -0.401 N  
HETATM   31  H   UNL     1     -11.085  19.129  65.928  1.00  0.00     0.000 HD 
ENDBRANCH  19  20
ENDBRANCH  18  19
ENDBRANCH  17  18
ENDBRANCH  16  17
ENDBRANCH  15  16
ENDBRANCH  12  15
ENDBRANCH   6   9
TORSDOF 7
ENDMDL
MODEL       17
REMARK 921   NORMALIZED FREE ENERGY PREDICTED BY IDOCK:   -6.46 KCAL/MOL
REMARK 922        TOTAL FREE ENERGY PREDICTED BY IDOCK:  -10.70 KCAL/MOL
REMARK 923 INTER-LIGAND FREE ENERGY PREDICTED BY IDOCK:  -10.01 KCAL/MOL
REMARK 924 INTRA-LIGAND FREE ENERGY PREDICTED BY IDOCK:   -0.69 KCAL/MOL
REMARK 927      BINDING AFFINITY PREDICTED BY RF-SCORE:    0.00 PKD
ROOT
HETATM    1 CL   UNL     1      -8.428   2.838  69.275  1.00  0.00    -0.089 Cl 
HETATM    2  C   UNL     1      -9.447   4.147  68.765  1.00  0.00    -0.163 A  
HETATM    3  C   UNL     1      -9.654   4.269  67.393  1.00  0.00    -0.219 A  
HETATM    4  C   UNL     1     -10.446   5.302  66.911  1.00  0.00    -0.313 A  
HETATM    5  C   UNL     1     -10.988   6.232  67.799  1.00  0.00    -0.427 A  
HETATM    6  C   UNL     1     -10.797   6.164  69.197  1.00  0.00    -0.351 A  
HETATM    7  C   UNL     1     -10.036   5.056  69.671  1.00  0.00    -0.241 A  
HETATM    8 CL   UNL     1      -9.896   4.703  71.375  1.00  0.00    -0.252 Cl 
ENDROOT
BRANCH   6   9
HETATM    9  N   UNL     1     -11.308   7.192  69.981  1.00  0.00    -0.241 NA 
HETATM   10  C   UNL     1     -12.378   6.966  70.971  1.00  0.00    -0.351 C  
HETATM   11  C   UNL     1     -12.100   7.729  72.285  1.00  0.00    -0.287 C  
HETATM   12  N   UNL     1     -11.808   9.171  72.120  1.00  0.00    -0.319 NA 
HETATM   13  C   UNL     1     -10.888   8.598  69.810  1.00  0.00    -0.183 C  
HETATM   14  C   UNL     1     -10.660   9.274  71.185  1.00  0.00    -0.332 C  
BRANCH  12  15
HETATM   15  C   UNL     1     -12.971   9.922  71.619  1.00  0.00    -0.434 C  
BRANCH  15  16
HETATM   16  C   UNL     1     -12.639  11.365  71.191  1.00  0.00    -0.490 C  
BRANCH  16  17
HETATM   17  C   UNL     1     -13.228  12.449  72.099  1.00  0.00    -0.491 C  
BRANCH  17  18
HETATM   18  C   UNL     1     -13.262  13.790  71.383  1.00  0.00    -0.305 C  
BRANCH  18  19
HETATM   19  O   UNL     1     -11.981  14.417  71.423  1.00  0.00    -0.344 OA 
BRANCH  19  20
HETATM   20  C   UNL     1     -11.525  14.817  70.189  1.00  0.00    -0.266 A  
HETATM   21  C   UNL     1     -12.158  14.218  69.097  1.00  0.00    -0.337 A  
HETATM   22  C   UNL     1     -11.761  14.555  67.802  1.00  0.00    -0.374 A  
HETATM   23  C   UNL     1     -10.739  15.488  67.586  1.00  0.00    -0.302 A  
HETATM   24  C   UNL     1     -10.137  16.106  68.680  1.00  0.00    -0.231 A  
HETATM   25  C   UNL     1     -10.393  15.906  66.187  1.00  0.00    -0.341 C  
HETATM   26  C   UNL     1     -10.532  15.777  69.972  1.00  0.00    -0.313 A  
HETATM   27  C   UNL     1     -10.696  14.812  65.180  1.00  0.00    -0.433 C  
HETATM   28  C   UNL     1     -12.048  14.175  65.407  1.00  0.00    -0.410 C  
HETATM   29  O   UNL     1     -12.730  13.740  64.485  1.00  0.00    -0.643 OA 
HETATM   30  N   UNL     1     -12.424  13.992  66.709  1.00  0.00    -0.526 N  
HETATM   31  H   UNL     1     -13.239  13.407  66.894  1.00  0.00     0.000 HD 
ENDBRANCH  19  20
ENDBRANCH  18  19
ENDBRANCH  17  18
ENDBRANCH  16  17
ENDBRANCH  15  16
ENDBRANCH  12  15
ENDBRANCH   6   9
TORSDOF 7
ENDMDL
MODEL       18
REMARK 921   NORMALIZED FREE ENERGY PREDICTED BY IDOCK:   -6.43 KCAL/MOL
REMARK 922        TOTAL FREE ENERGY PREDICTED BY IDOCK:  -10.67 KCAL/MOL
REMARK 923 INTER-LIGAND FREE ENERGY PREDICTED BY IDOCK:   -9.11 KCAL/MOL
REMARK 924 INTRA-LIGAND FREE ENERGY PREDICTED BY IDOCK:   -1.55 KCAL/MOL
REMARK 927      BINDING AFFINITY PREDICTED BY RF-SCORE:    0.00 PKD
ROOT
HETATM    1 CL   UNL     1     -13.053  15.692  71.144  1.00  0.00    -0.554 Cl 
HETATM    2  C   UNL     1     -12.767  13.993  70.939  1.00  0.00    -0.350 A  
HETATM    3  C   UNL     1     -13.326  13.153  71.900  1.00  0.00    -0.546 A  
HETATM    4  C   UNL     1     -13.126  11.783  71.808  1.00  0.00    -0.480 A  
HETATM    5  C   UNL     1     -12.332  11.265  70.785  1.00  0.00    -0.495 A  
HETATM    6  C   UNL     1     -11.728  12.072  69.795  1.00  0.00    -0.319 A  
HETATM    7  C   UNL     1     -12.004  13.469  69.873  1.00  0.00    -0.348 A  
HETATM    8 CL   UNL     1     -11.523  14.569  68.606  1.00  0.00    -0.301 Cl 
ENDROOT
BRANCH   6   9
HETATM    9  N   UNL     1     -10.884  11.463  68.873  1.00  0.00    -0.205 NA 
HETATM   10  C   UNL     1      -9.428  11.692  68.872  1.00  0.00     0.028 C  
HETATM   11  C   UNL     1      -8.651  10.377  68.637  1.00  0.00    -0.133 C  
HETATM   12  N   UNL     1      -9.081   9.602  67.451  1.00  0.00    -0.131 NA 
HETATM   13  C   UNL     1     -11.396  10.624  67.769  1.00  0.00    -0.244 C  
HETATM   14  C   UNL     1     -10.534   9.348  67.605  1.00  0.00    -0.268 C  
BRANCH  12  15
HETATM   15  C   UNL     1      -8.794  10.307  66.190  1.00  0.00    -0.151 C  
BRANCH  15  16
HETATM   16  C   UNL     1      -9.659   9.834  65.006  1.00  0.00    -0.333 C  
BRANCH  16  17
HETATM   17  C   UNL     1      -9.177  10.318  63.634  1.00  0.00    -0.315 C  
BRANCH  17  18
HETATM   18  C   UNL     1     -10.085  11.417  63.103  1.00  0.00    -0.352 C  
BRANCH  18  19
HETATM   19  O   UNL     1     -11.057  11.788  64.079  1.00  0.00    -0.339 OA 
BRANCH  19  20
HETATM   20  C   UNL     1     -11.027  13.122  64.406  1.00  0.00    -0.390 A  
HETATM   21  C   UNL     1      -9.924  13.527  65.162  1.00  0.00    -0.201 A  
HETATM   22  C   UNL     1      -9.808  14.863  65.548  1.00  0.00    -0.313 A  
HETATM   23  C   UNL     1     -10.782  15.802  65.183  1.00  0.00    -0.455 A  
HETATM   24  C   UNL     1     -11.860  15.397  64.401  1.00  0.00    -0.260 A  
HETATM   25  C   UNL     1     -10.589  17.250  65.527  1.00  0.00    -0.136 C  
HETATM   26  C   UNL     1     -11.978  14.068  64.010  1.00  0.00    -0.388 A  
HETATM   27  C   UNL     1      -9.744  17.425  66.776  1.00  0.00    -0.293 C  
HETATM   28  C   UNL     1      -8.521  16.537  66.776  1.00  0.00    -0.238 C  
HETATM   29  O   UNL     1      -7.467  16.873  67.307  1.00  0.00    -0.149 OA 
HETATM   30  N   UNL     1      -8.683  15.278  66.264  1.00  0.00    -0.455 N  
HETATM   31  H   UNL     1      -7.935  14.601  66.415  1.00  0.00     0.000 HD 
ENDBRANCH  19  20
ENDBRANCH  18  19
ENDBRANCH  17  18
ENDBRANCH  16  17
ENDBRANCH  15  16
ENDBRANCH  12  15
ENDBRANCH   6   9
TORSDOF 7
ENDMDL
MODEL       19
REMARK 921   NORMALIZED FREE ENERGY PREDICTED BY IDOCK:   -6.41 KCAL/MOL
REMARK 922        TOTAL FREE ENERGY PREDICTED BY IDOCK:  -10.63 KCAL/MOL
REMARK 923 INTER-LIGAND FREE ENERGY PREDICTED BY IDOCK:   -9.38 KCAL/MOL
REMARK 924 INTRA-LIGAND FREE ENERGY PREDICTED BY IDOCK:   -1.25 KCAL/MOL
REMARK 927      BINDING AFFINITY PREDICTED BY RF-SCORE:    0.00 PKD
ROOT
HETATM    1 CL   UNL     1     -10.679  16.042  65.626  1.00  0.00    -0.355 Cl 
HETATM    2  C   UNL     1     -10.960  14.439  65.024  1.00  0.00    -0.389 A  
HETATM    3  C   UNL     1     -11.865  14.324  63.971  1.00  0.00    -0.267 A  
HETATM    4  C   UNL     1     -12.150  13.071  63.448  1.00  0.00    -0.591 A  
HETATM    5  C   UNL     1     -11.563  11.936  64.010  1.00  0.00    -0.476 A  
HETATM    6  C   UNL     1     -10.652  11.994  65.088  1.00  0.00    -0.288 A  
HETATM    7  C   UNL     1     -10.325  13.298  65.562  1.00  0.00    -0.291 A  
HETATM    8 CL   UNL     1      -9.055  13.556  66.730  1.00  0.00    -0.244 Cl 
ENDROOT
BRANCH   6   9
HETATM    9  N   UNL     1     -10.196  10.797  65.628  1.00  0.00    -0.258 NA 
HETATM   10  C   UNL     1      -9.465   9.801  64.823  1.00  0.00    -0.251 C  
HETATM   11  C   UNL     1      -8.270   9.211  65.605  1.00  0.00    -0.120 C  
HETATM   12  N   UNL     1      -8.602   8.687  66.949  1.00  0.00    -0.118 NA 
HETATM   13  C   UNL     1     -10.497  10.393  67.018  1.00  0.00    -0.251 C  
HETATM   14  C   UNL     1      -9.241   9.796  67.699  1.00  0.00    -0.130 C  
BRANCH  12  15
HETATM   15  C   UNL     1      -9.483   7.509  66.887  1.00  0.00    -0.171 C  
BRANCH  15  16
HETATM   16  C   UNL     1      -9.707   6.829  68.252  1.00  0.00    -0.126 C  
BRANCH  16  17
HETATM   17  C   UNL     1     -11.147   6.375  68.507  1.00  0.00    -0.385 C  
BRANCH  17  18
HETATM   18  C   UNL     1     -11.418   6.257  69.999  1.00  0.00    -0.390 C  
BRANCH  18  19
HETATM   19  O   UNL     1     -10.678   7.237  70.726  1.00  0.00    -0.225 OA 
BRANCH  19  20
HETATM   20  C   UNL     1     -11.430   8.323  71.108  1.00  0.00    -0.273 A  
HETATM   21  C   UNL     1     -11.091   9.529  70.489  1.00  0.00    -0.342 A  
HETATM   22  C   UNL     1     -11.793  10.690  70.815  1.00  0.00    -0.357 A  
HETATM   23  C   UNL     1     -12.835  10.658  71.751  1.00  0.00    -0.549 A  
HETATM   24  C   UNL     1     -13.188   9.445  72.338  1.00  0.00    -0.483 A  
HETATM   25  C   UNL     1     -13.639  11.898  72.016  1.00  0.00    -0.190 C  
HETATM   26  C   UNL     1     -12.495   8.285  72.013  1.00  0.00    -0.393 A  
HETATM   27  C   UNL     1     -12.830  13.158  71.769  1.00  0.00    -0.358 C  
HETATM   28  C   UNL     1     -12.042  13.097  70.480  1.00  0.00    -0.306 C  
HETATM   29  O   UNL     1     -11.811  14.095  69.806  1.00  0.00    -0.282 OA 
HETATM   30  N   UNL     1     -11.487  11.887  70.164  1.00  0.00    -0.521 N  
HETATM   31  H   UNL     1     -10.806  11.857  69.405  1.00  0.00     0.000 HD 
ENDBRANCH  19  20
ENDBRANCH  18  19
ENDBRANCH  17  18
ENDBRANCH  16  17
ENDBRANCH  15  16
ENDBRANCH  12  15
ENDBRANCH   6   9
TORSDOF 7
ENDMDL
MODEL       20
REMARK 921   NORMALIZED FREE ENERGY PREDICTED BY IDOCK:   -6.40 KCAL/MOL
REMARK 922        TOTAL FREE ENERGY PREDICTED BY IDOCK:  -10.62 KCAL/MOL
REMARK 923 INTER-LIGAND FREE ENERGY PREDICTED BY IDOCK:   -8.85 KCAL/MOL
REMARK 924 INTRA-LIGAND FREE ENERGY PREDICTED BY IDOCK:   -1.77 KCAL/MOL
REMARK 927      BINDING AFFINITY PREDICTED BY RF-SCORE:    0.00 PKD
ROOT
HETATM    1 CL   UNL     1     -13.332  15.408  72.730  1.00  0.00    -0.554 Cl 
HETATM    2  C   UNL     1     -13.015  13.978  71.799  1.00  0.00    -0.353 A  
HETATM    3  C   UNL     1     -13.369  12.767  72.389  1.00  0.00    -0.479 A  
HETATM    4  C   UNL     1     -13.131  11.581  71.709  1.00  0.00    -0.503 A  
HETATM    5  C   UNL     1     -12.501  11.610  70.464  1.00  0.00    -0.344 A  
HETATM    6  C   UNL     1     -12.108  12.808  69.828  1.00  0.00    -0.237 A  
HETATM    7  C   UNL     1     -12.424  14.015  70.517  1.00  0.00    -0.359 A  
HETATM    8 CL   UNL     1     -12.211  15.579  69.771  1.00  0.00    -0.368 Cl 
ENDROOT
BRANCH   6   9
HETATM    9  N   UNL     1     -11.409  12.718  68.630  1.00  0.00    -0.271 NA 
HETATM   10  C   UNL     1     -11.869  11.870  67.515  1.00  0.00    -0.179 C  
HETATM   11  C   UNL     1     -11.710  12.589  66.157  1.00  0.00    -0.409 C  
HETATM   12  N   UNL     1     -10.362  13.143  65.898  1.00  0.00    -0.285 NA 
HETATM   13  C   UNL     1     -10.106  13.385  68.425  1.00  0.00    -0.244 C  
HETATM   14  C   UNL     1     -10.045  14.051  67.028  1.00  0.00    -0.255 C  
BRANCH  12  15
HETATM   15  C   UNL     1      -9.342  12.089  65.760  1.00  0.00    -0.125 C  
BRANCH  15  16
HETATM   16  C   UNL     1      -9.504  11.235  64.488  1.00  0.00    -0.211 C  
BRANCH  16  17
HETATM   17  C   UNL     1      -9.573   9.725  64.741  1.00  0.00    -0.284 C  
BRANCH  17  18
HETATM   18  C   UNL     1      -9.169   9.401  66.171  1.00  0.00    -0.190 C  
BRANCH  18  19
HETATM   19  O   UNL     1     -10.177   8.629  66.820  1.00  0.00    -0.270 OA 
BRANCH  19  20
HETATM   20  C   UNL     1     -10.092   8.652  68.191  1.00  0.00    -0.197 A  
HETATM   21  C   UNL     1     -10.728   7.594  68.846  1.00  0.00    -0.117 A  
HETATM   22  C   UNL     1     -10.702   7.533  70.240  1.00  0.00    -0.238 A  
HETATM   23  C   UNL     1     -10.042   8.516  70.988  1.00  0.00    -0.257 A  
HETATM   24  C   UNL     1      -9.381   9.548  70.326  1.00  0.00    -0.305 A  
HETATM   25  C   UNL     1      -9.944   8.380  72.480  1.00  0.00    -0.356 C  
HETATM   26  C   UNL     1      -9.401   9.611  68.938  1.00  0.00    -0.151 A  
HETATM   27  C   UNL     1     -11.111   7.595  73.052  1.00  0.00    -0.437 C  
HETATM   28  C   UNL     1     -11.417   6.349  72.253  1.00  0.00    -0.298 C  
HETATM   29  O   UNL     1     -11.857   5.329  72.774  1.00  0.00    -0.251 OA 
HETATM   30  N   UNL     1     -11.298   6.452  70.894  1.00  0.00    -0.322 N  
HETATM   31  H   UNL     1     -11.668   5.693  70.323  1.00  0.00     0.000 HD 
ENDBRANCH  19  20
ENDBRANCH  18  19
ENDBRANCH  17  18
ENDBRANCH  16  17
ENDBRANCH  15  16
ENDBRANCH  12  15
ENDBRANCH   6   9
TORSDOF 7
ENDMDL
MODEL       21
REMARK 921   NORMALIZED FREE ENERGY PREDICTED BY IDOCK:   -6.31 KCAL/MOL
REMARK 922        TOTAL FREE ENERGY PREDICTED BY IDOCK:  -10.49 KCAL/MOL
REMARK 923 INTER-LIGAND FREE ENERGY PREDICTED BY IDOCK:   -9.40 KCAL/MOL
REMARK 924 INTRA-LIGAND FREE ENERGY PREDICTED BY IDOCK:   -1.10 KCAL/MOL
REMARK 927      BINDING AFFINITY PREDICTED BY RF-SCORE:    0.00 PKD
ROOT
HETATM    1 CL   UNL     1      -8.654   6.822  67.394  1.00  0.00    -0.120 Cl 
HETATM    2  C   UNL     1      -8.744   7.877  66.018  1.00  0.00    -0.158 A  
HETATM    3  C   UNL     1      -7.971   7.520  64.915  1.00  0.00    -0.132 A  
HETATM    4  C   UNL     1      -7.982   8.325  63.785  1.00  0.00    -0.149 A  
HETATM    5  C   UNL     1      -8.728   9.504  63.781  1.00  0.00    -0.237 A  
HETATM    6  C   UNL     1      -9.517   9.920  64.876  1.00  0.00    -0.291 A  
HETATM    7  C   UNL     1      -9.541   9.043  65.999  1.00  0.00    -0.272 A  
HETATM    8 CL   UNL     1     -10.633   9.296  67.337  1.00  0.00    -0.344 Cl 
ENDROOT
BRANCH   6   9
HETATM    9  N   UNL     1     -10.150  11.155  64.799  1.00  0.00    -0.273 NA 
HETATM   10  C   UNL     1     -10.580  11.737  63.514  1.00  0.00    -0.440 C  
HETATM   11  C   UNL     1     -11.980  12.381  63.627  1.00  0.00    -0.539 C  
HETATM   12  N   UNL     1     -12.135  13.345  64.740  1.00  0.00    -0.386 NA 
HETATM   13  C   UNL     1     -10.347  12.017  65.984  1.00  0.00    -0.238 C  
HETATM   14  C   UNL     1     -11.770  12.628  65.987  1.00  0.00    -0.417 C  
BRANCH  12  15
HETATM   15  C   UNL     1     -11.305  14.548  64.557  1.00  0.00    -0.316 C  
BRANCH  15  16
HETATM   16  C   UNL     1     -11.399  15.550  65.724  1.00  0.00    -0.039 C  
BRANCH  16  17
HETATM   17  C   UNL     1     -10.063  15.853  66.410  1.00  0.00    -0.306 C  
BRANCH  17  18
HETATM   18  C   UNL     1     -10.132  15.519  67.893  1.00  0.00    -0.224 C  
BRANCH  18  19
HETATM   19  O   UNL     1     -11.387  15.915  68.443  1.00  0.00    -0.346 OA 
BRANCH  19  20
HETATM   20  C   UNL     1     -11.879  15.037  69.379  1.00  0.00    -0.329 A  
HETATM   21  C   UNL     1     -11.436  13.718  69.251  1.00  0.00    -0.344 A  
HETATM   22  C   UNL     1     -11.885  12.751  70.151  1.00  0.00    -0.251 A  
HETATM   23  C   UNL     1     -12.770  13.088  71.183  1.00  0.00    -0.372 A  
HETATM   24  C   UNL     1     -13.180  14.412  71.324  1.00  0.00    -0.416 A  
HETATM   25  C   UNL     1     -13.165  12.054  72.196  1.00  0.00    -0.400 C  
HETATM   26  C   UNL     1     -12.732  15.380  70.433  1.00  0.00    -0.407 A  
HETATM   27  C   UNL     1     -13.115  10.652  71.619  1.00  0.00    -0.555 C  
HETATM   28  C   UNL     1     -11.858  10.401  70.816  1.00  0.00    -0.368 C  
HETATM   29  O   UNL     1     -11.329   9.296  70.756  1.00  0.00    -0.257 OA 
HETATM   30  N   UNL     1     -11.407  11.442  70.052  1.00  0.00    -0.474 N  
HETATM   31  H   UNL     1     -10.676  11.251  69.367  1.00  0.00     0.000 HD 
ENDBRANCH  19  20
ENDBRANCH  18  19
ENDBRANCH  17  18
ENDBRANCH  16  17
ENDBRANCH  15  16
ENDBRANCH  12  15
ENDBRANCH   6   9
TORSDOF 7
ENDMDL
MODEL       22
REMARK 921   NORMALIZED FREE ENERGY PREDICTED BY IDOCK:   -6.27 KCAL/MOL
REMARK 922        TOTAL FREE ENERGY PREDICTED BY IDOCK:  -10.44 KCAL/MOL
REMARK 923 INTER-LIGAND FREE ENERGY PREDICTED BY IDOCK:   -9.21 KCAL/MOL
REMARK 924 INTRA-LIGAND FREE ENERGY PREDICTED BY IDOCK:   -1.23 KCAL/MOL
REMARK 927      BINDING AFFINITY PREDICTED BY RF-SCORE:    0.00 PKD
ROOT
HETATM    1 CL   UNL     1     -13.493  12.193  72.000  1.00  0.00    -0.505 Cl 
HETATM    2  C   UNL     1     -12.817  10.632  71.655  1.00  0.00    -0.465 A  
HETATM    3  C   UNL     1     -13.286   9.572  72.427  1.00  0.00    -0.451 A  
HETATM    4  C   UNL     1     -12.779   8.298  72.218  1.00  0.00    -0.338 A  
HETATM    5  C   UNL     1     -11.775   8.099  71.270  1.00  0.00    -0.310 A  
HETATM    6  C   UNL     1     -11.252   9.141  70.471  1.00  0.00    -0.264 A  
HETATM    7  C   UNL     1     -11.837  10.427  70.659  1.00  0.00    -0.350 A  
HETATM    8 CL   UNL     1     -11.465  11.765  69.603  1.00  0.00    -0.350 Cl 
ENDROOT
BRANCH   6   9
HETATM    9  N   UNL     1     -10.192   8.849  69.620  1.00  0.00    -0.200 NA 
HETATM   10  C   UNL     1      -8.830   9.362  69.860  1.00  0.00    -0.199 C  
HETATM   11  C   UNL     1      -7.764   8.275  69.594  1.00  0.00    -0.100 C  
HETATM   12  N   UNL     1      -7.870   7.606  68.277  1.00  0.00    -0.119 NA 
HETATM   13  C   UNL     1     -10.373   8.090  68.365  1.00  0.00    -0.199 C  
HETATM   14  C   UNL     1      -9.241   7.048  68.186  1.00  0.00    -0.130 C  
BRANCH  12  15
HETATM   15  C   UNL     1      -7.594   8.526  67.161  1.00  0.00    -0.096 C  
BRANCH  15  16
HETATM   16  C   UNL     1      -8.114   8.021  65.800  1.00  0.00    -0.121 C  
BRANCH  16  17
HETATM   17  C   UNL     1      -7.774   8.929  64.614  1.00  0.00    -0.117 C  
BRANCH  17  18
HETATM   18  C   UNL     1      -9.020   9.640  64.107  1.00  0.00    -0.229 C  
BRANCH  18  19
HETATM   19  O   UNL     1      -9.929   9.893  65.176  1.00  0.00    -0.318 OA 
BRANCH  19  20
HETATM   20  C   UNL     1      -9.892  11.188  65.636  1.00  0.00    -0.235 A  
HETATM   21  C   UNL     1     -10.486  12.135  64.798  1.00  0.00    -0.332 A  
HETATM   22  C   UNL     1     -10.493  13.479  65.175  1.00  0.00    -0.364 A  
HETATM   23  C   UNL     1      -9.916  13.886  66.385  1.00  0.00    -0.303 A  
HETATM   24  C   UNL     1      -9.357  12.930  67.230  1.00  0.00    -0.212 A  
HETATM   25  C   UNL     1     -10.019  15.320  66.816  1.00  0.00    -0.249 C  
HETATM   26  C   UNL     1      -9.351  11.590  66.860  1.00  0.00    -0.189 A  
HETATM   27  C   UNL     1     -10.123  16.259  65.629  1.00  0.00    -0.340 C  
HETATM   28  C   UNL     1     -11.103  15.769  64.587  1.00  0.00    -0.361 C  
HETATM   29  O   UNL     1     -11.763  16.538  63.896  1.00  0.00    -1.148 OA 
HETATM   30  N   UNL     1     -11.126  14.420  64.361  1.00  0.00    -0.614 N  
HETATM   31  H   UNL     1     -11.638  14.081  63.547  1.00  0.00     0.000 HD 
ENDBRANCH  19  20
ENDBRANCH  18  19
ENDBRANCH  17  18
ENDBRANCH  16  17
ENDBRANCH  15  16
ENDBRANCH  12  15
ENDBRANCH   6   9
TORSDOF 7
ENDMDL
MODEL       23
REMARK 921   NORMALIZED FREE ENERGY PREDICTED BY IDOCK:   -6.22 KCAL/MOL
REMARK 922        TOTAL FREE ENERGY PREDICTED BY IDOCK:  -10.37 KCAL/MOL
REMARK 923 INTER-LIGAND FREE ENERGY PREDICTED BY IDOCK:   -9.70 KCAL/MOL
REMARK 924 INTRA-LIGAND FREE ENERGY PREDICTED BY IDOCK:   -0.67 KCAL/MOL
REMARK 927      BINDING AFFINITY PREDICTED BY RF-SCORE:    0.00 PKD
ROOT
HETATM    1 CL   UNL     1      -6.551  18.905  65.472  1.00  0.00    -0.310 Cl 
HETATM    2  C   UNL     1      -8.148  18.851  66.148  1.00  0.00    -0.222 A  
HETATM    3  C   UNL     1      -8.883  20.033  66.090  1.00  0.00    -0.320 A  
HETATM    4  C   UNL     1     -10.163  20.068  66.625  1.00  0.00    -0.597 A  
HETATM    5  C   UNL     1     -10.682  18.937  67.255  1.00  0.00    -0.523 A  
HETATM    6  C   UNL     1      -9.974  17.719  67.356  1.00  0.00    -0.323 A  
HETATM    7  C   UNL     1      -8.689  17.689  66.740  1.00  0.00    -0.258 A  
HETATM    8 CL   UNL     1      -7.784  16.205  66.580  1.00  0.00    -0.269 Cl 
ENDROOT
BRANCH   6   9
HETATM    9  N   UNL     1     -10.550  16.682  68.081  1.00  0.00    -0.322 NA 
HETATM   10  C   UNL     1     -11.294  15.587  67.430  1.00  0.00    -0.203 C  
HETATM   11  C   UNL     1     -10.945  14.218  68.057  1.00  0.00    -0.249 C  
HETATM   12  N   UNL     1     -11.068  14.158  69.531  1.00  0.00    -0.216 NA 
HETATM   13  C   UNL     1     -10.544  16.654  69.559  1.00  0.00    -0.308 C  
HETATM   14  C   UNL     1     -10.208  15.235  70.080  1.00  0.00    -0.197 C  
BRANCH  12  15
HETATM   15  C   UNL     1     -12.462  14.308  69.982  1.00  0.00    -0.300 C  
BRANCH  15  16
HETATM   16  C   UNL     1     -12.628  14.242  71.512  1.00  0.00    -0.432 C  
BRANCH  16  17
HETATM   17  C   UNL     1     -13.335  12.981  72.021  1.00  0.00    -0.588 C  
BRANCH  17  18
HETATM   18  C   UNL     1     -12.839  11.750  71.279  1.00  0.00    -0.308 C  
BRANCH  18  19
HETATM   19  O   UNL     1     -13.066  10.570  72.047  1.00  0.00    -0.467 OA 
BRANCH  19  20
HETATM   20  C   UNL     1     -12.272   9.510  71.677  1.00  0.00    -0.398 A  
HETATM   21  C   UNL     1     -12.447   8.344  72.427  1.00  0.00    -0.390 A  
HETATM   22  C   UNL     1     -11.681   7.215  72.132  1.00  0.00    -0.284 A  
HETATM   23  C   UNL     1     -10.745   7.238  71.090  1.00  0.00    -0.244 A  
HETATM   24  C   UNL     1     -10.602   8.393  70.325  1.00  0.00    -0.234 A  
HETATM   25  C   UNL     1     -10.001   5.985  70.727  1.00  0.00    -0.237 C  
HETATM   26  C   UNL     1     -11.365   9.519  70.613  1.00  0.00    -0.364 A  
HETATM   27  C   UNL     1      -9.844   5.058  71.918  1.00  0.00    -0.236 C  
HETATM   28  C   UNL     1     -11.124   4.909  72.709  1.00  0.00    -0.210 C  
HETATM   29  O   UNL     1     -11.416   3.870  73.292  1.00  0.00    -0.178 OA 
HETATM   30  N   UNL     1     -11.887   6.036  72.850  1.00  0.00    -0.509 N  
HETATM   31  H   UNL     1     -12.654   6.013  73.522  1.00  0.00     0.000 HD 
ENDBRANCH  19  20
ENDBRANCH  18  19
ENDBRANCH  17  18
ENDBRANCH  16  17
ENDBRANCH  15  16
ENDBRANCH  12  15
ENDBRANCH   6   9
TORSDOF 7
ENDMDL
MODEL       24
REMARK 921   NORMALIZED FREE ENERGY PREDICTED BY IDOCK:   -6.22 KCAL/MOL
REMARK 922        TOTAL FREE ENERGY PREDICTED BY IDOCK:  -10.37 KCAL/MOL
REMARK 923 INTER-LIGAND FREE ENERGY PREDICTED BY IDOCK:   -9.47 KCAL/MOL
REMARK 924 INTRA-LIGAND FREE ENERGY PREDICTED BY IDOCK:   -0.90 KCAL/MOL
REMARK 927      BINDING AFFINITY PREDICTED BY RF-SCORE:    0.00 PKD
ROOT
HETATM    1 CL   UNL     1     -12.404  15.591  63.979  1.00  0.00    -0.105 Cl 
HETATM    2  C   UNL     1     -11.248  14.811  65.012  1.00  0.00    -0.395 A  
HETATM    3  C   UNL     1     -10.285  15.634  65.593  1.00  0.00    -0.402 A  
HETATM    4  C   UNL     1      -9.319  15.077  66.419  1.00  0.00    -0.334 A  
HETATM    5  C   UNL     1      -9.294  13.697  66.623  1.00  0.00    -0.265 A  
HETATM    6  C   UNL     1     -10.236  12.816  66.047  1.00  0.00    -0.278 A  
HETATM    7  C   UNL     1     -11.256  13.421  65.257  1.00  0.00    -0.289 A  
HETATM    8 CL   UNL     1     -12.618  12.504  64.662  1.00  0.00    -0.553 Cl 
ENDROOT
BRANCH   6   9
HETATM    9  N   UNL     1     -10.065  11.451  66.245  1.00  0.00    -0.217 NA 
HETATM   10  C   UNL     1     -10.275  10.470  65.164  1.00  0.00    -0.288 C  
HETATM   11  C   UNL     1      -9.178   9.382  65.170  1.00  0.00    -0.225 C  
HETATM   12  N   UNL     1      -8.966   8.716  66.475  1.00  0.00    -0.145 NA 
HETATM   13  C   UNL     1      -9.761  10.877  67.573  1.00  0.00    -0.167 C  
HETATM   14  C   UNL     1      -8.670   9.784  67.461  1.00  0.00    -0.125 C  
BRANCH  12  15
HETATM   15  C   UNL     1     -10.132   7.918  66.890  1.00  0.00    -0.291 C  
BRANCH  15  16
HETATM   16  C   UNL     1      -9.940   7.197  68.239  1.00  0.00    -0.171 C  
BRANCH  16  17
HETATM   17  C   UNL     1     -11.108   6.294  68.648  1.00  0.00    -0.409 C  
BRANCH  17  18
HETATM   18  C   UNL     1     -11.488   6.532  70.101  1.00  0.00    -0.415 C  
BRANCH  18  19
HETATM   19  O   UNL     1     -10.733   7.609  70.653  1.00  0.00    -0.223 OA 
BRANCH  19  20
HETATM   20  C   UNL     1     -11.504   8.671  71.059  1.00  0.00    -0.278 A  
HETATM   21  C   UNL     1     -11.204   9.893  70.450  1.00  0.00    -0.379 A  
HETATM   22  C   UNL     1     -11.929  11.033  70.800  1.00  0.00    -0.333 A  
HETATM   23  C   UNL     1     -12.956  10.964  71.751  1.00  0.00    -0.557 A  
HETATM   24  C   UNL     1     -13.271   9.736  72.328  1.00  0.00    -0.468 A  
HETATM   25  C   UNL     1     -13.785  12.181  72.043  1.00  0.00    -0.102 C  
HETATM   26  C   UNL     1     -12.554   8.597  71.979  1.00  0.00    -0.434 A  
HETATM   27  C   UNL     1     -13.011  13.463  71.800  1.00  0.00    -0.435 C  
HETATM   28  C   UNL     1     -12.241  13.436  70.499  1.00  0.00    -0.352 C  
HETATM   29  O   UNL     1     -12.044  14.448  69.834  1.00  0.00    -0.306 OA 
HETATM   30  N   UNL     1     -11.661  12.244  70.160  1.00  0.00    -0.529 N  
HETATM   31  H   UNL     1     -10.992  12.240  69.391  1.00  0.00     0.000 HD 
ENDBRANCH  19  20
ENDBRANCH  18  19
ENDBRANCH  17  18
ENDBRANCH  16  17
ENDBRANCH  15  16
ENDBRANCH  12  15
ENDBRANCH   6   9
TORSDOF 7
ENDMDL
MODEL       25
REMARK 921   NORMALIZED FREE ENERGY PREDICTED BY IDOCK:   -6.21 KCAL/MOL
REMARK 922        TOTAL FREE ENERGY PREDICTED BY IDOCK:  -10.36 KCAL/MOL
REMARK 923 INTER-LIGAND FREE ENERGY PREDICTED BY IDOCK:   -9.24 KCAL/MOL
REMARK 924 INTRA-LIGAND FREE ENERGY PREDICTED BY IDOCK:   -1.11 KCAL/MOL
REMARK 927      BINDING AFFINITY PREDICTED BY RF-SCORE:    0.00 PKD
ROOT
HETATM    1 CL   UNL     1      -9.680   4.364  65.144  1.00  0.00    -0.182 Cl 
HETATM    2  C   UNL     1      -9.636   4.282  66.877  1.00  0.00    -0.203 A  
HETATM    3  C   UNL     1      -9.307   3.046  67.429  1.00  0.00    -0.216 A  
HETATM    4  C   UNL     1      -9.267   2.903  68.808  1.00  0.00    -0.230 A  
HETATM    5  C   UNL     1      -9.600   3.983  69.627  1.00  0.00    -0.270 A  
HETATM    6  C   UNL     1      -9.956   5.252  69.120  1.00  0.00    -0.205 A  
HETATM    7  C   UNL     1      -9.924   5.392  67.702  1.00  0.00    -0.162 A  
HETATM    8 CL   UNL     1     -10.117   6.945  66.930  1.00  0.00    -0.272 Cl 
ENDROOT
BRANCH   6   9
HETATM    9  N   UNL     1     -10.355   6.232  70.022  1.00  0.00    -0.187 NA 
HETATM   10  C   UNL     1     -11.775   6.489  70.324  1.00  0.00    -0.366 C  
HETATM   11  C   UNL     1     -11.998   6.714  71.837  1.00  0.00    -0.341 C  
HETATM   12  N   UNL     1     -11.118   7.733  72.452  1.00  0.00    -0.295 NA 
HETATM   13  C   UNL     1      -9.393   7.152  70.665  1.00  0.00    -0.158 C  
HETATM   14  C   UNL     1      -9.720   7.325  72.169  1.00  0.00    -0.152 C  
BRANCH  12  15
HETATM   15  C   UNL     1     -11.390   9.087  71.940  1.00  0.00    -0.368 C  
BRANCH  15  16
HETATM   16  C   UNL     1     -12.813   9.592  72.250  1.00  0.00    -0.426 C  
BRANCH  16  17
HETATM   17  C   UNL     1     -13.075  11.045  71.842  1.00  0.00    -0.525 C  
BRANCH  17  18
HETATM   18  C   UNL     1     -12.997  11.202  70.331  1.00  0.00     0.008 C  
BRANCH  18  19
HETATM   19  O   UNL     1     -11.756  11.790  69.946  1.00  0.00    -0.310 OA 
BRANCH  19  20
HETATM   20  C   UNL     1     -11.461  11.629  68.613  1.00  0.00    -0.290 A  
HETATM   21  C   UNL     1     -11.997  12.600  67.763  1.00  0.00    -0.303 A  
HETATM   22  C   UNL     1     -11.758  12.520  66.390  1.00  0.00    -0.397 A  
HETATM   23  C   UNL     1     -10.983  11.481  65.858  1.00  0.00    -0.301 A  
HETATM   24  C   UNL     1     -10.423  10.538  66.716  1.00  0.00    -0.302 A  
HETATM   25  C   UNL     1     -10.659  11.467  64.392  1.00  0.00    -0.392 C  
HETATM   26  C   UNL     1     -10.656  10.616  68.085  1.00  0.00    -0.237 A  
HETATM   27  C   UNL     1     -11.729  12.162  63.571  1.00  0.00    -0.579 C  
HETATM   28  C   UNL     1     -12.164  13.476  64.180  1.00  0.00    -0.394 C  
HETATM   29  O   UNL     1     -12.527  14.427  63.496  1.00  0.00    -0.770 OA 
HETATM   30  N   UNL     1     -12.255  13.514  65.545  1.00  0.00    -0.422 N  
HETATM   31  H   UNL     1     -12.714  14.318  65.971  1.00  0.00     0.000 HD 
ENDBRANCH  19  20
ENDBRANCH  18  19
ENDBRANCH  17  18
ENDBRANCH  16  17
ENDBRANCH  15  16
ENDBRANCH  12  15
ENDBRANCH   6   9
TORSDOF 7
ENDMDL
MODEL       26
REMARK 921   NORMALIZED FREE ENERGY PREDICTED BY IDOCK:   -6.21 KCAL/MOL
REMARK 922        TOTAL FREE ENERGY PREDICTED BY IDOCK:  -10.35 KCAL/MOL
REMARK 923 INTER-LIGAND FREE ENERGY PREDICTED BY IDOCK:   -9.10 KCAL/MOL
REMARK 924 INTRA-LIGAND FREE ENERGY PREDICTED BY IDOCK:   -1.24 KCAL/MOL
REMARK 927      BINDING AFFINITY PREDICTED BY RF-SCORE:    0.00 PKD
ROOT
HETATM    1 CL   UNL     1      -9.588   4.527  65.874  1.00  0.00    -0.172 Cl 
HETATM    2  C   UNL     1      -9.781   4.856  67.567  1.00  0.00    -0.164 A  
HETATM    3  C   UNL     1      -9.404   3.839  68.441  1.00  0.00    -0.226 A  
HETATM    4  C   UNL     1      -9.545   4.027  69.808  1.00  0.00    -0.280 A  
HETATM    5  C   UNL     1     -10.103   5.210  70.292  1.00  0.00    -0.338 A  
HETATM    6  C   UNL     1     -10.517   6.267  69.450  1.00  0.00    -0.243 A  
HETATM    7  C   UNL     1     -10.300   6.076  68.054  1.00  0.00    -0.202 A  
HETATM    8 CL   UNL     1     -10.546   7.366  66.905  1.00  0.00    -0.402 Cl 
ENDROOT
BRANCH   6   9
HETATM    9  N   UNL     1     -11.142   7.364  70.031  1.00  0.00    -0.248 NA 
HETATM   10  C   UNL     1     -12.551   7.326  70.465  1.00  0.00     0.120 C  
HETATM   11  C   UNL     1     -12.738   8.021  71.833  1.00  0.00    -0.327 C  
HETATM   12  N   UNL     1     -12.179   9.389  71.919  1.00  0.00    -0.374 NA 
HETATM   13  C   UNL     1     -10.472   8.675  70.162  1.00  0.00    -0.217 C  
HETATM   14  C   UNL     1     -10.743   9.292  71.556  1.00  0.00    -0.355 C  
BRANCH  12  15
HETATM   15  C   UNL     1     -12.886  10.337  71.042  1.00  0.00    -0.397 C  
BRANCH  15  16
HETATM   16  C   UNL     1     -13.220  11.679  71.723  1.00  0.00    -0.438 C  
BRANCH  16  17
HETATM   17  C   UNL     1     -12.587  12.904  71.056  1.00  0.00    -0.376 C  
BRANCH  17  18
HETATM   18  C   UNL     1     -11.846  12.504  69.789  1.00  0.00    -0.310 C  
BRANCH  18  19
HETATM   19  O   UNL     1     -11.753  13.606  68.887  1.00  0.00    -0.291 OA 
BRANCH  19  20
HETATM   20  C   UNL     1     -11.701  13.233  67.566  1.00  0.00    -0.366 A  
HETATM   21  C   UNL     1     -10.806  12.200  67.272  1.00  0.00    -0.286 A  
HETATM   22  C   UNL     1     -10.677  11.755  65.956  1.00  0.00    -0.279 A  
HETATM   23  C   UNL     1     -11.438  12.328  64.928  1.00  0.00    -0.382 A  
HETATM   24  C   UNL     1     -12.352  13.333  65.235  1.00  0.00    -0.525 A  
HETATM   25  C   UNL     1     -11.354  11.770  63.537  1.00  0.00    -0.496 C  
HETATM   26  C   UNL     1     -12.487  13.777  66.545  1.00  0.00    -0.356 A  
HETATM   27  C   UNL     1     -10.004  11.131  63.267  1.00  0.00    -0.419 C  
HETATM   28  C   UNL     1      -9.543  10.248  64.404  1.00  0.00    -0.316 C  
HETATM   29  O   UNL     1      -8.861   9.246  64.220  1.00  0.00    -0.204 OA 
HETATM   30  N   UNL     1      -9.818  10.692  65.669  1.00  0.00    -0.236 N  
HETATM   31  H   UNL     1      -9.366  10.218  66.450  1.00  0.00     0.000 HD 
ENDBRANCH  19  20
ENDBRANCH  18  19
ENDBRANCH  17  18
ENDBRANCH  16  17
ENDBRANCH  15  16
ENDBRANCH  12  15
ENDBRANCH   6   9
TORSDOF 7
ENDMDL
MODEL       27
REMARK 921   NORMALIZED FREE ENERGY PREDICTED BY IDOCK:   -6.19 KCAL/MOL
REMARK 922        TOTAL FREE ENERGY PREDICTED BY IDOCK:  -10.33 KCAL/MOL
REMARK 923 INTER-LIGAND FREE ENERGY PREDICTED BY IDOCK:   -9.00 KCAL/MOL
REMARK 924 INTRA-LIGAND FREE ENERGY PREDICTED BY IDOCK:   -1.33 KCAL/MOL
REMARK 927      BINDING AFFINITY PREDICTED BY RF-SCORE:    0.00 PKD
ROOT
HETATM    1 CL   UNL     1     -13.186  13.278  72.455  1.00  0.00    -0.571 Cl 
HETATM    2  C   UNL     1     -12.377  14.139  71.183  1.00  0.00    -0.372 A  
HETATM    3  C   UNL     1     -11.971  15.439  71.480  1.00  0.00    -0.443 A  
HETATM    4  C   UNL     1     -11.331  16.193  70.506  1.00  0.00    -0.392 A  
HETATM    5  C   UNL     1     -11.143  15.661  69.230  1.00  0.00    -0.293 A  
HETATM    6  C   UNL     1     -11.549  14.357  68.872  1.00  0.00    -0.306 A  
HETATM    7  C   UNL     1     -12.143  13.579  69.908  1.00  0.00    -0.341 A  
HETATM    8 CL   UNL     1     -12.494  11.883  69.695  1.00  0.00    -0.069 Cl 
ENDROOT
BRANCH   6   9
HETATM    9  N   UNL     1     -11.393  13.959  67.549  1.00  0.00    -0.303 NA 
HETATM   10  C   UNL     1     -12.516  13.955  66.593  1.00  0.00    -0.270 C  
HETATM   11  C   UNL     1     -12.085  14.503  65.215  1.00  0.00    -0.337 C  
HETATM   12  N   UNL     1     -10.879  13.866  64.639  1.00  0.00    -0.409 NA 
HETATM   13  C   UNL     1     -10.118  13.419  67.033  1.00  0.00    -0.247 C  
HETATM   14  C   UNL     1      -9.794  14.014  65.640  1.00  0.00    -0.228 C  
BRANCH  12  15
HETATM   15  C   UNL     1     -11.102  12.450  64.302  1.00  0.00    -0.349 C  
BRANCH  15  16
HETATM   16  C   UNL     1      -9.992  11.840  63.425  1.00  0.00    -0.446 C  
BRANCH  16  17
HETATM   17  C   UNL     1      -9.135  10.783  64.130  1.00  0.00    -0.215 C  
BRANCH  17  18
HETATM   18  C   UNL     1      -9.960  10.014  65.151  1.00  0.00    -0.280 C  
BRANCH  18  19
HETATM   19  O   UNL     1      -9.318  10.014  66.424  1.00  0.00    -0.157 OA 
BRANCH  19  20
HETATM   20  C   UNL     1      -9.742   9.003  67.254  1.00  0.00    -0.179 A  
HETATM   21  C   UNL     1     -10.230   9.417  68.497  1.00  0.00    -0.223 A  
HETATM   22  C   UNL     1     -10.679   8.463  69.411  1.00  0.00    -0.152 A  
HETATM   23  C   UNL     1     -10.650   7.098  69.096  1.00  0.00    -0.227 A  
HETATM   24  C   UNL     1     -10.194   6.697  67.842  1.00  0.00    -0.203 A  
HETATM   25  C   UNL     1     -11.225   6.098  70.056  1.00  0.00    -0.471 C  
HETATM   26  C   UNL     1      -9.750   7.644  66.926  1.00  0.00    -0.277 A  
HETATM   27  C   UNL     1     -11.147   6.584  71.491  1.00  0.00    -0.310 C  
HETATM   28  C   UNL     1     -11.581   8.025  71.638  1.00  0.00    -0.275 C  
HETATM   29  O   UNL     1     -12.136   8.442  72.650  1.00  0.00    -0.390 OA 
HETATM   30  N   UNL     1     -11.209   8.878  70.635  1.00  0.00    -0.262 N  
HETATM   31  H   UNL     1     -11.327   9.879  70.790  1.00  0.00     0.000 HD 
ENDBRANCH  19  20
ENDBRANCH  18  19
ENDBRANCH  17  18
ENDBRANCH  16  17
ENDBRANCH  15  16
ENDBRANCH  12  15
ENDBRANCH   6   9
TORSDOF 7
ENDMDL
MODEL       28
REMARK 921   NORMALIZED FREE ENERGY PREDICTED BY IDOCK:   -6.19 KCAL/MOL
REMARK 922        TOTAL FREE ENERGY PREDICTED BY IDOCK:  -10.33 KCAL/MOL
REMARK 923 INTER-LIGAND FREE ENERGY PREDICTED BY IDOCK:   -9.33 KCAL/MOL
REMARK 924 INTRA-LIGAND FREE ENERGY PREDICTED BY IDOCK:   -1.00 KCAL/MOL
REMARK 927      BINDING AFFINITY PREDICTED BY RF-SCORE:    0.00 PKD
ROOT
HETATM    1 CL   UNL     1     -11.244   8.212  72.705  1.00  0.00    -0.451 Cl 
HETATM    2  C   UNL     1     -11.093   7.648  71.070  1.00  0.00    -0.257 A  
HETATM    3  C   UNL     1     -11.270   6.281  70.870  1.00  0.00    -0.386 A  
HETATM    4  C   UNL     1     -11.149   5.757  69.591  1.00  0.00    -0.306 A  
HETATM    5  C   UNL     1     -10.808   6.594  68.528  1.00  0.00    -0.319 A  
HETATM    6  C   UNL     1     -10.601   7.983  68.678  1.00  0.00    -0.109 A  
HETATM    7  C   UNL     1     -10.797   8.507  69.989  1.00  0.00    -0.223 A  
HETATM    8 CL   UNL     1     -10.801  10.225  70.298  1.00  0.00    -0.354 Cl 
ENDROOT
BRANCH   6   9
HETATM    9  N   UNL     1     -10.178   8.709  67.570  1.00  0.00    -0.226 NA 
HETATM   10  C   UNL     1     -10.704  10.052  67.264  1.00  0.00    -0.244 C  
HETATM   11  C   UNL     1      -9.578  11.008  66.810  1.00  0.00    -0.190 C  
HETATM   12  N   UNL     1      -8.728  10.493  65.712  1.00  0.00    -0.171 NA 
HETATM   13  C   UNL     1      -9.249   8.147  66.568  1.00  0.00    -0.188 C  
HETATM   14  C   UNL     1      -8.179   9.192  66.166  1.00  0.00    -0.111 C  
BRANCH  12  15
HETATM   15  C   UNL     1      -9.474  10.345  64.451  1.00  0.00    -0.287 C  
BRANCH  15  16
HETATM   16  C   UNL     1      -9.964  11.682  63.861  1.00  0.00    -0.358 C  
BRANCH  16  17
HETATM   17  C   UNL     1     -11.473  11.748  63.604  1.00  0.00    -0.524 C  
BRANCH  17  18
HETATM   18  C   UNL     1     -12.084  12.955  64.297  1.00  0.00    -0.419 C  
BRANCH  18  19
HETATM   19  O   UNL     1     -12.365  12.665  65.665  1.00  0.00    -0.581 OA 
BRANCH  19  20
HETATM   20  C   UNL     1     -11.929  13.636  66.535  1.00  0.00    -0.424 A  
HETATM   21  C   UNL     1     -11.305  14.735  65.938  1.00  0.00    -0.331 A  
HETATM   22  C   UNL     1     -10.823  15.771  66.738  1.00  0.00    -0.254 A  
HETATM   23  C   UNL     1     -10.962  15.724  68.132  1.00  0.00    -0.330 A  
HETATM   24  C   UNL     1     -11.615  14.641  68.716  1.00  0.00    -0.346 A  
HETATM   25  C   UNL     1     -10.522  16.892  68.966  1.00  0.00    -0.341 C  
HETATM   26  C   UNL     1     -12.101  13.609  67.922  1.00  0.00    -0.318 A  
HETATM   27  C   UNL     1      -9.396  17.664  68.305  1.00  0.00    -0.290 C  
HETATM   28  C   UNL     1      -9.647  17.910  66.834  1.00  0.00    -0.300 C  
HETATM   29  O   UNL     1      -9.244  18.915  66.259  1.00  0.00    -0.352 OA 
HETATM   30  N   UNL     1     -10.240  16.890  66.140  1.00  0.00    -0.335 N  
HETATM   31  H   UNL     1     -10.258  16.952  65.122  1.00  0.00     0.000 HD 
ENDBRANCH  19  20
ENDBRANCH  18  19
ENDBRANCH  17  18
ENDBRANCH  16  17
ENDBRANCH  15  16
ENDBRANCH  12  15
ENDBRANCH   6   9
TORSDOF 7
ENDMDL
MODEL       29
REMARK 921   NORMALIZED FREE ENERGY PREDICTED BY IDOCK:   -6.18 KCAL/MOL
REMARK 922        TOTAL FREE ENERGY PREDICTED BY IDOCK:  -10.31 KCAL/MOL
REMARK 923 INTER-LIGAND FREE ENERGY PREDICTED BY IDOCK:   -9.31 KCAL/MOL
REMARK 924 INTRA-LIGAND FREE ENERGY PREDICTED BY IDOCK:   -1.01 KCAL/MOL
REMARK 927      BINDING AFFINITY PREDICTED BY RF-SCORE:    0.00 PKD
ROOT
HETATM    1 CL   UNL     1      -8.440   7.180  65.317  1.00  0.00    -0.104 Cl 
HETATM    2  C   UNL     1      -8.761   8.672  64.490  1.00  0.00     0.001 A  
HETATM    3  C   UNL     1      -8.336   8.748  63.166  1.00  0.00    -0.167 A  
HETATM    4  C   UNL     1      -8.546   9.916  62.447  1.00  0.00    -0.200 A  
HETATM    5  C   UNL     1      -9.137  11.016  63.070  1.00  0.00    -0.300 A  
HETATM    6  C   UNL     1      -9.571  10.999  64.414  1.00  0.00    -0.259 A  
HETATM    7  C   UNL     1      -9.405   9.766  65.109  1.00  0.00    -0.260 A  
HETATM    8 CL   UNL     1     -10.089   9.509  66.695  1.00  0.00    -0.310 Cl 
ENDROOT
BRANCH   6   9
HETATM    9  N   UNL     1     -10.066  12.178  64.960  1.00  0.00    -0.271 NA 
HETATM   10  C   UNL     1     -11.041  13.023  64.248  1.00  0.00    -0.385 C  
HETATM   11  C   UNL     1     -12.142  13.539  65.202  1.00  0.00    -0.404 C  
HETATM   12  N   UNL     1     -11.644  14.199  66.430  1.00  0.00    -0.355 NA 
HETATM   13  C   UNL     1      -9.575  12.718  66.245  1.00  0.00    -0.242 C  
HETATM   14  C   UNL     1     -10.754  13.227  67.111  1.00  0.00    -0.259 C  
BRANCH  12  15
HETATM   15  C   UNL     1     -10.936  15.457  66.140  1.00  0.00    -0.279 C  
BRANCH  15  16
HETATM   16  C   UNL     1     -10.208  16.053  67.360  1.00  0.00    -0.273 C  
BRANCH  16  17
HETATM   17  C   UNL     1     -11.133  16.682  68.407  1.00  0.00    -0.305 C  
BRANCH  17  18
HETATM   18  C   UNL     1     -11.113  15.876  69.696  1.00  0.00    -0.320 C  
BRANCH  18  19
HETATM   19  O   UNL     1     -12.427  15.756  70.238  1.00  0.00    -0.389 OA 
BRANCH  19  20
HETATM   20  C   UNL     1     -12.688  14.519  70.779  1.00  0.00    -0.360 A  
HETATM   21  C   UNL     1     -11.962  13.461  70.227  1.00  0.00    -0.378 A  
HETATM   22  C   UNL     1     -12.161  12.166  70.706  1.00  0.00    -0.271 A  
HETATM   23  C   UNL     1     -13.078  11.916  71.736  1.00  0.00    -0.465 A  
HETATM   24  C   UNL     1     -13.772  12.981  72.304  1.00  0.00    -0.608 A  
HETATM   25  C   UNL     1     -13.207  10.531  72.301  1.00  0.00    -0.253 C  
HETATM   26  C   UNL     1     -13.574  14.274  71.833  1.00  0.00    -0.501 A  
HETATM   27  C   UNL     1     -12.854   9.469  71.276  1.00  0.00    -0.414 C  
HETATM   28  C   UNL     1     -11.592   9.799  70.512  1.00  0.00    -0.292 C  
HETATM   29  O   UNL     1     -10.828   8.930  70.103  1.00  0.00    -0.227 OA 
HETATM   30  N   UNL     1     -11.404  11.114  70.186  1.00  0.00    -0.456 N  
HETATM   31  H   UNL     1     -10.663  11.341  69.522  1.00  0.00     0.000 HD 
ENDBRANCH  19  20
ENDBRANCH  18  19
ENDBRANCH  17  18
ENDBRANCH  16  17
ENDBRANCH  15  16
ENDBRANCH  12  15
ENDBRANCH   6   9
TORSDOF 7
ENDMDL
MODEL       30
REMARK 921   NORMALIZED FREE ENERGY PREDICTED BY IDOCK:   -6.18 KCAL/MOL
REMARK 922        TOTAL FREE ENERGY PREDICTED BY IDOCK:  -10.30 KCAL/MOL
REMARK 923 INTER-LIGAND FREE ENERGY PREDICTED BY IDOCK:   -8.64 KCAL/MOL
REMARK 924 INTRA-LIGAND FREE ENERGY PREDICTED BY IDOCK:   -1.67 KCAL/MOL
REMARK 927      BINDING AFFINITY PREDICTED BY RF-SCORE:    0.00 PKD
ROOT
HETATM    1 CL   UNL     1     -13.664  13.521  72.424  1.00  0.00    -0.683 Cl 
HETATM    2  C   UNL     1     -12.786  14.076  71.033  1.00  0.00    -0.340 A  
HETATM    3  C   UNL     1     -12.675  15.457  70.884  1.00  0.00    -0.520 A  
HETATM    4  C   UNL     1     -12.000  15.973  69.787  1.00  0.00    -0.188 A  
HETATM    5  C   UNL     1     -11.479  15.108  68.824  1.00  0.00    -0.335 A  
HETATM    6  C   UNL     1     -11.577  13.702  68.918  1.00  0.00    -0.322 A  
HETATM    7  C   UNL     1     -12.216  13.196  70.087  1.00  0.00    -0.290 A  
HETATM    8 CL   UNL     1     -12.221  11.492  70.464  1.00  0.00    -0.465 Cl 
ENDROOT
BRANCH   6   9
HETATM    9  N   UNL     1     -11.101  12.938  67.859  1.00  0.00    -0.241 NA 
HETATM   10  C   UNL     1     -11.844  12.805  66.592  1.00  0.00    -0.393 C  
HETATM   11  C   UNL     1     -10.898  12.893  65.373  1.00  0.00    -0.283 C  
HETATM   12  N   UNL     1      -9.733  11.980  65.420  1.00  0.00    -0.220 NA 
HETATM   13  C   UNL     1      -9.872  12.124  67.963  1.00  0.00    -0.202 C  
HETATM   14  C   UNL     1      -9.011  12.266  66.683  1.00  0.00    -0.189 C  
BRANCH  12  15
HETATM   15  C   UNL     1     -10.132  10.564  65.343  1.00  0.00    -0.291 C  
BRANCH  15  16
HETATM   16  C   UNL     1      -8.946   9.582  65.415  1.00  0.00    -0.244 C  
BRANCH  16  17
HETATM   17  C   UNL     1      -9.335   8.139  65.749  1.00  0.00    -0.053 C  
BRANCH  17  18
HETATM   18  C   UNL     1      -8.561   7.639  66.959  1.00  0.00    -0.122 C  
BRANCH  18  19
HETATM   19  O   UNL     1      -8.209   8.722  67.817  1.00  0.00    -0.110 OA 
BRANCH  19  20
HETATM   20  C   UNL     1      -8.774   8.640  69.068  1.00  0.00    -0.134 A  
HETATM   21  C   UNL     1     -10.115   8.251  69.092  1.00  0.00    -0.205 A  
HETATM   22  C   UNL     1     -10.779   8.145  70.314  1.00  0.00    -0.235 A  
HETATM   23  C   UNL     1     -10.114   8.419  71.517  1.00  0.00    -0.293 A  
HETATM   24  C   UNL     1      -8.767   8.774  71.486  1.00  0.00    -0.274 A  
HETATM   25  C   UNL     1     -10.818   8.207  72.825  1.00  0.00    -0.390 C  
HETATM   26  C   UNL     1      -8.101   8.877  70.270  1.00  0.00    -0.125 A  
HETATM   27  C   UNL     1     -12.320   8.375  72.691  1.00  0.00    -0.278 C  
HETATM   28  C   UNL     1     -12.876   7.670  71.474  1.00  0.00    -0.344 C  
HETATM   29  O   UNL     1     -14.001   7.184  71.456  1.00  0.00    -0.382 OA 
HETATM   30  N   UNL     1     -12.106   7.712  70.343  1.00  0.00    -0.489 N  
HETATM   31  H   UNL     1     -12.529   7.407  69.466  1.00  0.00     0.000 HD 
ENDBRANCH  19  20
ENDBRANCH  18  19
ENDBRANCH  17  18
ENDBRANCH  16  17
ENDBRANCH  15  16
ENDBRANCH  12  15
ENDBRANCH   6   9
TORSDOF 7
ENDMDL
MODEL       31
REMARK 921   NORMALIZED FREE ENERGY PREDICTED BY IDOCK:   -6.14 KCAL/MOL
REMARK 922        TOTAL FREE ENERGY PREDICTED BY IDOCK:  -10.26 KCAL/MOL
REMARK 923 INTER-LIGAND FREE ENERGY PREDICTED BY IDOCK:   -8.84 KCAL/MOL
REMARK 924 INTRA-LIGAND FREE ENERGY PREDICTED BY IDOCK:   -1.42 KCAL/MOL
REMARK 927      BINDING AFFINITY PREDICTED BY RF-SCORE:    0.00 PKD
ROOT
HETATM    1 CL   UNL     1     -13.268  12.117  71.945  1.00  0.00    -0.553 Cl 
HETATM    2  C   UNL     1     -12.425  10.810  71.174  1.00  0.00    -0.414 A  
HETATM    3  C   UNL     1     -12.463   9.580  71.828  1.00  0.00    -0.484 A  
HETATM    4  C   UNL     1     -11.798   8.494  71.277  1.00  0.00    -0.335 A  
HETATM    5  C   UNL     1     -11.062   8.654  70.103  1.00  0.00    -0.199 A  
HETATM    6  C   UNL     1     -10.977   9.881  69.409  1.00  0.00    -0.230 A  
HETATM    7  C   UNL     1     -11.723  10.964  69.959  1.00  0.00    -0.345 A  
HETATM    8 CL   UNL     1     -11.905  12.477  69.108  1.00  0.00    -0.355 Cl 
ENDROOT
BRANCH   6   9
HETATM    9  N   UNL     1     -10.145   9.952  68.297  1.00  0.00    -0.155 NA 
HETATM   10  C   UNL     1      -8.813  10.583  68.354  1.00  0.00    -0.140 C  
HETATM   11  C   UNL     1      -7.763   9.753  67.581  1.00  0.00    -0.094 C  
HETATM   12  N   UNL     1      -8.143   9.405  66.192  1.00  0.00    -0.110 NA 
HETATM   13  C   UNL     1     -10.574   9.493  66.960  1.00  0.00    -0.201 C  
HETATM   14  C   UNL     1      -9.443   8.695  66.265  1.00  0.00    -0.241 C  
BRANCH  12  15
HETATM   15  C   UNL     1      -8.232  10.591  65.325  1.00  0.00    -0.146 C  
BRANCH  15  16
HETATM   16  C   UNL     1      -8.646  10.269  63.876  1.00  0.00    -0.191 C  
BRANCH  16  17
HETATM   17  C   UNL     1      -9.613  11.279  63.251  1.00  0.00    -0.373 C  
BRANCH  17  18
HETATM   18  C   UNL     1     -10.512  11.891  64.315  1.00  0.00    -0.326 C  
BRANCH  18  19
HETATM   19  O   UNL     1     -10.731  13.277  64.057  1.00  0.00    -0.377 OA 
BRANCH  19  20
HETATM   20  C   UNL     1     -10.408  14.092  65.116  1.00  0.00    -0.400 A  
HETATM   21  C   UNL     1     -10.696  15.447  64.935  1.00  0.00    -0.416 A  
HETATM   22  C   UNL     1     -10.400  16.355  65.952  1.00  0.00    -0.362 A  
HETATM   23  C   UNL     1      -9.821  15.922  67.153  1.00  0.00    -0.232 A  
HETATM   24  C   UNL     1      -9.569  14.565  67.338  1.00  0.00    -0.212 A  
HETATM   25  C   UNL     1      -9.599  16.900  68.270  1.00  0.00    -0.258 C  
HETATM   26  C   UNL     1      -9.867  13.656  66.330  1.00  0.00    -0.310 A  
HETATM   27  C   UNL     1      -9.392  18.311  67.751  1.00  0.00    -0.276 C  
HETATM   28  C   UNL     1     -10.391  18.687  66.680  1.00  0.00    -0.415 C  
HETATM   29  O   UNL     1     -10.797  19.835  66.536  1.00  0.00    -0.451 OA 
HETATM   30  N   UNL     1     -10.729  17.703  65.791  1.00  0.00    -0.238 N  
HETATM   31  H   UNL     1     -11.254  17.970  64.959  1.00  0.00     0.000 HD 
ENDBRANCH  19  20
ENDBRANCH  18  19
ENDBRANCH  17  18
ENDBRANCH  16  17
ENDBRANCH  15  16
ENDBRANCH  12  15
ENDBRANCH   6   9
TORSDOF 7
ENDMDL
MODEL       32
REMARK 921   NORMALIZED FREE ENERGY PREDICTED BY IDOCK:   -6.13 KCAL/MOL
REMARK 922        TOTAL FREE ENERGY PREDICTED BY IDOCK:  -10.24 KCAL/MOL
REMARK 923 INTER-LIGAND FREE ENERGY PREDICTED BY IDOCK:   -8.51 KCAL/MOL
REMARK 924 INTRA-LIGAND FREE ENERGY PREDICTED BY IDOCK:   -1.73 KCAL/MOL
REMARK 927      BINDING AFFINITY PREDICTED BY RF-SCORE:    0.00 PKD
ROOT
HETATM    1 CL   UNL     1     -13.051  11.235  71.888  1.00  0.00    -0.583 Cl 
HETATM    2  C   UNL     1     -12.051   9.989  71.209  1.00  0.00    -0.394 A  
HETATM    3  C   UNL     1     -11.825   8.873  72.012  1.00  0.00    -0.438 A  
HETATM    4  C   UNL     1     -11.023   7.844  71.540  1.00  0.00    -0.269 A  
HETATM    5  C   UNL     1     -10.417   7.956  70.288  1.00  0.00    -0.225 A  
HETATM    6  C   UNL     1     -10.600   9.071  69.441  1.00  0.00    -0.221 A  
HETATM    7  C   UNL     1     -11.481  10.084  69.921  1.00  0.00    -0.215 A  
HETATM    8 CL   UNL     1     -11.988  11.412  68.908  1.00  0.00    -0.398 Cl 
ENDROOT
BRANCH   6   9
HETATM    9  N   UNL     1      -9.879   9.120  68.253  1.00  0.00    -0.156 NA 
HETATM   10  C   UNL     1      -8.584   9.818  68.151  1.00  0.00    -0.118 C  
HETATM   11  C   UNL     1      -7.566   8.999  67.325  1.00  0.00    -0.088 C  
HETATM   12  N   UNL     1      -8.052   8.556  65.999  1.00  0.00    -0.106 NA 
HETATM   13  C   UNL     1     -10.403   8.566  66.988  1.00  0.00    -0.309 C  
HETATM   14  C   UNL     1      -9.299   7.787  66.231  1.00  0.00    -0.151 C  
BRANCH  12  15
HETATM   15  C   UNL     1      -8.285   9.685  65.084  1.00  0.00    -0.134 C  
BRANCH  15  16
HETATM   16  C   UNL     1      -8.219   9.299  63.593  1.00  0.00    -0.166 C  
BRANCH  16  17
HETATM   17  C   UNL     1      -9.272   9.980  62.713  1.00  0.00    -0.313 C  
BRANCH  17  18
HETATM   18  C   UNL     1      -9.540  11.398  63.195  1.00  0.00    -0.380 C  
BRANCH  18  19
HETATM   19  O   UNL     1     -10.926  11.584  63.474  1.00  0.00    -0.399 OA 
BRANCH  19  20
HETATM   20  C   UNL     1     -11.166  12.427  64.533  1.00  0.00    -0.323 A  
HETATM   21  C   UNL     1     -10.078  12.641  65.383  1.00  0.00    -0.277 A  
HETATM   22  C   UNL     1     -10.225  13.478  66.491  1.00  0.00    -0.283 A  
HETATM   23  C   UNL     1     -11.448  14.107  66.757  1.00  0.00    -0.383 A  
HETATM   24  C   UNL     1     -12.518  13.914  65.885  1.00  0.00    -0.519 A  
HETATM   25  C   UNL     1     -11.557  15.076  67.898  1.00  0.00    -0.350 C  
HETATM   26  C   UNL     1     -12.375  13.086  64.778  1.00  0.00    -0.490 A  
HETATM   27  C   UNL     1     -10.570  14.756  69.005  1.00  0.00    -0.248 C  
HETATM   28  C   UNL     1      -9.187  14.449  68.477  1.00  0.00    -0.198 C  
HETATM   29  O   UNL     1      -8.170  14.724  69.105  1.00  0.00    -0.154 OA 
HETATM   30  N   UNL     1      -9.126  13.729  67.315  1.00  0.00    -0.222 N  
HETATM   31  H   UNL     1      -8.221  13.353  67.033  1.00  0.00     0.000 HD 
ENDBRANCH  19  20
ENDBRANCH  18  19
ENDBRANCH  17  18
ENDBRANCH  16  17
ENDBRANCH  15  16
ENDBRANCH  12  15
ENDBRANCH   6   9
TORSDOF 7
ENDMDL
MODEL       33
REMARK 921   NORMALIZED FREE ENERGY PREDICTED BY IDOCK:   -6.12 KCAL/MOL
REMARK 922        TOTAL FREE ENERGY PREDICTED BY IDOCK:  -10.22 KCAL/MOL
REMARK 923 INTER-LIGAND FREE ENERGY PREDICTED BY IDOCK:   -9.50 KCAL/MOL
REMARK 924 INTRA-LIGAND FREE ENERGY PREDICTED BY IDOCK:   -0.72 KCAL/MOL
REMARK 927      BINDING AFFINITY PREDICTED BY RF-SCORE:    0.00 PKD
ROOT
HETATM    1 CL   UNL     1      -6.747  20.763  64.582  1.00  0.00    -0.250 Cl 
HETATM    2  C   UNL     1      -6.725  19.292  65.501  1.00  0.00    -0.272 A  
HETATM    3  C   UNL     1      -5.526  18.583  65.505  1.00  0.00    -0.212 A  
HETATM    4  C   UNL     1      -5.440  17.390  66.207  1.00  0.00    -0.213 A  
HETATM    5  C   UNL     1      -6.564  16.889  66.863  1.00  0.00    -0.249 A  
HETATM    6  C   UNL     1      -7.808  17.558  66.879  1.00  0.00    -0.228 A  
HETATM    7  C   UNL     1      -7.852  18.814  66.206  1.00  0.00    -0.272 A  
HETATM    8 CL   UNL     1      -9.240  19.866  66.320  1.00  0.00    -0.454 Cl 
ENDROOT
BRANCH   6   9
HETATM    9  N   UNL     1      -8.887  16.927  67.488  1.00  0.00    -0.208 NA 
HETATM   10  C   UNL     1     -10.088  16.523  66.733  1.00  0.00    -0.288 C  
HETATM   11  C   UNL     1     -10.578  15.121  67.161  1.00  0.00    -0.295 C  
HETATM   12  N   UNL     1     -10.766  14.945  68.619  1.00  0.00    -0.243 NA 
HETATM   13  C   UNL     1      -8.951  16.706  68.948  1.00  0.00    -0.239 C  
HETATM   14  C   UNL     1      -9.475  15.284  69.266  1.00  0.00    -0.242 C  
BRANCH  12  15
HETATM   15  C   UNL     1     -11.860  15.779  69.146  1.00  0.00    -0.354 C  
BRANCH  15  16
HETATM   16  C   UNL     1     -12.052  15.657  70.670  1.00  0.00    -0.443 C  
BRANCH  16  17
HETATM   17  C   UNL     1     -13.374  15.009  71.093  1.00  0.00    -0.510 C  
BRANCH  17  18
HETATM   18  C   UNL     1     -13.133  13.620  71.664  1.00  0.00    -0.372 C  
BRANCH  18  19
HETATM   19  O   UNL     1     -12.288  12.858  70.804  1.00  0.00    -0.368 OA 
BRANCH  19  20
HETATM   20  C   UNL     1     -12.354  11.503  71.025  1.00  0.00    -0.329 A  
HETATM   21  C   UNL     1     -11.403  10.740  70.342  1.00  0.00    -0.342 A  
HETATM   22  C   UNL     1     -11.393   9.354  70.498  1.00  0.00    -0.274 A  
HETATM   23  C   UNL     1     -12.322   8.720  71.333  1.00  0.00    -0.353 A  
HETATM   24  C   UNL     1     -13.245   9.491  72.036  1.00  0.00    -0.539 A  
HETATM   25  C   UNL     1     -12.234   7.239  71.560  1.00  0.00    -0.387 C  
HETATM   26  C   UNL     1     -13.256  10.873  71.888  1.00  0.00    -0.508 A  
HETATM   27  C   UNL     1     -11.611   6.523  70.376  1.00  0.00    -0.470 C  
HETATM   28  C   UNL     1     -10.378   7.227  69.857  1.00  0.00    -0.219 C  
HETATM   29  O   UNL     1      -9.437   6.618  69.359  1.00  0.00    -0.146 OA 
HETATM   30  N   UNL     1     -10.415   8.595  69.852  1.00  0.00    -0.214 N  
HETATM   31  H   UNL     1      -9.682   9.091  69.346  1.00  0.00     0.000 HD 
ENDBRANCH  19  20
ENDBRANCH  18  19
ENDBRANCH  17  18
ENDBRANCH  16  17
ENDBRANCH  15  16
ENDBRANCH  12  15
ENDBRANCH   6   9
TORSDOF 7
ENDMDL
MODEL       34
REMARK 921   NORMALIZED FREE ENERGY PREDICTED BY IDOCK:   -6.08 KCAL/MOL
REMARK 922        TOTAL FREE ENERGY PREDICTED BY IDOCK:  -10.17 KCAL/MOL
REMARK 923 INTER-LIGAND FREE ENERGY PREDICTED BY IDOCK:   -9.08 KCAL/MOL
REMARK 924 INTRA-LIGAND FREE ENERGY PREDICTED BY IDOCK:   -1.09 KCAL/MOL
REMARK 927      BINDING AFFINITY PREDICTED BY RF-SCORE:    0.00 PKD
ROOT
HETATM    1 CL   UNL     1     -11.652   5.108  73.086  1.00  0.00    -0.356 Cl 
HETATM    2  C   UNL     1     -10.665   6.464  72.639  1.00  0.00    -0.234 A  
HETATM    3  C   UNL     1      -9.845   6.986  73.636  1.00  0.00    -0.318 A  
HETATM    4  C   UNL     1      -9.040   8.081  73.354  1.00  0.00    -0.340 A  
HETATM    5  C   UNL     1      -9.093   8.674  72.093  1.00  0.00    -0.301 A  
HETATM    6  C   UNL     1      -9.918   8.195  71.051  1.00  0.00    -0.187 A  
HETATM    7  C   UNL     1     -10.685   7.031  71.345  1.00  0.00    -0.219 A  
HETATM    8 CL   UNL     1     -11.578   6.185  70.107  1.00  0.00    -0.382 Cl 
ENDROOT
BRANCH   6   9
HETATM    9  N   UNL     1      -9.959   8.914  69.862  1.00  0.00    -0.183 NA 
HETATM   10  C   UNL     1      -9.440   8.367  68.595  1.00  0.00    -0.147 C  
HETATM   11  C   UNL     1     -10.384   8.686  67.414  1.00  0.00    -0.284 C  
HETATM   12  N   UNL     1     -10.753  10.114  67.279  1.00  0.00    -0.266 NA 
HETATM   13  C   UNL     1     -10.433  10.313  69.802  1.00  0.00    -0.259 C  
HETATM   14  C   UNL     1     -11.349  10.529  68.572  1.00  0.00    -0.257 C  
BRANCH  12  15
HETATM   15  C   UNL     1      -9.598  10.958  66.930  1.00  0.00    -0.178 C  
BRANCH  15  16
HETATM   16  C   UNL     1      -9.078  10.735  65.496  1.00  0.00    -0.220 C  
BRANCH  16  17
HETATM   17  C   UNL     1     -10.170  10.720  64.421  1.00  0.00    -0.432 C  
BRANCH  17  18
HETATM   18  C   UNL     1     -10.153  12.013  63.620  1.00  0.00    -0.415 C  
BRANCH  18  19
HETATM   19  O   UNL     1     -11.366  12.741  63.807  1.00  0.00    -0.409 OA 
BRANCH  19  20
HETATM   20  C   UNL     1     -11.357  13.548  64.919  1.00  0.00    -0.334 A  
HETATM   21  C   UNL     1     -10.598  14.716  64.803  1.00  0.00    -0.379 A  
HETATM   22  C   UNL     1     -10.522  15.598  65.881  1.00  0.00    -0.344 A  
HETATM   23  C   UNL     1     -11.202  15.328  67.076  1.00  0.00    -0.275 A  
HETATM   24  C   UNL     1     -11.984  14.179  67.172  1.00  0.00    -0.460 A  
HETATM   25  C   UNL     1     -11.185  16.335  68.189  1.00  0.00    -0.298 C  
HETATM   26  C   UNL     1     -12.066  13.300  66.099  1.00  0.00    -0.477 A  
HETATM   27  C   UNL     1      -9.926  17.181  68.165  1.00  0.00    -0.297 C  
HETATM   28  C   UNL     1      -9.582  17.667  66.775  1.00  0.00    -0.294 C  
HETATM   29  O   UNL     1      -9.029  18.744  66.576  1.00  0.00    -0.306 OA 
HETATM   30  N   UNL     1      -9.802  16.786  65.751  1.00  0.00    -0.233 N  
HETATM   31  H   UNL     1      -9.415  17.013  64.835  1.00  0.00     0.000 HD 
ENDBRANCH  19  20
ENDBRANCH  18  19
ENDBRANCH  17  18
ENDBRANCH  16  17
ENDBRANCH  15  16
ENDBRANCH  12  15
ENDBRANCH   6   9
TORSDOF 7
ENDMDL
MODEL       35
REMARK 921   NORMALIZED FREE ENERGY PREDICTED BY IDOCK:   -6.06 KCAL/MOL
REMARK 922        TOTAL FREE ENERGY PREDICTED BY IDOCK:  -10.14 KCAL/MOL
REMARK 923 INTER-LIGAND FREE ENERGY PREDICTED BY IDOCK:   -8.86 KCAL/MOL
REMARK 924 INTRA-LIGAND FREE ENERGY PREDICTED BY IDOCK:   -1.27 KCAL/MOL
REMARK 927      BINDING AFFINITY PREDICTED BY RF-SCORE:    0.00 PKD
ROOT
HETATM    1 CL   UNL     1     -13.426  12.294  71.961  1.00  0.00    -0.521 Cl 
HETATM    2  C   UNL     1     -12.817  10.711  71.590  1.00  0.00    -0.465 A  
HETATM    3  C   UNL     1     -13.377   9.652  72.302  1.00  0.00    -0.498 A  
HETATM    4  C   UNL     1     -12.928   8.361  72.068  1.00  0.00    -0.388 A  
HETATM    5  C   UNL     1     -11.893   8.140  71.159  1.00  0.00    -0.303 A  
HETATM    6  C   UNL     1     -11.280   9.178  70.424  1.00  0.00    -0.240 A  
HETATM    7  C   UNL     1     -11.804  10.487  70.633  1.00  0.00    -0.360 A  
HETATM    8 CL   UNL     1     -11.314  11.839  69.643  1.00  0.00    -0.315 Cl 
ENDROOT
BRANCH   6   9
HETATM    9  N   UNL     1     -10.198   8.859  69.611  1.00  0.00    -0.200 NA 
HETATM   10  C   UNL     1      -8.817   9.242  69.957  1.00  0.00    -0.197 C  
HETATM   11  C   UNL     1      -7.824   8.093  69.671  1.00  0.00    -0.103 C  
HETATM   12  N   UNL     1      -7.906   7.524  68.306  1.00  0.00    -0.120 NA 
HETATM   13  C   UNL     1     -10.365   8.203  68.297  1.00  0.00    -0.197 C  
HETATM   14  C   UNL     1      -9.308   7.086  68.104  1.00  0.00    -0.125 C  
BRANCH  12  15
HETATM   15  C   UNL     1      -7.495   8.490  67.274  1.00  0.00    -0.093 C  
BRANCH  15  16
HETATM   16  C   UNL     1      -6.458   9.519  67.765  1.00  0.00    -0.058 C  
BRANCH  16  17
HETATM   17  C   UNL     1      -6.117  10.612  66.748  1.00  0.00    -0.074 C  
BRANCH  17  18
HETATM   18  C   UNL     1      -6.557  11.976  67.256  1.00  0.00    -0.145 C  
BRANCH  18  19
HETATM   19  O   UNL     1      -7.862  11.907  67.827  1.00  0.00    -0.121 OA 
BRANCH  19  20
HETATM   20  C   UNL     1      -8.872  12.136  66.923  1.00  0.00    -0.202 A  
HETATM   21  C   UNL     1      -9.072  13.476  66.580  1.00  0.00    -0.182 A  
HETATM   22  C   UNL     1     -10.079  13.810  65.673  1.00  0.00    -0.298 A  
HETATM   23  C   UNL     1     -10.886  12.818  65.101  1.00  0.00    -0.318 A  
HETATM   24  C   UNL     1     -10.657  11.483  65.423  1.00  0.00    -0.336 A  
HETATM   25  C   UNL     1     -11.899  13.190  64.057  1.00  0.00    -0.514 C  
HETATM   26  C   UNL     1      -9.653  11.144  66.322  1.00  0.00    -0.234 A  
HETATM   27  C   UNL     1     -12.393  14.614  64.232  1.00  0.00    -0.375 C  
HETATM   28  C   UNL     1     -11.267  15.589  64.495  1.00  0.00    -0.315 C  
HETATM   29  O   UNL     1     -11.307  16.754  64.112  1.00  0.00    -1.194 OA 
HETATM   30  N   UNL     1     -10.250  15.143  65.294  1.00  0.00    -0.370 N  
HETATM   31  H   UNL     1      -9.575  15.828  65.635  1.00  0.00     0.000 HD 
ENDBRANCH  19  20
ENDBRANCH  18  19
ENDBRANCH  17  18
ENDBRANCH  16  17
ENDBRANCH  15  16
ENDBRANCH  12  15
ENDBRANCH   6   9
TORSDOF 7
ENDMDL
MODEL       36
REMARK 921   NORMALIZED FREE ENERGY PREDICTED BY IDOCK:   -6.05 KCAL/MOL
REMARK 922        TOTAL FREE ENERGY PREDICTED BY IDOCK:  -10.13 KCAL/MOL
REMARK 923 INTER-LIGAND FREE ENERGY PREDICTED BY IDOCK:   -9.04 KCAL/MOL
REMARK 924 INTRA-LIGAND FREE ENERGY PREDICTED BY IDOCK:   -1.09 KCAL/MOL
REMARK 927      BINDING AFFINITY PREDICTED BY RF-SCORE:    0.00 PKD
ROOT
HETATM    1 CL   UNL     1      -7.287  10.053  63.303  1.00  0.00    -0.134 Cl 
HETATM    2  C   UNL     1      -8.626  10.101  64.406  1.00  0.00    -0.191 A  
HETATM    3  C   UNL     1      -9.431  11.237  64.351  1.00  0.00    -0.206 A  
HETATM    4  C   UNL     1     -10.511  11.352  65.215  1.00  0.00    -0.340 A  
HETATM    5  C   UNL     1     -10.753  10.352  66.158  1.00  0.00    -0.076 A  
HETATM    6  C   UNL     1      -9.960   9.188  66.267  1.00  0.00    -0.282 A  
HETATM    7  C   UNL     1      -8.898   9.064  65.325  1.00  0.00    -0.193 A  
HETATM    8 CL   UNL     1      -7.970   7.593  65.180  1.00  0.00    -0.124 Cl 
ENDROOT
BRANCH   6   9
HETATM    9  N   UNL     1     -10.236   8.299  67.300  1.00  0.00    -0.247 NA 
HETATM   10  C   UNL     1     -10.783   6.952  67.050  1.00  0.00    -0.362 C  
HETATM   11  C   UNL     1     -10.098   5.892  67.941  1.00  0.00    -0.162 C  
HETATM   12  N   UNL     1     -10.077   6.211  69.386  1.00  0.00    -0.174 NA 
HETATM   13  C   UNL     1     -10.098   8.674  68.722  1.00  0.00    -0.196 C  
HETATM   14  C   UNL     1      -9.423   7.535  69.526  1.00  0.00    -0.156 C  
BRANCH  12  15
HETATM   15  C   UNL     1     -11.427   6.219  69.976  1.00  0.00    -0.390 C  
BRANCH  15  16
HETATM   16  C   UNL     1     -11.472   6.780  71.410  1.00  0.00    -0.336 C  
BRANCH  16  17
HETATM   17  C   UNL     1     -12.828   7.363  71.821  1.00  0.00    -0.365 C  
BRANCH  17  18
HETATM   18  C   UNL     1     -12.709   8.852  72.109  1.00  0.00    -0.405 C  
BRANCH  18  19
HETATM   19  O   UNL     1     -12.359   9.570  70.927  1.00  0.00    -0.288 OA 
BRANCH  19  20
HETATM   20  C   UNL     1     -12.506  10.931  71.046  1.00  0.00    -0.411 A  
HETATM   21  C   UNL     1     -11.903  11.686  70.037  1.00  0.00    -0.435 A  
HETATM   22  C   UNL     1     -11.992  13.079  70.073  1.00  0.00    -0.312 A  
HETATM   23  C   UNL     1     -12.684  13.726  71.106  1.00  0.00    -0.438 A  
HETATM   24  C   UNL     1     -13.311  12.964  72.088  1.00  0.00    -0.615 A  
HETATM   25  C   UNL     1     -12.849  15.217  71.074  1.00  0.00    -0.505 C  
HETATM   26  C   UNL     1     -13.228  11.576  72.054  1.00  0.00    -0.443 A  
HETATM   27  C   UNL     1     -11.712  15.894  70.332  1.00  0.00    -0.371 C  
HETATM   28  C   UNL     1     -11.372  15.200  69.033  1.00  0.00    -0.294 C  
HETATM   29  O   UNL     1     -10.958  15.809  68.052  1.00  0.00    -0.307 OA 
HETATM   30  N   UNL     1     -11.429  13.833  69.041  1.00  0.00    -0.284 N  
HETATM   31  H   UNL     1     -11.035  13.333  68.244  1.00  0.00     0.000 HD 
ENDBRANCH  19  20
ENDBRANCH  18  19
ENDBRANCH  17  18
ENDBRANCH  16  17
ENDBRANCH  15  16
ENDBRANCH  12  15
ENDBRANCH   6   9
TORSDOF 7
ENDMDL
MODEL       37
REMARK 921   NORMALIZED FREE ENERGY PREDICTED BY IDOCK:   -6.04 KCAL/MOL
REMARK 922        TOTAL FREE ENERGY PREDICTED BY IDOCK:  -10.12 KCAL/MOL
REMARK 923 INTER-LIGAND FREE ENERGY PREDICTED BY IDOCK:   -9.49 KCAL/MOL
REMARK 924 INTRA-LIGAND FREE ENERGY PREDICTED BY IDOCK:   -0.63 KCAL/MOL
REMARK 927      BINDING AFFINITY PREDICTED BY RF-SCORE:    0.00 PKD
ROOT
HETATM    1 CL   UNL     1      -6.595  18.808  65.464  1.00  0.00    -0.311 Cl 
HETATM    2  C   UNL     1      -8.178  18.815  66.175  1.00  0.00    -0.190 A  
HETATM    3  C   UNL     1      -8.861  20.029  66.149  1.00  0.00    -0.320 A  
HETATM    4  C   UNL     1     -10.126  20.112  66.713  1.00  0.00    -0.591 A  
HETATM    5  C   UNL     1     -10.682  18.995  67.338  1.00  0.00    -0.559 A  
HETATM    6  C   UNL     1     -10.026  17.746  67.406  1.00  0.00    -0.323 A  
HETATM    7  C   UNL     1      -8.757  17.669  66.762  1.00  0.00    -0.258 A  
HETATM    8 CL   UNL     1      -7.923  16.149  66.561  1.00  0.00    -0.306 Cl 
ENDROOT
BRANCH   6   9
HETATM    9  N   UNL     1     -10.631  16.725  68.130  1.00  0.00    -0.336 NA 
HETATM   10  C   UNL     1     -11.250  15.558  67.473  1.00  0.00    -0.272 C  
HETATM   11  C   UNL     1     -10.913  14.247  68.218  1.00  0.00    -0.247 C  
HETATM   12  N   UNL     1     -11.193  14.266  69.672  1.00  0.00    -0.237 NA 
HETATM   13  C   UNL     1     -10.787  16.783  69.599  1.00  0.00    -0.204 C  
HETATM   14  C   UNL     1     -10.448  15.415  70.241  1.00  0.00    -0.241 C  
BRANCH  12  15
HETATM   15  C   UNL     1     -12.634  14.370  69.961  1.00  0.00    -0.233 C  
BRANCH  15  16
HETATM   16  C   UNL     1     -12.948  14.670  71.440  1.00  0.00    -0.404 C  
BRANCH  16  17
HETATM   17  C   UNL     1     -13.420  13.456  72.247  1.00  0.00    -0.683 C  
BRANCH  17  18
HETATM   18  C   UNL     1     -12.991  12.162  71.572  1.00  0.00    -0.295 C  
BRANCH  18  19
HETATM   19  O   UNL     1     -13.545  11.032  72.244  1.00  0.00    -0.247 OA 
BRANCH  19  20
HETATM   20  C   UNL     1     -13.006   9.834  71.844  1.00  0.00    -0.440 A  
HETATM   21  C   UNL     1     -11.643   9.866  71.535  1.00  0.00    -0.375 A  
HETATM   22  C   UNL     1     -11.005   8.699  71.113  1.00  0.00    -0.260 A  
HETATM   23  C   UNL     1     -11.714   7.496  70.999  1.00  0.00    -0.317 A  
HETATM   24  C   UNL     1     -13.064   7.465  71.341  1.00  0.00    -0.401 A  
HETATM   25  C   UNL     1     -10.988   6.234  70.636  1.00  0.00    -0.370 C  
HETATM   26  C   UNL     1     -13.703   8.624  71.766  1.00  0.00    -0.456 A  
HETATM   27  C   UNL     1      -9.757   6.513  69.795  1.00  0.00    -0.170 C  
HETATM   28  C   UNL     1      -8.935   7.662  70.335  1.00  0.00    -0.152 C  
HETATM   29  O   UNL     1      -7.715   7.705  70.221  1.00  0.00    -0.087 OA 
HETATM   30  N   UNL     1      -9.634   8.720  70.849  1.00  0.00    -0.201 N  
HETATM   31  H   UNL     1      -9.121   9.578  71.052  1.00  0.00     0.000 HD 
ENDBRANCH  19  20
ENDBRANCH  18  19
ENDBRANCH  17  18
ENDBRANCH  16  17
ENDBRANCH  15  16
ENDBRANCH  12  15
ENDBRANCH   6   9
TORSDOF 7
ENDMDL
MODEL       38
REMARK 921   NORMALIZED FREE ENERGY PREDICTED BY IDOCK:   -6.03 KCAL/MOL
REMARK 922        TOTAL FREE ENERGY PREDICTED BY IDOCK:  -10.10 KCAL/MOL
REMARK 923 INTER-LIGAND FREE ENERGY PREDICTED BY IDOCK:   -9.09 KCAL/MOL
REMARK 924 INTRA-LIGAND FREE ENERGY PREDICTED BY IDOCK:   -1.00 KCAL/MOL
REMARK 927      BINDING AFFINITY PREDICTED BY RF-SCORE:    0.00 PKD
ROOT
HETATM    1 CL   UNL     1      -9.847  19.961  66.560  1.00  0.00    -0.527 Cl 
HETATM    2  C   UNL     1     -10.206  18.435  67.304  1.00  0.00    -0.374 A  
HETATM    3  C   UNL     1     -10.145  18.396  68.695  1.00  0.00    -0.407 A  
HETATM    4  C   UNL     1     -10.405  17.205  69.357  1.00  0.00    -0.195 A  
HETATM    5  C   UNL     1     -10.679  16.050  68.624  1.00  0.00    -0.281 A  
HETATM    6  C   UNL     1     -10.737  16.029  67.213  1.00  0.00    -0.295 A  
HETATM    7  C   UNL     1     -10.532  17.280  66.560  1.00  0.00    -0.260 A  
HETATM    8 CL   UNL     1     -10.791  17.470  64.844  1.00  0.00     0.249 Cl 
ENDROOT
BRANCH   6   9
HETATM    9  N   UNL     1     -10.930  14.806  66.580  1.00  0.00    -0.321 NA 
HETATM   10  C   UNL     1     -12.194  14.056  66.693  1.00  0.00    -0.428 C  
HETATM   11  C   UNL     1     -12.618  13.458  65.333  1.00  0.00    -0.475 C  
HETATM   12  N   UNL     1     -11.573  12.663  64.648  1.00  0.00    -0.326 NA 
HETATM   13  C   UNL     1      -9.851  14.125  65.835  1.00  0.00    -0.289 C  
HETATM   14  C   UNL     1     -10.387  13.544  64.503  1.00  0.00    -0.358 C  
BRANCH  12  15
HETATM   15  C   UNL     1     -11.235  11.433  65.384  1.00  0.00    -0.070 C  
BRANCH  15  16
HETATM   16  C   UNL     1     -10.081  10.631  64.752  1.00  0.00    -0.412 C  
BRANCH  16  17
HETATM   17  C   UNL     1      -8.749  10.736  65.502  1.00  0.00    -0.196 C  
BRANCH  17  18
HETATM   18  C   UNL     1      -8.867  10.135  66.894  1.00  0.00    -0.132 C  
BRANCH  18  19
HETATM   19  O   UNL     1      -8.921  11.160  67.885  1.00  0.00    -0.136 OA 
BRANCH  19  20
HETATM   20  C   UNL     1      -9.907  10.968  68.823  1.00  0.00    -0.198 A  
HETATM   21  C   UNL     1      -9.664   9.945  69.743  1.00  0.00    -0.266 A  
HETATM   22  C   UNL     1     -10.611   9.670  70.731  1.00  0.00    -0.322 A  
HETATM   23  C   UNL     1     -11.798  10.410  70.812  1.00  0.00    -0.466 A  
HETATM   24  C   UNL     1     -12.016  11.450  69.912  1.00  0.00    -0.434 A  
HETATM   25  C   UNL     1     -12.757  10.160  71.939  1.00  0.00    -0.493 C  
HETATM   26  C   UNL     1     -11.075  11.730  68.928  1.00  0.00    -0.297 A  
HETATM   27  C   UNL     1     -12.675   8.732  72.445  1.00  0.00    -0.433 C  
HETATM   28  C   UNL     1     -11.249   8.263  72.623  1.00  0.00    -0.340 C  
HETATM   29  O   UNL     1     -10.926   7.462  73.494  1.00  0.00    -0.344 OA 
HETATM   30  N   UNL     1     -10.349   8.679  71.679  1.00  0.00    -0.267 N  
HETATM   31  H   UNL     1      -9.430   8.238  71.668  1.00  0.00     0.000 HD 
ENDBRANCH  19  20
ENDBRANCH  18  19
ENDBRANCH  17  18
ENDBRANCH  16  17
ENDBRANCH  15  16
ENDBRANCH  12  15
ENDBRANCH   6   9
TORSDOF 7
ENDMDL
MODEL       39
REMARK 921   NORMALIZED FREE ENERGY PREDICTED BY IDOCK:   -6.03 KCAL/MOL
REMARK 922        TOTAL FREE ENERGY PREDICTED BY IDOCK:  -10.10 KCAL/MOL
REMARK 923 INTER-LIGAND FREE ENERGY PREDICTED BY IDOCK:   -9.28 KCAL/MOL
REMARK 924 INTRA-LIGAND FREE ENERGY PREDICTED BY IDOCK:   -0.82 KCAL/MOL
REMARK 927      BINDING AFFINITY PREDICTED BY RF-SCORE:    0.00 PKD
ROOT
HETATM    1 CL   UNL     1      -9.980   7.870  73.190  1.00  0.00    -0.361 Cl 
HETATM    2  C   UNL     1     -11.032   8.767  72.142  1.00  0.00    -0.334 A  
HETATM    3  C   UNL     1     -12.348   8.922  72.573  1.00  0.00    -0.325 A  
HETATM    4  C   UNL     1     -13.250   9.615  71.779  1.00  0.00    -0.520 A  
HETATM    5  C   UNL     1     -12.844  10.110  70.539  1.00  0.00    -0.248 A  
HETATM    6  C   UNL     1     -11.527   9.967  70.046  1.00  0.00    -0.217 A  
HETATM    7  C   UNL     1     -10.604   9.309  70.910  1.00  0.00    -0.296 A  
HETATM    8 CL   UNL     1      -8.897   9.249  70.551  1.00  0.00    -0.262 Cl 
ENDROOT
BRANCH   6   9
HETATM    9  N   UNL     1     -11.253  10.419  68.760  1.00  0.00    -0.251 NA 
HETATM   10  C   UNL     1     -11.551  11.799  68.334  1.00  0.00    -0.318 C  
HETATM   11  C   UNL     1     -10.402  12.386  67.484  1.00  0.00    -0.215 C  
HETATM   12  N   UNL     1      -9.977  11.544  66.343  1.00  0.00    -0.204 NA 
HETATM   13  C   UNL     1     -10.740   9.524  67.702  1.00  0.00    -0.250 C  
HETATM   14  C   UNL     1      -9.612  10.217  66.898  1.00  0.00    -0.173 C  
BRANCH  12  15
HETATM   15  C   UNL     1     -11.028  11.421  65.318  1.00  0.00    -0.184 C  
BRANCH  15  16
HETATM   16  C   UNL     1     -10.752  12.247  64.047  1.00  0.00    -0.438 C  
BRANCH  16  17
HETATM   17  C   UNL     1     -11.958  13.040  63.531  1.00  0.00    -0.615 C  
BRANCH  17  18
HETATM   18  C   UNL     1     -12.317  14.161  64.495  1.00  0.00    -0.392 C  
BRANCH  18  19
HETATM   19  O   UNL     1     -11.771  15.402  64.054  1.00  0.00    -0.335 OA 
BRANCH  19  20
HETATM   20  C   UNL     1     -10.852  15.939  64.924  1.00  0.00    -0.400 A  
HETATM   21  C   UNL     1     -11.036  17.291  65.226  1.00  0.00     0.089 A  
HETATM   22  C   UNL     1     -10.150  17.928  66.096  1.00  0.00    -0.320 A  
HETATM   23  C   UNL     1      -9.083  17.227  66.672  1.00  0.00    -0.286 A  
HETATM   24  C   UNL     1      -8.927  15.871  66.392  1.00  0.00    -0.361 A  
HETATM   25  C   UNL     1      -8.199  17.905  67.678  1.00  0.00    -0.232 C  
HETATM   26  C   UNL     1      -9.809  15.231  65.529  1.00  0.00    -0.362 A  
HETATM   27  C   UNL     1      -8.136  19.405  67.452  1.00  0.00    -0.313 C  
HETATM   28  C   UNL     1      -9.498  20.009  67.195  1.00  0.00    -0.386 C  
HETATM   29  O   UNL     1      -9.785  21.149  67.545  1.00  0.00    -0.333 OA 
HETATM   30  N   UNL     1     -10.359  19.266  66.435  1.00  0.00    -0.434 N  
HETATM   31  H   UNL     1     -11.208  19.718  66.095  1.00  0.00     0.000 HD 
ENDBRANCH  19  20
ENDBRANCH  18  19
ENDBRANCH  17  18
ENDBRANCH  16  17
ENDBRANCH  15  16
ENDBRANCH  12  15
ENDBRANCH   6   9
TORSDOF 7
ENDMDL
MODEL       40
REMARK 921   NORMALIZED FREE ENERGY PREDICTED BY IDOCK:   -6.02 KCAL/MOL
REMARK 922        TOTAL FREE ENERGY PREDICTED BY IDOCK:  -10.08 KCAL/MOL
REMARK 923 INTER-LIGAND FREE ENERGY PREDICTED BY IDOCK:   -8.67 KCAL/MOL
REMARK 924 INTRA-LIGAND FREE ENERGY PREDICTED BY IDOCK:   -1.41 KCAL/MOL
REMARK 927      BINDING AFFINITY PREDICTED BY RF-SCORE:    0.00 PKD
ROOT
HETATM    1 CL   UNL     1     -10.762  17.709  67.769  1.00  0.00    -0.379 Cl 
HETATM    2  C   UNL     1     -11.121  16.056  68.159  1.00  0.00    -0.344 A  
HETATM    3  C   UNL     1     -11.795  15.838  69.359  1.00  0.00    -0.361 A  
HETATM    4  C   UNL     1     -12.102  14.540  69.743  1.00  0.00    -0.380 A  
HETATM    5  C   UNL     1     -11.695  13.468  68.949  1.00  0.00    -0.379 A  
HETATM    6  C   UNL     1     -10.996  13.632  67.732  1.00  0.00    -0.259 A  
HETATM    7  C   UNL     1     -10.752  14.976  67.328  1.00  0.00    -0.298 A  
HETATM    8 CL   UNL     1     -10.104  15.355  65.752  1.00  0.00    -0.358 Cl 
ENDROOT
BRANCH   6   9
HETATM    9  N   UNL     1     -10.561  12.493  67.065  1.00  0.00    -0.231 NA 
HETATM   10  C   UNL     1     -11.309  11.911  65.935  1.00  0.00    -0.308 C  
HETATM   11  C   UNL     1     -10.360  11.471  64.798  1.00  0.00    -0.289 C  
HETATM   12  N   UNL     1      -9.244  10.594  65.221  1.00  0.00    -0.186 NA 
HETATM   13  C   UNL     1      -9.375  11.727  67.503  1.00  0.00    -0.174 C  
HETATM   14  C   UNL     1      -8.508  11.316  66.287  1.00  0.00    -0.156 C  
BRANCH  12  15
HETATM   15  C   UNL     1      -9.715   9.282  65.695  1.00  0.00    -0.232 C  
BRANCH  15  16
HETATM   16  C   UNL     1      -8.594   8.231  65.823  1.00  0.00    -0.182 C  
BRANCH  16  17
HETATM   17  C   UNL     1      -8.728   7.305  67.036  1.00  0.00    -0.123 C  
BRANCH  17  18
HETATM   18  C   UNL     1      -8.093   7.935  68.266  1.00  0.00    -0.123 C  
BRANCH  18  19
HETATM   19  O   UNL     1      -8.318   7.129  69.421  1.00  0.00    -0.130 OA 
BRANCH  19  20
HETATM   20  C   UNL     1      -9.588   7.246  69.935  1.00  0.00    -0.163 A  
HETATM   21  C   UNL     1      -9.981   8.545  70.265  1.00  0.00    -0.196 A  
HETATM   22  C   UNL     1     -11.251   8.765  70.799  1.00  0.00    -0.266 A  
HETATM   23  C   UNL     1     -12.137   7.699  71.003  1.00  0.00    -0.282 A  
HETATM   24  C   UNL     1     -11.750   6.411  70.639  1.00  0.00    -0.377 A  
HETATM   25  C   UNL     1     -13.532   7.969  71.488  1.00  0.00    -0.327 C  
HETATM   26  C   UNL     1     -10.487   6.188  70.103  1.00  0.00    -0.291 A  
HETATM   27  C   UNL     1     -13.602   9.233  72.325  1.00  0.00    -0.544 C  
HETATM   28  C   UNL     1     -12.842  10.383  71.704  1.00  0.00    -0.474 C  
HETATM   29  O   UNL     1     -13.195  11.550  71.837  1.00  0.00    -0.485 OA 
HETATM   30  N   UNL     1     -11.662  10.069  71.086  1.00  0.00    -0.374 N  
HETATM   31  H   UNL     1     -11.044  10.835  70.819  1.00  0.00     0.000 HD 
ENDBRANCH  19  20
ENDBRANCH  18  19
ENDBRANCH  17  18
ENDBRANCH  16  17
ENDBRANCH  15  16
ENDBRANCH  12  15
ENDBRANCH   6   9
TORSDOF 7
ENDMDL
MODEL       41
REMARK 921   NORMALIZED FREE ENERGY PREDICTED BY IDOCK:   -6.00 KCAL/MOL
REMARK 922        TOTAL FREE ENERGY PREDICTED BY IDOCK:  -10.06 KCAL/MOL
REMARK 923 INTER-LIGAND FREE ENERGY PREDICTED BY IDOCK:   -8.93 KCAL/MOL
REMARK 924 INTRA-LIGAND FREE ENERGY PREDICTED BY IDOCK:   -1.12 KCAL/MOL
REMARK 927      BINDING AFFINITY PREDICTED BY RF-SCORE:    0.00 PKD
ROOT
HETATM    1 CL   UNL     1      -6.513   9.183  63.371  1.00  0.00    -0.090 Cl 
HETATM    2  C   UNL     1      -7.874   9.444  64.416  1.00  0.00    -0.123 A  
HETATM    3  C   UNL     1      -8.507  10.681  64.307  1.00  0.00    -0.067 A  
HETATM    4  C   UNL     1      -9.593  10.965  65.122  1.00  0.00    -0.291 A  
HETATM    5  C   UNL     1     -10.011  10.032  66.071  1.00  0.00    -0.334 A  
HETATM    6  C   UNL     1      -9.395   8.771  66.234  1.00  0.00    -0.222 A  
HETATM    7  C   UNL     1      -8.325   8.477  65.340  1.00  0.00    -0.156 A  
HETATM    8 CL   UNL     1      -7.610   6.887  65.260  1.00  0.00    -0.092 Cl 
ENDROOT
BRANCH   6   9
HETATM    9  N   UNL     1      -9.835   7.954  67.269  1.00  0.00    -0.177 NA 
HETATM   10  C   UNL     1     -10.836   6.892  67.059  1.00  0.00    -0.366 C  
HETATM   11  C   UNL     1     -10.456   5.600  67.817  1.00  0.00    -0.211 C  
HETATM   12  N   UNL     1     -10.154   5.787  69.255  1.00  0.00    -0.187 NA 
HETATM   13  C   UNL     1      -9.407   8.155  68.670  1.00  0.00    -0.143 C  
HETATM   14  C   UNL     1      -9.074   6.800  69.341  1.00  0.00    -0.144 C  
BRANCH  12  15
HETATM   15  C   UNL     1     -11.339   6.206  70.024  1.00  0.00    -0.373 C  
BRANCH  15  16
HETATM   16  C   UNL     1     -11.114   6.218  71.548  1.00  0.00    -0.333 C  
BRANCH  16  17
HETATM   17  C   UNL     1     -12.062   7.141  72.322  1.00  0.00    -0.219 C  
BRANCH  17  18
HETATM   18  C   UNL     1     -11.778   8.600  71.994  1.00  0.00    -0.369 C  
BRANCH  18  19
HETATM   19  O   UNL     1     -12.805   9.141  71.166  1.00  0.00    -0.289 OA 
BRANCH  19  20
HETATM   20  C   UNL     1     -12.608  10.461  70.836  1.00  0.00    -0.383 A  
HETATM   21  C   UNL     1     -13.113  11.386  71.754  1.00  0.00    -0.523 A  
HETATM   22  C   UNL     1     -12.967  12.752  71.505  1.00  0.00    -0.292 A  
HETATM   23  C   UNL     1     -12.318  13.203  70.348  1.00  0.00    -0.351 A  
HETATM   24  C   UNL     1     -11.788  12.274  69.456  1.00  0.00    -0.380 A  
HETATM   25  C   UNL     1     -12.088  14.673  70.147  1.00  0.00    -0.385 C  
HETATM   26  C   UNL     1     -11.927  10.913  69.703  1.00  0.00    -0.414 A  
HETATM   27  C   UNL     1     -13.145  15.510  70.843  1.00  0.00    -0.508 C  
HETATM   28  C   UNL     1     -13.428  15.032  72.249  1.00  0.00    -0.419 C  
HETATM   29  O   UNL     1     -13.752  15.799  73.150  1.00  0.00    -0.549 OA 
HETATM   30  N   UNL     1     -13.430  13.677  72.442  1.00  0.00    -0.544 N  
HETATM   31  H   UNL     1     -13.792  13.321  73.327  1.00  0.00     0.000 HD 
ENDBRANCH  19  20
ENDBRANCH  18  19
ENDBRANCH  17  18
ENDBRANCH  16  17
ENDBRANCH  15  16
ENDBRANCH  12  15
ENDBRANCH   6   9
TORSDOF 7
ENDMDL
MODEL       42
REMARK 921   NORMALIZED FREE ENERGY PREDICTED BY IDOCK:   -5.99 KCAL/MOL
REMARK 922        TOTAL FREE ENERGY PREDICTED BY IDOCK:  -10.04 KCAL/MOL
REMARK 923 INTER-LIGAND FREE ENERGY PREDICTED BY IDOCK:   -8.39 KCAL/MOL
REMARK 924 INTRA-LIGAND FREE ENERGY PREDICTED BY IDOCK:   -1.65 KCAL/MOL
REMARK 927      BINDING AFFINITY PREDICTED BY RF-SCORE:    0.00 PKD
ROOT
HETATM    1 CL   UNL     1     -13.397  10.728  72.171  1.00  0.00    -0.462 Cl 
HETATM    2  C   UNL     1     -12.921  12.205  71.394  1.00  0.00    -0.257 A  
HETATM    3  C   UNL     1     -13.189  13.383  72.089  1.00  0.00    -0.557 A  
HETATM    4  C   UNL     1     -12.850  14.602  71.522  1.00  0.00    -0.404 A  
HETATM    5  C   UNL     1     -12.287  14.641  70.246  1.00  0.00    -0.406 A  
HETATM    6  C   UNL     1     -12.008  13.480  69.492  1.00  0.00    -0.334 A  
HETATM    7  C   UNL     1     -12.305  12.237  70.123  1.00  0.00    -0.138 A  
HETATM    8 CL   UNL     1     -11.817  10.714  69.424  1.00  0.00    -0.341 Cl 
ENDROOT
BRANCH   6   9
HETATM    9  N   UNL     1     -11.529  13.636  68.196  1.00  0.00    -0.292 NA 
HETATM   10  C   UNL     1     -12.258  13.120  67.022  1.00  0.00    -0.210 C  
HETATM   11  C   UNL     1     -12.244  14.136  65.859  1.00  0.00    -0.439 C  
HETATM   12  N   UNL     1     -10.902  14.641  65.488  1.00  0.00    -0.325 NA 
HETATM   13  C   UNL     1     -10.211  14.240  67.910  1.00  0.00    -0.237 C  
HETATM   14  C   UNL     1     -10.304  15.221  66.715  1.00  0.00    -0.279 C  
BRANCH  12  15
HETATM   15  C   UNL     1     -10.044  13.584  64.926  1.00  0.00    -0.254 C  
BRANCH  15  16
HETATM   16  C   UNL     1     -10.776  12.648  63.945  1.00  0.00    -0.465 C  
BRANCH  16  17
HETATM   17  C   UNL     1      -9.866  11.657  63.213  1.00  0.00    -0.428 C  
BRANCH  17  18
HETATM   18  C   UNL     1      -9.678  10.391  64.036  1.00  0.00    -0.311 C  
BRANCH  18  19
HETATM   19  O   UNL     1     -10.531  10.399  65.179  1.00  0.00    -0.255 OA 
BRANCH  19  20
HETATM   20  C   UNL     1      -9.966   9.822  66.292  1.00  0.00    -0.262 A  
HETATM   21  C   UNL     1      -9.093  10.642  67.011  1.00  0.00    -0.155 A  
HETATM   22  C   UNL     1      -8.465  10.144  68.153  1.00  0.00    -0.118 A  
HETATM   23  C   UNL     1      -8.704   8.833  68.588  1.00  0.00    -0.134 A  
HETATM   24  C   UNL     1      -9.602   8.034  67.884  1.00  0.00    -0.178 A  
HETATM   25  C   UNL     1      -8.093   8.349  69.871  1.00  0.00    -0.119 C  
HETATM   26  C   UNL     1     -10.233   8.528  66.748  1.00  0.00    -0.370 A  
HETATM   27  C   UNL     1      -6.791   9.065  70.181  1.00  0.00    -0.045 C  
HETATM   28  C   UNL     1      -6.888  10.559  69.972  1.00  0.00    -0.153 C  
HETATM   29  O   UNL     1      -6.251  11.358  70.650  1.00  0.00    -0.332 OA 
HETATM   30  N   UNL     1      -7.628  10.977  68.899  1.00  0.00    -0.126 N  
HETATM   31  H   UNL     1      -7.564  11.957  68.627  1.00  0.00     0.000 HD 
ENDBRANCH  19  20
ENDBRANCH  18  19
ENDBRANCH  17  18
ENDBRANCH  16  17
ENDBRANCH  15  16
ENDBRANCH  12  15
ENDBRANCH   6   9
TORSDOF 7
ENDMDL
MODEL       43
REMARK 921   NORMALIZED FREE ENERGY PREDICTED BY IDOCK:   -5.98 KCAL/MOL
REMARK 922        TOTAL FREE ENERGY PREDICTED BY IDOCK:  -10.03 KCAL/MOL
REMARK 923 INTER-LIGAND FREE ENERGY PREDICTED BY IDOCK:   -8.81 KCAL/MOL
REMARK 924 INTRA-LIGAND FREE ENERGY PREDICTED BY IDOCK:   -1.22 KCAL/MOL
REMARK 927      BINDING AFFINITY PREDICTED BY RF-SCORE:    0.00 PKD
ROOT
HETATM    1 CL   UNL     1      -6.187   7.052  65.080  1.00  0.00    -0.036 Cl 
HETATM    2  C   UNL     1      -7.684   7.725  65.644  1.00  0.00    -0.101 A  
HETATM    3  C   UNL     1      -8.206   8.781  64.899  1.00  0.00    -0.160 A  
HETATM    4  C   UNL     1      -9.392   9.378  65.300  1.00  0.00    -0.303 A  
HETATM    5  C   UNL     1     -10.026   8.947  66.465  1.00  0.00    -0.358 A  
HETATM    6  C   UNL     1      -9.533   7.893  67.265  1.00  0.00    -0.149 A  
HETATM    7  C   UNL     1      -8.350   7.252  66.796  1.00  0.00    -0.119 A  
HETATM    8 CL   UNL     1      -7.739   5.797  67.541  1.00  0.00    -0.096 Cl 
ENDROOT
BRANCH   6   9
HETATM    9  N   UNL     1     -10.196   7.603  68.453  1.00  0.00    -0.194 NA 
HETATM   10  C   UNL     1     -11.083   6.433  68.591  1.00  0.00    -0.311 C  
HETATM   11  C   UNL     1     -10.869   5.721  69.946  1.00  0.00    -0.347 C  
HETATM   12  N   UNL     1     -10.943   6.604  71.133  1.00  0.00    -0.247 NA 
HETATM   13  C   UNL     1     -10.138   8.499  69.627  1.00  0.00    -0.202 C  
HETATM   14  C   UNL     1      -9.946   7.684  70.930  1.00  0.00    -0.180 C  
BRANCH  12  15
HETATM   15  C   UNL     1     -12.293   7.156  71.335  1.00  0.00    -0.377 C  
BRANCH  15  16
HETATM   16  C   UNL     1     -12.341   8.320  72.344  1.00  0.00    -0.385 C  
BRANCH  16  17
HETATM   17  C   UNL     1     -13.615   9.168  72.274  1.00  0.00    -0.548 C  
BRANCH  17  18
HETATM   18  C   UNL     1     -13.282  10.611  71.926  1.00  0.00    -0.423 C  
BRANCH  18  19
HETATM   19  O   UNL     1     -12.063  10.686  71.189  1.00  0.00    -0.349 OA 
BRANCH  19  20
HETATM   20  C   UNL     1     -12.018  11.736  70.303  1.00  0.00    -0.343 A  
HETATM   21  C   UNL     1     -11.798  11.382  68.969  1.00  0.00    -0.415 A  
HETATM   22  C   UNL     1     -11.731  12.379  67.995  1.00  0.00    -0.356 A  
HETATM   23  C   UNL     1     -11.886  13.728  68.339  1.00  0.00    -0.411 A  
HETATM   24  C   UNL     1     -12.139  14.069  69.666  1.00  0.00    -0.408 A  
HETATM   25  C   UNL     1     -11.905  14.775  67.264  1.00  0.00    -0.316 C  
HETATM   26  C   UNL     1     -12.211  13.079  70.639  1.00  0.00    -0.390 A  
HETATM   27  C   UNL     1     -11.099  14.352  66.050  1.00  0.00    -0.324 C  
HETATM   28  C   UNL     1     -11.376  12.923  65.641  1.00  0.00    -0.311 C  
HETATM   29  O   UNL     1     -11.332  12.556  64.471  1.00  0.00    -0.304 OA 
HETATM   30  N   UNL     1     -11.556  12.024  66.656  1.00  0.00    -0.349 N  
HETATM   31  H   UNL     1     -11.564  11.032  66.420  1.00  0.00     0.000 HD 
ENDBRANCH  19  20
ENDBRANCH  18  19
ENDBRANCH  17  18
ENDBRANCH  16  17
ENDBRANCH  15  16
ENDBRANCH  12  15
ENDBRANCH   6   9
TORSDOF 7
ENDMDL
MODEL       44
REMARK 921   NORMALIZED FREE ENERGY PREDICTED BY IDOCK:   -5.96 KCAL/MOL
REMARK 922        TOTAL FREE ENERGY PREDICTED BY IDOCK:  -10.00 KCAL/MOL
REMARK 923 INTER-LIGAND FREE ENERGY PREDICTED BY IDOCK:   -9.28 KCAL/MOL
REMARK 924 INTRA-LIGAND FREE ENERGY PREDICTED BY IDOCK:   -0.72 KCAL/MOL
REMARK 927      BINDING AFFINITY PREDICTED BY RF-SCORE:    0.00 PKD
ROOT
HETATM    1 CL   UNL     1      -6.731  20.001  68.387  1.00  0.00    -0.327 Cl 
HETATM    2  C   UNL     1      -8.316  19.387  68.036  1.00  0.00    -0.319 A  
HETATM    3  C   UNL     1      -9.213  20.286  67.462  1.00  0.00    -0.491 A  
HETATM    4  C   UNL     1     -10.503  19.869  67.168  1.00  0.00    -0.566 A  
HETATM    5  C   UNL     1     -10.903  18.572  67.489  1.00  0.00    -0.337 A  
HETATM    6  C   UNL     1     -10.040  17.626  68.086  1.00  0.00    -0.347 A  
HETATM    7  C   UNL     1      -8.701  18.058  68.317  1.00  0.00    -0.283 A  
HETATM    8 CL   UNL     1      -7.457  16.950  68.836  1.00  0.00    -0.234 Cl 
ENDROOT
BRANCH   6   9
HETATM    9  N   UNL     1     -10.566  16.390  68.445  1.00  0.00    -0.294 NA 
HETATM   10  C   UNL     1     -10.958  16.078  69.832  1.00  0.00    -0.353 C  
HETATM   11  C   UNL     1     -12.297  15.307  69.879  1.00  0.00    -0.288 C  
HETATM   12  N   UNL     1     -12.356  14.107  69.014  1.00  0.00    -0.226 NA 
HETATM   13  C   UNL     1     -10.675  15.270  67.487  1.00  0.00    -0.285 C  
HETATM   14  C   UNL     1     -12.040  14.554  67.635  1.00  0.00    -0.231 C  
BRANCH  12  15
HETATM   15  C   UNL     1     -11.428  13.053  69.457  1.00  0.00    -0.222 C  
BRANCH  15  16
HETATM   16  C   UNL     1     -12.111  11.697  69.719  1.00  0.00    -0.357 C  
BRANCH  16  17
HETATM   17  C   UNL     1     -12.525  11.464  71.175  1.00  0.00    -0.465 C  
BRANCH  17  18
HETATM   18  C   UNL     1     -13.288  10.156  71.316  1.00  0.00    -0.311 C  
BRANCH  18  19
HETATM   19  O   UNL     1     -12.776   9.385  72.400  1.00  0.00    -0.352 OA 
BRANCH  19  20
HETATM   20  C   UNL     1     -11.924   8.380  72.008  1.00  0.00    -0.357 A  
HETATM   21  C   UNL     1     -12.010   8.018  70.660  1.00  0.00    -0.044 A  
HETATM   22  C   UNL     1     -11.189   7.003  70.167  1.00  0.00    -0.284 A  
HETATM   23  C   UNL     1     -10.279   6.347  71.006  1.00  0.00    -0.227 A  
HETATM   24  C   UNL     1     -10.176   6.736  72.339  1.00  0.00    -0.201 A  
HETATM   25  C   UNL     1      -9.340   5.325  70.435  1.00  0.00    -0.208 C  
HETATM   26  C   UNL     1     -10.989   7.750  72.834  1.00  0.00    -0.467 A  
HETATM   27  C   UNL     1      -9.923   4.647  69.208  1.00  0.00    -0.231 C  
HETATM   28  C   UNL     1     -10.556   5.630  68.250  1.00  0.00    -0.181 C  
HETATM   29  O   UNL     1     -10.560   5.451  67.036  1.00  0.00    -0.254 OA 
HETATM   30  N   UNL     1     -11.241   6.672  68.811  1.00  0.00    -0.546 N  
HETATM   31  H   UNL     1     -11.825   7.244  68.202  1.00  0.00     0.000 HD 
ENDBRANCH  19  20
ENDBRANCH  18  19
ENDBRANCH  17  18
ENDBRANCH  16  17
ENDBRANCH  15  16
ENDBRANCH  12  15
ENDBRANCH   6   9
TORSDOF 7
ENDMDL
MODEL       45
REMARK 921   NORMALIZED FREE ENERGY PREDICTED BY IDOCK:   -5.95 KCAL/MOL
REMARK 922        TOTAL FREE ENERGY PREDICTED BY IDOCK:   -9.99 KCAL/MOL
REMARK 923 INTER-LIGAND FREE ENERGY PREDICTED BY IDOCK:   -8.74 KCAL/MOL
REMARK 924 INTRA-LIGAND FREE ENERGY PREDICTED BY IDOCK:   -1.25 KCAL/MOL
REMARK 927      BINDING AFFINITY PREDICTED BY RF-SCORE:    0.00 PKD
ROOT
HETATM    1 CL   UNL     1      -8.595  19.392  68.625  1.00  0.00    -0.398 Cl 
HETATM    2  C   UNL     1      -8.535  17.670  68.414  1.00  0.00    -0.287 A  
HETATM    3  C   UNL     1      -7.414  17.023  68.931  1.00  0.00    -0.237 A  
HETATM    4  C   UNL     1      -7.292  15.649  68.786  1.00  0.00    -0.144 A  
HETATM    5  C   UNL     1      -8.266  14.936  68.087  1.00  0.00    -0.139 A  
HETATM    6  C   UNL     1      -9.414  15.543  67.530  1.00  0.00    -0.208 A  
HETATM    7  C   UNL     1      -9.549  16.945  67.750  1.00  0.00    -0.249 A  
HETATM    8 CL   UNL     1     -11.008  17.803  67.325  1.00  0.00    -0.144 Cl 
ENDROOT
BRANCH   6   9
HETATM    9  N   UNL     1     -10.276  14.754  66.777  1.00  0.00    -0.262 NA 
HETATM   10  C   UNL     1     -11.307  13.904  67.401  1.00  0.00    -0.326 C  
HETATM   11  C   UNL     1     -12.643  13.980  66.628  1.00  0.00    -0.107 C  
HETATM   12  N   UNL     1     -12.537  13.728  65.173  1.00  0.00    -0.614 NA 
HETATM   13  C   UNL     1     -10.156  14.633  65.309  1.00  0.00    -0.360 C  
HETATM   14  C   UNL     1     -11.550  14.698  64.638  1.00  0.00    -0.402 C  
BRANCH  12  15
HETATM   15  C   UNL     1     -12.138  12.342  64.874  1.00  0.00    -0.407 C  
BRANCH  15  16
HETATM   16  C   UNL     1     -11.587  12.151  63.447  1.00  0.00    -0.508 C  
BRANCH  16  17
HETATM   17  C   UNL     1     -10.475  11.104  63.331  1.00  0.00    -0.382 C  
BRANCH  17  18
HETATM   18  C   UNL     1      -9.690  11.006  64.631  1.00  0.00    -0.266 C  
BRANCH  18  19
HETATM   19  O   UNL     1      -9.854   9.720  65.226  1.00  0.00    -0.313 OA 
BRANCH  19  20
HETATM   20  C   UNL     1      -9.935   9.754  66.597  1.00  0.00    -0.229 A  
HETATM   21  C   UNL     1     -10.446   8.598  67.193  1.00  0.00    -0.360 A  
HETATM   22  C   UNL     1     -10.573   8.538  68.582  1.00  0.00    -0.118 A  
HETATM   23  C   UNL     1     -10.189   9.621  69.383  1.00  0.00    -0.220 A  
HETATM   24  C   UNL     1      -9.649  10.757  68.783  1.00  0.00    -0.194 A  
HETATM   25  C   UNL     1     -10.245   9.500  70.878  1.00  0.00    -0.356 C  
HETATM   26  C   UNL     1      -9.517  10.819  67.401  1.00  0.00    -0.171 A  
HETATM   27  C   UNL     1     -11.312   8.519  71.325  1.00  0.00    -0.325 C  
HETATM   28  C   UNL     1     -11.296   7.240  70.520  1.00  0.00    -0.280 C  
HETATM   29  O   UNL     1     -11.607   6.157  71.004  1.00  0.00    -0.303 OA 
HETATM   30  N   UNL     1     -11.040   7.367  69.182  1.00  0.00    -0.435 N  
HETATM   31  H   UNL     1     -11.200   6.555  68.585  1.00  0.00     0.000 HD 
ENDBRANCH  19  20
ENDBRANCH  18  19
ENDBRANCH  17  18
ENDBRANCH  16  17
ENDBRANCH  15  16
ENDBRANCH  12  15
ENDBRANCH   6   9
TORSDOF 7
ENDMDL
MODEL       46
REMARK 921   NORMALIZED FREE ENERGY PREDICTED BY IDOCK:   -5.94 KCAL/MOL
REMARK 922        TOTAL FREE ENERGY PREDICTED BY IDOCK:   -9.97 KCAL/MOL
REMARK 923 INTER-LIGAND FREE ENERGY PREDICTED BY IDOCK:   -8.98 KCAL/MOL
REMARK 924 INTRA-LIGAND FREE ENERGY PREDICTED BY IDOCK:   -0.98 KCAL/MOL
REMARK 927      BINDING AFFINITY PREDICTED BY RF-SCORE:    0.00 PKD
ROOT
HETATM    1 CL   UNL     1      -6.997  19.585  69.082  1.00  0.00    -0.384 Cl 
HETATM    2  C   UNL     1      -8.424  19.012  68.276  1.00  0.00    -0.331 A  
HETATM    3  C   UNL     1      -9.420  19.957  68.040  1.00  0.00    -0.458 A  
HETATM    4  C   UNL     1     -10.595  19.567  67.413  1.00  0.00    -0.607 A  
HETATM    5  C   UNL     1     -10.786  18.228  67.068  1.00  0.00    -0.305 A  
HETATM    6  C   UNL     1      -9.815  17.228  67.299  1.00  0.00    -0.267 A  
HETATM    7  C   UNL     1      -8.591  17.666  67.883  1.00  0.00    -0.238 A  
HETATM    8 CL   UNL     1      -7.213  16.605  68.027  1.00  0.00    -0.155 Cl 
ENDROOT
BRANCH   6   9
HETATM    9  N   UNL     1     -10.143  15.911  66.997  1.00  0.00    -0.262 NA 
HETATM   10  C   UNL     1     -10.686  14.986  68.009  1.00  0.00    -0.262 C  
HETATM   11  C   UNL     1     -11.840  14.135  67.433  1.00  0.00    -0.413 C  
HETATM   12  N   UNL     1     -11.526  13.433  66.168  1.00  0.00    -0.318 NA 
HETATM   13  C   UNL     1      -9.878  15.316  65.671  1.00  0.00    -0.348 C  
HETATM   14  C   UNL     1     -11.084  14.467  65.199  1.00  0.00    -0.362 C  
BRANCH  12  15
HETATM   15  C   UNL     1     -10.495  12.396  66.345  1.00  0.00    -0.243 C  
BRANCH  15  16
HETATM   16  C   UNL     1     -10.253  11.542  65.086  1.00  0.00    -0.322 C  
BRANCH  16  17
HETATM   17  C   UNL     1      -9.047  10.602  65.179  1.00  0.00    -0.227 C  
BRANCH  17  18
HETATM   18  C   UNL     1      -9.465   9.241  65.715  1.00  0.00    -0.262 C  
BRANCH  18  19
HETATM   19  O   UNL     1      -8.703   8.896  66.870  1.00  0.00    -0.117 OA 
BRANCH  19  20
HETATM   20  C   UNL     1      -9.468   8.440  67.918  1.00  0.00    -0.146 A  
HETATM   21  C   UNL     1     -10.208   9.419  68.585  1.00  0.00    -0.222 A  
HETATM   22  C   UNL     1     -11.011   9.056  69.667  1.00  0.00    -0.136 A  
HETATM   23  C   UNL     1     -11.086   7.722  70.088  1.00  0.00    -0.216 A  
HETATM   24  C   UNL     1     -10.371   6.747  69.395  1.00  0.00    -0.221 A  
HETATM   25  C   UNL     1     -12.028   7.338  71.192  1.00  0.00    -0.363 C  
HETATM   26  C   UNL     1      -9.573   7.104  68.314  1.00  0.00    -0.136 A  
HETATM   27  C   UNL     1     -12.271   8.489  72.150  1.00  0.00    -0.446 C  
HETATM   28  C   UNL     1     -12.527   9.795  71.434  1.00  0.00    -0.387 C  
HETATM   29  O   UNL     1     -13.269  10.658  71.891  1.00  0.00    -0.461 OA 
HETATM   30  N   UNL     1     -11.787  10.025  70.306  1.00  0.00    -0.373 N  
HETATM   31  H   UNL     1     -11.804  10.964  69.907  1.00  0.00     0.000 HD 
ENDBRANCH  19  20
ENDBRANCH  18  19
ENDBRANCH  17  18
ENDBRANCH  16  17
ENDBRANCH  15  16
ENDBRANCH  12  15
ENDBRANCH   6   9
TORSDOF 7
ENDMDL
MODEL       47
REMARK 921   NORMALIZED FREE ENERGY PREDICTED BY IDOCK:   -5.94 KCAL/MOL
REMARK 922        TOTAL FREE ENERGY PREDICTED BY IDOCK:   -9.97 KCAL/MOL
REMARK 923 INTER-LIGAND FREE ENERGY PREDICTED BY IDOCK:   -9.49 KCAL/MOL
REMARK 924 INTRA-LIGAND FREE ENERGY PREDICTED BY IDOCK:   -0.48 KCAL/MOL
REMARK 927      BINDING AFFINITY PREDICTED BY RF-SCORE:    0.00 PKD
ROOT
HETATM    1 CL   UNL     1      -8.506   2.757  69.633  1.00  0.00    -0.091 Cl 
HETATM    2  C   UNL     1      -9.471   4.084  69.066  1.00  0.00    -0.173 A  
HETATM    3  C   UNL     1      -9.609   4.202  67.685  1.00  0.00    -0.213 A  
HETATM    4  C   UNL     1     -10.354   5.248  67.160  1.00  0.00    -0.268 A  
HETATM    5  C   UNL     1     -10.918   6.194  68.015  1.00  0.00    -0.399 A  
HETATM    6  C   UNL     1     -10.796   6.132  69.421  1.00  0.00    -0.353 A  
HETATM    7  C   UNL     1     -10.083   5.011  69.938  1.00  0.00    -0.274 A  
HETATM    8 CL   UNL     1     -10.033   4.666  71.648  1.00  0.00    -0.252 Cl 
ENDROOT
BRANCH   6   9
HETATM    9  N   UNL     1     -11.322   7.175  70.174  1.00  0.00    -0.266 NA 
HETATM   10  C   UNL     1     -12.447   6.979  71.108  1.00  0.00    -0.362 C  
HETATM   11  C   UNL     1     -12.219   7.743  72.432  1.00  0.00    -0.207 C  
HETATM   12  N   UNL     1     -11.885   9.177  72.276  1.00  0.00    -0.256 NA 
HETATM   13  C   UNL     1     -10.862   8.571  70.019  1.00  0.00    -0.223 C  
HETATM   14  C   UNL     1     -10.689   9.248  71.401  1.00  0.00    -0.362 C  
BRANCH  12  15
HETATM   15  C   UNL     1     -13.003   9.952  71.713  1.00  0.00    -0.449 C  
BRANCH  15  16
HETATM   16  C   UNL     1     -12.600  11.359  71.231  1.00  0.00    -0.480 C  
BRANCH  16  17
HETATM   17  C   UNL     1     -13.224  12.507  72.030  1.00  0.00    -0.524 C  
BRANCH  17  18
HETATM   18  C   UNL     1     -13.197  13.799  71.228  1.00  0.00    -0.261 C  
BRANCH  18  19
HETATM   19  O   UNL     1     -11.856  14.172  70.914  1.00  0.00    -0.306 OA 
BRANCH  19  20
HETATM   20  C   UNL     1     -11.628  14.324  69.567  1.00  0.00    -0.301 A  
HETATM   21  C   UNL     1     -11.287  15.617  69.162  1.00  0.00    -0.341 A  
HETATM   22  C   UNL     1     -11.042  15.873  67.812  1.00  0.00    -0.288 A  
HETATM   23  C   UNL     1     -11.129  14.847  66.861  1.00  0.00    -0.337 A  
HETATM   24  C   UNL     1     -11.435  13.554  67.278  1.00  0.00    -0.369 A  
HETATM   25  C   UNL     1     -10.769  15.123  65.430  1.00  0.00    -0.396 C  
HETATM   26  C   UNL     1     -11.676  13.294  68.622  1.00  0.00    -0.376 A  
HETATM   27  C   UNL     1     -11.008  16.575  65.059  1.00  0.00    -0.222 C  
HETATM   28  C   UNL     1     -10.493  17.534  66.108  1.00  0.00    -0.288 C  
HETATM   29  O   UNL     1     -10.054  18.643  65.823  1.00  0.00    -0.529 OA 
HETATM   30  N   UNL     1     -10.657  17.154  67.412  1.00  0.00    -0.326 N  
HETATM   31  H   UNL     1     -10.488  17.851  68.138  1.00  0.00     0.000 HD 
ENDBRANCH  19  20
ENDBRANCH  18  19
ENDBRANCH  17  18
ENDBRANCH  16  17
ENDBRANCH  15  16
ENDBRANCH  12  15
ENDBRANCH   6   9
TORSDOF 7
ENDMDL
MODEL       48
REMARK 921   NORMALIZED FREE ENERGY PREDICTED BY IDOCK:   -5.93 KCAL/MOL
REMARK 922        TOTAL FREE ENERGY PREDICTED BY IDOCK:   -9.95 KCAL/MOL
REMARK 923 INTER-LIGAND FREE ENERGY PREDICTED BY IDOCK:   -8.54 KCAL/MOL
REMARK 924 INTRA-LIGAND FREE ENERGY PREDICTED BY IDOCK:   -1.42 KCAL/MOL
REMARK 927      BINDING AFFINITY PREDICTED BY RF-SCORE:    0.00 PKD
ROOT
HETATM    1 CL   UNL     1     -12.980  13.920  65.543  1.00  0.00    -0.486 Cl 
HETATM    2  C   UNL     1     -11.792  12.714  65.160  1.00  0.00    -0.396 A  
HETATM    3  C   UNL     1     -11.461  12.579  63.814  1.00  0.00    -0.542 A  
HETATM    4  C   UNL     1     -10.530  11.624  63.432  1.00  0.00    -0.482 A  
HETATM    5  C   UNL     1      -9.968  10.781  64.392  1.00  0.00    -0.400 A  
HETATM    6  C   UNL     1     -10.279  10.865  65.767  1.00  0.00    -0.259 A  
HETATM    7  C   UNL     1     -11.188  11.897  66.141  1.00  0.00    -0.333 A  
HETATM    8 CL   UNL     1     -11.503  12.278  67.815  1.00  0.00    -0.366 Cl 
ENDROOT
BRANCH   6   9
HETATM    9  N   UNL     1      -9.730   9.918  66.625  1.00  0.00    -0.187 NA 
HETATM   10  C   UNL     1      -8.448  10.140  67.319  1.00  0.00    -0.125 C  
HETATM   11  C   UNL     1      -8.514   9.664  68.788  1.00  0.00    -0.123 C  
HETATM   12  N   UNL     1      -9.002   8.278  68.973  1.00  0.00    -0.147 NA 
HETATM   13  C   UNL     1     -10.338   8.586  66.823  1.00  0.00    -0.276 C  
HETATM   14  C   UNL     1     -10.332   8.198  68.322  1.00  0.00    -0.197 C  
BRANCH  12  15
HETATM   15  C   UNL     1      -8.074   7.280  68.414  1.00  0.00    -0.125 C  
BRANCH  15  16
HETATM   16  C   UNL     1      -7.869   6.050  69.319  1.00  0.00    -0.103 C  
BRANCH  16  17
HETATM   17  C   UNL     1      -6.897   6.272  70.482  1.00  0.00    -0.062 C  
BRANCH  17  18
HETATM   18  C   UNL     1      -7.425   5.626  71.754  1.00  0.00    -0.094 C  
BRANCH  18  19
HETATM   19  O   UNL     1      -8.040   6.597  72.598  1.00  0.00    -0.102 OA 
BRANCH  19  20
HETATM   20  C   UNL     1      -9.389   6.742  72.379  1.00  0.00    -0.137 A  
HETATM   21  C   UNL     1      -9.832   8.060  72.236  1.00  0.00    -0.301 A  
HETATM   22  C   UNL     1     -11.187   8.310  72.016  1.00  0.00    -0.323 A  
HETATM   23  C   UNL     1     -12.106   7.256  71.933  1.00  0.00    -0.349 A  
HETATM   24  C   UNL     1     -11.651   5.944  72.043  1.00  0.00    -0.289 A  
HETATM   25  C   UNL     1     -13.542   7.541  71.601  1.00  0.00    -0.442 C  
HETATM   26  C   UNL     1     -10.302   5.690  72.258  1.00  0.00    -0.250 A  
HETATM   27  C   UNL     1     -13.961   8.927  72.055  1.00  0.00    -0.497 C  
HETATM   28  C   UNL     1     -12.938   9.985  71.705  1.00  0.00    -0.458 C  
HETATM   29  O   UNL     1     -13.254  11.139  71.438  1.00  0.00    -0.350 OA 
HETATM   30  N   UNL     1     -11.624   9.623  71.826  1.00  0.00    -0.336 N  
HETATM   31  H   UNL     1     -10.919  10.358  71.775  1.00  0.00     0.000 HD 
ENDBRANCH  19  20
ENDBRANCH  18  19
ENDBRANCH  17  18
ENDBRANCH  16  17
ENDBRANCH  15  16
ENDBRANCH  12  15
ENDBRANCH   6   9
TORSDOF 7
ENDMDL
MODEL       49
REMARK 921   NORMALIZED FREE ENERGY PREDICTED BY IDOCK:   -5.90 KCAL/MOL
REMARK 922        TOTAL FREE ENERGY PREDICTED BY IDOCK:   -9.92 KCAL/MOL
REMARK 923 INTER-LIGAND FREE ENERGY PREDICTED BY IDOCK:   -8.94 KCAL/MOL
REMARK 924 INTRA-LIGAND FREE ENERGY PREDICTED BY IDOCK:   -0.98 KCAL/MOL
REMARK 927      BINDING AFFINITY PREDICTED BY RF-SCORE:    0.00 PKD
ROOT
HETATM    1 CL   UNL     1     -11.488   4.887  73.366  1.00  0.00    -0.384 Cl 
HETATM    2  C   UNL     1     -10.619   6.340  72.982  1.00  0.00    -0.239 A  
HETATM    3  C   UNL     1      -9.456   6.575  73.711  1.00  0.00    -0.180 A  
HETATM    4  C   UNL     1      -8.718   7.724  73.468  1.00  0.00    -0.296 A  
HETATM    5  C   UNL     1      -9.171   8.653  72.531  1.00  0.00    -0.204 A  
HETATM    6  C   UNL     1     -10.351   8.473  71.776  1.00  0.00    -0.284 A  
HETATM    7  C   UNL     1     -11.055   7.253  71.996  1.00  0.00    -0.244 A  
HETATM    8 CL   UNL     1     -12.399   6.776  70.991  1.00  0.00    -0.415 Cl 
ENDROOT
BRANCH   6   9
HETATM    9  N   UNL     1     -10.758   9.502  70.934  1.00  0.00    -0.310 NA 
HETATM   10  C   UNL     1     -10.006   9.863  69.717  1.00  0.00    -0.243 C  
HETATM   11  C   UNL     1     -10.956  10.144  68.531  1.00  0.00    -0.232 C  
HETATM   12  N   UNL     1     -12.035  11.118  68.813  1.00  0.00    -0.523 NA 
HETATM   13  C   UNL     1     -11.911  10.371  71.249  1.00  0.00    -0.289 C  
HETATM   14  C   UNL     1     -12.780  10.607  69.990  1.00  0.00    -0.092 C  
BRANCH  12  15
HETATM   15  C   UNL     1     -11.514  12.473  69.061  1.00  0.00    -0.304 C  
BRANCH  15  16
HETATM   16  C   UNL     1     -11.967  13.511  68.017  1.00  0.00    -0.372 C  
BRANCH  16  17
HETATM   17  C   UNL     1     -11.722  13.097  66.562  1.00  0.00    -0.433 C  
BRANCH  17  18
HETATM   18  C   UNL     1     -10.236  13.119  66.240  1.00  0.00    -0.293 C  
BRANCH  18  19
HETATM   19  O   UNL     1      -9.967  14.001  65.151  1.00  0.00    -0.322 OA 
BRANCH  19  20
HETATM   20  C   UNL     1     -10.027  15.331  65.492  1.00  0.00    -0.348 A  
HETATM   21  C   UNL     1      -9.082  15.749  66.433  1.00  0.00    -0.357 A  
HETATM   22  C   UNL     1      -9.067  17.082  66.848  1.00  0.00    -0.236 A  
HETATM   23  C   UNL     1      -9.986  18.004  66.329  1.00  0.00    -0.338 A  
HETATM   24  C   UNL     1     -10.902  17.587  65.367  1.00  0.00     0.058 A  
HETATM   25  C   UNL     1      -9.891  19.451  66.717  1.00  0.00    -0.453 C  
HETATM   26  C   UNL     1     -10.918  16.261  64.947  1.00  0.00    -0.321 A  
HETATM   27  C   UNL     1      -9.280  19.626  68.095  1.00  0.00    -0.418 C  
HETATM   28  C   UNL     1      -8.055  18.765  68.299  1.00  0.00    -0.324 C  
HETATM   29  O   UNL     1      -7.118  19.116  69.009  1.00  0.00    -0.325 OA 
HETATM   30  N   UNL     1      -8.095  17.511  67.754  1.00  0.00    -0.217 N  
HETATM   31  H   UNL     1      -7.368  16.848  68.025  1.00  0.00     0.000 HD 
ENDBRANCH  19  20
ENDBRANCH  18  19
ENDBRANCH  17  18
ENDBRANCH  16  17
ENDBRANCH  15  16
ENDBRANCH  12  15
ENDBRANCH   6   9
TORSDOF 7
ENDMDL
MODEL       50
REMARK 921   NORMALIZED FREE ENERGY PREDICTED BY IDOCK:   -5.90 KCAL/MOL
REMARK 922        TOTAL FREE ENERGY PREDICTED BY IDOCK:   -9.91 KCAL/MOL
REMARK 923 INTER-LIGAND FREE ENERGY PREDICTED BY IDOCK:   -9.38 KCAL/MOL
REMARK 924 INTRA-LIGAND FREE ENERGY PREDICTED BY IDOCK:   -0.53 KCAL/MOL
REMARK 927      BINDING AFFINITY PREDICTED BY RF-SCORE:    0.00 PKD
ROOT
HETATM    1 CL   UNL     1     -11.101   6.707  70.492  1.00  0.00    -0.332 Cl 
HETATM    2  C   UNL     1     -12.131   7.984  71.059  1.00  0.00    -0.217 A  
HETATM    3  C   UNL     1     -13.356   7.596  71.598  1.00  0.00    -0.400 A  
HETATM    4  C   UNL     1     -14.237   8.565  72.057  1.00  0.00    -0.535 A  
HETATM    5  C   UNL     1     -13.909   9.915  71.934  1.00  0.00    -0.179 A  
HETATM    6  C   UNL     1     -12.689  10.364  71.380  1.00  0.00    -0.446 A  
HETATM    7  C   UNL     1     -11.774   9.348  70.977  1.00  0.00    -0.323 A  
HETATM    8 CL   UNL     1     -10.142   9.727  70.485  1.00  0.00    -0.327 Cl 
ENDROOT
BRANCH   6   9
HETATM    9  N   UNL     1     -12.501  11.732  71.223  1.00  0.00    -0.299 NA 
HETATM   10  C   UNL     1     -11.700  12.292  70.119  1.00  0.00    -0.198 C  
HETATM   11  C   UNL     1     -12.379  13.538  69.505  1.00  0.00    -0.147 C  
HETATM   12  N   UNL     1     -12.766  14.582  70.481  1.00  0.00    -0.353 NA 
HETATM   13  C   UNL     1     -13.005  12.716  72.204  1.00  0.00    -0.228 C  
HETATM   14  C   UNL     1     -13.643  13.930  71.485  1.00  0.00    -0.279 C  
BRANCH  12  15
HETATM   15  C   UNL     1     -11.597  15.207  71.122  1.00  0.00    -0.360 C  
BRANCH  15  16
HETATM   16  C   UNL     1     -10.432  15.483  70.151  1.00  0.00    -0.317 C  
BRANCH  16  17
HETATM   17  C   UNL     1     -10.539  16.810  69.393  1.00  0.00    -0.318 C  
BRANCH  17  18
HETATM   18  C   UNL     1      -9.198  17.191  68.784  1.00  0.00    -0.249 C  
BRANCH  18  19
HETATM   19  O   UNL     1      -9.258  17.147  67.359  1.00  0.00    -0.229 OA 
BRANCH  19  20
HETATM   20  C   UNL     1      -9.434  15.881  66.854  1.00  0.00    -0.227 A  
HETATM   21  C   UNL     1     -10.453  15.753  65.906  1.00  0.00    -0.366 A  
HETATM   22  C   UNL     1     -10.712  14.505  65.339  1.00  0.00    -0.361 A  
HETATM   23  C   UNL     1      -9.960  13.381  65.706  1.00  0.00    -0.264 A  
HETATM   24  C   UNL     1      -8.924  13.524  66.626  1.00  0.00    -0.133 A  
HETATM   25  C   UNL     1     -10.191  12.069  65.015  1.00  0.00    -0.308 C  
HETATM   26  C   UNL     1      -8.659  14.767  67.191  1.00  0.00    -0.248 A  
HETATM   27  C   UNL     1     -11.617  11.941  64.511  1.00  0.00    -0.344 C  
HETATM   28  C   UNL     1     -12.099  13.194  63.815  1.00  0.00    -0.495 C  
HETATM   29  O   UNL     1     -12.898  13.160  62.885  1.00  0.00    -0.318 OA 
HETATM   30  N   UNL     1     -11.699  14.384  64.359  1.00  0.00    -0.580 N  
HETATM   31  H   UNL     1     -12.150  15.237  64.027  1.00  0.00     0.000 HD 
ENDBRANCH  19  20
ENDBRANCH  18  19
ENDBRANCH  17  18
ENDBRANCH  16  17
ENDBRANCH  15  16
ENDBRANCH  12  15
ENDBRANCH   6   9
TORSDOF 7
ENDMDL
MODEL       51
REMARK 921   NORMALIZED FREE ENERGY PREDICTED BY IDOCK:   -5.88 KCAL/MOL
REMARK 922        TOTAL FREE ENERGY PREDICTED BY IDOCK:   -9.89 KCAL/MOL
REMARK 923 INTER-LIGAND FREE ENERGY PREDICTED BY IDOCK:   -8.80 KCAL/MOL
REMARK 924 INTRA-LIGAND FREE ENERGY PREDICTED BY IDOCK:   -1.09 KCAL/MOL
REMARK 927      BINDING AFFINITY PREDICTED BY RF-SCORE:    0.00 PKD
ROOT
HETATM    1 CL   UNL     1     -10.118   4.417  71.287  1.00  0.00    -0.238 Cl 
HETATM    2  C   UNL     1     -10.646   6.058  71.084  1.00  0.00    -0.246 A  
HETATM    3  C   UNL     1     -11.793   6.428  71.783  1.00  0.00    -0.374 A  
HETATM    4  C   UNL     1     -12.282   7.720  71.658  1.00  0.00    -0.341 A  
HETATM    5  C   UNL     1     -11.649   8.620  70.800  1.00  0.00    -0.273 A  
HETATM    6  C   UNL     1     -10.493   8.293  70.057  1.00  0.00    -0.231 A  
HETATM    7  C   UNL     1      -9.973   6.981  70.254  1.00  0.00    -0.179 A  
HETATM    8 CL   UNL     1      -8.434   6.495  69.588  1.00  0.00    -0.130 Cl 
ENDROOT
BRANCH   6   9
HETATM    9  N   UNL     1      -9.995   9.237  69.165  1.00  0.00    -0.173 NA 
HETATM   10  C   UNL     1      -8.913  10.168  69.533  1.00  0.00    -0.188 C  
HETATM   11  C   UNL     1      -7.886  10.319  68.389  1.00  0.00    -0.102 C  
HETATM   12  N   UNL     1      -8.467  10.654  67.069  1.00  0.00    -0.128 NA 
HETATM   13  C   UNL     1     -10.581   9.441  67.824  1.00  0.00    -0.258 C  
HETATM   14  C   UNL     1      -9.468   9.604  66.759  1.00  0.00    -0.161 C  
BRANCH  12  15
HETATM   15  C   UNL     1      -9.079  11.993  67.052  1.00  0.00    -0.191 C  
BRANCH  15  16
HETATM   16  C   UNL     1      -8.195  13.085  67.685  1.00  0.00    -0.171 C  
BRANCH  16  17
HETATM   17  C   UNL     1      -8.399  14.486  67.099  1.00  0.00    -0.226 C  
BRANCH  17  18
HETATM   18  C   UNL     1      -9.835  14.669  66.630  1.00  0.00    -0.269 C  
BRANCH  18  19
HETATM   19  O   UNL     1     -10.521  15.608  67.455  1.00  0.00    -0.272 OA 
BRANCH  19  20
HETATM   20  C   UNL     1     -11.195  15.030  68.505  1.00  0.00    -0.287 A  
HETATM   21  C   UNL     1     -11.393  15.856  69.614  1.00  0.00    -0.342 A  
HETATM   22  C   UNL     1     -12.062  15.358  70.732  1.00  0.00    -0.366 A  
HETATM   23  C   UNL     1     -12.541  14.041  70.752  1.00  0.00    -0.431 A  
HETATM   24  C   UNL     1     -12.370  13.235  69.629  1.00  0.00    -0.154 A  
HETATM   25  C   UNL     1     -13.341  13.555  71.926  1.00  0.00    -0.529 C  
HETATM   26  C   UNL     1     -11.707  13.729  68.511  1.00  0.00    -0.391 A  
HETATM   27  C   UNL     1     -12.969  14.286  73.203  1.00  0.00    -0.426 C  
HETATM   28  C   UNL     1     -12.856  15.780  73.003  1.00  0.00    -0.502 C  
HETATM   29  O   UNL     1     -13.136  16.582  73.888  1.00  0.00    -0.633 OA 
HETATM   30  N   UNL     1     -12.301  16.196  71.823  1.00  0.00    -0.587 N  
HETATM   31  H   UNL     1     -12.047  17.179  71.735  1.00  0.00     0.000 HD 
ENDBRANCH  19  20
ENDBRANCH  18  19
ENDBRANCH  17  18
ENDBRANCH  16  17
ENDBRANCH  15  16
ENDBRANCH  12  15
ENDBRANCH   6   9
TORSDOF 7
ENDMDL
MODEL       52
REMARK 921   NORMALIZED FREE ENERGY PREDICTED BY IDOCK:   -5.87 KCAL/MOL
REMARK 922        TOTAL FREE ENERGY PREDICTED BY IDOCK:   -9.88 KCAL/MOL
REMARK 923 INTER-LIGAND FREE ENERGY PREDICTED BY IDOCK:   -8.47 KCAL/MOL
REMARK 924 INTRA-LIGAND FREE ENERGY PREDICTED BY IDOCK:   -1.41 KCAL/MOL
REMARK 927      BINDING AFFINITY PREDICTED BY RF-SCORE:    0.00 PKD
ROOT
HETATM    1 CL   UNL     1     -12.404  14.372  64.028  1.00  0.00    -0.389 Cl 
HETATM    2  C   UNL     1     -11.920  13.541  65.473  1.00  0.00    -0.390 A  
HETATM    3  C   UNL     1     -12.154  14.206  66.675  1.00  0.00    -0.480 A  
HETATM    4  C   UNL     1     -11.778  13.609  67.870  1.00  0.00    -0.395 A  
HETATM    5  C   UNL     1     -11.132  12.373  67.853  1.00  0.00    -0.283 A  
HETATM    6  C   UNL     1     -10.856  11.663  66.663  1.00  0.00    -0.283 A  
HETATM    7  C   UNL     1     -11.311  12.267  65.455  1.00  0.00    -0.349 A  
HETATM    8 CL   UNL     1     -11.251  11.422  63.929  1.00  0.00    -0.433 Cl 
ENDROOT
BRANCH   6   9
HETATM    9  N   UNL     1     -10.128  10.483  66.755  1.00  0.00    -0.211 NA 
HETATM   10  C   UNL     1     -10.567   9.354  67.596  1.00  0.00    -0.271 C  
HETATM   11  C   UNL     1     -10.369   8.002  66.873  1.00  0.00    -0.338 C  
HETATM   12  N   UNL     1      -9.010   7.779  66.329  1.00  0.00    -0.168 NA 
HETATM   13  C   UNL     1      -8.815  10.312  66.099  1.00  0.00    -0.151 C  
HETATM   14  C   UNL     1      -8.714   8.920  65.428  1.00  0.00    -0.191 C  
BRANCH  12  15
HETATM   15  C   UNL     1      -7.996   7.662  67.391  1.00  0.00    -0.119 C  
BRANCH  15  16
HETATM   16  C   UNL     1      -7.038   6.470  67.202  1.00  0.00    -0.076 C  
BRANCH  16  17
HETATM   17  C   UNL     1      -7.733   5.135  66.915  1.00  0.00    -0.092 C  
BRANCH  17  18
HETATM   18  C   UNL     1      -8.137   4.450  68.211  1.00  0.00    -0.082 C  
BRANCH  18  19
HETATM   19  O   UNL     1      -9.537   4.595  68.446  1.00  0.00    -0.141 OA 
BRANCH  19  20
HETATM   20  C   UNL     1      -9.834   5.377  69.536  1.00  0.00    -0.196 A  
HETATM   21  C   UNL     1     -11.108   5.952  69.527  1.00  0.00    -0.403 A  
HETATM   22  C   UNL     1     -11.501   6.768  70.589  1.00  0.00    -0.351 A  
HETATM   23  C   UNL     1     -10.636   7.013  71.664  1.00  0.00    -0.226 A  
HETATM   24  C   UNL     1      -9.381   6.408  71.681  1.00  0.00    -0.147 A  
HETATM   25  C   UNL     1     -11.113   7.815  72.839  1.00  0.00    -0.457 C  
HETATM   26  C   UNL     1      -8.987   5.591  70.627  1.00  0.00    -0.160 A  
HETATM   27  C   UNL     1     -12.190   8.808  72.444  1.00  0.00    -0.396 C  
HETATM   28  C   UNL     1     -13.238   8.197  71.542  1.00  0.00    -0.284 C  
HETATM   29  O   UNL     1     -14.411   8.555  71.563  1.00  0.00    -0.424 OA 
HETATM   30  N   UNL     1     -12.789   7.307  70.604  1.00  0.00    -0.587 N  
HETATM   31  H   UNL     1     -13.436   7.019  69.870  1.00  0.00     0.000 HD 
ENDBRANCH  19  20
ENDBRANCH  18  19
ENDBRANCH  17  18
ENDBRANCH  16  17
ENDBRANCH  15  16
ENDBRANCH  12  15
ENDBRANCH   6   9
TORSDOF 7
ENDMDL
MODEL       53
REMARK 921   NORMALIZED FREE ENERGY PREDICTED BY IDOCK:   -5.87 KCAL/MOL
REMARK 922        TOTAL FREE ENERGY PREDICTED BY IDOCK:   -9.88 KCAL/MOL
REMARK 923 INTER-LIGAND FREE ENERGY PREDICTED BY IDOCK:   -8.35 KCAL/MOL
REMARK 924 INTRA-LIGAND FREE ENERGY PREDICTED BY IDOCK:   -1.53 KCAL/MOL
REMARK 927      BINDING AFFINITY PREDICTED BY RF-SCORE:    0.00 PKD
ROOT
HETATM    1 CL   UNL     1     -10.454  14.970  66.370  1.00  0.00    -0.285 Cl 
HETATM    2  C   UNL     1     -10.387  13.407  65.620  1.00  0.00    -0.290 A  
HETATM    3  C   UNL     1     -10.884  13.324  64.321  1.00  0.00    -0.414 A  
HETATM    4  C   UNL     1     -10.877  12.102  63.664  1.00  0.00    -0.523 A  
HETATM    5  C   UNL     1     -10.415  10.963  64.323  1.00  0.00    -0.405 A  
HETATM    6  C   UNL     1      -9.915  10.988  65.645  1.00  0.00    -0.248 A  
HETATM    7  C   UNL     1      -9.872  12.266  66.273  1.00  0.00    -0.241 A  
HETATM    8 CL   UNL     1      -9.081  12.505  67.811  1.00  0.00    -0.183 Cl 
ENDROOT
BRANCH   6   9
HETATM    9  N   UNL     1      -9.564   9.781  66.238  1.00  0.00    -0.196 NA 
HETATM   10  C   UNL     1     -10.385   9.155  67.290  1.00  0.00    -0.270 C  
HETATM   11  C   UNL     1     -10.507   7.629  67.078  1.00  0.00    -0.349 C  
HETATM   12  N   UNL     1      -9.219   6.920  66.899  1.00  0.00    -0.140 NA 
HETATM   13  C   UNL     1      -8.294   9.090  65.929  1.00  0.00    -0.125 C  
HETATM   14  C   UNL     1      -8.524   7.568  65.760  1.00  0.00    -0.144 C  
BRANCH  12  15
HETATM   15  C   UNL     1      -8.391   6.952  68.116  1.00  0.00    -0.118 C  
BRANCH  15  16
HETATM   16  C   UNL     1      -8.109   5.559  68.711  1.00  0.00    -0.099 C  
BRANCH  16  17
HETATM   17  C   UNL     1      -7.718   5.568  70.192  1.00  0.00    -0.085 C  
BRANCH  17  18
HETATM   18  C   UNL     1      -7.326   6.968  70.636  1.00  0.00    -0.076 C  
BRANCH  18  19
HETATM   19  O   UNL     1      -7.798   7.232  71.956  1.00  0.00    -0.089 OA 
BRANCH  19  20
HETATM   20  C   UNL     1      -9.062   7.771  71.991  1.00  0.00    -0.137 A  
HETATM   21  C   UNL     1      -9.252   8.899  71.188  1.00  0.00    -0.324 A  
HETATM   22  C   UNL     1     -10.500   9.522  71.161  1.00  0.00    -0.288 A  
HETATM   23  C   UNL     1     -11.565   9.026  71.925  1.00  0.00    -0.441 A  
HETATM   24  C   UNL     1     -11.376   7.881  72.697  1.00  0.00    -0.468 A  
HETATM   25  C   UNL     1     -12.923   9.653  71.808  1.00  0.00    -0.514 C  
HETATM   26  C   UNL     1     -10.136   7.255  72.724  1.00  0.00    -0.253 A  
HETATM   27  C   UNL     1     -12.837  11.118  71.421  1.00  0.00    -0.544 C  
HETATM   28  C   UNL     1     -11.854  11.362  70.298  1.00  0.00    -0.350 C  
HETATM   29  O   UNL     1     -12.013  12.253  69.470  1.00  0.00    -0.302 OA 
HETATM   30  N   UNL     1     -10.704  10.621  70.324  1.00  0.00    -0.451 N  
HETATM   31  H   UNL     1      -9.949  10.888  69.693  1.00  0.00     0.000 HD 
ENDBRANCH  19  20
ENDBRANCH  18  19
ENDBRANCH  17  18
ENDBRANCH  16  17
ENDBRANCH  15  16
ENDBRANCH  12  15
ENDBRANCH   6   9
TORSDOF 7
ENDMDL
MODEL       54
REMARK 921   NORMALIZED FREE ENERGY PREDICTED BY IDOCK:   -5.82 KCAL/MOL
REMARK 922        TOTAL FREE ENERGY PREDICTED BY IDOCK:   -9.81 KCAL/MOL
REMARK 923 INTER-LIGAND FREE ENERGY PREDICTED BY IDOCK:   -9.35 KCAL/MOL
REMARK 924 INTRA-LIGAND FREE ENERGY PREDICTED BY IDOCK:   -0.46 KCAL/MOL
REMARK 927      BINDING AFFINITY PREDICTED BY RF-SCORE:    0.00 PKD
ROOT
HETATM    1 CL   UNL     1      -9.270   3.728  66.248  1.00  0.00    -0.159 Cl 
HETATM    2  C   UNL     1      -9.528   4.152  67.911  1.00  0.00    -0.167 A  
HETATM    3  C   UNL     1      -9.280   3.152  68.849  1.00  0.00    -0.226 A  
HETATM    4  C   UNL     1      -9.480   3.414  70.197  1.00  0.00    -0.244 A  
HETATM    5  C   UNL     1      -9.969   4.659  70.595  1.00  0.00    -0.293 A  
HETATM    6  C   UNL     1     -10.252   5.702  69.686  1.00  0.00    -0.251 A  
HETATM    7  C   UNL     1      -9.976   5.429  68.315  1.00  0.00    -0.159 A  
HETATM    8 CL   UNL     1     -10.057   6.678  67.097  1.00  0.00    -0.205 Cl 
ENDROOT
BRANCH   6   9
HETATM    9  N   UNL     1     -10.820   6.870  70.181  1.00  0.00    -0.250 NA 
HETATM   10  C   UNL     1     -12.101   6.871  70.912  1.00  0.00    -0.373 C  
HETATM   11  C   UNL     1     -12.048   7.809  72.140  1.00  0.00    -0.304 C  
HETATM   12  N   UNL     1     -11.584   9.186  71.853  1.00  0.00    -0.370 NA 
HETATM   13  C   UNL     1     -10.234   8.203  69.924  1.00  0.00    -0.204 C  
HETATM   14  C   UNL     1     -10.252   9.067  71.209  1.00  0.00    -0.314 C  
BRANCH  12  15
HETATM   15  C   UNL     1     -12.525   9.925  70.996  1.00  0.00    -0.346 C  
BRANCH  15  16
HETATM   16  C   UNL     1     -12.042  11.340  70.623  1.00  0.00    -0.480 C  
BRANCH  16  17
HETATM   17  C   UNL     1     -11.895  11.585  69.118  1.00  0.00    -0.406 C  
BRANCH  17  18
HETATM   18  C   UNL     1     -11.615  13.054  68.837  1.00  0.00    -0.311 C  
BRANCH  18  19
HETATM   19  O   UNL     1     -11.935  13.380  67.486  1.00  0.00    -0.361 OA 
BRANCH  19  20
HETATM   20  C   UNL     1     -11.420  14.587  67.074  1.00  0.00    -0.370 A  
HETATM   21  C   UNL     1     -11.254  15.539  68.083  1.00  0.00    -0.343 A  
HETATM   22  C   UNL     1     -10.742  16.798  67.763  1.00  0.00    -0.321 A  
HETATM   23  C   UNL     1     -10.391  17.114  66.444  1.00  0.00    -0.307 A  
HETATM   24  C   UNL     1     -10.528  16.147  65.451  1.00  0.00    -0.396 A  
HETATM   25  C   UNL     1      -9.754  18.438  66.138  1.00  0.00    -0.236 C  
HETATM   26  C   UNL     1     -11.033  14.890  65.765  1.00  0.00    -0.345 A  
HETATM   27  C   UNL     1     -10.177  19.509  67.126  1.00  0.00    -0.542 C  
HETATM   28  C   UNL     1     -10.133  19.025  68.558  1.00  0.00    -0.400 C  
HETATM   29  O   UNL     1      -9.866  19.772  69.494  1.00  0.00    -0.311 OA 
HETATM   30  N   UNL     1     -10.532  17.735  68.776  1.00  0.00    -0.355 N  
HETATM   31  H   UNL     1     -10.686  17.439  69.740  1.00  0.00     0.000 HD 
ENDBRANCH  19  20
ENDBRANCH  18  19
ENDBRANCH  17  18
ENDBRANCH  16  17
ENDBRANCH  15  16
ENDBRANCH  12  15
ENDBRANCH   6   9
TORSDOF 7
ENDMDL
MODEL       55
REMARK 921   NORMALIZED FREE ENERGY PREDICTED BY IDOCK:   -5.80 KCAL/MOL
REMARK 922        TOTAL FREE ENERGY PREDICTED BY IDOCK:   -9.78 KCAL/MOL
REMARK 923 INTER-LIGAND FREE ENERGY PREDICTED BY IDOCK:   -8.55 KCAL/MOL
REMARK 924 INTRA-LIGAND FREE ENERGY PREDICTED BY IDOCK:   -1.23 KCAL/MOL
REMARK 927      BINDING AFFINITY PREDICTED BY RF-SCORE:    0.00 PKD
ROOT
HETATM    1 CL   UNL     1      -8.832   4.161  72.277  1.00  0.00    -0.118 Cl 
HETATM    2  C   UNL     1      -9.831   5.441  71.662  1.00  0.00    -0.172 A  
HETATM    3  C   UNL     1     -11.054   5.631  72.301  1.00  0.00    -0.318 A  
HETATM    4  C   UNL     1     -11.910   6.627  71.854  1.00  0.00    -0.375 A  
HETATM    5  C   UNL     1     -11.560   7.395  70.744  1.00  0.00    -0.317 A  
HETATM    6  C   UNL     1     -10.341   7.234  70.049  1.00  0.00    -0.213 A  
HETATM    7  C   UNL     1      -9.450   6.250  70.569  1.00  0.00    -0.162 A  
HETATM    8 CL   UNL     1      -7.820   6.081  69.969  1.00  0.00    -0.102 Cl 
ENDROOT
BRANCH   6   9
HETATM    9  N   UNL     1     -10.131   7.992  68.902  1.00  0.00    -0.196 NA 
HETATM   10  C   UNL     1      -9.571   9.355  68.955  1.00  0.00    -0.155 C  
HETATM   11  C   UNL     1      -8.532   9.580  67.834  1.00  0.00    -0.119 C  
HETATM   12  N   UNL     1      -8.999   9.235  66.472  1.00  0.00    -0.144 NA 
HETATM   13  C   UNL     1     -10.548   7.527  67.563  1.00  0.00    -0.261 C  
HETATM   14  C   UNL     1      -9.447   7.822  66.514  1.00  0.00    -0.201 C  
BRANCH  12  15
HETATM   15  C   UNL     1     -10.080  10.123  66.011  1.00  0.00    -0.248 C  
BRANCH  15  16
HETATM   16  C   UNL     1      -9.674  11.608  65.939  1.00  0.00    -0.260 C  
BRANCH  16  17
HETATM   17  C   UNL     1     -10.559  12.465  65.029  1.00  0.00    -0.330 C  
BRANCH  17  18
HETATM   18  C   UNL     1     -11.689  13.103  65.823  1.00  0.00    -0.374 C  
BRANCH  18  19
HETATM   19  O   UNL     1     -11.244  14.297  66.465  1.00  0.00    -0.316 OA 
BRANCH  19  20
HETATM   20  C   UNL     1     -11.593  14.371  67.792  1.00  0.00    -0.356 A  
HETATM   21  C   UNL     1     -11.861  13.145  68.408  1.00  0.00    -0.386 A  
HETATM   22  C   UNL     1     -12.230  13.117  69.753  1.00  0.00    -0.202 A  
HETATM   23  C   UNL     1     -12.328  14.303  70.494  1.00  0.00    -0.430 A  
HETATM   24  C   UNL     1     -12.026  15.517  69.882  1.00  0.00    -0.381 A  
HETATM   25  C   UNL     1     -12.633  14.242  71.962  1.00  0.00    -0.381 C  
HETATM   26  C   UNL     1     -11.654  15.549  68.543  1.00  0.00    -0.379 A  
HETATM   27  C   UNL     1     -13.445  13.012  72.320  1.00  0.00    -0.645 C  
HETATM   28  C   UNL     1     -12.915  11.757  71.663  1.00  0.00    -0.362 C  
HETATM   29  O   UNL     1     -12.995  10.655  72.195  1.00  0.00    -0.427 OA 
HETATM   30  N   UNL     1     -12.454  11.890  70.381  1.00  0.00    -0.218 N  
HETATM   31  H   UNL     1     -12.261  11.040  69.852  1.00  0.00     0.000 HD 
ENDBRANCH  19  20
ENDBRANCH  18  19
ENDBRANCH  17  18
ENDBRANCH  16  17
ENDBRANCH  15  16
ENDBRANCH  12  15
ENDBRANCH   6   9
TORSDOF 7
ENDMDL
MODEL       56
REMARK 921   NORMALIZED FREE ENERGY PREDICTED BY IDOCK:   -5.80 KCAL/MOL
REMARK 922        TOTAL FREE ENERGY PREDICTED BY IDOCK:   -9.77 KCAL/MOL
REMARK 923 INTER-LIGAND FREE ENERGY PREDICTED BY IDOCK:   -8.16 KCAL/MOL
REMARK 924 INTRA-LIGAND FREE ENERGY PREDICTED BY IDOCK:   -1.61 KCAL/MOL
REMARK 927      BINDING AFFINITY PREDICTED BY RF-SCORE:    0.00 PKD
ROOT
HETATM    1 CL   UNL     1     -12.661  11.719  63.332  1.00  0.00    -0.588 Cl 
HETATM    2  C   UNL     1     -11.415  12.162  64.456  1.00  0.00    -0.334 A  
HETATM    3  C   UNL     1     -10.528  11.152  64.823  1.00  0.00    -0.388 A  
HETATM    4  C   UNL     1      -9.515  11.430  65.730  1.00  0.00    -0.256 A  
HETATM    5  C   UNL     1      -9.422  12.701  66.297  1.00  0.00    -0.207 A  
HETATM    6  C   UNL     1     -10.303  13.756  65.972  1.00  0.00    -0.308 A  
HETATM    7  C   UNL     1     -11.293  13.464  64.989  1.00  0.00    -0.312 A  
HETATM    8 CL   UNL     1     -12.311  14.711  64.314  1.00  0.00    -0.476 Cl 
ENDROOT
BRANCH   6   9
HETATM    9  N   UNL     1     -10.175  14.957  66.661  1.00  0.00    -0.256 NA 
HETATM   10  C   UNL     1      -9.685  16.186  66.012  1.00  0.00    -0.344 C  
HETATM   11  C   UNL     1     -10.509  17.419  66.445  1.00  0.00    -0.267 C  
HETATM   12  N   UNL     1     -10.646  17.595  67.909  1.00  0.00    -0.395 NA 
HETATM   13  C   UNL     1     -10.424  15.062  68.114  1.00  0.00    -0.245 C  
HETATM   14  C   UNL     1     -11.235  16.341  68.440  1.00  0.00    -0.349 C  
BRANCH  12  15
HETATM   15  C   UNL     1      -9.359  17.896  68.558  1.00  0.00    -0.296 C  
BRANCH  15  16
HETATM   16  C   UNL     1      -9.047  19.403  68.644  1.00  0.00    -0.423 C  
BRANCH  16  17
HETATM   17  C   UNL     1      -7.812  19.842  67.851  1.00  0.00    -0.328 C  
BRANCH  17  18
HETATM   18  C   UNL     1      -6.546  19.630  68.667  1.00  0.00    -0.287 C  
BRANCH  18  19
HETATM   19  O   UNL     1      -5.627  18.792  67.968  1.00  0.00    -0.184 OA 
BRANCH  19  20
HETATM   20  C   UNL     1      -5.854  17.449  68.155  1.00  0.00    -0.147 A  
HETATM   21  C   UNL     1      -5.628  16.982  69.453  1.00  0.00    -0.170 A  
HETATM   22  C   UNL     1      -5.826  15.631  69.741  1.00  0.00    -0.145 A  
HETATM   23  C   UNL     1      -6.252  14.741  68.747  1.00  0.00    -0.083 A  
HETATM   24  C   UNL     1      -6.507  15.221  67.465  1.00  0.00    -0.158 A  
HETATM   25  C   UNL     1      -6.549  13.313  69.101  1.00  0.00    -0.105 C  
HETATM   26  C   UNL     1      -6.316  16.567  67.173  1.00  0.00    -0.220 A  
HETATM   27  C   UNL     1      -5.732  12.844  70.290  1.00  0.00    -0.162 C  
HETATM   28  C   UNL     1      -5.714  13.855  71.414  1.00  0.00    -0.220 C  
HETATM   29  O   UNL     1      -5.648  13.523  72.593  1.00  0.00    -0.432 OA 
HETATM   30  N   UNL     1      -5.645  15.171  71.048  1.00  0.00    -0.080 N  
HETATM   31  H   UNL     1      -5.450  15.860  71.774  1.00  0.00     0.000 HD 
ENDBRANCH  19  20
ENDBRANCH  18  19
ENDBRANCH  17  18
ENDBRANCH  16  17
ENDBRANCH  15  16
ENDBRANCH  12  15
ENDBRANCH   6   9
TORSDOF 7
ENDMDL
MODEL       57
REMARK 921   NORMALIZED FREE ENERGY PREDICTED BY IDOCK:   -5.79 KCAL/MOL
REMARK 922        TOTAL FREE ENERGY PREDICTED BY IDOCK:   -9.76 KCAL/MOL
REMARK 923 INTER-LIGAND FREE ENERGY PREDICTED BY IDOCK:   -8.62 KCAL/MOL
REMARK 924 INTRA-LIGAND FREE ENERGY PREDICTED BY IDOCK:   -1.14 KCAL/MOL
REMARK 927      BINDING AFFINITY PREDICTED BY RF-SCORE:    0.00 PKD
ROOT
HETATM    1 CL   UNL     1     -10.038   3.454  72.411  1.00  0.00    -0.234 Cl 
HETATM    2  C   UNL     1     -10.456   5.036  71.832  1.00  0.00    -0.187 A  
HETATM    3  C   UNL     1     -11.488   5.687  72.505  1.00  0.00    -0.335 A  
HETATM    4  C   UNL     1     -11.885   6.949  72.088  1.00  0.00    -0.318 A  
HETATM    5  C   UNL     1     -11.281   7.533  70.974  1.00  0.00    -0.281 A  
HETATM    6  C   UNL     1     -10.243   6.911  70.247  1.00  0.00    -0.192 A  
HETATM    7  C   UNL     1      -9.807   5.645  70.736  1.00  0.00    -0.183 A  
HETATM    8 CL   UNL     1      -8.393   4.851  70.091  1.00  0.00    -0.079 Cl 
ENDROOT
BRANCH   6   9
HETATM    9  N   UNL     1      -9.773   7.542  69.101  1.00  0.00    -0.164 NA 
HETATM   10  C   UNL     1      -8.475   8.241  69.066  1.00  0.00    -0.131 C  
HETATM   11  C   UNL     1      -7.710   7.945  67.756  1.00  0.00    -0.121 C  
HETATM   12  N   UNL     1      -8.486   8.176  66.516  1.00  0.00    -0.125 NA 
HETATM   13  C   UNL     1     -10.582   7.646  67.868  1.00  0.00    -0.168 C  
HETATM   14  C   UNL     1      -9.717   7.355  66.618  1.00  0.00    -0.194 C  
BRANCH  12  15
HETATM   15  C   UNL     1      -8.810   9.599  66.317  1.00  0.00    -0.151 C  
BRANCH  15  16
HETATM   16  C   UNL     1      -9.896   9.843  65.252  1.00  0.00    -0.373 C  
BRANCH  16  17
HETATM   17  C   UNL     1     -10.171  11.320  64.952  1.00  0.00    -0.341 C  
BRANCH  17  18
HETATM   18  C   UNL     1     -11.042  11.935  66.036  1.00  0.00    -0.322 C  
BRANCH  18  19
HETATM   19  O   UNL     1     -10.255  12.316  67.164  1.00  0.00    -0.210 OA 
BRANCH  19  20
HETATM   20  C   UNL     1     -10.940  12.267  68.355  1.00  0.00    -0.236 A  
HETATM   21  C   UNL     1     -11.614  13.440  68.703  1.00  0.00    -0.362 A  
HETATM   22  C   UNL     1     -12.333  13.491  69.898  1.00  0.00    -0.224 A  
HETATM   23  C   UNL     1     -12.390  12.379  70.748  1.00  0.00    -0.377 A  
HETATM   24  C   UNL     1     -11.743  11.202  70.376  1.00  0.00    -0.415 A  
HETATM   25  C   UNL     1     -13.246  12.423  71.980  1.00  0.00    -0.514 C  
HETATM   26  C   UNL     1     -11.029  11.145  69.185  1.00  0.00    -0.295 A  
HETATM   27  C   UNL     1     -13.399  13.837  72.509  1.00  0.00    -0.656 C  
HETATM   28  C   UNL     1     -13.696  14.836  71.414  1.00  0.00    -0.431 C  
HETATM   29  O   UNL     1     -14.389  15.830  71.604  1.00  0.00    -0.446 OA 
HETATM   30  N   UNL     1     -13.045  14.647  70.226  1.00  0.00    -0.555 N  
HETATM   31  H   UNL     1     -13.082  15.397  69.536  1.00  0.00     0.000 HD 
ENDBRANCH  19  20
ENDBRANCH  18  19
ENDBRANCH  17  18
ENDBRANCH  16  17
ENDBRANCH  15  16
ENDBRANCH  12  15
ENDBRANCH   6   9
TORSDOF 7
ENDMDL
MODEL       58
REMARK 921   NORMALIZED FREE ENERGY PREDICTED BY IDOCK:   -5.74 KCAL/MOL
REMARK 922        TOTAL FREE ENERGY PREDICTED BY IDOCK:   -9.69 KCAL/MOL
REMARK 923 INTER-LIGAND FREE ENERGY PREDICTED BY IDOCK:   -8.29 KCAL/MOL
REMARK 924 INTRA-LIGAND FREE ENERGY PREDICTED BY IDOCK:   -1.41 KCAL/MOL
REMARK 927      BINDING AFFINITY PREDICTED BY RF-SCORE:    0.00 PKD
ROOT
HETATM    1 CL   UNL     1      -7.086   8.253  62.652  1.00  0.00    -0.090 Cl 
HETATM    2  C   UNL     1      -7.725   7.139  63.820  1.00  0.00    -0.119 A  
HETATM    3  C   UNL     1      -7.921   5.831  63.383  1.00  0.00    -0.108 A  
HETATM    4  C   UNL     1      -8.443   4.890  64.259  1.00  0.00    -0.137 A  
HETATM    5  C   UNL     1      -8.808   5.272  65.550  1.00  0.00    -0.153 A  
HETATM    6  C   UNL     1      -8.646   6.587  66.039  1.00  0.00    -0.148 A  
HETATM    7  C   UNL     1      -8.046   7.519  65.142  1.00  0.00    -0.130 A  
HETATM    8 CL   UNL     1      -7.573   9.116  65.662  1.00  0.00    -0.093 Cl 
ENDROOT
BRANCH   6   9
HETATM    9  N   UNL     1      -9.125   6.880  67.311  1.00  0.00    -0.123 NA 
HETATM   10  C   UNL     1     -10.559   7.098  67.578  1.00  0.00    -0.278 C  
HETATM   11  C   UNL     1     -10.999   6.406  68.887  1.00  0.00    -0.346 C  
HETATM   12  N   UNL     1     -10.170   6.726  70.072  1.00  0.00    -0.188 NA 
HETATM   13  C   UNL     1      -8.225   7.094  68.463  1.00  0.00    -0.125 C  
HETATM   14  C   UNL     1      -8.770   6.380  69.725  1.00  0.00    -0.138 C  
BRANCH  12  15
HETATM   15  C   UNL     1     -10.286   8.139  70.468  1.00  0.00    -0.202 C  
BRANCH  15  16
HETATM   16  C   UNL     1     -11.715   8.554  70.871  1.00  0.00    -0.274 C  
BRANCH  16  17
HETATM   17  C   UNL     1     -11.821   9.955  71.482  1.00  0.00    -0.445 C  
BRANCH  17  18
HETATM   18  C   UNL     1     -12.505  10.912  70.518  1.00  0.00    -0.351 C  
BRANCH  18  19
HETATM   19  O   UNL     1     -11.578  11.868  70.009  1.00  0.00    -0.291 OA 
BRANCH  19  20
HETATM   20  C   UNL     1     -11.414  11.804  68.645  1.00  0.00    -0.288 A  
HETATM   21  C   UNL     1     -11.959  12.873  67.929  1.00  0.00    -0.333 A  
HETATM   22  C   UNL     1     -11.849  12.896  66.538  1.00  0.00    -0.407 A  
HETATM   23  C   UNL     1     -11.194  11.862  65.854  1.00  0.00    -0.373 A  
HETATM   24  C   UNL     1     -10.624  10.819  66.579  1.00  0.00    -0.279 A  
HETATM   25  C   UNL     1     -11.004  11.954  64.368  1.00  0.00    -0.392 C  
HETATM   26  C   UNL     1     -10.728  10.794  67.965  1.00  0.00    -0.270 A  
HETATM   27  C   UNL     1     -12.095  12.777  63.709  1.00  0.00    -0.596 C  
HETATM   28  C   UNL     1     -12.386  14.058  64.458  1.00  0.00    -0.378 C  
HETATM   29  O   UNL     1     -12.746  15.082  63.888  1.00  0.00    -0.775 OA 
HETATM   30  N   UNL     1     -12.352  13.985  65.824  1.00  0.00    -0.457 N  
HETATM   31  H   UNL     1     -12.718  14.776  66.354  1.00  0.00     0.000 HD 
ENDBRANCH  19  20
ENDBRANCH  18  19
ENDBRANCH  17  18
ENDBRANCH  16  17
ENDBRANCH  15  16
ENDBRANCH  12  15
ENDBRANCH   6   9
TORSDOF 7
ENDMDL
MODEL       59
REMARK 921   NORMALIZED FREE ENERGY PREDICTED BY IDOCK:   -5.74 KCAL/MOL
REMARK 922        TOTAL FREE ENERGY PREDICTED BY IDOCK:   -9.68 KCAL/MOL
REMARK 923 INTER-LIGAND FREE ENERGY PREDICTED BY IDOCK:   -8.84 KCAL/MOL
REMARK 924 INTRA-LIGAND FREE ENERGY PREDICTED BY IDOCK:   -0.85 KCAL/MOL
REMARK 927      BINDING AFFINITY PREDICTED BY RF-SCORE:    0.00 PKD
ROOT
HETATM    1 CL   UNL     1     -10.368   5.289  74.540  1.00  0.00    -0.299 Cl 
HETATM    2  C   UNL     1     -10.268   5.352  72.809  1.00  0.00    -0.187 A  
HETATM    3  C   UNL     1      -9.979   4.152  72.163  1.00  0.00    -0.243 A  
HETATM    4  C   UNL     1      -9.868   4.130  70.780  1.00  0.00    -0.248 A  
HETATM    5  C   UNL     1     -10.002   5.315  70.055  1.00  0.00    -0.315 A  
HETATM    6  C   UNL     1     -10.279   6.561  70.661  1.00  0.00    -0.187 A  
HETATM    7  C   UNL     1     -10.454   6.544  72.075  1.00  0.00    -0.202 A  
HETATM    8 CL   UNL     1     -11.018   7.948  72.945  1.00  0.00    -0.461 Cl 
ENDROOT
BRANCH   6   9
HETATM    9  N   UNL     1     -10.303   7.693  69.854  1.00  0.00    -0.219 NA 
HETATM   10  C   UNL     1     -11.405   8.672  69.910  1.00  0.00     0.049 C  
HETATM   11  C   UNL     1     -10.873  10.122  69.854  1.00  0.00    -0.299 C  
HETATM   12  N   UNL     1      -9.950  10.404  68.731  1.00  0.00    -0.179 NA 
HETATM   13  C   UNL     1      -9.283   7.944  68.815  1.00  0.00    -0.143 C  
HETATM   14  C   UNL     1      -8.839   9.427  68.829  1.00  0.00    -0.132 C  
BRANCH  12  15
HETATM   15  C   UNL     1     -10.620  10.318  67.422  1.00  0.00    -0.270 C  
BRANCH  15  16
HETATM   16  C   UNL     1      -9.761  10.831  66.251  1.00  0.00    -0.248 C  
BRANCH  16  17
HETATM   17  C   UNL     1     -10.255  12.140  65.627  1.00  0.00    -0.285 C  
BRANCH  17  18
HETATM   18  C   UNL     1     -10.977  12.990  66.661  1.00  0.00    -0.279 C  
BRANCH  18  19
HETATM   19  O   UNL     1     -10.109  13.991  67.189  1.00  0.00    -0.253 OA 
BRANCH  19  20
HETATM   20  C   UNL     1     -10.572  14.565  68.349  1.00  0.00    -0.244 A  
HETATM   21  C   UNL     1     -11.480  13.792  69.076  1.00  0.00    -0.349 A  
HETATM   22  C   UNL     1     -12.012  14.291  70.266  1.00  0.00    -0.329 A  
HETATM   23  C   UNL     1     -11.641  15.557  70.740  1.00  0.00    -0.399 A  
HETATM   24  C   UNL     1     -10.710  16.307  70.026  1.00  0.00    -0.290 A  
HETATM   25  C   UNL     1     -12.151  16.035  72.068  1.00  0.00    -0.606 C  
HETATM   26  C   UNL     1     -10.174  15.811  68.843  1.00  0.00    -0.219 A  
HETATM   27  C   UNL     1     -13.494  15.419  72.412  1.00  0.00    -0.591 C  
HETATM   28  C   UNL     1     -13.537  13.933  72.139  1.00  0.00    -0.506 C  
HETATM   29  O   UNL     1     -14.210  13.162  72.815  1.00  0.00    -0.608 OA 
HETATM   30  N   UNL     1     -12.884  13.501  71.017  1.00  0.00    -0.299 N  
HETATM   31  H   UNL     1     -13.044  12.542  70.710  1.00  0.00     0.000 HD 
ENDBRANCH  19  20
ENDBRANCH  18  19
ENDBRANCH  17  18
ENDBRANCH  16  17
ENDBRANCH  15  16
ENDBRANCH  12  15
ENDBRANCH   6   9
TORSDOF 7
ENDMDL
MODEL       60
REMARK 921   NORMALIZED FREE ENERGY PREDICTED BY IDOCK:   -5.71 KCAL/MOL
REMARK 922        TOTAL FREE ENERGY PREDICTED BY IDOCK:   -9.65 KCAL/MOL
REMARK 923 INTER-LIGAND FREE ENERGY PREDICTED BY IDOCK:   -8.63 KCAL/MOL
REMARK 924 INTRA-LIGAND FREE ENERGY PREDICTED BY IDOCK:   -1.02 KCAL/MOL
REMARK 927      BINDING AFFINITY PREDICTED BY RF-SCORE:    0.00 PKD
ROOT
HETATM    1 CL   UNL     1     -13.252  11.584  72.059  1.00  0.00    -0.568 Cl 
HETATM    2  C   UNL     1     -13.069   9.893  71.713  1.00  0.00    -0.452 A  
HETATM    3  C   UNL     1     -14.048   9.048  72.231  1.00  0.00    -0.485 A  
HETATM    4  C   UNL     1     -13.958   7.682  72.007  1.00  0.00    -0.311 A  
HETATM    5  C   UNL     1     -12.868   7.164  71.306  1.00  0.00    -0.399 A  
HETATM    6  C   UNL     1     -11.840   7.974  70.774  1.00  0.00    -0.162 A  
HETATM    7  C   UNL     1     -11.991   9.379  70.960  1.00  0.00    -0.315 A  
HETATM    8 CL   UNL     1     -10.934  10.526  70.176  1.00  0.00    -0.350 Cl 
ENDROOT
BRANCH   6   9
HETATM    9  N   UNL     1     -10.755   7.348  70.171  1.00  0.00    -0.238 NA 
HETATM   10  C   UNL     1      -9.383   7.482  70.693  1.00  0.00    -0.163 C  
HETATM   11  C   UNL     1      -8.636   6.129  70.666  1.00  0.00    -0.135 C  
HETATM   12  N   UNL     1      -8.656   5.432  69.360  1.00  0.00    -0.099 NA 
HETATM   13  C   UNL     1     -10.884   6.589  68.909  1.00  0.00    -0.301 C  
HETATM   14  C   UNL     1     -10.080   5.267  68.980  1.00  0.00    -0.202 C  
BRANCH  12  15
HETATM   15  C   UNL     1      -7.910   6.166  68.324  1.00  0.00    -0.104 C  
BRANCH  15  16
HETATM   16  C   UNL     1      -8.053   5.562  66.913  1.00  0.00    -0.101 C  
BRANCH  16  17
HETATM   17  C   UNL     1      -7.699   6.522  65.773  1.00  0.00    -0.092 C  
BRANCH  17  18
HETATM   18  C   UNL     1      -8.639   7.718  65.765  1.00  0.00    -0.143 C  
BRANCH  18  19
HETATM   19  O   UNL     1      -8.032   8.834  65.117  1.00  0.00    -0.111 OA 
BRANCH  19  20
HETATM   20  C   UNL     1      -8.928   9.808  64.743  1.00  0.00    -0.225 A  
HETATM   21  C   UNL     1      -9.465  10.559  65.792  1.00  0.00    -0.249 A  
HETATM   22  C   UNL     1     -10.388  11.567  65.514  1.00  0.00    -0.273 A  
HETATM   23  C   UNL     1     -10.779  11.837  64.196  1.00  0.00    -0.410 A  
HETATM   24  C   UNL     1     -10.213  11.106  63.153  1.00  0.00    -0.347 A  
HETATM   25  C   UNL     1     -11.700  12.988  63.910  1.00  0.00    -0.531 C  
HETATM   26  C   UNL     1      -9.290  10.104  63.425  1.00  0.00    -0.334 A  
HETATM   27  C   UNL     1     -12.611  13.285  65.087  1.00  0.00    -0.512 C  
HETATM   28  C   UNL     1     -11.871  13.291  66.405  1.00  0.00    -0.396 C  
HETATM   29  O   UNL     1     -12.199  14.018  67.337  1.00  0.00    -0.384 OA 
HETATM   30  N   UNL     1     -10.891  12.349  66.556  1.00  0.00    -0.243 N  
HETATM   31  H   UNL     1     -10.502  12.209  67.489  1.00  0.00     0.000 HD 
ENDBRANCH  19  20
ENDBRANCH  18  19
ENDBRANCH  17  18
ENDBRANCH  16  17
ENDBRANCH  15  16
ENDBRANCH  12  15
ENDBRANCH   6   9
TORSDOF 7
ENDMDL
MODEL       61
REMARK 921   NORMALIZED FREE ENERGY PREDICTED BY IDOCK:   -5.70 KCAL/MOL
REMARK 922        TOTAL FREE ENERGY PREDICTED BY IDOCK:   -9.63 KCAL/MOL
REMARK 923 INTER-LIGAND FREE ENERGY PREDICTED BY IDOCK:   -9.01 KCAL/MOL
REMARK 924 INTRA-LIGAND FREE ENERGY PREDICTED BY IDOCK:   -0.63 KCAL/MOL
REMARK 927      BINDING AFFINITY PREDICTED BY RF-SCORE:    0.00 PKD
ROOT
HETATM    1 CL   UNL     1      -9.987  19.741  69.605  1.00  0.00    -0.201 Cl 
HETATM    2  C   UNL     1     -10.204  18.926  68.088  1.00  0.00    -0.391 A  
HETATM    3  C   UNL     1     -10.402  19.737  66.974  1.00  0.00    -0.593 A  
HETATM    4  C   UNL     1     -10.598  19.154  65.730  1.00  0.00    -0.417 A  
HETATM    5  C   UNL     1     -10.640  17.764  65.615  1.00  0.00    -0.123 A  
HETATM    6  C   UNL     1     -10.460  16.895  66.715  1.00  0.00    -0.260 A  
HETATM    7  C   UNL     1     -10.195  17.519  67.968  1.00  0.00    -0.354 A  
HETATM    8 CL   UNL     1      -9.730  16.591  69.372  1.00  0.00    -0.185 Cl 
ENDROOT
BRANCH   6   9
HETATM    9  N   UNL     1     -10.609  15.529  66.504  1.00  0.00    -0.304 NA 
HETATM   10  C   UNL     1     -11.460  14.690  67.369  1.00  0.00    -0.369 C  
HETATM   11  C   UNL     1     -12.287  13.683  66.539  1.00  0.00    -0.361 C  
HETATM   12  N   UNL     1     -11.501  12.863  65.589  1.00  0.00    -0.318 NA 
HETATM   13  C   UNL     1      -9.849  14.803  65.465  1.00  0.00    -0.301 C  
HETATM   14  C   UNL     1     -10.765  13.807  64.712  1.00  0.00    -0.416 C  
BRANCH  12  15
HETATM   15  C   UNL     1     -10.578  11.944  66.275  1.00  0.00    -0.253 C  
BRANCH  15  16
HETATM   16  C   UNL     1     -11.281  10.966  67.237  1.00  0.00    -0.307 C  
BRANCH  16  17
HETATM   17  C   UNL     1     -10.896  11.137  68.710  1.00  0.00    -0.256 C  
BRANCH  17  18
HETATM   18  C   UNL     1     -12.135  11.331  69.570  1.00  0.00    -0.317 C  
BRANCH  18  19
HETATM   19  O   UNL     1     -11.844  11.072  70.942  1.00  0.00    -0.306 OA 
BRANCH  19  20
HETATM   20  C   UNL     1     -11.911   9.741  71.278  1.00  0.00    -0.399 A  
HETATM   21  C   UNL     1     -10.685   9.141  71.581  1.00  0.00    -0.441 A  
HETATM   22  C   UNL     1     -10.649   7.789  71.928  1.00  0.00    -0.223 A  
HETATM   23  C   UNL     1     -11.826   7.031  71.980  1.00  0.00    -0.336 A  
HETATM   24  C   UNL     1     -13.046   7.646  71.710  1.00  0.00    -0.359 A  
HETATM   25  C   UNL     1     -11.775   5.606  72.448  1.00  0.00    -0.240 C  
HETATM   26  C   UNL     1     -13.088   8.992  71.368  1.00  0.00    -0.337 A  
HETATM   27  C   UNL     1     -10.429   4.966  72.163  1.00  0.00    -0.257 C  
HETATM   28  C   UNL     1      -9.271   5.865  72.531  1.00  0.00    -0.138 C  
HETATM   29  O   UNL     1      -8.199   5.423  72.932  1.00  0.00    -0.108 OA 
HETATM   30  N   UNL     1      -9.432   7.200  72.275  1.00  0.00    -0.139 N  
HETATM   31  H   UNL     1      -8.611   7.801  72.342  1.00  0.00     0.000 HD 
ENDBRANCH  19  20
ENDBRANCH  18  19
ENDBRANCH  17  18
ENDBRANCH  16  17
ENDBRANCH  15  16
ENDBRANCH  12  15
ENDBRANCH   6   9
TORSDOF 7
ENDMDL
MODEL       62
REMARK 921   NORMALIZED FREE ENERGY PREDICTED BY IDOCK:   -5.69 KCAL/MOL
REMARK 922        TOTAL FREE ENERGY PREDICTED BY IDOCK:   -9.62 KCAL/MOL
REMARK 923 INTER-LIGAND FREE ENERGY PREDICTED BY IDOCK:   -8.32 KCAL/MOL
REMARK 924 INTRA-LIGAND FREE ENERGY PREDICTED BY IDOCK:   -1.31 KCAL/MOL
REMARK 927      BINDING AFFINITY PREDICTED BY RF-SCORE:    0.00 PKD
ROOT
HETATM    1 CL   UNL     1      -9.920   8.121  71.689  1.00  0.00    -0.233 Cl 
HETATM    2  C   UNL     1     -10.861   9.476  71.146  1.00  0.00    -0.355 A  
HETATM    3  C   UNL     1     -12.095   9.658  71.767  1.00  0.00    -0.446 A  
HETATM    4  C   UNL     1     -12.907  10.712  71.374  1.00  0.00    -0.556 A  
HETATM    5  C   UNL     1     -12.503  11.548  70.333  1.00  0.00    -0.324 A  
HETATM    6  C   UNL     1     -11.270  11.398  69.659  1.00  0.00    -0.230 A  
HETATM    7  C   UNL     1     -10.425  10.350  70.126  1.00  0.00    -0.128 A  
HETATM    8 CL   UNL     1      -8.785  10.172  69.556  1.00  0.00    -0.194 Cl 
ENDROOT
BRANCH   6   9
HETATM    9  N   UNL     1     -11.006  12.231  68.578  1.00  0.00    -0.227 NA 
HETATM   10  C   UNL     1     -11.938  12.363  67.443  1.00  0.00    -0.175 C  
HETATM   11  C   UNL     1     -12.077  13.835  66.995  1.00  0.00    -0.397 C  
HETATM   12  N   UNL     1     -10.797  14.530  66.731  1.00  0.00    -0.299 NA 
HETATM   13  C   UNL     1      -9.731  12.965  68.440  1.00  0.00    -0.186 C  
HETATM   14  C   UNL     1      -9.982  14.417  67.966  1.00  0.00    -0.225 C  
BRANCH  12  15
HETATM   15  C   UNL     1     -10.085  13.968  65.571  1.00  0.00    -0.320 C  
BRANCH  15  16
HETATM   16  C   UNL     1     -11.022  13.462  64.456  1.00  0.00    -0.404 C  
BRANCH  16  17
HETATM   17  C   UNL     1     -10.442  12.327  63.606  1.00  0.00    -0.483 C  
BRANCH  17  18
HETATM   18  C   UNL     1     -10.529  11.001  64.347  1.00  0.00    -0.354 C  
BRANCH  18  19
HETATM   19  O   UNL     1      -9.294  10.699  64.992  1.00  0.00    -0.189 OA 
BRANCH  19  20
HETATM   20  C   UNL     1      -9.203   9.398  65.427  1.00  0.00    -0.244 A  
HETATM   21  C   UNL     1      -9.995   9.084  66.535  1.00  0.00    -0.355 A  
HETATM   22  C   UNL     1      -9.968   7.789  67.054  1.00  0.00    -0.244 A  
HETATM   23  C   UNL     1      -9.159   6.802  66.476  1.00  0.00    -0.171 A  
HETATM   24  C   UNL     1      -8.399   7.115  65.352  1.00  0.00    -0.122 A  
HETATM   25  C   UNL     1      -9.217   5.393  66.991  1.00  0.00    -0.113 C  
HETATM   26  C   UNL     1      -8.426   8.403  64.828  1.00  0.00    -0.120 A  
HETATM   27  C   UNL     1      -9.605   5.344  68.456  1.00  0.00    -0.169 C  
HETATM   28  C   UNL     1     -10.768   6.255  68.778  1.00  0.00    -0.297 C  
HETATM   29  O   UNL     1     -11.588   5.988  69.651  1.00  0.00    -0.321 OA 
HETATM   30  N   UNL     1     -10.793   7.461  68.132  1.00  0.00    -0.435 N  
HETATM   31  H   UNL     1     -11.456   8.164  68.458  1.00  0.00     0.000 HD 
ENDBRANCH  19  20
ENDBRANCH  18  19
ENDBRANCH  17  18
ENDBRANCH  16  17
ENDBRANCH  15  16
ENDBRANCH  12  15
ENDBRANCH   6   9
TORSDOF 7
ENDMDL
MODEL       63
REMARK 921   NORMALIZED FREE ENERGY PREDICTED BY IDOCK:   -5.69 KCAL/MOL
REMARK 922        TOTAL FREE ENERGY PREDICTED BY IDOCK:   -9.62 KCAL/MOL
REMARK 923 INTER-LIGAND FREE ENERGY PREDICTED BY IDOCK:   -8.49 KCAL/MOL
REMARK 924 INTRA-LIGAND FREE ENERGY PREDICTED BY IDOCK:   -1.13 KCAL/MOL
REMARK 927      BINDING AFFINITY PREDICTED BY RF-SCORE:    0.00 PKD
ROOT
HETATM    1 CL   UNL     1     -11.831  15.365  68.961  1.00  0.00    -0.366 Cl 
HETATM    2  C   UNL     1     -12.416  14.219  70.125  1.00  0.00    -0.335 A  
HETATM    3  C   UNL     1     -13.118  14.743  71.209  1.00  0.00    -0.433 A  
HETATM    4  C   UNL     1     -13.603  13.887  72.187  1.00  0.00    -0.599 A  
HETATM    5  C   UNL     1     -13.344  12.519  72.101  1.00  0.00    -0.540 A  
HETATM    6  C   UNL     1     -12.625  11.937  71.034  1.00  0.00    -0.283 A  
HETATM    7  C   UNL     1     -12.196  12.829  70.008  1.00  0.00    -0.209 A  
HETATM    8 CL   UNL     1     -11.496  12.245  68.520  1.00  0.00    -0.320 Cl 
ENDROOT
BRANCH   6   9
HETATM    9  N   UNL     1     -12.348  10.576  71.092  1.00  0.00    -0.374 NA 
HETATM   10  C   UNL     1     -11.005  10.036  70.812  1.00  0.00    -0.305 C  
HETATM   11  C   UNL     1     -10.622   8.927  71.818  1.00  0.00    -0.362 C  
HETATM   12  N   UNL     1     -11.624   7.846  71.966  1.00  0.00    -0.289 NA 
HETATM   13  C   UNL     1     -13.400   9.566  71.338  1.00  0.00    -0.361 C  
HETATM   14  C   UNL     1     -12.905   8.493  72.339  1.00  0.00    -0.321 C  
BRANCH  12  15
HETATM   15  C   UNL     1     -11.769   7.048  70.736  1.00  0.00    -0.349 C  
BRANCH  15  16
HETATM   16  C   UNL     1     -10.903   5.773  70.720  1.00  0.00    -0.330 C  
BRANCH  16  17
HETATM   17  C   UNL     1      -9.637   5.876  69.865  1.00  0.00    -0.194 C  
BRANCH  17  18
HETATM   18  C   UNL     1      -9.712   4.930  68.676  1.00  0.00    -0.160 C  
BRANCH  18  19
HETATM   19  O   UNL     1     -10.485   5.500  67.622  1.00  0.00    -0.210 OA 
BRANCH  19  20
HETATM   20  C   UNL     1      -9.800   6.431  66.879  1.00  0.00    -0.158 A  
HETATM   21  C   UNL     1     -10.395   7.693  66.807  1.00  0.00    -0.343 A  
HETATM   22  C   UNL     1      -9.778   8.705  66.070  1.00  0.00    -0.168 A  
HETATM   23  C   UNL     1      -8.567   8.470  65.406  1.00  0.00    -0.202 A  
HETATM   24  C   UNL     1      -7.963   7.219  65.510  1.00  0.00    -0.122 A  
HETATM   25  C   UNL     1      -7.873   9.597  64.699  1.00  0.00    -0.133 C  
HETATM   26  C   UNL     1      -8.572   6.210  66.247  1.00  0.00    -0.136 A  
HETATM   27  C   UNL     1      -8.854  10.649  64.215  1.00  0.00    -0.175 C  
HETATM   28  C   UNL     1      -9.881  11.008  65.265  1.00  0.00    -0.259 C  
HETATM   29  O   UNL     1     -10.361  12.133  65.354  1.00  0.00    -0.253 OA 
HETATM   30  N   UNL     1     -10.348   9.979  66.036  1.00  0.00    -0.199 N  
HETATM   31  H   UNL     1     -11.165  10.153  66.622  1.00  0.00     0.000 HD 
ENDBRANCH  19  20
ENDBRANCH  18  19
ENDBRANCH  17  18
ENDBRANCH  16  17
ENDBRANCH  15  16
ENDBRANCH  12  15
ENDBRANCH   6   9
TORSDOF 7
ENDMDL
MODEL       64
REMARK 921   NORMALIZED FREE ENERGY PREDICTED BY IDOCK:   -5.68 KCAL/MOL
REMARK 922        TOTAL FREE ENERGY PREDICTED BY IDOCK:   -9.61 KCAL/MOL
REMARK 923 INTER-LIGAND FREE ENERGY PREDICTED BY IDOCK:   -8.46 KCAL/MOL
REMARK 924 INTRA-LIGAND FREE ENERGY PREDICTED BY IDOCK:   -1.15 KCAL/MOL
REMARK 927      BINDING AFFINITY PREDICTED BY RF-SCORE:    0.00 PKD
ROOT
HETATM    1 CL   UNL     1     -11.599   4.807  73.193  1.00  0.00    -0.361 Cl 
HETATM    2  C   UNL     1     -10.630   6.182  72.765  1.00  0.00    -0.228 A  
HETATM    3  C   UNL     1      -9.381   6.270  73.376  1.00  0.00    -0.137 A  
HETATM    4  C   UNL     1      -8.557   7.350  73.093  1.00  0.00    -0.178 A  
HETATM    5  C   UNL     1      -9.005   8.357  72.237  1.00  0.00    -0.303 A  
HETATM    6  C   UNL     1     -10.267   8.325  71.604  1.00  0.00    -0.221 A  
HETATM    7  C   UNL     1     -11.066   7.173  71.859  1.00  0.00    -0.236 A  
HETATM    8 CL   UNL     1     -12.547   6.873  70.985  1.00  0.00    -0.385 Cl 
ENDROOT
BRANCH   6   9
HETATM    9  N   UNL     1     -10.648   9.423  70.841  1.00  0.00    -0.295 NA 
HETATM   10  C   UNL     1      -9.936   9.807  69.608  1.00  0.00    -0.223 C  
HETATM   11  C   UNL     1     -10.923  10.212  68.490  1.00  0.00    -0.232 C  
HETATM   12  N   UNL     1     -11.923  11.231  68.880  1.00  0.00    -0.462 NA 
HETATM   13  C   UNL     1     -11.727  10.341  71.262  1.00  0.00    -0.291 C  
HETATM   14  C   UNL     1     -12.641  10.700  70.065  1.00  0.00    -0.165 C  
BRANCH  12  15
HETATM   15  C   UNL     1     -11.306  12.536  69.172  1.00  0.00    -0.274 C  
BRANCH  15  16
HETATM   16  C   UNL     1     -12.325  13.644  69.500  1.00  0.00    -0.232 C  
BRANCH  16  17
HETATM   17  C   UNL     1     -11.776  15.069  69.377  1.00  0.00    -0.351 C  
BRANCH  17  18
HETATM   18  C   UNL     1     -10.507  15.085  68.538  1.00  0.00    -0.232 C  
BRANCH  18  19
HETATM   19  O   UNL     1     -10.772  15.589  67.230  1.00  0.00    -0.298 OA 
BRANCH  19  20
HETATM   20  C   UNL     1     -10.892  14.607  66.276  1.00  0.00    -0.321 A  
HETATM   21  C   UNL     1      -9.853  13.672  66.247  1.00  0.00    -0.310 A  
HETATM   22  C   UNL     1      -9.883  12.639  65.310  1.00  0.00    -0.119 A  
HETATM   23  C   UNL     1     -10.943  12.527  64.401  1.00  0.00    -0.378 A  
HETATM   24  C   UNL     1     -11.991  13.443  64.458  1.00  0.00    -0.452 A  
HETATM   25  C   UNL     1     -11.003  11.356  63.464  1.00  0.00    -0.406 C  
HETATM   26  C   UNL     1     -11.969  14.471  65.394  1.00  0.00    -0.332 A  
HETATM   27  C   UNL     1      -9.621  10.819  63.143  1.00  0.00    -0.385 C  
HETATM   28  C   UNL     1      -8.750  10.689  64.373  1.00  0.00    -0.137 C  
HETATM   29  O   UNL     1      -7.899   9.813  64.483  1.00  0.00    -0.124 OA 
HETATM   30  N   UNL     1      -8.869  11.679  65.310  1.00  0.00    -0.390 N  
HETATM   31  H   UNL     1      -8.175  11.717  66.055  1.00  0.00     0.000 HD 
ENDBRANCH  19  20
ENDBRANCH  18  19
ENDBRANCH  17  18
ENDBRANCH  16  17
ENDBRANCH  15  16
ENDBRANCH  12  15
ENDBRANCH   6   9
TORSDOF 7
ENDMDL
MODEL       65
REMARK 921   NORMALIZED FREE ENERGY PREDICTED BY IDOCK:   -5.66 KCAL/MOL
REMARK 922        TOTAL FREE ENERGY PREDICTED BY IDOCK:   -9.58 KCAL/MOL
REMARK 923 INTER-LIGAND FREE ENERGY PREDICTED BY IDOCK:   -8.43 KCAL/MOL
REMARK 924 INTRA-LIGAND FREE ENERGY PREDICTED BY IDOCK:   -1.15 KCAL/MOL
REMARK 927      BINDING AFFINITY PREDICTED BY RF-SCORE:    0.00 PKD
ROOT
HETATM    1 CL   UNL     1     -11.741  15.037  69.052  1.00  0.00    -0.338 Cl 
HETATM    2  C   UNL     1     -12.439  14.007  70.262  1.00  0.00    -0.338 A  
HETATM    3  C   UNL     1     -13.230  14.632  71.224  1.00  0.00    -0.432 A  
HETATM    4  C   UNL     1     -13.808  13.873  72.231  1.00  0.00    -0.669 A  
HETATM    5  C   UNL     1     -13.556  12.503  72.297  1.00  0.00    -0.443 A  
HETATM    6  C   UNL     1     -12.750  11.821  71.358  1.00  0.00    -0.308 A  
HETATM    7  C   UNL     1     -12.223  12.612  70.296  1.00  0.00    -0.271 A  
HETATM    8 CL   UNL     1     -11.399  11.889  68.938  1.00  0.00    -0.304 Cl 
ENDROOT
BRANCH   6   9
HETATM    9  N   UNL     1     -12.493  10.471  71.568  1.00  0.00    -0.391 NA 
HETATM   10  C   UNL     1     -13.462   9.584  72.239  1.00  0.00    -0.440 C  
HETATM   11  C   UNL     1     -13.557   8.215  71.528  1.00  0.00    -0.297 C  
HETATM   12  N   UNL     1     -12.260   7.536  71.305  1.00  0.00    -0.323 NA 
HETATM   13  C   UNL     1     -11.195   9.853  71.228  1.00  0.00    -0.286 C  
HETATM   14  C   UNL     1     -11.405   8.479  70.544  1.00  0.00    -0.217 C  
BRANCH  12  15
HETATM   15  C   UNL     1     -11.616   7.134  72.567  1.00  0.00    -0.226 C  
BRANCH  15  16
HETATM   16  C   UNL     1     -11.123   5.674  72.573  1.00  0.00    -0.327 C  
BRANCH  16  17
HETATM   17  C   UNL     1      -9.782   5.455  71.864  1.00  0.00    -0.204 C  
BRANCH  17  18
HETATM   18  C   UNL     1      -9.999   4.942  70.449  1.00  0.00    -0.246 C  
BRANCH  18  19
HETATM   19  O   UNL     1      -8.924   5.333  69.598  1.00  0.00    -0.105 OA 
BRANCH  19  20
HETATM   20  C   UNL     1      -9.270   6.297  68.681  1.00  0.00    -0.124 A  
HETATM   21  C   UNL     1      -8.346   7.334  68.529  1.00  0.00    -0.125 A  
HETATM   22  C   UNL     1      -8.611   8.364  67.624  1.00  0.00    -0.130 A  
HETATM   23  C   UNL     1      -9.789   8.366  66.866  1.00  0.00    -0.313 A  
HETATM   24  C   UNL     1     -10.688   7.310  66.999  1.00  0.00    -0.406 A  
HETATM   25  C   UNL     1     -10.009   9.431  65.831  1.00  0.00    -0.327 C  
HETATM   26  C   UNL     1     -10.426   6.280  67.895  1.00  0.00    -0.285 A  
HETATM   27  C   UNL     1      -9.290  10.719  66.186  1.00  0.00    -0.209 C  
HETATM   28  C   UNL     1      -7.873  10.481  66.655  1.00  0.00    -0.125 C  
HETATM   29  O   UNL     1      -6.970  11.285  66.448  1.00  0.00    -0.124 OA 
HETATM   30  N   UNL     1      -7.668   9.377  67.438  1.00  0.00    -0.095 N  
HETATM   31  H   UNL     1      -6.771   9.289  67.915  1.00  0.00     0.000 HD 
ENDBRANCH  19  20
ENDBRANCH  18  19
ENDBRANCH  17  18
ENDBRANCH  16  17
ENDBRANCH  15  16
ENDBRANCH  12  15
ENDBRANCH   6   9
TORSDOF 7
ENDMDL
MODEL       66
REMARK 921   NORMALIZED FREE ENERGY PREDICTED BY IDOCK:   -5.65 KCAL/MOL
REMARK 922        TOTAL FREE ENERGY PREDICTED BY IDOCK:   -9.56 KCAL/MOL
REMARK 923 INTER-LIGAND FREE ENERGY PREDICTED BY IDOCK:   -8.39 KCAL/MOL
REMARK 924 INTRA-LIGAND FREE ENERGY PREDICTED BY IDOCK:   -1.17 KCAL/MOL
REMARK 927      BINDING AFFINITY PREDICTED BY RF-SCORE:    0.00 PKD
ROOT
HETATM    1 CL   UNL     1     -11.936  12.677  62.875  1.00  0.00    -0.075 Cl 
HETATM    2  C   UNL     1     -11.756  12.834  64.594  1.00  0.00    -0.355 A  
HETATM    3  C   UNL     1     -12.415  13.908  65.188  1.00  0.00    -0.479 A  
HETATM    4  C   UNL     1     -12.305  14.105  66.556  1.00  0.00    -0.405 A  
HETATM    5  C   UNL     1     -11.500  13.255  67.316  1.00  0.00    -0.378 A  
HETATM    6  C   UNL     1     -10.798  12.161  66.763  1.00  0.00    -0.248 A  
HETATM    7  C   UNL     1     -10.981  11.941  65.367  1.00  0.00    -0.301 A  
HETATM    8 CL   UNL     1     -10.368  10.511  64.576  1.00  0.00    -0.371 Cl 
ENDROOT
BRANCH   6   9
HETATM    9  N   UNL     1      -9.955  11.432  67.594  1.00  0.00    -0.178 NA 
HETATM   10  C   UNL     1     -10.082   9.972  67.754  1.00  0.00    -0.183 C  
HETATM   11  C   UNL     1      -8.699   9.283  67.761  1.00  0.00    -0.120 C  
HETATM   12  N   UNL     1      -7.723   9.853  68.718  1.00  0.00    -0.083 NA 
HETATM   13  C   UNL     1      -8.940  12.079  68.451  1.00  0.00    -0.153 C  
HETATM   14  C   UNL     1      -7.604  11.298  68.404  1.00  0.00    -0.120 C  
BRANCH  12  15
HETATM   15  C   UNL     1      -8.129   9.645  70.119  1.00  0.00    -0.189 C  
BRANCH  15  16
HETATM   16  C   UNL     1      -8.449   8.176  70.459  1.00  0.00    -0.125 C  
BRANCH  16  17
HETATM   17  C   UNL     1      -9.208   7.980  71.775  1.00  0.00    -0.212 C  
BRANCH  17  18
HETATM   18  C   UNL     1     -10.607   7.443  71.514  1.00  0.00    -0.206 C  
BRANCH  18  19
HETATM   19  O   UNL     1     -11.263   8.208  70.505  1.00  0.00    -0.264 OA 
BRANCH  19  20
HETATM   20  C   UNL     1     -11.973   9.276  70.999  1.00  0.00    -0.300 A  
HETATM   21  C   UNL     1     -11.549  10.531  70.552  1.00  0.00    -0.441 A  
HETATM   22  C   UNL     1     -12.204  11.678  71.002  1.00  0.00    -0.231 A  
HETATM   23  C   UNL     1     -13.282  11.586  71.892  1.00  0.00    -0.479 A  
HETATM   24  C   UNL     1     -13.719  10.329  72.306  1.00  0.00    -0.067 A  
HETATM   25  C   UNL     1     -14.032  12.824  72.288  1.00  0.00    -0.260 C  
HETATM   26  C   UNL     1     -13.073   9.183  71.856  1.00  0.00    -0.478 A  
HETATM   27  C   UNL     1     -13.151  14.058  72.232  1.00  0.00    -0.516 C  
HETATM   28  C   UNL     1     -12.317  14.118  70.973  1.00  0.00    -0.366 C  
HETATM   29  O   UNL     1     -12.009  15.179  70.441  1.00  0.00    -0.274 OA 
HETATM   30  N   UNL     1     -11.812  12.929  70.521  1.00  0.00    -0.535 N  
HETATM   31  H   UNL     1     -11.104  12.959  69.787  1.00  0.00     0.000 HD 
ENDBRANCH  19  20
ENDBRANCH  18  19
ENDBRANCH  17  18
ENDBRANCH  16  17
ENDBRANCH  15  16
ENDBRANCH  12  15
ENDBRANCH   6   9
TORSDOF 7
ENDMDL
MODEL       67
REMARK 921   NORMALIZED FREE ENERGY PREDICTED BY IDOCK:   -5.65 KCAL/MOL
REMARK 922        TOTAL FREE ENERGY PREDICTED BY IDOCK:   -9.56 KCAL/MOL
REMARK 923 INTER-LIGAND FREE ENERGY PREDICTED BY IDOCK:   -8.56 KCAL/MOL
REMARK 924 INTRA-LIGAND FREE ENERGY PREDICTED BY IDOCK:   -1.00 KCAL/MOL
REMARK 927      BINDING AFFINITY PREDICTED BY RF-SCORE:    0.00 PKD
ROOT
HETATM    1 CL   UNL     1     -10.403   5.175  70.033  1.00  0.00    -0.359 Cl 
HETATM    2  C   UNL     1      -9.235   6.179  69.234  1.00  0.00    -0.132 A  
HETATM    3  C   UNL     1      -7.968   6.232  69.813  1.00  0.00    -0.118 A  
HETATM    4  C   UNL     1      -6.988   7.026  69.237  1.00  0.00    -0.074 A  
HETATM    5  C   UNL     1      -7.291   7.798  68.114  1.00  0.00    -0.106 A  
HETATM    6  C   UNL     1      -8.562   7.794  67.498  1.00  0.00    -0.122 A  
HETATM    7  C   UNL     1      -9.531   6.919  68.069  1.00  0.00    -0.124 A  
HETATM    8 CL   UNL     1     -11.070   6.629  67.297  1.00  0.00    -0.450 Cl 
ENDROOT
BRANCH   6   9
HETATM    9  N   UNL     1      -8.781   8.667  66.438  1.00  0.00    -0.124 NA 
HETATM   10  C   UNL     1      -9.540   9.921  66.600  1.00  0.00    -0.184 C  
HETATM   11  C   UNL     1      -8.867  11.087  65.842  1.00  0.00    -0.195 C  
HETATM   12  N   UNL     1      -8.564  10.814  64.418  1.00  0.00    -0.100 NA 
HETATM   13  C   UNL     1      -8.360   8.353  65.057  1.00  0.00    -0.158 C  
HETATM   14  C   UNL     1      -7.722   9.593  64.383  1.00  0.00    -0.128 C  
BRANCH  12  15
HETATM   15  C   UNL     1      -9.784  10.643  63.611  1.00  0.00    -0.330 C  
BRANCH  15  16
HETATM   16  C   UNL     1     -10.533  11.961  63.334  1.00  0.00    -0.487 C  
BRANCH  16  17
HETATM   17  C   UNL     1     -12.060  11.847  63.387  1.00  0.00    -0.539 C  
BRANCH  17  18
HETATM   18  C   UNL     1     -12.636  12.807  64.417  1.00  0.00    -0.352 C  
BRANCH  18  19
HETATM   19  O   UNL     1     -12.105  14.119  64.238  1.00  0.00    -0.454 OA 
BRANCH  19  20
HETATM   20  C   UNL     1     -11.587  14.665  65.389  1.00  0.00    -0.345 A  
HETATM   21  C   UNL     1     -12.149  14.192  66.578  1.00  0.00    -0.481 A  
HETATM   22  C   UNL     1     -11.694  14.691  67.799  1.00  0.00    -0.359 A  
HETATM   23  C   UNL     1     -10.678  15.655  67.846  1.00  0.00    -0.294 A  
HETATM   24  C   UNL     1     -10.101  16.096  66.657  1.00  0.00    -0.283 A  
HETATM   25  C   UNL     1     -10.138  16.107  69.171  1.00  0.00    -0.252 C  
HETATM   26  C   UNL     1     -10.548  15.599  65.438  1.00  0.00    -0.436 A  
HETATM   27  C   UNL     1     -11.176  15.992  70.272  1.00  0.00    -0.397 C  
HETATM   28  C   UNL     1     -11.919  14.676  70.231  1.00  0.00    -0.308 C  
HETATM   29  O   UNL     1     -12.334  14.126  71.246  1.00  0.00    -0.344 OA 
HETATM   30  N   UNL     1     -12.221  14.186  68.990  1.00  0.00    -0.521 N  
HETATM   31  H   UNL     1     -12.873  13.404  68.930  1.00  0.00     0.000 HD 
ENDBRANCH  19  20
ENDBRANCH  18  19
ENDBRANCH  17  18
ENDBRANCH  16  17
ENDBRANCH  15  16
ENDBRANCH  12  15
ENDBRANCH   6   9
TORSDOF 7
ENDMDL
MODEL       68
REMARK 921   NORMALIZED FREE ENERGY PREDICTED BY IDOCK:   -5.63 KCAL/MOL
REMARK 922        TOTAL FREE ENERGY PREDICTED BY IDOCK:   -9.54 KCAL/MOL
REMARK 923 INTER-LIGAND FREE ENERGY PREDICTED BY IDOCK:   -8.27 KCAL/MOL
REMARK 924 INTRA-LIGAND FREE ENERGY PREDICTED BY IDOCK:   -1.27 KCAL/MOL
REMARK 927      BINDING AFFINITY PREDICTED BY RF-SCORE:    0.00 PKD
ROOT
HETATM    1 CL   UNL     1     -11.133   4.876  73.930  1.00  0.00    -0.307 Cl 
HETATM    2  C   UNL     1     -10.533   4.546  72.335  1.00  0.00    -0.168 A  
HETATM    3  C   UNL     1      -9.976   3.285  72.133  1.00  0.00    -0.231 A  
HETATM    4  C   UNL     1      -9.462   2.958  70.886  1.00  0.00    -0.227 A  
HETATM    5  C   UNL     1      -9.467   3.906  69.863  1.00  0.00    -0.267 A  
HETATM    6  C   UNL     1     -10.004   5.204  70.019  1.00  0.00    -0.256 A  
HETATM    7  C   UNL     1     -10.585   5.492  71.287  1.00  0.00    -0.236 A  
HETATM    8 CL   UNL     1     -11.486   6.961  71.570  1.00  0.00    -0.298 Cl 
ENDROOT
BRANCH   6   9
HETATM    9  N   UNL     1      -9.877   6.099  68.962  1.00  0.00    -0.137 NA 
HETATM   10  C   UNL     1      -8.897   7.201  68.982  1.00  0.00    -0.131 C  
HETATM   11  C   UNL     1      -8.197   7.356  67.613  1.00  0.00    -0.118 C  
HETATM   12  N   UNL     1      -9.111   7.461  66.453  1.00  0.00    -0.158 NA 
HETATM   13  C   UNL     1     -10.780   6.073  67.793  1.00  0.00    -0.289 C  
HETATM   14  C   UNL     1      -9.981   6.260  66.479  1.00  0.00    -0.115 C  
BRANCH  12  15
HETATM   15  C   UNL     1      -9.910   8.698  66.483  1.00  0.00    -0.278 C  
BRANCH  15  16
HETATM   16  C   UNL     1      -9.508   9.722  65.404  1.00  0.00    -0.333 C  
BRANCH  16  17
HETATM   17  C   UNL     1      -8.860  10.998  65.950  1.00  0.00    -0.204 C  
BRANCH  17  18
HETATM   18  C   UNL     1      -9.720  12.213  65.638  1.00  0.00    -0.207 C  
BRANCH  18  19
HETATM   19  O   UNL     1     -11.085  11.967  65.970  1.00  0.00    -0.303 OA 
BRANCH  19  20
HETATM   20  C   UNL     1     -11.421  12.360  67.243  1.00  0.00    -0.354 A  
HETATM   21  C   UNL     1     -11.761  11.324  68.118  1.00  0.00    -0.323 A  
HETATM   22  C   UNL     1     -12.124  11.624  69.431  1.00  0.00    -0.263 A  
HETATM   23  C   UNL     1     -12.146  12.950  69.884  1.00  0.00    -0.335 A  
HETATM   24  C   UNL     1     -11.772  13.974  69.015  1.00  0.00    -0.368 A  
HETATM   25  C   UNL     1     -12.446  13.243  71.325  1.00  0.00    -0.351 C  
HETATM   26  C   UNL     1     -11.406  13.679  67.707  1.00  0.00    -0.336 A  
HETATM   27  C   UNL     1     -13.330  12.177  71.944  1.00  0.00    -0.421 C  
HETATM   28  C   UNL     1     -12.882  10.776  71.593  1.00  0.00    -0.457 C  
HETATM   29  O   UNL     1     -13.026   9.830  72.360  1.00  0.00    -0.363 OA 
HETATM   30  N   UNL     1     -12.420  10.588  70.319  1.00  0.00    -0.440 N  
HETATM   31  H   UNL     1     -12.282   9.629  69.997  1.00  0.00     0.000 HD 
ENDBRANCH  19  20
ENDBRANCH  18  19
ENDBRANCH  17  18
ENDBRANCH  16  17
ENDBRANCH  15  16
ENDBRANCH  12  15
ENDBRANCH   6   9
TORSDOF 7
ENDMDL
MODEL       69
REMARK 921   NORMALIZED FREE ENERGY PREDICTED BY IDOCK:   -5.63 KCAL/MOL
REMARK 922        TOTAL FREE ENERGY PREDICTED BY IDOCK:   -9.54 KCAL/MOL
REMARK 923 INTER-LIGAND FREE ENERGY PREDICTED BY IDOCK:   -8.72 KCAL/MOL
REMARK 924 INTRA-LIGAND FREE ENERGY PREDICTED BY IDOCK:   -0.82 KCAL/MOL
REMARK 927      BINDING AFFINITY PREDICTED BY RF-SCORE:    0.00 PKD
ROOT
HETATM    1 CL   UNL     1     -10.072  19.545  68.930  1.00  0.00    -0.518 Cl 
HETATM    2  C   UNL     1      -9.707  18.117  68.014  1.00  0.00    -0.311 A  
HETATM    3  C   UNL     1      -8.914  18.295  66.883  1.00  0.00    -0.281 A  
HETATM    4  C   UNL     1      -8.594  17.199  66.095  1.00  0.00    -0.222 A  
HETATM    5  C   UNL     1      -9.106  15.941  66.415  1.00  0.00    -0.355 A  
HETATM    6  C   UNL     1      -9.927  15.708  67.540  1.00  0.00    -0.231 A  
HETATM    7  C   UNL     1     -10.186  16.837  68.371  1.00  0.00    -0.296 A  
HETATM    8 CL   UNL     1     -10.991  16.676  69.911  1.00  0.00    -0.297 Cl 
ENDROOT
BRANCH   6   9
HETATM    9  N   UNL     1     -10.455  14.434  67.717  1.00  0.00    -0.244 NA 
HETATM   10  C   UNL     1     -11.806  14.073  67.248  1.00  0.00    -0.411 C  
HETATM   11  C   UNL     1     -11.819  12.674  66.592  1.00  0.00    -0.380 C  
HETATM   12  N   UNL     1     -11.221  11.595  67.411  1.00  0.00    -0.280 NA 
HETATM   13  C   UNL     1      -9.743  13.383  68.474  1.00  0.00    -0.156 C  
HETATM   14  C   UNL     1      -9.839  12.021  67.743  1.00  0.00    -0.190 C  
BRANCH  12  15
HETATM   15  C   UNL     1     -12.000  11.322  68.630  1.00  0.00    -0.243 C  
BRANCH  15  16
HETATM   16  C   UNL     1     -11.310  10.344  69.601  1.00  0.00    -0.333 C  
BRANCH  16  17
HETATM   17  C   UNL     1     -11.984  10.229  70.972  1.00  0.00    -0.483 C  
BRANCH  17  18
HETATM   18  C   UNL     1     -11.478   9.003  71.718  1.00  0.00    -0.372 C  
BRANCH  18  19
HETATM   19  O   UNL     1     -12.255   7.853  71.389  1.00  0.00    -0.303 OA 
BRANCH  19  20
HETATM   20  C   UNL     1     -11.499   6.743  71.096  1.00  0.00    -0.314 A  
HETATM   21  C   UNL     1     -11.189   6.572  69.744  1.00  0.00    -0.456 A  
HETATM   22  C   UNL     1     -10.430   5.471  69.347  1.00  0.00    -0.290 A  
HETATM   23  C   UNL     1      -9.972   4.539  70.287  1.00  0.00    -0.288 A  
HETATM   24  C   UNL     1     -10.257   4.736  71.637  1.00  0.00    -0.249 A  
HETATM   25  C   UNL     1      -9.078   3.415  69.851  1.00  0.00    -0.197 C  
HETATM   26  C   UNL     1     -11.009   5.834  72.038  1.00  0.00    -0.317 A  
HETATM   27  C   UNL     1      -9.322   3.030  68.404  1.00  0.00    -0.248 C  
HETATM   28  C   UNL     1      -9.429   4.233  67.494  1.00  0.00    -0.178 C  
HETATM   29  O   UNL     1      -9.058   4.205  66.326  1.00  0.00    -0.121 OA 
HETATM   30  N   UNL     1     -10.081   5.323  68.003  1.00  0.00    -0.162 N  
HETATM   31  H   UNL     1     -10.327   6.076  67.360  1.00  0.00     0.000 HD 
ENDBRANCH  19  20
ENDBRANCH  18  19
ENDBRANCH  17  18
ENDBRANCH  16  17
ENDBRANCH  15  16
ENDBRANCH  12  15
ENDBRANCH   6   9
TORSDOF 7
ENDMDL
MODEL       70
REMARK 921   NORMALIZED FREE ENERGY PREDICTED BY IDOCK:   -5.62 KCAL/MOL
REMARK 922        TOTAL FREE ENERGY PREDICTED BY IDOCK:   -9.53 KCAL/MOL
REMARK 923 INTER-LIGAND FREE ENERGY PREDICTED BY IDOCK:   -8.70 KCAL/MOL
REMARK 924 INTRA-LIGAND FREE ENERGY PREDICTED BY IDOCK:   -0.83 KCAL/MOL
REMARK 927      BINDING AFFINITY PREDICTED BY RF-SCORE:    0.00 PKD
ROOT
HETATM    1 CL   UNL     1     -13.344  15.692  72.292  1.00  0.00    -0.540 Cl 
HETATM    2  C   UNL     1     -13.001  14.128  71.621  1.00  0.00    -0.347 A  
HETATM    3  C   UNL     1     -13.432  13.030  72.363  1.00  0.00    -0.615 A  
HETATM    4  C   UNL     1     -13.179  11.749  71.896  1.00  0.00    -0.468 A  
HETATM    5  C   UNL     1     -12.459  11.571  70.715  1.00  0.00    -0.444 A  
HETATM    6  C   UNL     1     -11.986  12.648  69.932  1.00  0.00    -0.295 A  
HETATM    7  C   UNL     1     -12.316  13.953  70.399  1.00  0.00    -0.363 A  
HETATM    8 CL   UNL     1     -12.003  15.376  69.438  1.00  0.00    -0.359 Cl 
ENDROOT
BRANCH   6   9
HETATM    9  N   UNL     1     -11.202  12.359  68.820  1.00  0.00    -0.255 NA 
HETATM   10  C   UNL     1      -9.800  12.803  68.712  1.00  0.00     0.032 C  
HETATM   11  C   UNL     1      -8.900  11.689  68.130  1.00  0.00    -0.164 C  
HETATM   12  N   UNL     1      -9.383  11.096  66.862  1.00  0.00    -0.173 NA 
HETATM   13  C   UNL     1     -11.746  11.676  67.628  1.00  0.00    -0.228 C  
HETATM   14  C   UNL     1     -10.758  10.600  67.114  1.00  0.00    -0.272 C  
BRANCH  12  15
HETATM   15  C   UNL     1      -9.361  12.061  65.750  1.00  0.00    -0.125 C  
BRANCH  15  16
HETATM   16  C   UNL     1     -10.615  12.004  64.856  1.00  0.00    -0.334 C  
BRANCH  16  17
HETATM   17  C   UNL     1     -11.028  13.351  64.254  1.00  0.00    -0.391 C  
BRANCH  17  18
HETATM   18  C   UNL     1     -10.904  14.461  65.286  1.00  0.00    -0.361 C  
BRANCH  18  19
HETATM   19  O   UNL     1     -10.563  15.698  64.662  1.00  0.00    -0.425 OA 
BRANCH  19  20
HETATM   20  C   UNL     1     -10.091  16.646  65.538  1.00  0.00    -0.134 A  
HETATM   21  C   UNL     1      -8.804  16.413  66.030  1.00  0.00    -0.296 A  
HETATM   22  C   UNL     1      -8.239  17.317  66.931  1.00  0.00    -0.227 A  
HETATM   23  C   UNL     1      -8.945  18.455  67.342  1.00  0.00    -0.265 A  
HETATM   24  C   UNL     1     -10.214  18.697  66.820  1.00  0.00    -0.431 A  
HETATM   25  C   UNL     1      -8.283  19.463  68.236  1.00  0.00    -0.372 C  
HETATM   26  C   UNL     1     -10.779  17.801  65.919  1.00  0.00    -0.116 A  
HETATM   27  C   UNL     1      -7.221  18.826  69.113  1.00  0.00    -0.253 C  
HETATM   28  C   UNL     1      -6.328  17.877  68.346  1.00  0.00    -0.191 C  
HETATM   29  O   UNL     1      -5.147  17.712  68.633  1.00  0.00    -0.140 OA 
HETATM   30  N   UNL     1      -6.936  17.111  67.389  1.00  0.00    -0.149 N  
HETATM   31  H   UNL     1      -6.403  16.341  66.984  1.00  0.00     0.000 HD 
ENDBRANCH  19  20
ENDBRANCH  18  19
ENDBRANCH  17  18
ENDBRANCH  16  17
ENDBRANCH  15  16
ENDBRANCH  12  15
ENDBRANCH   6   9
TORSDOF 7
ENDMDL
MODEL       71
REMARK 921   NORMALIZED FREE ENERGY PREDICTED BY IDOCK:   -5.62 KCAL/MOL
REMARK 922        TOTAL FREE ENERGY PREDICTED BY IDOCK:   -9.52 KCAL/MOL
REMARK 923 INTER-LIGAND FREE ENERGY PREDICTED BY IDOCK:   -8.25 KCAL/MOL
REMARK 924 INTRA-LIGAND FREE ENERGY PREDICTED BY IDOCK:   -1.27 KCAL/MOL
REMARK 927      BINDING AFFINITY PREDICTED BY RF-SCORE:    0.00 PKD
ROOT
HETATM    1 CL   UNL     1     -11.722  16.067  64.322  1.00  0.00    -0.282 Cl 
HETATM    2  C   UNL     1     -10.657  15.253  65.425  1.00  0.00    -0.394 A  
HETATM    3  C   UNL     1      -9.688  16.041  66.042  1.00  0.00    -0.376 A  
HETATM    4  C   UNL     1      -8.793  15.454  66.925  1.00  0.00    -0.281 A  
HETATM    5  C   UNL     1      -8.842  14.078  67.151  1.00  0.00    -0.239 A  
HETATM    6  C   UNL     1      -9.793  13.232  66.539  1.00  0.00    -0.281 A  
HETATM    7  C   UNL     1     -10.743  13.868  65.689  1.00  0.00    -0.290 A  
HETATM    8 CL   UNL     1     -12.114  13.005  65.038  1.00  0.00    -0.438 Cl 
ENDROOT
BRANCH   6   9
HETATM    9  N   UNL     1      -9.697  11.863  66.766  1.00  0.00    -0.200 NA 
HETATM   10  C   UNL     1     -10.145  11.243  68.026  1.00  0.00    -0.177 C  
HETATM   11  C   UNL     1     -10.906   9.924  67.766  1.00  0.00    -0.264 C  
HETATM   12  N   UNL     1     -10.193   8.952  66.905  1.00  0.00    -0.266 NA 
HETATM   13  C   UNL     1      -9.049  10.948  65.803  1.00  0.00    -0.196 C  
HETATM   14  C   UNL     1      -9.878   9.651  65.635  1.00  0.00    -0.299 C  
BRANCH  12  15
HETATM   15  C   UNL     1      -8.972   8.432  67.543  1.00  0.00    -0.135 C  
BRANCH  15  16
HETATM   16  C   UNL     1      -8.137   7.518  66.626  1.00  0.00    -0.123 C  
BRANCH  16  17
HETATM   17  C   UNL     1      -8.792   6.171  66.305  1.00  0.00    -0.150 C  
BRANCH  17  18
HETATM   18  C   UNL     1      -8.399   5.122  67.334  1.00  0.00    -0.106 C  
BRANCH  18  19
HETATM   19  O   UNL     1      -9.539   4.681  68.069  1.00  0.00    -0.145 OA 
BRANCH  19  20
HETATM   20  C   UNL     1      -9.778   5.413  69.207  1.00  0.00    -0.164 A  
HETATM   21  C   UNL     1     -11.076   5.914  69.333  1.00  0.00    -0.369 A  
HETATM   22  C   UNL     1     -11.414   6.676  70.453  1.00  0.00    -0.386 A  
HETATM   23  C   UNL     1     -10.469   6.938  71.452  1.00  0.00    -0.230 A  
HETATM   24  C   UNL     1      -9.187   6.406  71.336  1.00  0.00    -0.150 A  
HETATM   25  C   UNL     1     -10.879   7.678  72.692  1.00  0.00    -0.395 C  
HETATM   26  C   UNL     1      -8.846   5.644  70.224  1.00  0.00    -0.146 A  
HETATM   27  C   UNL     1     -12.041   8.618  72.430  1.00  0.00    -0.415 C  
HETATM   28  C   UNL     1     -13.132   7.974  71.606  1.00  0.00    -0.329 C  
HETATM   29  O   UNL     1     -14.316   8.264  71.744  1.00  0.00    -0.431 OA 
HETATM   30  N   UNL     1     -12.723   7.138  70.602  1.00  0.00    -0.597 N  
HETATM   31  H   UNL     1     -13.418   6.835  69.920  1.00  0.00     0.000 HD 
ENDBRANCH  19  20
ENDBRANCH  18  19
ENDBRANCH  17  18
ENDBRANCH  16  17
ENDBRANCH  15  16
ENDBRANCH  12  15
ENDBRANCH   6   9
TORSDOF 7
ENDMDL
MODEL       72
REMARK 921   NORMALIZED FREE ENERGY PREDICTED BY IDOCK:   -5.59 KCAL/MOL
REMARK 922        TOTAL FREE ENERGY PREDICTED BY IDOCK:   -9.49 KCAL/MOL
REMARK 923 INTER-LIGAND FREE ENERGY PREDICTED BY IDOCK:   -8.71 KCAL/MOL
REMARK 924 INTRA-LIGAND FREE ENERGY PREDICTED BY IDOCK:   -0.78 KCAL/MOL
REMARK 927      BINDING AFFINITY PREDICTED BY RF-SCORE:    0.00 PKD
ROOT
HETATM    1 CL   UNL     1      -6.708   6.058  70.666  1.00  0.00    -0.051 Cl 
HETATM    2  C   UNL     1      -8.422   6.263  70.487  1.00  0.00    -0.138 A  
HETATM    3  C   UNL     1      -9.098   5.247  69.814  1.00  0.00    -0.150 A  
HETATM    4  C   UNL     1     -10.468   5.350  69.620  1.00  0.00    -0.361 A  
HETATM    5  C   UNL     1     -11.146   6.488  70.060  1.00  0.00    -0.422 A  
HETATM    6  C   UNL     1     -10.508   7.553  70.733  1.00  0.00    -0.213 A  
HETATM    7  C   UNL     1      -9.113   7.392  70.978  1.00  0.00    -0.152 A  
HETATM    8 CL   UNL     1      -8.226   8.505  71.988  1.00  0.00    -0.204 Cl 
ENDROOT
BRANCH   6   9
HETATM    9  N   UNL     1     -11.262   8.678  71.048  1.00  0.00    -0.261 NA 
HETATM   10  C   UNL     1     -11.138   9.941  70.298  1.00  0.00    -0.308 C  
HETATM   11  C   UNL     1     -12.521  10.576  70.032  1.00  0.00    -0.175 C  
HETATM   12  N   UNL     1     -13.374  10.737  71.231  1.00  0.00    -0.199 NA 
HETATM   13  C   UNL     1     -12.164   8.720  72.218  1.00  0.00    -0.358 C  
HETATM   14  C   UNL     1     -13.508   9.395  71.849  1.00  0.00    -0.426 C  
BRANCH  12  15
HETATM   15  C   UNL     1     -12.816  11.709  72.187  1.00  0.00     0.033 C  
BRANCH  15  16
HETATM   16  C   UNL     1     -13.636  13.010  72.297  1.00  0.00    -0.643 C  
BRANCH  16  17
HETATM   17  C   UNL     1     -12.793  14.281  72.438  1.00  0.00    -0.431 C  
BRANCH  17  18
HETATM   18  C   UNL     1     -12.701  15.017  71.110  1.00  0.00    -0.362 C  
BRANCH  18  19
HETATM   19  O   UNL     1     -12.118  14.184  70.109  1.00  0.00    -0.303 OA 
BRANCH  19  20
HETATM   20  C   UNL     1     -11.572  14.884  69.060  1.00  0.00    -0.305 A  
HETATM   21  C   UNL     1     -11.342  16.240  69.303  1.00  0.00    -0.288 A  
HETATM   22  C   UNL     1     -10.794  17.037  68.297  1.00  0.00    -0.341 A  
HETATM   23  C   UNL     1     -10.471  16.490  67.048  1.00  0.00    -0.289 A  
HETATM   24  C   UNL     1     -10.672  15.130  66.825  1.00  0.00    -0.311 A  
HETATM   25  C   UNL     1      -9.796  17.342  66.012  1.00  0.00    -0.201 C  
HETATM   26  C   UNL     1     -11.213  14.332  67.826  1.00  0.00    -0.309 A  
HETATM   27  C   UNL     1     -10.150  18.809  66.171  1.00  0.00    -0.421 C  
HETATM   28  C   UNL     1     -10.082  19.269  67.609  1.00  0.00    -0.387 C  
HETATM   29  O   UNL     1      -9.760  20.412  67.917  1.00  0.00    -0.358 OA 
HETATM   30  N   UNL     1     -10.521  18.382  68.553  1.00  0.00    -0.373 N  
HETATM   31  H   UNL     1     -10.657  18.724  69.505  1.00  0.00     0.000 HD 
ENDBRANCH  19  20
ENDBRANCH  18  19
ENDBRANCH  17  18
ENDBRANCH  16  17
ENDBRANCH  15  16
ENDBRANCH  12  15
ENDBRANCH   6   9
TORSDOF 7
ENDMDL
MODEL       73
REMARK 921   NORMALIZED FREE ENERGY PREDICTED BY IDOCK:   -5.59 KCAL/MOL
REMARK 922        TOTAL FREE ENERGY PREDICTED BY IDOCK:   -9.48 KCAL/MOL
REMARK 923 INTER-LIGAND FREE ENERGY PREDICTED BY IDOCK:   -8.44 KCAL/MOL
REMARK 924 INTRA-LIGAND FREE ENERGY PREDICTED BY IDOCK:   -1.04 KCAL/MOL
REMARK 927      BINDING AFFINITY PREDICTED BY RF-SCORE:    0.00 PKD
ROOT
HETATM    1 CL   UNL     1     -10.653  19.756  65.431  1.00  0.00    -0.379 Cl 
HETATM    2  C   UNL     1     -10.430  18.595  66.701  1.00  0.00    -0.413 A  
HETATM    3  C   UNL     1     -10.158  19.109  67.967  1.00  0.00    -0.482 A  
HETATM    4  C   UNL     1      -9.953  18.238  69.028  1.00  0.00    -0.293 A  
HETATM    5  C   UNL     1      -9.977  16.861  68.809  1.00  0.00    -0.276 A  
HETATM    6  C   UNL     1     -10.232  16.287  67.543  1.00  0.00    -0.270 A  
HETATM    7  C   UNL     1     -10.504  17.201  66.485  1.00  0.00    -0.255 A  
HETATM    8 CL   UNL     1     -11.056  16.655  64.922  1.00  0.00    -0.263 Cl 
ENDROOT
BRANCH   6   9
HETATM    9  N   UNL     1     -10.143  14.905  67.418  1.00  0.00    -0.228 NA 
HETATM   10  C   UNL     1      -9.040  14.252  66.690  1.00  0.00    -0.226 C  
HETATM   11  C   UNL     1      -8.526  13.005  67.445  1.00  0.00    -0.200 C  
HETATM   12  N   UNL     1      -9.575  12.033  67.829  1.00  0.00    -0.187 NA 
HETATM   13  C   UNL     1     -11.199  13.998  67.917  1.00  0.00    -0.273 C  
HETATM   14  C   UNL     1     -10.577  12.774  68.633  1.00  0.00    -0.233 C  
BRANCH  12  15
HETATM   15  C   UNL     1     -10.200  11.394  66.658  1.00  0.00    -0.222 C  
BRANCH  15  16
HETATM   16  C   UNL     1      -9.223  10.548  65.820  1.00  0.00    -0.215 C  
BRANCH  16  17
HETATM   17  C   UNL     1      -8.423   9.518  66.624  1.00  0.00    -0.136 C  
BRANCH  17  18
HETATM   18  C   UNL     1      -9.230   8.242  66.816  1.00  0.00    -0.169 C  
BRANCH  18  19
HETATM   19  O   UNL     1      -8.914   7.626  68.063  1.00  0.00    -0.127 OA 
BRANCH  19  20
HETATM   20  C   UNL     1      -9.972   7.585  68.940  1.00  0.00    -0.168 A  
HETATM   21  C   UNL     1     -10.369   8.823  69.454  1.00  0.00    -0.217 A  
HETATM   22  C   UNL     1     -11.431   8.884  70.358  1.00  0.00    -0.157 A  
HETATM   23  C   UNL     1     -12.105   7.720  70.750  1.00  0.00    -0.120 A  
HETATM   24  C   UNL     1     -11.725   6.495  70.207  1.00  0.00    -0.430 A  
HETATM   25  C   UNL     1     -13.304   7.819  71.648  1.00  0.00    -0.386 C  
HETATM   26  C   UNL     1     -10.670   6.430  69.303  1.00  0.00    -0.349 A  
HETATM   27  C   UNL     1     -13.237   9.040  72.545  1.00  0.00    -0.467 C  
HETATM   28  C   UNL     1     -12.818  10.286  71.798  1.00  0.00    -0.460 C  
HETATM   29  O   UNL     1     -13.224  11.402  72.105  1.00  0.00    -0.490 OA 
HETATM   30  N   UNL     1     -11.858  10.124  70.837  1.00  0.00    -0.345 N  
HETATM   31  H   UNL     1     -11.427  10.961  70.446  1.00  0.00     0.000 HD 
ENDBRANCH  19  20
ENDBRANCH  18  19
ENDBRANCH  17  18
ENDBRANCH  16  17
ENDBRANCH  15  16
ENDBRANCH  12  15
ENDBRANCH   6   9
TORSDOF 7
ENDMDL
MODEL       74
REMARK 921   NORMALIZED FREE ENERGY PREDICTED BY IDOCK:   -5.58 KCAL/MOL
REMARK 922        TOTAL FREE ENERGY PREDICTED BY IDOCK:   -9.47 KCAL/MOL
REMARK 923 INTER-LIGAND FREE ENERGY PREDICTED BY IDOCK:   -8.33 KCAL/MOL
REMARK 924 INTRA-LIGAND FREE ENERGY PREDICTED BY IDOCK:   -1.14 KCAL/MOL
REMARK 927      BINDING AFFINITY PREDICTED BY RF-SCORE:    0.00 PKD
ROOT
HETATM    1 CL   UNL     1      -8.768  10.394  64.016  1.00  0.00    -0.190 Cl 
HETATM    2  C   UNL     1      -8.574   9.029  65.070  1.00  0.00    -0.181 A  
HETATM    3  C   UNL     1      -7.821   7.967  64.574  1.00  0.00    -0.138 A  
HETATM    4  C   UNL     1      -7.637   6.836  65.356  1.00  0.00    -0.090 A  
HETATM    5  C   UNL     1      -8.243   6.755  66.610  1.00  0.00    -0.115 A  
HETATM    6  C   UNL     1      -9.029   7.794  67.155  1.00  0.00    -0.126 A  
HETATM    7  C   UNL     1      -9.148   8.971  66.360  1.00  0.00    -0.170 A  
HETATM    8 CL   UNL     1      -9.892  10.424  66.978  1.00  0.00    -0.222 Cl 
ENDROOT
BRANCH   6   9
HETATM    9  N   UNL     1      -9.660   7.573  68.374  1.00  0.00    -0.148 NA 
HETATM   10  C   UNL     1     -10.987   6.937  68.467  1.00  0.00    -0.136 C  
HETATM   11  C   UNL     1     -11.043   5.916  69.625  1.00  0.00    -0.343 C  
HETATM   12  N   UNL     1     -10.596   6.436  70.937  1.00  0.00    -0.227 NA 
HETATM   13  C   UNL     1      -9.092   8.048  69.653  1.00  0.00    -0.152 C  
HETATM   14  C   UNL     1      -9.221   6.960  70.748  1.00  0.00    -0.158 C  
BRANCH  12  15
HETATM   15  C   UNL     1     -11.495   7.478  71.460  1.00  0.00    -0.265 C  
BRANCH  15  16
HETATM   16  C   UNL     1     -12.969   7.038  71.545  1.00  0.00    -0.411 C  
BRANCH  16  17
HETATM   17  C   UNL     1     -13.968   8.190  71.699  1.00  0.00    -0.463 C  
BRANCH  17  18
HETATM   18  C   UNL     1     -13.355   9.500  71.227  1.00  0.00    -0.314 C  
BRANCH  18  19
HETATM   19  O   UNL     1     -13.336  10.459  72.282  1.00  0.00    -0.396 OA 
BRANCH  19  20
HETATM   20  C   UNL     1     -13.081  11.741  71.857  1.00  0.00    -0.376 A  
HETATM   21  C   UNL     1     -12.248  11.844  70.740  1.00  0.00    -0.401 A  
HETATM   22  C   UNL     1     -11.926  13.105  70.236  1.00  0.00    -0.292 A  
HETATM   23  C   UNL     1     -12.432  14.266  70.834  1.00  0.00    -0.424 A  
HETATM   24  C   UNL     1     -13.290  14.153  71.926  1.00  0.00    -0.476 A  
HETATM   25  C   UNL     1     -12.151  15.606  70.219  1.00  0.00    -0.413 C  
HETATM   26  C   UNL     1     -13.617  12.899  72.429  1.00  0.00    -0.577 A  
HETATM   27  C   UNL     1     -10.841  15.612  69.455  1.00  0.00    -0.264 C  
HETATM   28  C   UNL     1     -10.676  14.391  68.578  1.00  0.00    -0.253 C  
HETATM   29  O   UNL     1     -10.067  14.426  67.514  1.00  0.00    -0.230 OA 
HETATM   30  N   UNL     1     -11.131  13.208  69.092  1.00  0.00    -0.375 N  
HETATM   31  H   UNL     1     -10.874  12.347  68.610  1.00  0.00     0.000 HD 
ENDBRANCH  19  20
ENDBRANCH  18  19
ENDBRANCH  17  18
ENDBRANCH  16  17
ENDBRANCH  15  16
ENDBRANCH  12  15
ENDBRANCH   6   9
TORSDOF 7
ENDMDL
MODEL       75
REMARK 921   NORMALIZED FREE ENERGY PREDICTED BY IDOCK:   -5.57 KCAL/MOL
REMARK 922        TOTAL FREE ENERGY PREDICTED BY IDOCK:   -9.45 KCAL/MOL
REMARK 923 INTER-LIGAND FREE ENERGY PREDICTED BY IDOCK:   -7.98 KCAL/MOL
REMARK 924 INTRA-LIGAND FREE ENERGY PREDICTED BY IDOCK:   -1.47 KCAL/MOL
REMARK 927      BINDING AFFINITY PREDICTED BY RF-SCORE:    0.00 PKD
ROOT
HETATM    1 CL   UNL     1     -13.510  11.744  71.993  1.00  0.00    -0.461 Cl 
HETATM    2  C   UNL     1     -12.670  10.266  71.644  1.00  0.00    -0.456 A  
HETATM    3  C   UNL     1     -13.069   9.144  72.367  1.00  0.00    -0.493 A  
HETATM    4  C   UNL     1     -12.431   7.931  72.152  1.00  0.00    -0.304 A  
HETATM    5  C   UNL     1     -11.370   7.856  71.249  1.00  0.00    -0.289 A  
HETATM    6  C   UNL     1     -10.915   8.965  70.502  1.00  0.00    -0.241 A  
HETATM    7  C   UNL     1     -11.629  10.183  70.693  1.00  0.00    -0.343 A  
HETATM    8 CL   UNL     1     -11.341  11.581  69.688  1.00  0.00    -0.337 Cl 
ENDROOT
BRANCH   6   9
HETATM    9  N   UNL     1      -9.793   8.801  69.697  1.00  0.00    -0.179 NA 
HETATM   10  C   UNL     1      -8.465   9.308  70.090  1.00  0.00    -0.191 C  
HETATM   11  C   UNL     1      -7.353   8.283  69.769  1.00  0.00    -0.065 C  
HETATM   12  N   UNL     1      -7.354   7.778  68.377  1.00  0.00    -0.092 NA 
HETATM   13  C   UNL     1      -9.870   8.198  68.350  1.00  0.00    -0.171 C  
HETATM   14  C   UNL     1      -8.700   7.208  68.125  1.00  0.00    -0.127 C  
BRANCH  12  15
HETATM   15  C   UNL     1      -7.031   8.833  67.401  1.00  0.00    -0.075 C  
BRANCH  15  16
HETATM   16  C   UNL     1      -6.373   8.303  66.112  1.00  0.00    -0.049 C  
BRANCH  16  17
HETATM   17  C   UNL     1      -6.952   8.884  64.818  1.00  0.00    -0.076 C  
BRANCH  17  18
HETATM   18  C   UNL     1      -8.449   9.113  64.954  1.00  0.00    -0.175 C  
BRANCH  18  19
HETATM   19  O   UNL     1      -8.962   9.799  63.814  1.00  0.00    -0.223 OA 
BRANCH  19  20
HETATM   20  C   UNL     1      -9.823  10.823  64.129  1.00  0.00    -0.326 A  
HETATM   21  C   UNL     1      -9.546  11.488  65.327  1.00  0.00    -0.244 A  
HETATM   22  C   UNL     1     -10.368  12.539  65.736  1.00  0.00    -0.265 A  
HETATM   23  C   UNL     1     -11.463  12.937  64.957  1.00  0.00    -0.350 A  
HETATM   24  C   UNL     1     -11.711  12.292  63.748  1.00  0.00    -0.566 A  
HETATM   25  C   UNL     1     -12.276  14.130  65.368  1.00  0.00    -0.441 C  
HETATM   26  C   UNL     1     -10.893  11.247  63.335  1.00  0.00    -0.311 A  
HETATM   27  C   UNL     1     -12.250  14.341  66.870  1.00  0.00    -0.366 C  
HETATM   28  C   UNL     1     -10.860  14.208  67.449  1.00  0.00    -0.287 C  
HETATM   29  O   UNL     1     -10.492  14.855  68.425  1.00  0.00    -0.234 OA 
HETATM   30  N   UNL     1     -10.066  13.234  66.909  1.00  0.00    -0.246 N  
HETATM   31  H   UNL     1      -9.199  13.000  67.393  1.00  0.00     0.000 HD 
ENDBRANCH  19  20
ENDBRANCH  18  19
ENDBRANCH  17  18
ENDBRANCH  16  17
ENDBRANCH  15  16
ENDBRANCH  12  15
ENDBRANCH   6   9
TORSDOF 7
ENDMDL
MODEL       76
REMARK 921   NORMALIZED FREE ENERGY PREDICTED BY IDOCK:   -5.57 KCAL/MOL
REMARK 922        TOTAL FREE ENERGY PREDICTED BY IDOCK:   -9.45 KCAL/MOL
REMARK 923 INTER-LIGAND FREE ENERGY PREDICTED BY IDOCK:   -8.40 KCAL/MOL
REMARK 924 INTRA-LIGAND FREE ENERGY PREDICTED BY IDOCK:   -1.05 KCAL/MOL
REMARK 927      BINDING AFFINITY PREDICTED BY RF-SCORE:    0.00 PKD
ROOT
HETATM    1 CL   UNL     1      -7.193   8.961  62.477  1.00  0.00    -0.096 Cl 
HETATM    2  C   UNL     1      -8.444   9.561  63.519  1.00  0.00    -0.197 A  
HETATM    3  C   UNL     1      -9.213  10.610  63.021  1.00  0.00    -0.311 A  
HETATM    4  C   UNL     1     -10.221  11.150  63.805  1.00  0.00    -0.434 A  
HETATM    5  C   UNL     1     -10.426  10.669  65.099  1.00  0.00    -0.271 A  
HETATM    6  C   UNL     1      -9.666   9.619  65.659  1.00  0.00    -0.293 A  
HETATM    7  C   UNL     1      -8.681   9.037  64.809  1.00  0.00    -0.153 A  
HETATM    8 CL   UNL     1      -7.815   7.592  65.266  1.00  0.00    -0.112 Cl 
ENDROOT
BRANCH   6   9
HETATM    9  N   UNL     1      -9.895   9.278  66.987  1.00  0.00    -0.183 NA 
HETATM   10  C   UNL     1     -10.230   7.901  67.397  1.00  0.00    -0.251 C  
HETATM   11  C   UNL     1      -9.475   7.496  68.683  1.00  0.00    -0.146 C  
HETATM   12  N   UNL     1      -9.608   8.447  69.810  1.00  0.00    -0.170 NA 
HETATM   13  C   UNL     1      -9.917  10.285  68.068  1.00  0.00    -0.153 C  
HETATM   14  C   UNL     1      -9.155   9.770  69.314  1.00  0.00    -0.184 C  
BRANCH  12  15
HETATM   15  C   UNL     1     -10.986   8.515  70.324  1.00  0.00    -0.235 C  
BRANCH  15  16
HETATM   16  C   UNL     1     -11.241   9.716  71.255  1.00  0.00    -0.446 C  
BRANCH  16  17
HETATM   17  C   UNL     1     -12.655  10.300  71.165  1.00  0.00    -0.501 C  
BRANCH  17  18
HETATM   18  C   UNL     1     -12.603  11.802  70.933  1.00  0.00    -0.289 C  
BRANCH  18  19
HETATM   19  O   UNL     1     -12.473  12.096  69.543  1.00  0.00    -0.033 OA 
BRANCH  19  20
HETATM   20  C   UNL     1     -11.954  13.343  69.290  1.00  0.00    -0.317 A  
HETATM   21  C   UNL     1     -11.829  13.674  67.938  1.00  0.00    -0.402 A  
HETATM   22  C   UNL     1     -11.307  14.917  67.579  1.00  0.00    -0.342 A  
HETATM   23  C   UNL     1     -10.911  15.837  68.559  1.00  0.00    -0.290 A  
HETATM   24  C   UNL     1     -11.070  15.513  69.904  1.00  0.00    -0.318 A  
HETATM   25  C   UNL     1     -10.441  17.204  68.153  1.00  0.00    -0.366 C  
HETATM   26  C   UNL     1     -11.594  14.277  70.266  1.00  0.00    -0.289 A  
HETATM   27  C   UNL     1      -9.818  17.198  66.769  1.00  0.00    -0.288 C  
HETATM   28  C   UNL     1     -10.637  16.414  65.769  1.00  0.00    -0.315 C  
HETATM   29  O   UNL     1     -10.686  16.716  64.581  1.00  0.00    -0.742 OA 
HETATM   30  N   UNL     1     -11.224  15.267  66.230  1.00  0.00    -0.278 N  
HETATM   31  H   UNL     1     -11.627  14.627  65.545  1.00  0.00     0.000 HD 
ENDBRANCH  19  20
ENDBRANCH  18  19
ENDBRANCH  17  18
ENDBRANCH  16  17
ENDBRANCH  15  16
ENDBRANCH  12  15
ENDBRANCH   6   9
TORSDOF 7
ENDMDL
MODEL       77
REMARK 921   NORMALIZED FREE ENERGY PREDICTED BY IDOCK:   -5.56 KCAL/MOL
REMARK 922        TOTAL FREE ENERGY PREDICTED BY IDOCK:   -9.44 KCAL/MOL
REMARK 923 INTER-LIGAND FREE ENERGY PREDICTED BY IDOCK:   -8.15 KCAL/MOL
REMARK 924 INTRA-LIGAND FREE ENERGY PREDICTED BY IDOCK:   -1.29 KCAL/MOL
REMARK 927      BINDING AFFINITY PREDICTED BY RF-SCORE:    0.00 PKD
ROOT
HETATM    1 CL   UNL     1      -9.665   5.201  69.046  1.00  0.00    -0.207 Cl 
HETATM    2  C   UNL     1      -8.807   6.594  68.467  1.00  0.00    -0.122 A  
HETATM    3  C   UNL     1      -7.458   6.674  68.807  1.00  0.00    -0.096 A  
HETATM    4  C   UNL     1      -6.713   7.767  68.392  1.00  0.00    -0.062 A  
HETATM    5  C   UNL     1      -7.329   8.795  67.678  1.00  0.00    -0.085 A  
HETATM    6  C   UNL     1      -8.695   8.773  67.320  1.00  0.00    -0.129 A  
HETATM    7  C   UNL     1      -9.423   7.608  67.701  1.00  0.00    -0.142 A  
HETATM    8 CL   UNL     1     -11.053   7.323  67.145  1.00  0.00    -0.288 Cl 
ENDROOT
BRANCH   6   9
HETATM    9  N   UNL     1      -9.228   9.890  66.685  1.00  0.00    -0.150 NA 
HETATM   10  C   UNL     1      -9.156  10.070  65.224  1.00  0.00    -0.200 C  
HETATM   11  C   UNL     1     -10.488  10.612  64.657  1.00  0.00    -0.205 C  
HETATM   12  N   UNL     1     -11.004  11.825  65.330  1.00  0.00    -0.305 NA 
HETATM   13  C   UNL     1      -9.812  11.020  67.437  1.00  0.00    -0.173 C  
HETATM   14  C   UNL     1     -11.126  11.499  66.772  1.00  0.00    -0.302 C  
BRANCH  12  15
HETATM   15  C   UNL     1     -10.133  12.994  65.121  1.00  0.00    -0.221 C  
BRANCH  15  16
HETATM   16  C   UNL     1     -10.904  14.303  64.863  1.00  0.00    -0.429 C  
BRANCH  16  17
HETATM   17  C   UNL     1     -10.489  15.472  65.761  1.00  0.00    -0.378 C  
BRANCH  17  18
HETATM   18  C   UNL     1      -9.977  14.966  67.101  1.00  0.00    -0.231 C  
BRANCH  18  19
HETATM   19  O   UNL     1     -10.054  15.989  68.092  1.00  0.00    -0.228 OA 
BRANCH  19  20
HETATM   20  C   UNL     1     -10.748  15.614  69.218  1.00  0.00    -0.239 A  
HETATM   21  C   UNL     1     -11.104  14.263  69.276  1.00  0.00    -0.297 A  
HETATM   22  C   UNL     1     -11.815  13.787  70.378  1.00  0.00    -0.253 A  
HETATM   23  C   UNL     1     -12.173  14.646  71.426  1.00  0.00    -0.411 A  
HETATM   24  C   UNL     1     -11.784  15.983  71.375  1.00  0.00    -0.536 A  
HETATM   25  C   UNL     1     -12.854  14.095  72.644  1.00  0.00    -0.440 C  
HETATM   26  C   UNL     1     -11.071  16.461  70.282  1.00  0.00    -0.267 A  
HETATM   27  C   UNL     1     -13.664  12.852  72.323  1.00  0.00    -0.553 C  
HETATM   28  C   UNL     1     -12.911  11.881  71.443  1.00  0.00    -0.307 C  
HETATM   29  O   UNL     1     -13.069  10.668  71.520  1.00  0.00    -0.405 OA 
HETATM   30  N   UNL     1     -12.132  12.430  70.460  1.00  0.00    -0.484 N  
HETATM   31  H   UNL     1     -11.759  11.808  69.743  1.00  0.00     0.000 HD 
ENDBRANCH  19  20
ENDBRANCH  18  19
ENDBRANCH  17  18
ENDBRANCH  16  17
ENDBRANCH  15  16
ENDBRANCH  12  15
ENDBRANCH   6   9
TORSDOF 7
ENDMDL
MODEL       78
REMARK 921   NORMALIZED FREE ENERGY PREDICTED BY IDOCK:   -5.55 KCAL/MOL
REMARK 922        TOTAL FREE ENERGY PREDICTED BY IDOCK:   -9.42 KCAL/MOL
REMARK 923 INTER-LIGAND FREE ENERGY PREDICTED BY IDOCK:   -8.23 KCAL/MOL
REMARK 924 INTRA-LIGAND FREE ENERGY PREDICTED BY IDOCK:   -1.19 KCAL/MOL
REMARK 927      BINDING AFFINITY PREDICTED BY RF-SCORE:    0.00 PKD
ROOT
HETATM    1 CL   UNL     1     -10.451  18.219  66.009  1.00  0.00    -0.430 Cl 
HETATM    2  C   UNL     1     -10.540  16.908  67.143  1.00  0.00    -0.249 A  
HETATM    3  C   UNL     1     -10.574  17.259  68.491  1.00  0.00    -0.350 A  
HETATM    4  C   UNL     1     -10.630  16.263  69.454  1.00  0.00    -0.301 A  
HETATM    5  C   UNL     1     -10.607  14.922  69.068  1.00  0.00    -0.245 A  
HETATM    6  C   UNL     1     -10.558  14.511  67.717  1.00  0.00    -0.250 A  
HETATM    7  C   UNL     1     -10.568  15.553  66.745  1.00  0.00    -0.307 A  
HETATM    8 CL   UNL     1     -10.737  15.215  65.041  1.00  0.00    -0.434 Cl 
ENDROOT
BRANCH   6   9
HETATM    9  N   UNL     1     -10.450  13.151  67.447  1.00  0.00    -0.241 NA 
HETATM   10  C   UNL     1      -9.169  12.527  67.066  1.00  0.00    -0.214 C  
HETATM   11  C   UNL     1      -8.969  11.171  67.778  1.00  0.00    -0.139 C  
HETATM   12  N   UNL     1     -10.099  10.223  67.642  1.00  0.00    -0.182 NA 
HETATM   13  C   UNL     1     -11.625  12.255  67.425  1.00  0.00    -0.355 C  
HETATM   14  C   UNL     1     -11.309  10.919  68.142  1.00  0.00    -0.315 C  
BRANCH  12  15
HETATM   15  C   UNL     1     -10.281   9.768  66.254  1.00  0.00    -0.212 C  
BRANCH  15  16
HETATM   16  C   UNL     1      -8.958   9.536  65.499  1.00  0.00    -0.236 C  
BRANCH  16  17
HETATM   17  C   UNL     1      -8.311   8.171  65.756  1.00  0.00    -0.140 C  
BRANCH  17  18
HETATM   18  C   UNL     1      -9.322   7.199  66.345  1.00  0.00    -0.143 C  
BRANCH  18  19
HETATM   19  O   UNL     1      -8.766   6.504  67.460  1.00  0.00    -0.115 OA 
BRANCH  19  20
HETATM   20  C   UNL     1      -9.198   6.979  68.676  1.00  0.00    -0.131 A  
HETATM   21  C   UNL     1     -10.552   6.769  68.950  1.00  0.00    -0.257 A  
HETATM   22  C   UNL     1     -11.087   7.220  70.158  1.00  0.00    -0.258 A  
HETATM   23  C   UNL     1     -10.281   7.876  71.098  1.00  0.00    -0.221 A  
HETATM   24  C   UNL     1      -8.925   8.050  70.831  1.00  0.00    -0.150 A  
HETATM   25  C   UNL     1     -10.854   8.267  72.429  1.00  0.00    -0.421 C  
HETATM   26  C   UNL     1      -8.387   7.599  69.631  1.00  0.00    -0.130 A  
HETATM   27  C   UNL     1     -12.347   8.522  72.347  1.00  0.00    -0.424 C  
HETATM   28  C   UNL     1     -13.074   7.456  71.558  1.00  0.00    -0.374 C  
HETATM   29  O   UNL     1     -14.224   7.119  71.818  1.00  0.00    -0.406 OA 
HETATM   30  N   UNL     1     -12.429   6.971  70.453  1.00  0.00    -0.601 N  
HETATM   31  H   UNL     1     -12.961   6.391  69.805  1.00  0.00     0.000 HD 
ENDBRANCH  19  20
ENDBRANCH  18  19
ENDBRANCH  17  18
ENDBRANCH  16  17
ENDBRANCH  15  16
ENDBRANCH  12  15
ENDBRANCH   6   9
TORSDOF 7
ENDMDL
MODEL       79
REMARK 921   NORMALIZED FREE ENERGY PREDICTED BY IDOCK:   -5.51 KCAL/MOL
REMARK 922        TOTAL FREE ENERGY PREDICTED BY IDOCK:   -9.37 KCAL/MOL
REMARK 923 INTER-LIGAND FREE ENERGY PREDICTED BY IDOCK:   -8.70 KCAL/MOL
REMARK 924 INTRA-LIGAND FREE ENERGY PREDICTED BY IDOCK:   -0.68 KCAL/MOL
REMARK 927      BINDING AFFINITY PREDICTED BY RF-SCORE:    0.00 PKD
ROOT
HETATM    1 CL   UNL     1      -8.462   1.895  67.818  1.00  0.00    -0.082 Cl 
HETATM    2  C   UNL     1      -9.335   3.390  67.687  1.00  0.00    -0.199 A  
HETATM    3  C   UNL     1      -9.707   3.777  66.401  1.00  0.00    -0.142 A  
HETATM    4  C   UNL     1     -10.394   4.968  66.219  1.00  0.00    -0.332 A  
HETATM    5  C   UNL     1     -10.666   5.786  67.316  1.00  0.00    -0.345 A  
HETATM    6  C   UNL     1     -10.298   5.450  68.638  1.00  0.00    -0.158 A  
HETATM    7  C   UNL     1      -9.653   4.190  68.806  1.00  0.00    -0.140 A  
HETATM    8 CL   UNL     1      -9.336   3.527  70.389  1.00  0.00    -0.224 Cl 
ENDROOT
BRANCH   6   9
HETATM    9  N   UNL     1     -10.539   6.378  69.644  1.00  0.00    -0.228 NA 
HETATM   10  C   UNL     1     -11.890   6.613  70.188  1.00  0.00    -0.284 C  
HETATM   11  C   UNL     1     -11.861   6.755  71.726  1.00  0.00    -0.330 C  
HETATM   12  N   UNL     1     -10.887   7.743  72.243  1.00  0.00    -0.260 NA 
HETATM   13  C   UNL     1      -9.480   7.265  70.170  1.00  0.00    -0.165 C  
HETATM   14  C   UNL     1      -9.557   7.355  71.714  1.00  0.00    -0.149 C  
BRANCH  12  15
HETATM   15  C   UNL     1     -11.232   9.122  71.857  1.00  0.00    -0.329 C  
BRANCH  15  16
HETATM   16  C   UNL     1     -12.749   9.392  71.814  1.00  0.00    -0.476 C  
BRANCH  16  17
HETATM   17  C   UNL     1     -13.126  10.859  71.588  1.00  0.00    -0.538 C  
BRANCH  17  18
HETATM   18  C   UNL     1     -12.156  11.521  70.621  1.00  0.00    -0.353 C  
BRANCH  18  19
HETATM   19  O   UNL     1     -12.484  11.195  69.272  1.00  0.00    -0.377 OA 
BRANCH  19  20
HETATM   20  C   UNL     1     -11.844  11.981  68.344  1.00  0.00    -0.300 A  
HETATM   21  C   UNL     1     -11.857  13.352  68.613  1.00  0.00    -0.397 A  
HETATM   22  C   UNL     1     -11.237  14.233  67.726  1.00  0.00    -0.291 A  
HETATM   23  C   UNL     1     -10.599  13.757  66.572  1.00  0.00    -0.279 A  
HETATM   24  C   UNL     1     -10.561  12.386  66.330  1.00  0.00    -0.277 A  
HETATM   25  C   UNL     1      -9.857  14.711  65.682  1.00  0.00    -0.354 C  
HETATM   26  C   UNL     1     -11.173  11.504  67.213  1.00  0.00    -0.365 A  
HETATM   27  C   UNL     1     -10.436  16.112  65.750  1.00  0.00    -0.384 C  
HETATM   28  C   UNL     1     -10.719  16.553  67.168  1.00  0.00    -0.220 C  
HETATM   29  O   UNL     1     -10.627  17.725  67.520  1.00  0.00    -0.377 OA 
HETATM   30  N   UNL     1     -11.209  15.598  68.016  1.00  0.00    -0.341 N  
HETATM   31  H   UNL     1     -11.578  15.903  68.917  1.00  0.00     0.000 HD 
ENDBRANCH  19  20
ENDBRANCH  18  19
ENDBRANCH  17  18
ENDBRANCH  16  17
ENDBRANCH  15  16
ENDBRANCH  12  15
ENDBRANCH   6   9
TORSDOF 7
ENDMDL
MODEL       80
REMARK 921   NORMALIZED FREE ENERGY PREDICTED BY IDOCK:   -5.51 KCAL/MOL
REMARK 922        TOTAL FREE ENERGY PREDICTED BY IDOCK:   -9.37 KCAL/MOL
REMARK 923 INTER-LIGAND FREE ENERGY PREDICTED BY IDOCK:   -7.79 KCAL/MOL
REMARK 924 INTRA-LIGAND FREE ENERGY PREDICTED BY IDOCK:   -1.58 KCAL/MOL
REMARK 927      BINDING AFFINITY PREDICTED BY RF-SCORE:    0.00 PKD
ROOT
HETATM    1 CL   UNL     1     -11.031   6.161  67.713  1.00  0.00    -0.414 Cl 
HETATM    2  C   UNL     1     -10.507   7.383  68.829  1.00  0.00    -0.199 A  
HETATM    3  C   UNL     1     -11.009   7.290  70.125  1.00  0.00    -0.280 A  
HETATM    4  C   UNL     1     -10.645   8.241  71.068  1.00  0.00    -0.243 A  
HETATM    5  C   UNL     1      -9.819   9.303  70.698  1.00  0.00    -0.332 A  
HETATM    6  C   UNL     1      -9.295   9.453  69.395  1.00  0.00    -0.169 A  
HETATM    7  C   UNL     1      -9.630   8.427  68.464  1.00  0.00    -0.149 A  
HETATM    8 CL   UNL     1      -8.888   8.344  66.886  1.00  0.00    -0.146 Cl 
ENDROOT
BRANCH   6   9
HETATM    9  N   UNL     1      -8.555  10.596  69.111  1.00  0.00    -0.153 NA 
HETATM   10  C   UNL     1      -7.214  10.822  69.680  1.00  0.00    -0.125 C  
HETATM   11  C   UNL     1      -6.243  11.396  68.623  1.00  0.00    -0.048 C  
HETATM   12  N   UNL     1      -6.740  12.593  67.906  1.00  0.00    -0.094 NA 
HETATM   13  C   UNL     1      -9.099  11.707  68.303  1.00  0.00    -0.187 C  
HETATM   14  C   UNL     1      -8.041  12.222  67.296  1.00  0.00    -0.182 C  
BRANCH  12  15
HETATM   15  C   UNL     1      -6.881  13.758  68.795  1.00  0.00    -0.106 C  
BRANCH  15  16
HETATM   16  C   UNL     1      -6.534  15.099  68.119  1.00  0.00    -0.135 C  
BRANCH  16  17
HETATM   17  C   UNL     1      -7.329  16.299  68.643  1.00  0.00    -0.180 C  
BRANCH  17  18
HETATM   18  C   UNL     1      -7.880  17.124  67.490  1.00  0.00    -0.175 C  
BRANCH  18  19
HETATM   19  O   UNL     1      -9.289  17.303  67.624  1.00  0.00    -0.234 OA 
BRANCH  19  20
HETATM   20  C   UNL     1     -10.019  16.182  67.311  1.00  0.00    -0.248 A  
HETATM   21  C   UNL     1      -9.674  15.563  66.106  1.00  0.00    -0.348 A  
HETATM   22  C   UNL     1     -10.362  14.420  65.698  1.00  0.00    -0.342 A  
HETATM   23  C   UNL     1     -11.392  13.885  66.484  1.00  0.00    -0.340 A  
HETATM   24  C   UNL     1     -11.707  14.489  67.699  1.00  0.00    -0.410 A  
HETATM   25  C   UNL     1     -12.055  12.602  66.073  1.00  0.00    -0.429 C  
HETATM   26  C   UNL     1     -11.021  15.625  68.112  1.00  0.00    -0.314 A  
HETATM   27  C   UNL     1     -12.017  12.404  64.569  1.00  0.00    -0.474 C  
HETATM   28  C   UNL     1     -10.660  12.711  63.978  1.00  0.00    -0.427 C  
HETATM   29  O   UNL     1     -10.225  12.121  62.996  1.00  0.00    -0.297 OA 
HETATM   30  N   UNL     1      -9.988  13.774  64.518  1.00  0.00    -0.607 N  
HETATM   31  H   UNL     1      -9.162  14.116  64.027  1.00  0.00     0.000 HD 
ENDBRANCH  19  20
ENDBRANCH  18  19
ENDBRANCH  17  18
ENDBRANCH  16  17
ENDBRANCH  15  16
ENDBRANCH  12  15
ENDBRANCH   6   9
TORSDOF 7
ENDMDL
MODEL       81
REMARK 921   NORMALIZED FREE ENERGY PREDICTED BY IDOCK:   -5.49 KCAL/MOL
REMARK 922        TOTAL FREE ENERGY PREDICTED BY IDOCK:   -9.34 KCAL/MOL
REMARK 923 INTER-LIGAND FREE ENERGY PREDICTED BY IDOCK:   -8.19 KCAL/MOL
REMARK 924 INTRA-LIGAND FREE ENERGY PREDICTED BY IDOCK:   -1.15 KCAL/MOL
REMARK 927      BINDING AFFINITY PREDICTED BY RF-SCORE:    0.00 PKD
ROOT
HETATM    1 CL   UNL     1     -10.232   4.740  69.810  1.00  0.00    -0.293 Cl 
HETATM    2  C   UNL     1      -9.063   5.629  68.885  1.00  0.00    -0.115 A  
HETATM    3  C   UNL     1      -7.724   5.380  69.179  1.00  0.00    -0.089 A  
HETATM    4  C   UNL     1      -6.735   6.066  68.490  1.00  0.00    -0.061 A  
HETATM    5  C   UNL     1      -7.089   7.027  67.543  1.00  0.00    -0.085 A  
HETATM    6  C   UNL     1      -8.430   7.330  67.217  1.00  0.00    -0.118 A  
HETATM    7  C   UNL     1      -9.425   6.565  67.891  1.00  0.00    -0.120 A  
HETATM    8 CL   UNL     1     -11.110   6.656  67.444  1.00  0.00    -0.424 Cl 
ENDROOT
BRANCH   6   9
HETATM    9  N   UNL     1      -8.671   8.367  66.324  1.00  0.00    -0.133 NA 
HETATM   10  C   UNL     1      -9.069   9.714  66.775  1.00  0.00    -0.146 C  
HETATM   11  C   UNL     1      -8.331  10.815  65.980  1.00  0.00    -0.163 C  
HETATM   12  N   UNL     1      -8.419  10.686  64.508  1.00  0.00    -0.129 NA 
HETATM   13  C   UNL     1      -8.646   8.170  64.859  1.00  0.00    -0.012 C  
HETATM   14  C   UNL     1      -7.907   9.338  64.161  1.00  0.00    -0.125 C  
BRANCH  12  15
HETATM   15  C   UNL     1      -9.792  10.877  64.011  1.00  0.00    -0.322 C  
BRANCH  15  16
HETATM   16  C   UNL     1     -10.344  12.297  64.248  1.00  0.00    -0.375 C  
BRANCH  16  17
HETATM   17  C   UNL     1     -11.840  12.350  64.573  1.00  0.00    -0.452 C  
BRANCH  17  18
HETATM   18  C   UNL     1     -12.086  13.144  65.847  1.00  0.00    -0.444 C  
BRANCH  18  19
HETATM   19  O   UNL     1     -11.044  12.915  66.795  1.00  0.00    -0.267 OA 
BRANCH  19  20
HETATM   20  C   UNL     1     -11.500  12.715  68.076  1.00  0.00    -0.318 A  
HETATM   21  C   UNL     1     -12.044  13.842  68.698  1.00  0.00    -0.333 A  
HETATM   22  C   UNL     1     -12.529  13.740  70.003  1.00  0.00    -0.240 A  
HETATM   23  C   UNL     1     -12.479  12.522  70.693  1.00  0.00    -0.323 A  
HETATM   24  C   UNL     1     -11.966  11.396  70.053  1.00  0.00    -0.442 A  
HETATM   25  C   UNL     1     -13.091  12.411  72.059  1.00  0.00    -0.470 C  
HETATM   26  C   UNL     1     -11.486  11.491  68.752  1.00  0.00    -0.349 A  
HETATM   27  C   UNL     1     -13.080  13.741  72.791  1.00  0.00    -0.432 C  
HETATM   28  C   UNL     1     -13.527  14.888  71.914  1.00  0.00    -0.380 C  
HETATM   29  O   UNL     1     -14.128  15.859  72.361  1.00  0.00    -0.462 OA 
HETATM   30  N   UNL     1     -13.115  14.853  70.609  1.00  0.00    -0.571 N  
HETATM   31  H   UNL     1     -13.244  15.692  70.044  1.00  0.00     0.000 HD 
ENDBRANCH  19  20
ENDBRANCH  18  19
ENDBRANCH  17  18
ENDBRANCH  16  17
ENDBRANCH  15  16
ENDBRANCH  12  15
ENDBRANCH   6   9
TORSDOF 7
ENDMDL
MODEL       82
REMARK 921   NORMALIZED FREE ENERGY PREDICTED BY IDOCK:   -5.46 KCAL/MOL
REMARK 922        TOTAL FREE ENERGY PREDICTED BY IDOCK:   -9.30 KCAL/MOL
REMARK 923 INTER-LIGAND FREE ENERGY PREDICTED BY IDOCK:   -8.62 KCAL/MOL
REMARK 924 INTRA-LIGAND FREE ENERGY PREDICTED BY IDOCK:   -0.68 KCAL/MOL
REMARK 927      BINDING AFFINITY PREDICTED BY RF-SCORE:    0.00 PKD
ROOT
HETATM    1 CL   UNL     1      -6.437  21.242  66.917  1.00  0.00    -0.399 Cl 
HETATM    2  C   UNL     1      -6.753  19.728  67.703  1.00  0.00    -0.234 A  
HETATM    3  C   UNL     1      -5.899  19.385  68.750  1.00  0.00    -0.242 A  
HETATM    4  C   UNL     1      -6.083  18.181  69.414  1.00  0.00    -0.250 A  
HETATM    5  C   UNL     1      -7.090  17.308  69.001  1.00  0.00    -0.233 A  
HETATM    6  C   UNL     1      -7.972  17.598  67.937  1.00  0.00    -0.231 A  
HETATM    7  C   UNL     1      -7.805  18.869  67.314  1.00  0.00    -0.235 A  
HETATM    8 CL   UNL     1      -8.948  19.473  66.141  1.00  0.00    -0.375 Cl 
ENDROOT
BRANCH   6   9
HETATM    9  N   UNL     1      -8.881  16.620  67.550  1.00  0.00    -0.195 NA 
HETATM   10  C   UNL     1      -9.936  16.127  68.455  1.00  0.00    -0.229 C  
HETATM   11  C   UNL     1     -11.281  15.959  67.714  1.00  0.00    -0.258 C  
HETATM   12  N   UNL     1     -11.212  15.157  66.471  1.00  0.00    -0.322 NA 
HETATM   13  C   UNL     1      -8.793  15.932  66.245  1.00  0.00    -0.351 C  
HETATM   14  C   UNL     1     -10.195  15.796  65.601  1.00  0.00    -0.380 C  
BRANCH  12  15
HETATM   15  C   UNL     1     -10.878  13.747  66.734  1.00  0.00    -0.284 C  
BRANCH  15  16
HETATM   16  C   UNL     1     -11.898  13.027  67.637  1.00  0.00    -0.401 C  
BRANCH  16  17
HETATM   17  C   UNL     1     -11.343  12.582  68.994  1.00  0.00    -0.342 C  
BRANCH  17  18
HETATM   18  C   UNL     1     -12.131  11.400  69.536  1.00  0.00    -0.302 C  
BRANCH  18  19
HETATM   19  O   UNL     1     -11.494  10.853  70.689  1.00  0.00    -0.302 OA 
BRANCH  19  20
HETATM   20  C   UNL     1     -11.169   9.523  70.560  1.00  0.00    -0.287 A  
HETATM   21  C   UNL     1     -11.525   8.715  71.643  1.00  0.00    -0.375 A  
HETATM   22  C   UNL     1     -11.232   7.351  71.609  1.00  0.00    -0.247 A  
HETATM   23  C   UNL     1     -10.590   6.784  70.500  1.00  0.00    -0.260 A  
HETATM   24  C   UNL     1     -10.270   7.591  69.411  1.00  0.00    -0.204 A  
HETATM   25  C   UNL     1     -10.370   5.300  70.443  1.00  0.00    -0.345 C  
HETATM   26  C   UNL     1     -10.563   8.949  69.439  1.00  0.00    -0.226 A  
HETATM   27  C   UNL     1     -10.248   4.694  71.828  1.00  0.00    -0.242 C  
HETATM   28  C   UNL     1     -11.303   5.209  72.781  1.00  0.00    -0.239 C  
HETATM   29  O   UNL     1     -11.765   4.518  73.682  1.00  0.00    -0.167 OA 
HETATM   30  N   UNL     1     -11.628   6.534  72.669  1.00  0.00    -0.464 N  
HETATM   31  H   UNL     1     -12.196   6.950  73.407  1.00  0.00     0.000 HD 
ENDBRANCH  19  20
ENDBRANCH  18  19
ENDBRANCH  17  18
ENDBRANCH  16  17
ENDBRANCH  15  16
ENDBRANCH  12  15
ENDBRANCH   6   9
TORSDOF 7
ENDMDL
MODEL       83
REMARK 921   NORMALIZED FREE ENERGY PREDICTED BY IDOCK:   -5.42 KCAL/MOL
REMARK 922        TOTAL FREE ENERGY PREDICTED BY IDOCK:   -9.25 KCAL/MOL
REMARK 923 INTER-LIGAND FREE ENERGY PREDICTED BY IDOCK:   -8.41 KCAL/MOL
REMARK 924 INTRA-LIGAND FREE ENERGY PREDICTED BY IDOCK:   -0.84 KCAL/MOL
REMARK 927      BINDING AFFINITY PREDICTED BY RF-SCORE:    0.00 PKD
ROOT
HETATM    1 CL   UNL     1     -11.660  16.134  64.282  1.00  0.00    -0.294 Cl 
HETATM    2  C   UNL     1     -11.728  14.423  64.566  1.00  0.00    -0.419 A  
HETATM    3  C   UNL     1     -12.048  13.627  63.468  1.00  0.00    -0.341 A  
HETATM    4  C   UNL     1     -12.135  12.252  63.624  1.00  0.00    -0.648 A  
HETATM    5  C   UNL     1     -11.947  11.684  64.885  1.00  0.00     0.068 A  
HETATM    6  C   UNL     1     -11.636  12.445  66.034  1.00  0.00    -0.401 A  
HETATM    7  C   UNL     1     -11.487  13.848  65.833  1.00  0.00    -0.325 A  
HETATM    8 CL   UNL     1     -10.888  14.895  67.095  1.00  0.00    -0.304 Cl 
ENDROOT
BRANCH   6   9
HETATM    9  N   UNL     1     -11.557  11.788  67.256  1.00  0.00    -0.531 NA 
HETATM   10  C   UNL     1     -10.847  10.504  67.413  1.00  0.00    -0.291 C  
HETATM   11  C   UNL     1     -10.013  10.477  68.713  1.00  0.00    -0.192 C  
HETATM   12  N   UNL     1     -10.758  10.840  69.940  1.00  0.00    -0.202 NA 
HETATM   13  C   UNL     1     -12.262  12.274  68.461  1.00  0.00     0.148 C  
HETATM   14  C   UNL     1     -11.347  12.181  69.707  1.00  0.00    -0.100 C  
BRANCH  12  15
HETATM   15  C   UNL     1     -11.799   9.853  70.273  1.00  0.00    -0.184 C  
BRANCH  15  16
HETATM   16  C   UNL     1     -12.542  10.157  71.588  1.00  0.00    -0.533 C  
BRANCH  16  17
HETATM   17  C   UNL     1     -13.394   8.999  72.119  1.00  0.00    -0.510 C  
BRANCH  17  18
HETATM   18  C   UNL     1     -12.986   7.688  71.465  1.00  0.00    -0.341 C  
BRANCH  18  19
HETATM   19  O   UNL     1     -11.998   7.019  72.246  1.00  0.00    -0.276 OA 
BRANCH  19  20
HETATM   20  C   UNL     1     -11.237   6.129  71.526  1.00  0.00    -0.288 A  
HETATM   21  C   UNL     1     -11.323   6.258  70.137  1.00  0.00    -0.476 A  
HETATM   22  C   UNL     1     -10.591   5.396  69.320  1.00  0.00    -0.201 A  
HETATM   23  C   UNL     1      -9.769   4.406  69.876  1.00  0.00    -0.291 A  
HETATM   24  C   UNL     1      -9.663   4.307  71.261  1.00  0.00    -0.256 A  
HETATM   25  C   UNL     1      -8.918   3.553  68.982  1.00  0.00    -0.182 C  
HETATM   26  C   UNL     1     -10.387   5.167  72.080  1.00  0.00    -0.274 A  
HETATM   27  C   UNL     1      -9.532   3.394  67.603  1.00  0.00    -0.231 C  
HETATM   28  C   UNL     1     -10.044   4.701  67.043  1.00  0.00    -0.167 C  
HETATM   29  O   UNL     1     -10.035   4.948  65.841  1.00  0.00    -0.185 OA 
HETATM   30  N   UNL     1     -10.640   5.553  67.933  1.00  0.00    -0.183 N  
HETATM   31  H   UNL     1     -11.152   6.352  67.561  1.00  0.00     0.000 HD 
ENDBRANCH  19  20
ENDBRANCH  18  19
ENDBRANCH  17  18
ENDBRANCH  16  17
ENDBRANCH  15  16
ENDBRANCH  12  15
ENDBRANCH   6   9
TORSDOF 7
ENDMDL
MODEL       84
REMARK 921   NORMALIZED FREE ENERGY PREDICTED BY IDOCK:   -5.36 KCAL/MOL
REMARK 922        TOTAL FREE ENERGY PREDICTED BY IDOCK:   -9.15 KCAL/MOL
REMARK 923 INTER-LIGAND FREE ENERGY PREDICTED BY IDOCK:   -8.13 KCAL/MOL
REMARK 924 INTRA-LIGAND FREE ENERGY PREDICTED BY IDOCK:   -1.02 KCAL/MOL
REMARK 927      BINDING AFFINITY PREDICTED BY RF-SCORE:    0.00 PKD
ROOT
HETATM    1 CL   UNL     1     -12.123  16.177  73.275  1.00  0.00    -0.598 Cl 
HETATM    2  C   UNL     1     -12.244  14.896  72.109  1.00  0.00    -0.348 A  
HETATM    3  C   UNL     1     -12.849  13.720  72.546  1.00  0.00    -0.342 A  
HETATM    4  C   UNL     1     -12.967  12.648  71.673  1.00  0.00    -0.400 A  
HETATM    5  C   UNL     1     -12.440  12.742  70.384  1.00  0.00    -0.231 A  
HETATM    6  C   UNL     1     -11.804  13.905  69.896  1.00  0.00    -0.328 A  
HETATM    7  C   UNL     1     -11.755  15.014  70.790  1.00  0.00    -0.320 A  
HETATM    8 CL   UNL     1     -11.207  16.587  70.269  1.00  0.00    -0.267 Cl 
ENDROOT
BRANCH   6   9
HETATM    9  N   UNL     1     -11.236  13.861  68.628  1.00  0.00    -0.255 NA 
HETATM   10  C   UNL     1     -12.045  13.645  67.414  1.00  0.00    -0.337 C  
HETATM   11  C   UNL     1     -11.593  14.573  66.264  1.00  0.00    -0.360 C  
HETATM   12  N   UNL     1     -10.143  14.537  65.965  1.00  0.00    -0.303 NA 
HETATM   13  C   UNL     1      -9.775  13.925  68.414  1.00  0.00    -0.226 C  
HETATM   14  C   UNL     1      -9.435  14.860  67.228  1.00  0.00    -0.213 C  
BRANCH  12  15
HETATM   15  C   UNL     1      -9.715  13.232  65.435  1.00  0.00    -0.007 C  
BRANCH  15  16
HETATM   16  C   UNL     1     -10.478  12.799  64.167  1.00  0.00    -0.437 C  
BRANCH  16  17
HETATM   17  C   UNL     1     -11.056  11.381  64.227  1.00  0.00    -0.356 C  
BRANCH  17  18
HETATM   18  C   UNL     1     -10.367  10.564  65.310  1.00  0.00    -0.229 C  
BRANCH  18  19
HETATM   19  O   UNL     1     -10.998  10.764  66.573  1.00  0.00    -0.192 OA 
BRANCH  19  20
HETATM   20  C   UNL     1     -10.728   9.773  67.486  1.00  0.00    -0.264 A  
HETATM   21  C   UNL     1     -10.593   8.489  66.951  1.00  0.00    -0.279 A  
HETATM   22  C   UNL     1     -10.323   7.414  67.799  1.00  0.00    -0.213 A  
HETATM   23  C   UNL     1     -10.182   7.609  69.179  1.00  0.00    -0.204 A  
HETATM   24  C   UNL     1     -10.284   8.897  69.701  1.00  0.00    -0.209 A  
HETATM   25  C   UNL     1      -9.799   6.457  70.061  1.00  0.00    -0.193 C  
HETATM   26  C   UNL     1     -10.549   9.971  68.859  1.00  0.00    -0.239 A  
HETATM   27  C   UNL     1     -10.263   5.130  69.489  1.00  0.00    -0.318 C  
HETATM   28  C   UNL     1      -9.976   5.006  68.009  1.00  0.00    -0.130 C  
HETATM   29  O   UNL     1      -9.720   3.930  67.480  1.00  0.00    -0.187 OA 
HETATM   30  N   UNL     1     -10.143   6.139  67.260  1.00  0.00    -0.147 N  
HETATM   31  H   UNL     1     -10.135   6.046  66.245  1.00  0.00     0.000 HD 
ENDBRANCH  19  20
ENDBRANCH  18  19
ENDBRANCH  17  18
ENDBRANCH  16  17
ENDBRANCH  15  16
ENDBRANCH  12  15
ENDBRANCH   6   9
TORSDOF 7
ENDMDL
MODEL       85
REMARK 921   NORMALIZED FREE ENERGY PREDICTED BY IDOCK:   -5.34 KCAL/MOL
REMARK 922        TOTAL FREE ENERGY PREDICTED BY IDOCK:   -9.13 KCAL/MOL
REMARK 923 INTER-LIGAND FREE ENERGY PREDICTED BY IDOCK:   -8.60 KCAL/MOL
REMARK 924 INTRA-LIGAND FREE ENERGY PREDICTED BY IDOCK:   -0.52 KCAL/MOL
REMARK 927      BINDING AFFINITY PREDICTED BY RF-SCORE:    0.00 PKD
ROOT
HETATM    1 CL   UNL     1     -10.406   2.802  72.580  1.00  0.00    -0.233 Cl 
HETATM    2  C   UNL     1     -10.356   4.509  72.886  1.00  0.00    -0.184 A  
HETATM    3  C   UNL     1     -10.280   4.895  74.223  1.00  0.00    -0.290 A  
HETATM    4  C   UNL     1     -10.252   6.244  74.544  1.00  0.00    -0.320 A  
HETATM    5  C   UNL     1     -10.345   7.200  73.531  1.00  0.00    -0.412 A  
HETATM    6  C   UNL     1     -10.439   6.864  72.162  1.00  0.00    -0.206 A  
HETATM    7  C   UNL     1     -10.399   5.473  71.855  1.00  0.00    -0.216 A  
HETATM    8 CL   UNL     1     -10.280   4.901  70.210  1.00  0.00    -0.322 Cl 
ENDROOT
BRANCH   6   9
HETATM    9  N   UNL     1     -10.616   7.892  71.244  1.00  0.00    -0.210 NA 
HETATM   10  C   UNL     1     -11.899   8.607  71.105  1.00  0.00    -0.287 C  
HETATM   11  C   UNL     1     -11.681  10.129  70.944  1.00  0.00    -0.378 C  
HETATM   12  N   UNL     1     -10.725  10.513  69.880  1.00  0.00    -0.266 NA 
HETATM   13  C   UNL     1      -9.568   8.274  70.274  1.00  0.00    -0.168 C  
HETATM   14  C   UNL     1      -9.450   9.815  70.173  1.00  0.00    -0.229 C  
BRANCH  12  15
HETATM   15  C   UNL     1     -11.221  10.174  68.535  1.00  0.00    -0.168 C  
BRANCH  15  16
HETATM   16  C   UNL     1     -10.146  10.273  67.436  1.00  0.00    -0.246 C  
BRANCH  16  17
HETATM   17  C   UNL     1     -10.232  11.538  66.576  1.00  0.00    -0.253 C  
BRANCH  17  18
HETATM   18  C   UNL     1     -10.608  12.742  67.426  1.00  0.00    -0.229 C  
BRANCH  18  19
HETATM   19  O   UNL     1     -11.631  13.508  66.794  1.00  0.00    -0.330 OA 
BRANCH  19  20
HETATM   20  C   UNL     1     -11.247  14.792  66.487  1.00  0.00    -0.342 A  
HETATM   21  C   UNL     1     -11.096  15.647  67.582  1.00  0.00    -0.305 A  
HETATM   22  C   UNL     1     -10.714  16.973  67.371  1.00  0.00    -0.240 A  
HETATM   23  C   UNL     1     -10.477  17.453  66.077  1.00  0.00    -0.278 A  
HETATM   24  C   UNL     1     -10.597  16.585  64.994  1.00  0.00    -0.168 A  
HETATM   25  C   UNL     1      -9.975  18.854  65.880  1.00  0.00    -0.172 C  
HETATM   26  C   UNL     1     -10.973  15.262  65.199  1.00  0.00    -0.428 A  
HETATM   27  C   UNL     1     -10.421  19.775  67.001  1.00  0.00    -0.595 C  
HETATM   28  C   UNL     1     -10.244  19.153  68.367  1.00  0.00    -0.389 C  
HETATM   29  O   UNL     1      -9.980  19.821  69.362  1.00  0.00    -0.384 OA 
HETATM   30  N   UNL     1     -10.518  17.816  68.467  1.00  0.00    -0.357 N  
HETATM   31  H   UNL     1     -10.584  17.410  69.400  1.00  0.00     0.000 HD 
ENDBRANCH  19  20
ENDBRANCH  18  19
ENDBRANCH  17  18
ENDBRANCH  16  17
ENDBRANCH  15  16
ENDBRANCH  12  15
ENDBRANCH   6   9
TORSDOF 7
ENDMDL
MODEL       86
REMARK 921   NORMALIZED FREE ENERGY PREDICTED BY IDOCK:   -5.33 KCAL/MOL
REMARK 922        TOTAL FREE ENERGY PREDICTED BY IDOCK:   -9.11 KCAL/MOL
REMARK 923 INTER-LIGAND FREE ENERGY PREDICTED BY IDOCK:   -8.26 KCAL/MOL
REMARK 924 INTRA-LIGAND FREE ENERGY PREDICTED BY IDOCK:   -0.86 KCAL/MOL
REMARK 927      BINDING AFFINITY PREDICTED BY RF-SCORE:    0.00 PKD
ROOT
HETATM    1 CL   UNL     1     -10.783  19.802  65.339  1.00  0.00    -0.398 Cl 
HETATM    2  C   UNL     1     -10.445  18.687  66.625  1.00  0.00    -0.413 A  
HETATM    3  C   UNL     1     -10.194  19.246  67.877  1.00  0.00    -0.511 A  
HETATM    4  C   UNL     1      -9.902  18.415  68.949  1.00  0.00    -0.350 A  
HETATM    5  C   UNL     1      -9.817  17.036  68.755  1.00  0.00    -0.278 A  
HETATM    6  C   UNL     1     -10.046  16.419  67.505  1.00  0.00    -0.261 A  
HETATM    7  C   UNL     1     -10.410  17.288  66.435  1.00  0.00    -0.316 A  
HETATM    8 CL   UNL     1     -10.943  16.669  64.893  1.00  0.00    -0.283 Cl 
ENDROOT
BRANCH   6   9
HETATM    9  N   UNL     1      -9.849  15.047  67.403  1.00  0.00    -0.224 NA 
HETATM   10  C   UNL     1      -8.524  14.464  67.122  1.00  0.00    -0.208 C  
HETATM   11  C   UNL     1      -8.260  13.217  67.996  1.00  0.00    -0.162 C  
HETATM   12  N   UNL     1      -9.326  12.190  67.956  1.00  0.00    -0.192 NA 
HETATM   13  C   UNL     1     -10.966  14.082  67.468  1.00  0.00    -0.277 C  
HETATM   14  C   UNL     1     -10.588  12.864  68.347  1.00  0.00    -0.253 C  
BRANCH  12  15
HETATM   15  C   UNL     1      -9.446  11.562  66.630  1.00  0.00    -0.193 C  
BRANCH  15  16
HETATM   16  C   UNL     1      -9.324  10.026  66.659  1.00  0.00    -0.202 C  
BRANCH  16  17
HETATM   17  C   UNL     1     -10.511   9.307  67.308  1.00  0.00    -0.334 C  
BRANCH  17  18
HETATM   18  C   UNL     1     -10.483   7.821  66.982  1.00  0.00    -0.349 C  
BRANCH  18  19
HETATM   19  O   UNL     1      -9.531   7.142  67.799  1.00  0.00    -0.126 OA 
BRANCH  19  20
HETATM   20  C   UNL     1      -9.907   7.045  69.118  1.00  0.00    -0.158 A  
HETATM   21  C   UNL     1      -9.009   7.598  70.036  1.00  0.00    -0.143 A  
HETATM   22  C   UNL     1      -9.300   7.543  71.399  1.00  0.00    -0.141 A  
HETATM   23  C   UNL     1     -10.481   6.945  71.857  1.00  0.00    -0.224 A  
HETATM   24  C   UNL     1     -11.386   6.427  70.933  1.00  0.00    -0.398 A  
HETATM   25  C   UNL     1     -10.819   6.982  73.319  1.00  0.00    -0.345 C  
HETATM   26  C   UNL     1     -11.103   6.483  69.573  1.00  0.00    -0.425 A  
HETATM   27  C   UNL     1      -9.574   7.047  74.184  1.00  0.00    -0.298 C  
HETATM   28  C   UNL     1      -8.566   8.051  73.673  1.00  0.00    -0.260 C  
HETATM   29  O   UNL     1      -7.826   8.677  74.425  1.00  0.00    -0.380 OA 
HETATM   30  N   UNL     1      -8.427   8.136  72.314  1.00  0.00    -0.154 N  
HETATM   31  H   UNL     1      -7.636   8.665  71.947  1.00  0.00     0.000 HD 
ENDBRANCH  19  20
ENDBRANCH  18  19
ENDBRANCH  17  18
ENDBRANCH  16  17
ENDBRANCH  15  16
ENDBRANCH  12  15
ENDBRANCH   6   9
TORSDOF 7
ENDMDL
MODEL       87
REMARK 921   NORMALIZED FREE ENERGY PREDICTED BY IDOCK:   -5.32 KCAL/MOL
REMARK 922        TOTAL FREE ENERGY PREDICTED BY IDOCK:   -9.09 KCAL/MOL
REMARK 923 INTER-LIGAND FREE ENERGY PREDICTED BY IDOCK:   -8.02 KCAL/MOL
REMARK 924 INTRA-LIGAND FREE ENERGY PREDICTED BY IDOCK:   -1.08 KCAL/MOL
REMARK 927      BINDING AFFINITY PREDICTED BY RF-SCORE:    0.00 PKD
ROOT
HETATM    1 CL   UNL     1     -12.135  14.828  64.443  1.00  0.00    -0.490 Cl 
HETATM    2  C   UNL     1     -11.362  13.284  64.619  1.00  0.00    -0.346 A  
HETATM    3  C   UNL     1     -11.212  12.533  63.456  1.00  0.00    -0.525 A  
HETATM    4  C   UNL     1     -10.616  11.282  63.524  1.00  0.00    -0.436 A  
HETATM    5  C   UNL     1     -10.215  10.771  64.759  1.00  0.00    -0.403 A  
HETATM    6  C   UNL     1     -10.359  11.483  65.970  1.00  0.00    -0.246 A  
HETATM    7  C   UNL     1     -10.912  12.792  65.864  1.00  0.00    -0.274 A  
HETATM    8 CL   UNL     1     -10.950  13.884  67.226  1.00  0.00    -0.292 Cl 
ENDROOT
BRANCH   6   9
HETATM    9  N   UNL     1     -10.008  10.845  67.154  1.00  0.00    -0.184 NA 
HETATM   10  C   UNL     1     -11.008  10.194  68.021  1.00  0.00    -0.270 C  
HETATM   11  C   UNL     1     -10.496   8.835  68.550  1.00  0.00    -0.175 C  
HETATM   12  N   UNL     1      -9.164   8.879  69.194  1.00  0.00    -0.144 NA 
HETATM   13  C   UNL     1      -8.626  10.859  67.679  1.00  0.00    -0.124 C  
HETATM   14  C   UNL     1      -8.224   9.459  68.204  1.00  0.00    -0.118 C  
BRANCH  12  15
HETATM   15  C   UNL     1      -9.173   9.662  70.441  1.00  0.00    -0.202 C  
BRANCH  15  16
HETATM   16  C   UNL     1     -10.221   9.185  71.465  1.00  0.00    -0.403 C  
BRANCH  16  17
HETATM   17  C   UNL     1      -9.646   8.383  72.637  1.00  0.00    -0.337 C  
BRANCH  17  18
HETATM   18  C   UNL     1     -10.683   7.415  73.187  1.00  0.00    -0.387 C  
BRANCH  18  19
HETATM   19  O   UNL     1     -11.408   6.794  72.127  1.00  0.00    -0.251 OA 
BRANCH  19  20
HETATM   20  C   UNL     1     -10.752   5.725  71.564  1.00  0.00    -0.258 A  
HETATM   21  C   UNL     1     -10.655   5.753  70.170  1.00  0.00    -0.377 A  
HETATM   22  C   UNL     1     -10.011   4.709  69.504  1.00  0.00    -0.196 A  
HETATM   23  C   UNL     1      -9.458   3.637  70.218  1.00  0.00    -0.257 A  
HETATM   24  C   UNL     1      -9.530   3.635  71.609  1.00  0.00    -0.215 A  
HETATM   25  C   UNL     1      -8.688   2.574  69.491  1.00  0.00    -0.129 C  
HETATM   26  C   UNL     1     -10.166   4.675  72.277  1.00  0.00    -0.256 A  
HETATM   27  C   UNL     1      -9.161   2.415  68.058  1.00  0.00    -0.254 C  
HETATM   28  C   UNL     1      -9.351   3.743  67.360  1.00  0.00    -0.198 C  
HETATM   29  O   UNL     1      -9.160   3.884  66.157  1.00  0.00    -0.131 OA 
HETATM   30  N   UNL     1      -9.873   4.758  68.116  1.00  0.00    -0.142 N  
HETATM   31  H   UNL     1     -10.180   5.603  67.634  1.00  0.00     0.000 HD 
ENDBRANCH  19  20
ENDBRANCH  18  19
ENDBRANCH  17  18
ENDBRANCH  16  17
ENDBRANCH  15  16
ENDBRANCH  12  15
ENDBRANCH   6   9
TORSDOF 7
ENDMDL
MODEL       88
REMARK 921   NORMALIZED FREE ENERGY PREDICTED BY IDOCK:   -5.29 KCAL/MOL
REMARK 922        TOTAL FREE ENERGY PREDICTED BY IDOCK:   -9.05 KCAL/MOL
REMARK 923 INTER-LIGAND FREE ENERGY PREDICTED BY IDOCK:   -7.48 KCAL/MOL
REMARK 924 INTRA-LIGAND FREE ENERGY PREDICTED BY IDOCK:   -1.57 KCAL/MOL
REMARK 927      BINDING AFFINITY PREDICTED BY RF-SCORE:    0.00 PKD
ROOT
HETATM    1 CL   UNL     1     -12.740  11.909  63.258  1.00  0.00    -0.609 Cl 
HETATM    2  C   UNL     1     -11.505  12.311  64.409  1.00  0.00    -0.354 A  
HETATM    3  C   UNL     1     -10.648  11.278  64.780  1.00  0.00    -0.376 A  
HETATM    4  C   UNL     1      -9.645  11.522  65.708  1.00  0.00    -0.259 A  
HETATM    5  C   UNL     1      -9.534  12.785  66.292  1.00  0.00    -0.198 A  
HETATM    6  C   UNL     1     -10.386  13.863  65.963  1.00  0.00    -0.305 A  
HETATM    7  C   UNL     1     -11.364  13.604  64.960  1.00  0.00    -0.329 A  
HETATM    8 CL   UNL     1     -12.342  14.881  64.282  1.00  0.00    -0.448 Cl 
ENDROOT
BRANCH   6   9
HETATM    9  N   UNL     1     -10.245  15.052  66.669  1.00  0.00    -0.262 NA 
HETATM   10  C   UNL     1      -9.611  16.245  66.078  1.00  0.00    -0.337 C  
HETATM   11  C   UNL     1     -10.388  17.532  66.437  1.00  0.00    -0.334 C  
HETATM   12  N   UNL     1     -10.654  17.717  67.881  1.00  0.00    -0.395 NA 
HETATM   13  C   UNL     1     -10.626  15.175  68.092  1.00  0.00    -0.246 C  
HETATM   14  C   UNL     1     -11.375  16.506  68.346  1.00  0.00    -0.209 C  
BRANCH  12  15
HETATM   15  C   UNL     1      -9.419  17.930  68.654  1.00  0.00    -0.298 C  
BRANCH  15  16
HETATM   16  C   UNL     1      -8.853  19.359  68.536  1.00  0.00    -0.411 C  
BRANCH  16  17
HETATM   17  C   UNL     1      -7.327  19.430  68.418  1.00  0.00    -0.347 C  
BRANCH  17  18
HETATM   18  C   UNL     1      -6.673  18.312  69.216  1.00  0.00    -0.217 C  
BRANCH  18  19
HETATM   19  O   UNL     1      -6.046  17.370  68.348  1.00  0.00    -0.155 OA 
BRANCH  19  20
HETATM   20  C   UNL     1      -6.094  16.077  68.812  1.00  0.00    -0.110 A  
HETATM   21  C   UNL     1      -6.148  15.090  67.824  1.00  0.00    -0.154 A  
HETATM   22  C   UNL     1      -6.204  13.747  68.196  1.00  0.00    -0.126 A  
HETATM   23  C   UNL     1      -6.203  13.377  69.547  1.00  0.00    -0.114 A  
HETATM   24  C   UNL     1      -6.114  14.365  70.525  1.00  0.00    -0.185 A  
HETATM   25  C   UNL     1      -6.168  11.924  69.924  1.00  0.00    -0.139 C  
HETATM   26  C   UNL     1      -6.053  15.705  70.159  1.00  0.00    -0.114 A  
HETATM   27  C   UNL     1      -6.809  11.051  68.861  1.00  0.00    -0.079 C  
HETATM   28  C   UNL     1      -6.368  11.422  67.464  1.00  0.00    -0.069 C  
HETATM   29  O   UNL     1      -6.264  10.592  66.567  1.00  0.00    -0.078 OA 
HETATM   30  N   UNL     1      -6.213  12.758  67.210  1.00  0.00    -0.227 N  
HETATM   31  H   UNL     1      -6.095  13.050  66.240  1.00  0.00     0.000 HD 
ENDBRANCH  19  20
ENDBRANCH  18  19
ENDBRANCH  17  18
ENDBRANCH  16  17
ENDBRANCH  15  16
ENDBRANCH  12  15
ENDBRANCH   6   9
TORSDOF 7
ENDMDL
MODEL       89
REMARK 921   NORMALIZED FREE ENERGY PREDICTED BY IDOCK:   -5.25 KCAL/MOL
REMARK 922        TOTAL FREE ENERGY PREDICTED BY IDOCK:   -9.00 KCAL/MOL
REMARK 923 INTER-LIGAND FREE ENERGY PREDICTED BY IDOCK:   -8.11 KCAL/MOL
REMARK 924 INTRA-LIGAND FREE ENERGY PREDICTED BY IDOCK:   -0.89 KCAL/MOL
REMARK 927      BINDING AFFINITY PREDICTED BY RF-SCORE:    0.00 PKD
ROOT
HETATM    1 CL   UNL     1      -9.999   7.785  71.336  1.00  0.00    -0.199 Cl 
HETATM    2  C   UNL     1     -10.867   9.246  70.981  1.00  0.00    -0.314 A  
HETATM    3  C   UNL     1     -12.054   9.444  71.683  1.00  0.00    -0.462 A  
HETATM    4  C   UNL     1     -12.809  10.583  71.440  1.00  0.00    -0.551 A  
HETATM    5  C   UNL     1     -12.397  11.493  70.466  1.00  0.00    -0.432 A  
HETATM    6  C   UNL     1     -11.212  11.332  69.715  1.00  0.00    -0.220 A  
HETATM    7  C   UNL     1     -10.421  10.189  70.030  1.00  0.00    -0.274 A  
HETATM    8 CL   UNL     1      -8.826   9.964  69.356  1.00  0.00    -0.178 Cl 
ENDROOT
BRANCH   6   9
HETATM    9  N   UNL     1     -10.942  12.252  68.708  1.00  0.00    -0.228 NA 
HETATM   10  C   UNL     1     -12.008  13.028  68.047  1.00  0.00    -0.290 C  
HETATM   11  C   UNL     1     -11.589  14.501  67.843  1.00  0.00    -0.344 C  
HETATM   12  N   UNL     1     -10.283  14.691  67.173  1.00  0.00    -0.254 NA 
HETATM   13  C   UNL     1      -9.583  12.445  68.158  1.00  0.00    -0.218 C  
HETATM   14  C   UNL     1      -9.276  13.951  67.972  1.00  0.00    -0.193 C  
BRANCH  12  15
HETATM   15  C   UNL     1     -10.300  14.226  65.776  1.00  0.00    -0.327 C  
BRANCH  15  16
HETATM   16  C   UNL     1     -11.388  14.895  64.913  1.00  0.00    -0.415 C  
BRANCH  16  17
HETATM   17  C   UNL     1     -12.132  13.938  63.976  1.00  0.00    -0.437 C  
BRANCH  17  18
HETATM   18  C   UNL     1     -11.915  12.493  64.398  1.00  0.00    -0.404 C  
BRANCH  18  19
HETATM   19  O   UNL     1     -10.989  11.845  63.528  1.00  0.00    -0.396 OA 
BRANCH  19  20
HETATM   20  C   UNL     1     -10.275  10.839  64.134  1.00  0.00    -0.344 A  
HETATM   21  C   UNL     1      -9.254  10.283  63.360  1.00  0.00    -0.321 A  
HETATM   22  C   UNL     1      -8.476   9.251  63.886  1.00  0.00    -0.190 A  
HETATM   23  C   UNL     1      -8.705   8.770  65.182  1.00  0.00    -0.202 A  
HETATM   24  C   UNL     1      -9.703   9.354  65.960  1.00  0.00    -0.345 A  
HETATM   25  C   UNL     1      -7.797   7.726  65.763  1.00  0.00    -0.104 C  
HETATM   26  C   UNL     1     -10.477  10.385  65.441  1.00  0.00    -0.187 A  
HETATM   27  C   UNL     1      -7.185   6.849  64.687  1.00  0.00    -0.076 C  
HETATM   28  C   UNL     1      -6.671   7.648  63.511  1.00  0.00    -0.058 C  
HETATM   29  O   UNL     1      -5.697   7.296  62.855  1.00  0.00    -0.043 OA 
HETATM   30  N   UNL     1      -7.426   8.725  63.131  1.00  0.00    -0.100 N  
HETATM   31  H   UNL     1      -7.207   9.171  62.240  1.00  0.00     0.000 HD 
ENDBRANCH  19  20
ENDBRANCH  18  19
ENDBRANCH  17  18
ENDBRANCH  16  17
ENDBRANCH  15  16
ENDBRANCH  12  15
ENDBRANCH   6   9
TORSDOF 7
ENDMDL
MODEL       90
REMARK 921   NORMALIZED FREE ENERGY PREDICTED BY IDOCK:   -5.24 KCAL/MOL
REMARK 922        TOTAL FREE ENERGY PREDICTED BY IDOCK:   -8.99 KCAL/MOL
REMARK 923 INTER-LIGAND FREE ENERGY PREDICTED BY IDOCK:   -8.10 KCAL/MOL
REMARK 924 INTRA-LIGAND FREE ENERGY PREDICTED BY IDOCK:   -0.89 KCAL/MOL
REMARK 927      BINDING AFFINITY PREDICTED BY RF-SCORE:    0.00 PKD
ROOT
HETATM    1 CL   UNL     1     -12.582  12.687  63.418  1.00  0.00    -0.455 Cl 
HETATM    2  C   UNL     1     -11.962  12.897  65.025  1.00  0.00    -0.405 A  
HETATM    3  C   UNL     1     -12.556  13.898  65.790  1.00  0.00    -0.533 A  
HETATM    4  C   UNL     1     -12.102  14.132  67.080  1.00  0.00    -0.449 A  
HETATM    5  C   UNL     1     -11.028  13.396  67.581  1.00  0.00    -0.277 A  
HETATM    6  C   UNL     1     -10.379  12.382  66.843  1.00  0.00    -0.224 A  
HETATM    7  C   UNL     1     -10.907  12.115  65.546  1.00  0.00    -0.283 A  
HETATM    8 CL   UNL     1     -10.369  10.751  64.600  1.00  0.00    -0.412 Cl 
ENDROOT
BRANCH   6   9
HETATM    9  N   UNL     1      -9.262  11.772  67.404  1.00  0.00    -0.171 NA 
HETATM   10  C   UNL     1      -9.374  10.618  68.315  1.00  0.00    -0.156 C  
HETATM   11  C   UNL     1      -8.303   9.548  68.004  1.00  0.00    -0.118 C  
HETATM   12  N   UNL     1      -6.914  10.058  67.939  1.00  0.00    -0.083 NA 
HETATM   13  C   UNL     1      -7.895  12.297  67.209  1.00  0.00    -0.171 C  
HETATM   14  C   UNL     1      -6.900  11.144  66.928  1.00  0.00    -0.127 C  
BRANCH  12  15
HETATM   15  C   UNL     1      -6.434  10.540  69.245  1.00  0.00    -0.055 C  
BRANCH  15  16
HETATM   16  C   UNL     1      -7.004   9.755  70.442  1.00  0.00    -0.139 C  
BRANCH  16  17
HETATM   17  C   UNL     1      -6.386   8.368  70.644  1.00  0.00    -0.036 C  
BRANCH  17  18
HETATM   18  C   UNL     1      -7.364   7.442  71.352  1.00  0.00    -0.079 C  
BRANCH  18  19
HETATM   19  O   UNL     1      -8.250   6.830  70.417  1.00  0.00    -0.121 OA 
BRANCH  19  20
HETATM   20  C   UNL     1      -9.579   6.994  70.729  1.00  0.00    -0.164 A  
HETATM   21  C   UNL     1      -9.976   8.312  70.969  1.00  0.00    -0.226 A  
HETATM   22  C   UNL     1     -11.306   8.580  71.299  1.00  0.00    -0.271 A  
HETATM   23  C   UNL     1     -12.245   7.543  71.388  1.00  0.00    -0.363 A  
HETATM   24  C   UNL     1     -11.847   6.237  71.114  1.00  0.00    -0.234 A  
HETATM   25  C   UNL     1     -13.687   7.864  71.651  1.00  0.00    -0.422 C  
HETATM   26  C   UNL     1     -10.525   5.966  70.780  1.00  0.00    -0.311 A  
HETATM   27  C   UNL     1     -13.845   9.149  72.441  1.00  0.00    -0.524 C  
HETATM   28  C   UNL     1     -12.965  10.262  71.919  1.00  0.00    -0.449 C  
HETATM   29  O   UNL     1     -13.297  11.441  71.973  1.00  0.00    -0.467 OA 
HETATM   30  N   UNL     1     -11.715   9.900  71.495  1.00  0.00    -0.372 N  
HETATM   31  H   UNL     1     -11.040  10.642  71.309  1.00  0.00     0.000 HD 
ENDBRANCH  19  20
ENDBRANCH  18  19
ENDBRANCH  17  18
ENDBRANCH  16  17
ENDBRANCH  15  16
ENDBRANCH  12  15
ENDBRANCH   6   9
TORSDOF 7
ENDMDL
MODEL       91
REMARK 921   NORMALIZED FREE ENERGY PREDICTED BY IDOCK:   -5.23 KCAL/MOL
REMARK 922        TOTAL FREE ENERGY PREDICTED BY IDOCK:   -8.97 KCAL/MOL
REMARK 923 INTER-LIGAND FREE ENERGY PREDICTED BY IDOCK:   -8.25 KCAL/MOL
REMARK 924 INTRA-LIGAND FREE ENERGY PREDICTED BY IDOCK:   -0.72 KCAL/MOL
REMARK 927      BINDING AFFINITY PREDICTED BY RF-SCORE:    0.00 PKD
ROOT
HETATM    1 CL   UNL     1     -10.514  19.843  65.336  1.00  0.00    -0.349 Cl 
HETATM    2  C   UNL     1     -10.500  18.647  66.594  1.00  0.00    -0.413 A  
HETATM    3  C   UNL     1     -10.284  19.115  67.888  1.00  0.00    -0.494 A  
HETATM    4  C   UNL     1     -10.245  18.213  68.942  1.00  0.00    -0.304 A  
HETATM    5  C   UNL     1     -10.376  16.847  68.691  1.00  0.00    -0.332 A  
HETATM    6  C   UNL     1     -10.580  16.318  67.397  1.00  0.00    -0.307 A  
HETATM    7  C   UNL     1     -10.683  17.270  66.341  1.00  0.00    -0.072 A  
HETATM    8 CL   UNL     1     -11.156  16.801  64.728  1.00  0.00    -0.220 Cl 
ENDROOT
BRANCH   6   9
HETATM    9  N   UNL     1     -10.609  14.936  67.248  1.00  0.00    -0.268 NA 
HETATM   10  C   UNL     1      -9.386  14.115  67.317  1.00  0.00    -0.225 C  
HETATM   11  C   UNL     1      -9.622  12.821  68.129  1.00  0.00    -0.223 C  
HETATM   12  N   UNL     1     -10.792  12.021  67.702  1.00  0.00    -0.222 NA 
HETATM   13  C   UNL     1     -11.848  14.204  66.911  1.00  0.00    -0.431 C  
HETATM   14  C   UNL     1     -11.973  12.917  67.762  1.00  0.00    -0.283 C  
BRANCH  12  15
HETATM   15  C   UNL     1     -10.620  11.458  66.352  1.00  0.00    -0.263 C  
BRANCH  15  16
HETATM   16  C   UNL     1      -9.705  10.219  66.310  1.00  0.00    -0.263 C  
BRANCH  16  17
HETATM   17  C   UNL     1     -10.329   8.948  66.895  1.00  0.00    -0.332 C  
BRANCH  17  18
HETATM   18  C   UNL     1      -9.861   8.729  68.326  1.00  0.00    -0.165 C  
BRANCH  18  19
HETATM   19  O   UNL     1     -10.920   8.977  69.249  1.00  0.00    -0.161 OA 
BRANCH  19  20
HETATM   20  C   UNL     1     -10.799   8.279  70.427  1.00  0.00    -0.235 A  
HETATM   21  C   UNL     1     -10.677   6.894  70.290  1.00  0.00    -0.274 A  
HETATM   22  C   UNL     1     -10.554   6.098  71.429  1.00  0.00    -0.243 A  
HETATM   23  C   UNL     1     -10.547   6.673  72.707  1.00  0.00    -0.260 A  
HETATM   24  C   UNL     1     -10.635   8.057  72.833  1.00  0.00    -0.399 A  
HETATM   25  C   UNL     1     -10.319   5.809  73.913  1.00  0.00    -0.286 C  
HETATM   26  C   UNL     1     -10.753   8.855  71.700  1.00  0.00    -0.418 A  
HETATM   27  C   UNL     1     -10.790   4.385  73.684  1.00  0.00    -0.367 C  
HETATM   28  C   UNL     1     -10.359   3.841  72.341  1.00  0.00    -0.114 C  
HETATM   29  O   UNL     1     -10.106   2.654  72.166  1.00  0.00    -0.164 OA 
HETATM   30  N   UNL     1     -10.387   4.719  71.292  1.00  0.00    -0.159 N  
HETATM   31  H   UNL     1     -10.278   4.342  70.351  1.00  0.00     0.000 HD 
ENDBRANCH  19  20
ENDBRANCH  18  19
ENDBRANCH  17  18
ENDBRANCH  16  17
ENDBRANCH  15  16
ENDBRANCH  12  15
ENDBRANCH   6   9
TORSDOF 7
ENDMDL
MODEL       92
REMARK 921   NORMALIZED FREE ENERGY PREDICTED BY IDOCK:   -5.22 KCAL/MOL
REMARK 922        TOTAL FREE ENERGY PREDICTED BY IDOCK:   -8.95 KCAL/MOL
REMARK 923 INTER-LIGAND FREE ENERGY PREDICTED BY IDOCK:   -8.35 KCAL/MOL
REMARK 924 INTRA-LIGAND FREE ENERGY PREDICTED BY IDOCK:   -0.60 KCAL/MOL
REMARK 927      BINDING AFFINITY PREDICTED BY RF-SCORE:    0.00 PKD
ROOT
HETATM    1 CL   UNL     1      -6.500  21.251  67.380  1.00  0.00    -0.428 Cl 
HETATM    2  C   UNL     1      -6.803  19.665  68.016  1.00  0.00    -0.253 A  
HETATM    3  C   UNL     1      -5.944  19.229  69.021  1.00  0.00    -0.257 A  
HETATM    4  C   UNL     1      -6.117  17.965  69.566  1.00  0.00    -0.249 A  
HETATM    5  C   UNL     1      -7.118  17.128  69.073  1.00  0.00    -0.232 A  
HETATM    6  C   UNL     1      -8.006  17.514  68.044  1.00  0.00    -0.234 A  
HETATM    7  C   UNL     1      -7.850  18.841  67.548  1.00  0.00    -0.233 A  
HETATM    8 CL   UNL     1      -9.001  19.546  66.442  1.00  0.00    -0.388 Cl 
ENDROOT
BRANCH   6   9
HETATM    9  N   UNL     1      -8.909  16.571  67.566  1.00  0.00    -0.190 NA 
HETATM   10  C   UNL     1      -9.825  15.839  68.460  1.00  0.00    -0.209 C  
HETATM   11  C   UNL     1     -11.240  15.728  67.849  1.00  0.00    -0.313 C  
HETATM   12  N   UNL     1     -11.283  15.193  66.469  1.00  0.00    -0.322 NA 
HETATM   13  C   UNL     1      -8.945  16.161  66.147  1.00  0.00    -0.337 C  
HETATM   14  C   UNL     1     -10.406  16.058  65.643  1.00  0.00    -0.392 C  
BRANCH  12  15
HETATM   15  C   UNL     1     -10.856  13.785  66.403  1.00  0.00    -0.287 C  
BRANCH  15  16
HETATM   16  C   UNL     1     -11.747  12.829  67.219  1.00  0.00    -0.440 C  
BRANCH  16  17
HETATM   17  C   UNL     1     -11.069  12.229  68.455  1.00  0.00    -0.290 C  
BRANCH  17  18
HETATM   18  C   UNL     1     -11.620  10.843  68.752  1.00  0.00    -0.309 C  
BRANCH  18  19
HETATM   19  O   UNL     1     -12.170  10.787  70.067  1.00  0.00    -0.312 OA 
BRANCH  19  20
HETATM   20  C   UNL     1     -11.829   9.649  70.758  1.00  0.00    -0.300 A  
HETATM   21  C   UNL     1     -10.845   8.858  70.158  1.00  0.00    -0.251 A  
HETATM   22  C   UNL     1     -10.435   7.679  70.781  1.00  0.00    -0.210 A  
HETATM   23  C   UNL     1     -10.996   7.282  72.002  1.00  0.00    -0.271 A  
HETATM   24  C   UNL     1     -11.951   8.092  72.610  1.00  0.00    -0.353 A  
HETATM   25  C   UNL     1     -10.473   6.060  72.701  1.00  0.00    -0.233 C  
HETATM   26  C   UNL     1     -12.360   9.270  71.995  1.00  0.00    -0.433 A  
HETATM   27  C   UNL     1      -9.902   5.051  71.722  1.00  0.00    -0.234 C  
HETATM   28  C   UNL     1      -9.016   5.693  70.679  1.00  0.00    -0.146 C  
HETATM   29  O   UNL     1      -8.051   5.114  70.193  1.00  0.00    -0.080 OA 
HETATM   30  N   UNL     1      -9.420   6.912  70.205  1.00  0.00    -0.163 N  
HETATM   31  H   UNL     1      -8.949   7.284  69.381  1.00  0.00     0.000 HD 
ENDBRANCH  19  20
ENDBRANCH  18  19
ENDBRANCH  17  18
ENDBRANCH  16  17
ENDBRANCH  15  16
ENDBRANCH  12  15
ENDBRANCH   6   9
TORSDOF 7
ENDMDL
MODEL       93
REMARK 921   NORMALIZED FREE ENERGY PREDICTED BY IDOCK:   -5.20 KCAL/MOL
REMARK 922        TOTAL FREE ENERGY PREDICTED BY IDOCK:   -8.93 KCAL/MOL
REMARK 923 INTER-LIGAND FREE ENERGY PREDICTED BY IDOCK:   -7.83 KCAL/MOL
REMARK 924 INTRA-LIGAND FREE ENERGY PREDICTED BY IDOCK:   -1.11 KCAL/MOL
REMARK 927      BINDING AFFINITY PREDICTED BY RF-SCORE:    0.00 PKD
ROOT
HETATM    1 CL   UNL     1      -8.363   5.684  73.070  1.00  0.00    -0.118 Cl 
HETATM    2  C   UNL     1      -8.838   5.503  71.410  1.00  0.00    -0.136 A  
HETATM    3  C   UNL     1      -9.001   4.197  70.954  1.00  0.00    -0.150 A  
HETATM    4  C   UNL     1      -9.365   3.976  69.633  1.00  0.00    -0.243 A  
HETATM    5  C   UNL     1      -9.520   5.058  68.766  1.00  0.00    -0.192 A  
HETATM    6  C   UNL     1      -9.352   6.400  69.172  1.00  0.00    -0.132 A  
HETATM    7  C   UNL     1      -9.043   6.603  70.549  1.00  0.00    -0.152 A  
HETATM    8 CL   UNL     1      -9.024   8.198  71.258  1.00  0.00    -0.164 Cl 
ENDROOT
BRANCH   6   9
HETATM    9  N   UNL     1      -9.443   7.396  68.207  1.00  0.00    -0.142 NA 
HETATM   10  C   UNL     1     -10.740   7.928  67.749  1.00  0.00    -0.119 C  
HETATM   11  C   UNL     1     -10.696   9.466  67.597  1.00  0.00    -0.230 C  
HETATM   12  N   UNL     1      -9.576   9.979  66.775  1.00  0.00    -0.174 NA 
HETATM   13  C   UNL     1      -8.256   7.919  67.498  1.00  0.00    -0.124 C  
HETATM   14  C   UNL     1      -8.324   9.462  67.380  1.00  0.00    -0.125 C  
BRANCH  12  15
HETATM   15  C   UNL     1      -9.690   9.577  65.363  1.00  0.00    -0.244 C  
BRANCH  15  16
HETATM   16  C   UNL     1      -9.127  10.618  64.376  1.00  0.00    -0.240 C  
BRANCH  16  17
HETATM   17  C   UNL     1     -10.073  10.978  63.225  1.00  0.00    -0.400 C  
BRANCH  17  18
HETATM   18  C   UNL     1     -11.148  11.946  63.697  1.00  0.00    -0.440 C  
BRANCH  18  19
HETATM   19  O   UNL     1     -10.577  13.203  64.053  1.00  0.00    -0.402 OA 
BRANCH  19  20
HETATM   20  C   UNL     1     -10.909  13.620  65.320  1.00  0.00    -0.322 A  
HETATM   21  C   UNL     1     -10.516  14.921  65.642  1.00  0.00    -0.366 A  
HETATM   22  C   UNL     1     -10.803  15.433  66.908  1.00  0.00    -0.313 A  
HETATM   23  C   UNL     1     -11.484  14.659  67.856  1.00  0.00    -0.350 A  
HETATM   24  C   UNL     1     -11.902  13.374  67.515  1.00  0.00    -0.408 A  
HETATM   25  C   UNL     1     -11.866  15.261  69.177  1.00  0.00    -0.345 C  
HETATM   26  C   UNL     1     -11.622  12.862  66.254  1.00  0.00    -0.424 A  
HETATM   27  C   UNL     1     -10.912  16.366  69.590  1.00  0.00    -0.329 C  
HETATM   28  C   UNL     1     -10.595  17.312  68.454  1.00  0.00    -0.368 C  
HETATM   29  O   UNL     1     -10.365  18.503  68.638  1.00  0.00    -0.357 OA 
HETATM   30  N   UNL     1     -10.452  16.749  67.215  1.00  0.00    -0.321 N  
HETATM   31  H   UNL     1     -10.064  17.327  66.470  1.00  0.00     0.000 HD 
ENDBRANCH  19  20
ENDBRANCH  18  19
ENDBRANCH  17  18
ENDBRANCH  16  17
ENDBRANCH  15  16
ENDBRANCH  12  15
ENDBRANCH   6   9
TORSDOF 7
ENDMDL
MODEL       94
REMARK 921   NORMALIZED FREE ENERGY PREDICTED BY IDOCK:   -5.18 KCAL/MOL
REMARK 922        TOTAL FREE ENERGY PREDICTED BY IDOCK:   -8.90 KCAL/MOL
REMARK 923 INTER-LIGAND FREE ENERGY PREDICTED BY IDOCK:   -8.26 KCAL/MOL
REMARK 924 INTRA-LIGAND FREE ENERGY PREDICTED BY IDOCK:   -0.65 KCAL/MOL
REMARK 927      BINDING AFFINITY PREDICTED BY RF-SCORE:    0.00 PKD
ROOT
HETATM    1 CL   UNL     1      -7.852  20.188  65.919  1.00  0.00    -0.276 Cl 
HETATM    2  C   UNL     1      -7.712  18.518  66.370  1.00  0.00    -0.264 A  
HETATM    3  C   UNL     1      -6.442  18.083  66.741  1.00  0.00    -0.218 A  
HETATM    4  C   UNL     1      -6.252  16.756  67.100  1.00  0.00    -0.216 A  
HETATM    5  C   UNL     1      -7.323  15.863  67.043  1.00  0.00    -0.243 A  
HETATM    6  C   UNL     1      -8.627  16.247  66.659  1.00  0.00    -0.267 A  
HETATM    7  C   UNL     1      -8.809  17.629  66.360  1.00  0.00    -0.236 A  
HETATM    8 CL   UNL     1     -10.395  18.306  66.089  1.00  0.00    -0.427 Cl 
ENDROOT
BRANCH   6   9
HETATM    9  N   UNL     1      -9.599  15.259  66.551  1.00  0.00    -0.253 NA 
HETATM   10  C   UNL     1     -10.169  14.587  67.734  1.00  0.00    -0.226 C  
HETATM   11  C   UNL     1     -11.698  14.413  67.600  1.00  0.00    -0.391 C  
HETATM   12  N   UNL     1     -12.146  13.773  66.342  1.00  0.00    -0.431 NA 
HETATM   13  C   UNL     1     -10.057  14.742  65.245  1.00  0.00    -0.354 C  
HETATM   14  C   UNL     1     -11.597  14.583  65.227  1.00  0.00    -0.359 C  
BRANCH  12  15
HETATM   15  C   UNL     1     -11.710  12.369  66.245  1.00  0.00    -0.395 C  
BRANCH  15  16
HETATM   16  C   UNL     1     -11.777  11.606  67.581  1.00  0.00    -0.300 C  
BRANCH  16  17
HETATM   17  C   UNL     1     -10.576  10.695  67.853  1.00  0.00    -0.266 C  
BRANCH  17  18
HETATM   18  C   UNL     1     -10.392  10.479  69.348  1.00  0.00    -0.234 C  
BRANCH  18  19
HETATM   19  O   UNL     1     -11.551   9.875  69.919  1.00  0.00    -0.214 OA 
BRANCH  19  20
HETATM   20  C   UNL     1     -11.268   8.823  70.756  1.00  0.00    -0.266 A  
HETATM   21  C   UNL     1     -10.888   7.639  70.118  1.00  0.00    -0.255 A  
HETATM   22  C   UNL     1     -10.585   6.512  70.883  1.00  0.00    -0.230 A  
HETATM   23  C   UNL     1     -10.655   6.556  72.282  1.00  0.00    -0.238 A  
HETATM   24  C   UNL     1     -11.003   7.749  72.911  1.00  0.00    -0.467 A  
HETATM   25  C   UNL     1     -10.235   5.362  73.088  1.00  0.00    -0.216 C  
HETATM   26  C   UNL     1     -11.300   8.876  72.153  1.00  0.00    -0.369 A  
HETATM   27  C   UNL     1     -10.431   4.066  72.323  1.00  0.00    -0.121 C  
HETATM   28  C   UNL     1      -9.939   4.157  70.896  1.00  0.00    -0.136 C  
HETATM   29  O   UNL     1      -9.468   3.192  70.303  1.00  0.00    -0.160 OA 
HETATM   30  N   UNL     1     -10.161   5.342  70.250  1.00  0.00    -0.227 N  
HETATM   31  H   UNL     1     -10.006   5.373  69.242  1.00  0.00     0.000 HD 
ENDBRANCH  19  20
ENDBRANCH  18  19
ENDBRANCH  17  18
ENDBRANCH  16  17
ENDBRANCH  15  16
ENDBRANCH  12  15
ENDBRANCH   6   9
TORSDOF 7
ENDMDL
MODEL       95
REMARK 921   NORMALIZED FREE ENERGY PREDICTED BY IDOCK:   -5.18 KCAL/MOL
REMARK 922        TOTAL FREE ENERGY PREDICTED BY IDOCK:   -8.90 KCAL/MOL
REMARK 923 INTER-LIGAND FREE ENERGY PREDICTED BY IDOCK:   -7.83 KCAL/MOL
REMARK 924 INTRA-LIGAND FREE ENERGY PREDICTED BY IDOCK:   -1.07 KCAL/MOL
REMARK 927      BINDING AFFINITY PREDICTED BY RF-SCORE:    0.00 PKD
ROOT
HETATM    1 CL   UNL     1     -10.860   4.693  72.868  1.00  0.00    -0.290 Cl 
HETATM    2  C   UNL     1     -10.126   4.750  71.297  1.00  0.00    -0.188 A  
HETATM    3  C   UNL     1      -9.543   3.568  70.844  1.00  0.00    -0.242 A  
HETATM    4  C   UNL     1      -8.925   3.543  69.603  1.00  0.00    -0.174 A  
HETATM    5  C   UNL     1      -8.852   4.710  68.841  1.00  0.00    -0.128 A  
HETATM    6  C   UNL     1      -9.411   5.938  69.259  1.00  0.00    -0.128 A  
HETATM    7  C   UNL     1     -10.098   5.920  70.507  1.00  0.00    -0.197 A  
HETATM    8 CL   UNL     1     -11.032   7.288  71.058  1.00  0.00    -0.264 Cl 
ENDROOT
BRANCH   6   9
HETATM    9  N   UNL     1      -9.204   7.059  68.463  1.00  0.00    -0.137 NA 
HETATM   10  C   UNL     1     -10.123   7.426  67.370  1.00  0.00    -0.211 C  
HETATM   11  C   UNL     1     -10.387   8.948  67.343  1.00  0.00    -0.269 C  
HETATM   12  N   UNL     1      -9.170   9.792  67.337  1.00  0.00    -0.134 NA 
HETATM   13  C   UNL     1      -7.998   7.904  68.589  1.00  0.00    -0.124 C  
HETATM   14  C   UNL     1      -8.372   9.406  68.526  1.00  0.00    -0.118 C  
BRANCH  12  15
HETATM   15  C   UNL     1      -8.390   9.637  66.098  1.00  0.00    -0.119 C  
BRANCH  15  16
HETATM   16  C   UNL     1      -8.623  10.765  65.074  1.00  0.00    -0.115 C  
BRANCH  16  17
HETATM   17  C   UNL     1      -9.722  10.473  64.048  1.00  0.00    -0.383 C  
BRANCH  17  18
HETATM   18  C   UNL     1     -10.138  11.747  63.328  1.00  0.00    -0.420 C  
BRANCH  18  19
HETATM   19  O   UNL     1     -11.417  12.190  63.778  1.00  0.00    -0.389 OA 
BRANCH  19  20
HETATM   20  C   UNL     1     -11.354  13.096  64.810  1.00  0.00    -0.324 A  
HETATM   21  C   UNL     1     -11.737  12.603  66.061  1.00  0.00    -0.470 A  
HETATM   22  C   UNL     1     -11.712  13.449  67.170  1.00  0.00    -0.379 A  
HETATM   23  C   UNL     1     -11.304  14.784  67.044  1.00  0.00    -0.358 A  
HETATM   24  C   UNL     1     -10.892  15.257  65.801  1.00  0.00    -0.363 A  
HETATM   25  C   UNL     1     -11.195  15.649  68.266  1.00  0.00    -0.353 C  
HETATM   26  C   UNL     1     -10.911  14.417  64.694  1.00  0.00    -0.363 A  
HETATM   27  C   UNL     1     -12.155  15.211  69.356  1.00  0.00    -0.293 C  
HETATM   28  C   UNL     1     -12.156  13.712  69.557  1.00  0.00    -0.314 C  
HETATM   29  O   UNL     1     -12.356  13.199  70.653  1.00  0.00    -0.358 OA 
HETATM   30  N   UNL     1     -12.050  12.947  68.428  1.00  0.00    -0.227 N  
HETATM   31  H   UNL     1     -12.229  11.946  68.511  1.00  0.00     0.000 HD 
ENDBRANCH  19  20
ENDBRANCH  18  19
ENDBRANCH  17  18
ENDBRANCH  16  17
ENDBRANCH  15  16
ENDBRANCH  12  15
ENDBRANCH   6   9
TORSDOF 7
ENDMDL
MODEL       96
REMARK 921   NORMALIZED FREE ENERGY PREDICTED BY IDOCK:   -5.18 KCAL/MOL
REMARK 922        TOTAL FREE ENERGY PREDICTED BY IDOCK:   -8.90 KCAL/MOL
REMARK 923 INTER-LIGAND FREE ENERGY PREDICTED BY IDOCK:   -8.14 KCAL/MOL
REMARK 924 INTRA-LIGAND FREE ENERGY PREDICTED BY IDOCK:   -0.76 KCAL/MOL
REMARK 927      BINDING AFFINITY PREDICTED BY RF-SCORE:    0.00 PKD
ROOT
HETATM    1 CL   UNL     1      -8.724  18.570  68.215  1.00  0.00    -0.322 Cl 
HETATM    2  C   UNL     1      -9.809  17.219  68.105  1.00  0.00    -0.290 A  
HETATM    3  C   UNL     1     -10.850  17.186  69.030  1.00  0.00    -0.129 A  
HETATM    4  C   UNL     1     -11.748  16.128  69.011  1.00  0.00    -0.254 A  
HETATM    5  C   UNL     1     -11.574  15.089  68.097  1.00  0.00    -0.360 A  
HETATM    6  C   UNL     1     -10.528  15.064  67.148  1.00  0.00    -0.277 A  
HETATM    7  C   UNL     1      -9.659  16.194  67.145  1.00  0.00    -0.229 A  
HETATM    8 CL   UNL     1      -8.461  16.425  65.897  1.00  0.00    -0.186 Cl 
ENDROOT
BRANCH   6   9
HETATM    9  N   UNL     1     -10.395  13.938  66.344  1.00  0.00    -0.284 NA 
HETATM   10  C   UNL     1     -10.405  12.572  66.900  1.00  0.00    -0.229 C  
HETATM   11  C   UNL     1     -11.242  11.613  66.023  1.00  0.00    -0.240 C  
HETATM   12  N   UNL     1     -10.887  11.613  64.586  1.00  0.00    -0.307 NA 
HETATM   13  C   UNL     1     -10.133  14.030  64.893  1.00  0.00    -0.256 C  
HETATM   14  C   UNL     1     -11.003  13.014  64.113  1.00  0.00    -0.408 C  
BRANCH  12  15
HETATM   15  C   UNL     1      -9.536  11.080  64.345  1.00  0.00    -0.238 C  
BRANCH  15  16
HETATM   16  C   UNL     1      -9.345   9.631  64.835  1.00  0.00    -0.306 C  
BRANCH  16  17
HETATM   17  C   UNL     1      -8.626   9.506  66.182  1.00  0.00    -0.143 C  
BRANCH  17  18
HETATM   18  C   UNL     1      -9.227   8.381  67.010  1.00  0.00    -0.151 C  
BRANCH  18  19
HETATM   19  O   UNL     1      -8.855   8.507  68.381  1.00  0.00    -0.138 OA 
BRANCH  19  20
HETATM   20  C   UNL     1      -9.909   8.801  69.213  1.00  0.00    -0.180 A  
HETATM   21  C   UNL     1     -10.247  10.155  69.293  1.00  0.00    -0.238 A  
HETATM   22  C   UNL     1     -11.300  10.554  70.117  1.00  0.00    -0.323 A  
HETATM   23  C   UNL     1     -12.025   9.612  70.859  1.00  0.00    -0.391 A  
HETATM   24  C   UNL     1     -11.704   8.261  70.747  1.00  0.00    -0.213 A  
HETATM   25  C   UNL     1     -13.214  10.051  71.663  1.00  0.00    -0.518 C  
HETATM   26  C   UNL     1     -10.658   7.859  69.925  1.00  0.00    -0.242 A  
HETATM   27  C   UNL     1     -13.087  11.493  72.116  1.00  0.00    -0.286 C  
HETATM   28  C   UNL     1     -12.615  12.408  71.009  1.00  0.00    -0.254 C  
HETATM   29  O   UNL     1     -12.969  13.580  70.932  1.00  0.00    -0.251 OA 
HETATM   30  N   UNL     1     -11.668  11.900  70.162  1.00  0.00    -0.497 N  
HETATM   31  H   UNL     1     -11.202  12.545  69.525  1.00  0.00     0.000 HD 
ENDBRANCH  19  20
ENDBRANCH  18  19
ENDBRANCH  17  18
ENDBRANCH  16  17
ENDBRANCH  15  16
ENDBRANCH  12  15
ENDBRANCH   6   9
TORSDOF 7
ENDMDL
MODEL       97
REMARK 921   NORMALIZED FREE ENERGY PREDICTED BY IDOCK:   -5.12 KCAL/MOL
REMARK 922        TOTAL FREE ENERGY PREDICTED BY IDOCK:   -8.81 KCAL/MOL
REMARK 923 INTER-LIGAND FREE ENERGY PREDICTED BY IDOCK:   -7.56 KCAL/MOL
REMARK 924 INTRA-LIGAND FREE ENERGY PREDICTED BY IDOCK:   -1.25 KCAL/MOL
REMARK 927      BINDING AFFINITY PREDICTED BY RF-SCORE:    0.00 PKD
ROOT
HETATM    1 CL   UNL     1     -13.124  13.842  65.246  1.00  0.00    -0.347 Cl 
HETATM    2  C   UNL     1     -11.689  12.866  65.210  1.00  0.00    -0.364 A  
HETATM    3  C   UNL     1     -11.579  11.970  64.148  1.00  0.00    -0.460 A  
HETATM    4  C   UNL     1     -10.466  11.147  64.062  1.00  0.00    -0.447 A  
HETATM    5  C   UNL     1      -9.492  11.191  65.061  1.00  0.00    -0.259 A  
HETATM    6  C   UNL     1      -9.563  12.067  66.167  1.00  0.00    -0.239 A  
HETATM    7  C   UNL     1     -10.682  12.949  66.196  1.00  0.00    -0.272 A  
HETATM    8 CL   UNL     1     -10.802  14.239  67.365  1.00  0.00    -0.282 Cl 
ENDROOT
BRANCH   6   9
HETATM    9  N   UNL     1      -8.584  11.966  67.149  1.00  0.00    -0.165 NA 
HETATM   10  C   UNL     1      -8.659  10.966  68.231  1.00  0.00    -0.139 C  
HETATM   11  C   UNL     1      -7.282  10.319  68.496  1.00  0.00    -0.080 C  
HETATM   12  N   UNL     1      -6.174  11.277  68.716  1.00  0.00    -0.044 NA 
HETATM   13  C   UNL     1      -7.455  12.916  67.240  1.00  0.00    -0.085 C  
HETATM   14  C   UNL     1      -6.131  12.167  67.530  1.00  0.00    -0.124 C  
BRANCH  12  15
HETATM   15  C   UNL     1      -6.345  12.051  69.957  1.00  0.00    -0.053 C  
BRANCH  15  16
HETATM   16  C   UNL     1      -5.158  12.981  70.275  1.00  0.00    -0.097 C  
BRANCH  16  17
HETATM   17  C   UNL     1      -5.557  14.390  70.724  1.00  0.00    -0.168 C  
BRANCH  17  18
HETATM   18  C   UNL     1      -5.396  15.384  69.585  1.00  0.00    -0.102 C  
BRANCH  18  19
HETATM   19  O   UNL     1      -5.211  16.706  70.088  1.00  0.00    -0.162 OA 
BRANCH  19  20
HETATM   20  C   UNL     1      -6.083  17.625  69.556  1.00  0.00    -0.250 A  
HETATM   21  C   UNL     1      -6.962  17.124  68.591  1.00  0.00    -0.209 A  
HETATM   22  C   UNL     1      -7.883  17.982  67.988  1.00  0.00    -0.256 A  
HETATM   23  C   UNL     1      -7.938  19.337  68.342  1.00  0.00    -0.376 A  
HETATM   24  C   UNL     1      -7.082  19.820  69.329  1.00  0.00    -0.335 A  
HETATM   25  C   UNL     1      -8.999  20.220  67.751  1.00  0.00    -0.339 C  
HETATM   26  C   UNL     1      -6.167  18.968  69.936  1.00  0.00    -0.226 A  
HETATM   27  C   UNL     1      -9.434  19.738  66.380  1.00  0.00    -0.496 C  
HETATM   28  C   UNL     1      -9.663  18.244  66.337  1.00  0.00    -0.334 C  
HETATM   29  O   UNL     1     -10.508  17.731  65.610  1.00  0.00    -0.613 OA 
HETATM   30  N   UNL     1      -8.791  17.474  67.057  1.00  0.00    -0.234 N  
HETATM   31  H   UNL     1      -8.806  16.466  66.906  1.00  0.00     0.000 HD 
ENDBRANCH  19  20
ENDBRANCH  18  19
ENDBRANCH  17  18
ENDBRANCH  16  17
ENDBRANCH  15  16
ENDBRANCH  12  15
ENDBRANCH   6   9
TORSDOF 7
ENDMDL
MODEL       98
REMARK 921   NORMALIZED FREE ENERGY PREDICTED BY IDOCK:   -5.11 KCAL/MOL
REMARK 922        TOTAL FREE ENERGY PREDICTED BY IDOCK:   -8.80 KCAL/MOL
REMARK 923 INTER-LIGAND FREE ENERGY PREDICTED BY IDOCK:   -7.72 KCAL/MOL
REMARK 924 INTRA-LIGAND FREE ENERGY PREDICTED BY IDOCK:   -1.09 KCAL/MOL
REMARK 927      BINDING AFFINITY PREDICTED BY RF-SCORE:    0.00 PKD
ROOT
HETATM    1 CL   UNL     1      -8.718  18.322  68.573  1.00  0.00    -0.328 Cl 
HETATM    2  C   UNL     1      -9.853  17.022  68.387  1.00  0.00    -0.283 A  
HETATM    3  C   UNL     1     -10.876  16.957  69.330  1.00  0.00    -0.186 A  
HETATM    4  C   UNL     1     -11.812  15.935  69.253  1.00  0.00    -0.328 A  
HETATM    5  C   UNL     1     -11.694  14.961  68.261  1.00  0.00    -0.342 A  
HETATM    6  C   UNL     1     -10.668  14.971  67.290  1.00  0.00    -0.298 A  
HETATM    7  C   UNL     1      -9.759  16.067  67.351  1.00  0.00    -0.232 A  
HETATM    8 CL   UNL     1      -8.577  16.348  66.098  1.00  0.00    -0.367 Cl 
ENDROOT
BRANCH   6   9
HETATM    9  N   UNL     1     -10.592  13.903  66.403  1.00  0.00    -0.278 NA 
HETATM   10  C   UNL     1     -10.046  12.592  66.799  1.00  0.00    -0.223 C  
HETATM   11  C   UNL     1     -10.898  11.433  66.233  1.00  0.00    -0.263 C  
HETATM   12  N   UNL     1     -11.152  11.499  64.776  1.00  0.00    -0.271 NA 
HETATM   13  C   UNL     1     -10.957  14.035  64.977  1.00  0.00    -0.375 C  
HETATM   14  C   UNL     1     -11.786  12.814  64.508  1.00  0.00    -0.379 C  
BRANCH  12  15
HETATM   15  C   UNL     1      -9.921  11.331  63.986  1.00  0.00    -0.312 C  
BRANCH  15  16
HETATM   16  C   UNL     1      -9.424   9.874  63.917  1.00  0.00    -0.207 C  
BRANCH  16  17
HETATM   17  C   UNL     1      -8.163   9.594  64.740  1.00  0.00    -0.142 C  
BRANCH  17  18
HETATM   18  C   UNL     1      -8.183   8.175  65.289  1.00  0.00    -0.149 C  
BRANCH  18  19
HETATM   19  O   UNL     1      -7.680   8.141  66.623  1.00  0.00    -0.091 OA 
BRANCH  19  20
HETATM   20  C   UNL     1      -8.598   7.698  67.546  1.00  0.00    -0.119 A  
HETATM   21  C   UNL     1      -9.339   8.700  68.178  1.00  0.00    -0.145 A  
HETATM   22  C   UNL     1     -10.293   8.350  69.135  1.00  0.00    -0.220 A  
HETATM   23  C   UNL     1     -10.516   7.007  69.465  1.00  0.00    -0.235 A  
HETATM   24  C   UNL     1      -9.797   6.013  68.806  1.00  0.00    -0.170 A  
HETATM   25  C   UNL     1     -11.611   6.648  70.427  1.00  0.00    -0.457 C  
HETATM   26  C   UNL     1      -8.849   6.357  67.849  1.00  0.00    -0.113 A  
HETATM   27  C   UNL     1     -11.883   7.766  71.416  1.00  0.00    -0.324 C  
HETATM   28  C   UNL     1     -11.952   9.122  70.752  1.00  0.00    -0.191 C  
HETATM   29  O   UNL     1     -12.678  10.019  71.168  1.00  0.00    -0.335 OA 
HETATM   30  N   UNL     1     -11.066   9.347  69.734  1.00  0.00    -0.354 N  
HETATM   31  H   UNL     1     -10.965  10.302  69.390  1.00  0.00     0.000 HD 
ENDBRANCH  19  20
ENDBRANCH  18  19
ENDBRANCH  17  18
ENDBRANCH  16  17
ENDBRANCH  15  16
ENDBRANCH  12  15
ENDBRANCH   6   9
TORSDOF 7
ENDMDL
MODEL       99
REMARK 921   NORMALIZED FREE ENERGY PREDICTED BY IDOCK:   -5.11 KCAL/MOL
REMARK 922        TOTAL FREE ENERGY PREDICTED BY IDOCK:   -8.80 KCAL/MOL
REMARK 923 INTER-LIGAND FREE ENERGY PREDICTED BY IDOCK:   -8.02 KCAL/MOL
REMARK 924 INTRA-LIGAND FREE ENERGY PREDICTED BY IDOCK:   -0.78 KCAL/MOL
REMARK 927      BINDING AFFINITY PREDICTED BY RF-SCORE:    0.00 PKD
ROOT
HETATM    1 CL   UNL     1      -6.864  21.336  67.247  1.00  0.00    -0.409 Cl 
HETATM    2  C   UNL     1      -6.771  19.793  68.037  1.00  0.00    -0.254 A  
HETATM    3  C   UNL     1      -5.512  19.405  68.489  1.00  0.00    -0.207 A  
HETATM    4  C   UNL     1      -5.360  18.177  69.116  1.00  0.00    -0.193 A  
HETATM    5  C   UNL     1      -6.457  17.325  69.247  1.00  0.00    -0.243 A  
HETATM    6  C   UNL     1      -7.752  17.661  68.792  1.00  0.00    -0.246 A  
HETATM    7  C   UNL     1      -7.895  18.955  68.212  1.00  0.00    -0.308 A  
HETATM    8 CL   UNL     1      -9.461  19.610  67.808  1.00  0.00    -0.423 Cl 
ENDROOT
BRANCH   6   9
HETATM    9  N   UNL     1      -8.754  16.703  68.893  1.00  0.00    -0.254 NA 
HETATM   10  C   UNL     1     -10.088  17.018  69.438  1.00  0.00    -0.139 C  
HETATM   11  C   UNL     1     -11.207  16.354  68.604  1.00  0.00    -0.332 C  
HETATM   12  N   UNL     1     -11.039  14.900  68.381  1.00  0.00    -0.262 NA 
HETATM   13  C   UNL     1      -8.524  15.282  68.558  1.00  0.00    -0.162 C  
HETATM   14  C   UNL     1      -9.712  14.711  67.746  1.00  0.00    -0.215 C  
BRANCH  12  15
HETATM   15  C   UNL     1     -11.147  14.127  69.630  1.00  0.00    -0.141 C  
BRANCH  15  16
HETATM   16  C   UNL     1     -12.329  13.139  69.647  1.00  0.00    -0.129 C  
BRANCH  16  17
HETATM   17  C   UNL     1     -11.922  11.663  69.722  1.00  0.00    -0.402 C  
BRANCH  17  18
HETATM   18  C   UNL     1     -11.352  11.195  68.392  1.00  0.00    -0.288 C  
BRANCH  18  19
HETATM   19  O   UNL     1     -12.144  11.670  67.305  1.00  0.00    -0.595 OA 
BRANCH  19  20
HETATM   20  C   UNL     1     -11.516  11.583  66.086  1.00  0.00    -0.031 A  
HETATM   21  C   UNL     1     -10.664  10.486  65.931  1.00  0.00    -0.061 A  
HETATM   22  C   UNL     1      -9.976  10.313  64.729  1.00  0.00    -0.321 A  
HETATM   23  C   UNL     1     -10.134  11.224  63.676  1.00  0.00    -0.432 A  
HETATM   24  C   UNL     1     -11.011  12.296  63.827  1.00  0.00    -0.495 A  
HETATM   25  C   UNL     1      -9.459  10.969  62.360  1.00  0.00    -0.172 C  
HETATM   26  C   UNL     1     -11.702  12.469  65.021  1.00  0.00    -0.407 A  
HETATM   27  C   UNL     1      -8.186  10.159  62.527  1.00  0.00    -0.165 C  
HETATM   28  C   UNL     1      -8.366   8.984  63.462  1.00  0.00    -0.181 C  
HETATM   29  O   UNL     1      -7.750   7.933  63.320  1.00  0.00    -0.126 OA 
HETATM   30  N   UNL     1      -9.159   9.194  64.557  1.00  0.00    -0.429 N  
HETATM   31  H   UNL     1      -9.155   8.488  65.293  1.00  0.00     0.000 HD 
ENDBRANCH  19  20
ENDBRANCH  18  19
ENDBRANCH  17  18
ENDBRANCH  16  17
ENDBRANCH  15  16
ENDBRANCH  12  15
ENDBRANCH   6   9
TORSDOF 7
ENDMDL
MODEL      100
REMARK 921   NORMALIZED FREE ENERGY PREDICTED BY IDOCK:   -5.10 KCAL/MOL
REMARK 922        TOTAL FREE ENERGY PREDICTED BY IDOCK:   -8.79 KCAL/MOL
REMARK 923 INTER-LIGAND FREE ENERGY PREDICTED BY IDOCK:   -7.92 KCAL/MOL
REMARK 924 INTRA-LIGAND FREE ENERGY PREDICTED BY IDOCK:   -0.86 KCAL/MOL
REMARK 927      BINDING AFFINITY PREDICTED BY RF-SCORE:    0.00 PKD
ROOT
HETATM    1 CL   UNL     1      -7.351   2.097  65.384  1.00  0.00    -0.061 Cl 
HETATM    2  C   UNL     1      -7.084   3.446  66.442  1.00  0.00    -0.062 A  
HETATM    3  C   UNL     1      -5.767   3.880  66.569  1.00  0.00    -0.022 A  
HETATM    4  C   UNL     1      -5.476   4.945  67.410  1.00  0.00    -0.013 A  
HETATM    5  C   UNL     1      -6.497   5.539  68.153  1.00  0.00    -0.044 A  
HETATM    6  C   UNL     1      -7.846   5.128  68.075  1.00  0.00    -0.087 A  
HETATM    7  C   UNL     1      -8.128   4.077  67.154  1.00  0.00    -0.096 A  
HETATM    8 CL   UNL     1      -9.765   3.607  66.774  1.00  0.00    -0.173 Cl 
ENDROOT
BRANCH   6   9
HETATM    9  N   UNL     1      -8.767   5.730  68.925  1.00  0.00    -0.111 NA 
HETATM   10  C   UNL     1      -9.716   6.755  68.453  1.00  0.00    -0.128 C  
HETATM   11  C   UNL     1     -11.124   6.537  69.051  1.00  0.00    -0.310 C  
HETATM   12  N   UNL     1     -11.162   6.397  70.525  1.00  0.00    -0.326 NA 
HETATM   13  C   UNL     1      -8.794   5.460  70.378  1.00  0.00    -0.129 C  
HETATM   14  C   UNL     1     -10.249   5.281  70.875  1.00  0.00    -0.234 C  
BRANCH  12  15
HETATM   15  C   UNL     1     -10.772   7.639  71.213  1.00  0.00    -0.228 C  
BRANCH  15  16
HETATM   16  C   UNL     1     -11.968   8.515  71.635  1.00  0.00    -0.372 C  
BRANCH  16  17
HETATM   17  C   UNL     1     -11.769  10.016  71.405  1.00  0.00    -0.414 C  
BRANCH  17  18
HETATM   18  C   UNL     1     -11.148  10.273  70.040  1.00  0.00    -0.311 C  
BRANCH  18  19
HETATM   19  O   UNL     1     -11.620  11.503  69.493  1.00  0.00    -0.278 OA 
BRANCH  19  20
HETATM   20  C   UNL     1     -11.413  11.619  68.139  1.00  0.00    -0.313 A  
HETATM   21  C   UNL     1     -11.981  12.748  67.544  1.00  0.00    -0.342 A  
HETATM   22  C   UNL     1     -11.831  12.951  66.171  1.00  0.00    -0.429 A  
HETATM   23  C   UNL     1     -11.113  12.039  65.387  1.00  0.00    -0.369 A  
HETATM   24  C   UNL     1     -10.521  10.934  65.994  1.00  0.00    -0.287 A  
HETATM   25  C   UNL     1     -10.883  12.325  63.931  1.00  0.00    -0.464 C  
HETATM   26  C   UNL     1     -10.665  10.730  67.362  1.00  0.00    -0.317 A  
HETATM   27  C   UNL     1     -11.988  13.182  63.343  1.00  0.00    -0.552 C  
HETATM   28  C   UNL     1     -12.355  14.346  64.236  1.00  0.00    -0.373 C  
HETATM   29  O   UNL     1     -12.741  15.420  63.787  1.00  0.00    -0.628 OA 
HETATM   30  N   UNL     1     -12.359  14.102  65.582  1.00  0.00    -0.450 N  
HETATM   31  H   UNL     1     -12.773  14.805  66.194  1.00  0.00     0.000 HD 
ENDBRANCH  19  20
ENDBRANCH  18  19
ENDBRANCH  17  18
ENDBRANCH  16  17
ENDBRANCH  15  16
ENDBRANCH  12  15
ENDBRANCH   6   9
TORSDOF 7
ENDMDL
MODEL      101
REMARK 921   NORMALIZED FREE ENERGY PREDICTED BY IDOCK:   -5.08 KCAL/MOL
REMARK 922        TOTAL FREE ENERGY PREDICTED BY IDOCK:   -8.76 KCAL/MOL
REMARK 923 INTER-LIGAND FREE ENERGY PREDICTED BY IDOCK:   -8.34 KCAL/MOL
REMARK 924 INTRA-LIGAND FREE ENERGY PREDICTED BY IDOCK:   -0.42 KCAL/MOL
REMARK 927      BINDING AFFINITY PREDICTED BY RF-SCORE:    0.00 PKD
ROOT
HETATM    1 CL   UNL     1      -6.410  19.857  67.517  1.00  0.00    -0.225 Cl 
HETATM    2  C   UNL     1      -8.007  19.284  67.153  1.00  0.00    -0.264 A  
HETATM    3  C   UNL     1      -8.996  20.256  67.020  1.00  0.00    -0.451 A  
HETATM    4  C   UNL     1     -10.300  19.870  66.744  1.00  0.00    -0.599 A  
HETATM    5  C   UNL     1     -10.616  18.515  66.647  1.00  0.00    -0.383 A  
HETATM    6  C   UNL     1      -9.656  17.488  66.789  1.00  0.00    -0.282 A  
HETATM    7  C   UNL     1      -8.313  17.913  67.006  1.00  0.00    -0.234 A  
HETATM    8 CL   UNL     1      -6.980  16.787  66.980  1.00  0.00    -0.221 Cl 
ENDROOT
BRANCH   6   9
HETATM    9  N   UNL     1     -10.094  16.169  66.763  1.00  0.00    -0.263 NA 
HETATM   10  C   UNL     1     -10.883  15.627  65.642  1.00  0.00    -0.327 C  
HETATM   11  C   UNL     1     -10.409  14.208  65.254  1.00  0.00    -0.388 C  
HETATM   12  N   UNL     1     -10.330  13.248  66.378  1.00  0.00    -0.280 NA 
HETATM   13  C   UNL     1      -9.889  15.247  67.900  1.00  0.00    -0.216 C  
HETATM   14  C   UNL     1      -9.440  13.852  67.400  1.00  0.00    -0.226 C  
BRANCH  12  15
HETATM   15  C   UNL     1     -11.655  12.939  66.942  1.00  0.00    -0.368 C  
BRANCH  15  16
HETATM   16  C   UNL     1     -11.616  12.537  68.429  1.00  0.00    -0.368 C  
BRANCH  16  17
HETATM   17  C   UNL     1     -11.773  11.035  68.686  1.00  0.00    -0.367 C  
BRANCH  17  18
HETATM   18  C   UNL     1     -10.584  10.496  69.468  1.00  0.00    -0.246 C  
BRANCH  18  19
HETATM   19  O   UNL     1     -11.021   9.732  70.590  1.00  0.00    -0.282 OA 
BRANCH  19  20
HETATM   20  C   UNL     1     -10.577   8.431  70.577  1.00  0.00    -0.216 A  
HETATM   21  C   UNL     1     -11.079   7.619  71.597  1.00  0.00    -0.274 A  
HETATM   22  C   UNL     1     -10.682   6.284  71.672  1.00  0.00    -0.239 A  
HETATM   23  C   UNL     1      -9.790   5.748  70.733  1.00  0.00    -0.235 A  
HETATM   24  C   UNL     1      -9.321   6.555  69.699  1.00  0.00    -0.144 A  
HETATM   25  C   UNL     1      -9.450   4.286  70.775  1.00  0.00    -0.241 C  
HETATM   26  C   UNL     1      -9.718   7.885  69.618  1.00  0.00    -0.173 A  
HETATM   27  C   UNL     1      -9.560   3.722  72.179  1.00  0.00    -0.212 C  
HETATM   28  C   UNL     1     -10.820   4.169  72.886  1.00  0.00    -0.120 C  
HETATM   29  O   UNL     1     -11.398   3.461  73.704  1.00  0.00    -0.220 OA 
HETATM   30  N   UNL     1     -11.217   5.459  72.664  1.00  0.00    -0.278 N  
HETATM   31  H   UNL     1     -11.950   5.843  73.260  1.00  0.00     0.000 HD 
ENDBRANCH  19  20
ENDBRANCH  18  19
ENDBRANCH  17  18
ENDBRANCH  16  17
ENDBRANCH  15  16
ENDBRANCH  12  15
ENDBRANCH   6   9
TORSDOF 7
ENDMDL
MODEL      102
REMARK 921   NORMALIZED FREE ENERGY PREDICTED BY IDOCK:   -5.07 KCAL/MOL
REMARK 922        TOTAL FREE ENERGY PREDICTED BY IDOCK:   -8.75 KCAL/MOL
REMARK 923 INTER-LIGAND FREE ENERGY PREDICTED BY IDOCK:   -7.86 KCAL/MOL
REMARK 924 INTRA-LIGAND FREE ENERGY PREDICTED BY IDOCK:   -0.89 KCAL/MOL
REMARK 927      BINDING AFFINITY PREDICTED BY RF-SCORE:    0.00 PKD
ROOT
HETATM    1 CL   UNL     1      -6.569  19.502  65.586  1.00  0.00    -0.259 Cl 
HETATM    2  C   UNL     1      -8.187  19.185  66.131  1.00  0.00    -0.252 A  
HETATM    3  C   UNL     1      -9.065  20.267  66.118  1.00  0.00    -0.227 A  
HETATM    4  C   UNL     1     -10.370  20.091  66.555  1.00  0.00    -0.572 A  
HETATM    5  C   UNL     1     -10.777  18.849  67.043  1.00  0.00    -0.477 A  
HETATM    6  C   UNL     1      -9.923  17.724  67.092  1.00  0.00    -0.322 A  
HETATM    7  C   UNL     1      -8.608  17.914  66.577  1.00  0.00    -0.255 A  
HETATM    8 CL   UNL     1      -7.508  16.576  66.359  1.00  0.00    -0.271 Cl 
ENDROOT
BRANCH   6   9
HETATM    9  N   UNL     1     -10.404  16.560  67.680  1.00  0.00    -0.284 NA 
HETATM   10  C   UNL     1     -10.783  15.378  66.882  1.00  0.00    -0.314 C  
HETATM   11  C   UNL     1     -10.290  14.071  67.543  1.00  0.00    -0.245 C  
HETATM   12  N   UNL     1     -10.667  13.911  68.966  1.00  0.00    -0.227 NA 
HETATM   13  C   UNL     1     -10.665  16.457  69.131  1.00  0.00    -0.317 C  
HETATM   14  C   UNL     1     -10.155  15.104  69.685  1.00  0.00    -0.190 C  
BRANCH  12  15
HETATM   15  C   UNL     1     -12.121  13.766  69.146  1.00  0.00    -0.333 C  
BRANCH  15  16
HETATM   16  C   UNL     1     -12.513  12.712  70.200  1.00  0.00    -0.099 C  
BRANCH  16  17
HETATM   17  C   UNL     1     -11.596  11.485  70.242  1.00  0.00    -0.305 C  
BRANCH  17  18
HETATM   18  C   UNL     1     -11.573  10.784  68.893  1.00  0.00    -0.291 C  
BRANCH  18  19
HETATM   19  O   UNL     1     -10.738   9.628  68.936  1.00  0.00    -0.218 OA 
BRANCH  19  20
HETATM   20  C   UNL     1     -10.150   9.328  67.731  1.00  0.00    -0.204 A  
HETATM   21  C   UNL     1     -10.254  10.321  66.753  1.00  0.00    -0.286 A  
HETATM   22  C   UNL     1      -9.693  10.107  65.493  1.00  0.00    -0.281 A  
HETATM   23  C   UNL     1      -9.023   8.911  65.201  1.00  0.00    -0.189 A  
HETATM   24  C   UNL     1      -8.895   7.941  66.192  1.00  0.00    -0.197 A  
HETATM   25  C   UNL     1      -8.345   8.741  63.873  1.00  0.00    -0.145 C  
HETATM   26  C   UNL     1      -9.449   8.151  67.450  1.00  0.00    -0.191 A  
HETATM   27  C   UNL     1      -9.016   9.562  62.788  1.00  0.00    -0.243 C  
HETATM   28  C   UNL     1      -9.329  10.971  63.238  1.00  0.00    -0.308 C  
HETATM   29  O   UNL     1      -9.315  11.924  62.466  1.00  0.00    -0.114 OA 
HETATM   30  N   UNL     1      -9.756  11.116  64.530  1.00  0.00    -0.250 N  
HETATM   31  H   UNL     1     -10.144  12.017  64.807  1.00  0.00     0.000 HD 
ENDBRANCH  19  20
ENDBRANCH  18  19
ENDBRANCH  17  18
ENDBRANCH  16  17
ENDBRANCH  15  16
ENDBRANCH  12  15
ENDBRANCH   6   9
TORSDOF 7
ENDMDL
MODEL      103
REMARK 921   NORMALIZED FREE ENERGY PREDICTED BY IDOCK:   -5.07 KCAL/MOL
REMARK 922        TOTAL FREE ENERGY PREDICTED BY IDOCK:   -8.75 KCAL/MOL
REMARK 923 INTER-LIGAND FREE ENERGY PREDICTED BY IDOCK:   -6.95 KCAL/MOL
REMARK 924 INTRA-LIGAND FREE ENERGY PREDICTED BY IDOCK:   -1.80 KCAL/MOL
REMARK 927      BINDING AFFINITY PREDICTED BY RF-SCORE:    0.00 PKD
ROOT
HETATM    1 CL   UNL     1     -11.377  13.855  66.662  1.00  0.00    -0.328 Cl 
HETATM    2  C   UNL     1     -11.795  13.466  68.301  1.00  0.00    -0.358 A  
HETATM    3  C   UNL     1     -12.147  14.537  69.120  1.00  0.00    -0.299 A  
HETATM    4  C   UNL     1     -12.479  14.302  70.446  1.00  0.00    -0.426 A  
HETATM    5  C   UNL     1     -12.413  13.006  70.958  1.00  0.00    -0.385 A  
HETATM    6  C   UNL     1     -12.047  11.887  70.178  1.00  0.00    -0.302 A  
HETATM    7  C   UNL     1     -11.775  12.145  68.803  1.00  0.00    -0.321 A  
HETATM    8 CL   UNL     1     -11.529  10.851  67.658  1.00  0.00    -0.346 Cl 
ENDROOT
BRANCH   6   9
HETATM    9  N   UNL     1     -11.927  10.655  70.810  1.00  0.00    -0.349 NA 
HETATM   10  C   UNL     1     -12.843  10.233  71.886  1.00  0.00    -0.426 C  
HETATM   11  C   UNL     1     -13.256   8.752  71.725  1.00  0.00    -0.367 C  
HETATM   12  N   UNL     1     -12.130   7.804  71.566  1.00  0.00    -0.299 NA 
HETATM   13  C   UNL     1     -10.816   9.724  70.521  1.00  0.00    -0.323 C  
HETATM   14  C   UNL     1     -11.335   8.270  70.404  1.00  0.00    -0.175 C  
BRANCH  12  15
HETATM   15  C   UNL     1     -11.299   7.717  72.779  1.00  0.00    -0.367 C  
BRANCH  15  16
HETATM   16  C   UNL     1     -10.145   6.701  72.667  1.00  0.00    -0.191 C  
BRANCH  16  17
HETATM   17  C   UNL     1      -8.761   7.275  72.988  1.00  0.00    -0.160 C  
BRANCH  17  18
HETATM   18  C   UNL     1      -7.695   6.629  72.116  1.00  0.00    -0.096 C  
BRANCH  18  19
HETATM   19  O   UNL     1      -6.718   7.588  71.716  1.00  0.00    -0.052 OA 
BRANCH  19  20
HETATM   20  C   UNL     1      -7.094   8.334  70.624  1.00  0.00    -0.042 A  
HETATM   21  C   UNL     1      -6.783   9.694  70.696  1.00  0.00    -0.116 A  
HETATM   22  C   UNL     1      -7.129  10.536  69.638  1.00  0.00    -0.141 A  
HETATM   23  C   UNL     1      -7.781  10.031  68.504  1.00  0.00    -0.089 A  
HETATM   24  C   UNL     1      -8.056   8.668  68.426  1.00  0.00    -0.118 A  
HETATM   25  C   UNL     1      -8.058  10.934  67.338  1.00  0.00    -0.114 C  
HETATM   26  C   UNL     1      -7.709   7.825  69.476  1.00  0.00    -0.105 A  
HETATM   27  C   UNL     1      -8.221  12.379  67.771  1.00  0.00    -0.163 C  
HETATM   28  C   UNL     1      -7.158  12.813  68.755  1.00  0.00    -0.089 C  
HETATM   29  O   UNL     1      -6.734  13.963  68.797  1.00  0.00    -0.089 OA 
HETATM   30  N   UNL     1      -6.779  11.886  69.688  1.00  0.00    -0.308 N  
HETATM   31  H   UNL     1      -6.204  12.202  70.469  1.00  0.00     0.000 HD 
ENDBRANCH  19  20
ENDBRANCH  18  19
ENDBRANCH  17  18
ENDBRANCH  16  17
ENDBRANCH  15  16
ENDBRANCH  12  15
ENDBRANCH   6   9
TORSDOF 7
ENDMDL
MODEL      104
REMARK 921   NORMALIZED FREE ENERGY PREDICTED BY IDOCK:   -5.06 KCAL/MOL
REMARK 922        TOTAL FREE ENERGY PREDICTED BY IDOCK:   -8.74 KCAL/MOL
REMARK 923 INTER-LIGAND FREE ENERGY PREDICTED BY IDOCK:   -8.24 KCAL/MOL
REMARK 924 INTRA-LIGAND FREE ENERGY PREDICTED BY IDOCK:   -0.49 KCAL/MOL
REMARK 927      BINDING AFFINITY PREDICTED BY RF-SCORE:    0.00 PKD
ROOT
HETATM    1 CL   UNL     1     -10.294   5.754  70.361  1.00  0.00    -0.288 Cl 
HETATM    2  C   UNL     1     -10.753   7.420  70.530  1.00  0.00    -0.233 A  
HETATM    3  C   UNL     1     -11.485   7.745  71.670  1.00  0.00    -0.299 A  
HETATM    4  C   UNL     1     -11.899   9.055  71.864  1.00  0.00    -0.447 A  
HETATM    5  C   UNL     1     -11.618  10.022  70.898  1.00  0.00    -0.463 A  
HETATM    6  C   UNL     1     -10.892   9.743  69.718  1.00  0.00    -0.257 A  
HETATM    7  C   UNL     1     -10.422   8.405  69.575  1.00  0.00    -0.224 A  
HETATM    8 CL   UNL     1      -9.326   7.952  68.293  1.00  0.00    -0.143 Cl 
ENDROOT
BRANCH   6   9
HETATM    9  N   UNL     1     -10.745  10.759  68.781  1.00  0.00    -0.193 NA 
HETATM   10  C   UNL     1     -11.853  11.187  67.908  1.00  0.00    -0.082 C  
HETATM   11  C   UNL     1     -11.909  12.727  67.782  1.00  0.00    -0.332 C  
HETATM   12  N   UNL     1     -10.631  13.367  67.395  1.00  0.00    -0.250 NA 
HETATM   13  C   UNL     1      -9.444  11.412  68.523  1.00  0.00    -0.183 C  
HETATM   14  C   UNL     1      -9.617  12.945  68.391  1.00  0.00    -0.176 C  
BRANCH  12  15
HETATM   15  C   UNL     1     -10.218  13.006  66.028  1.00  0.00    -0.287 C  
BRANCH  15  16
HETATM   16  C   UNL     1     -10.858  13.883  64.935  1.00  0.00    -0.413 C  
BRANCH  16  17
HETATM   17  C   UNL     1     -11.234  15.295  65.394  1.00  0.00    -0.307 C  
BRANCH  17  18
HETATM   18  C   UNL     1     -10.008  16.043  65.894  1.00  0.00    -0.352 C  
BRANCH  18  19
HETATM   19  O   UNL     1     -10.320  16.804  67.060  1.00  0.00    -0.298 OA 
BRANCH  19  20
HETATM   20  C   UNL     1      -9.375  17.754  67.366  1.00  0.00    -0.252 A  
HETATM   21  C   UNL     1      -8.718  18.317  66.269  1.00  0.00    -0.199 A  
HETATM   22  C   UNL     1      -7.737  19.288  66.478  1.00  0.00    -0.272 A  
HETATM   23  C   UNL     1      -7.407  19.705  67.774  1.00  0.00    -0.306 A  
HETATM   24  C   UNL     1      -8.091  19.163  68.860  1.00  0.00    -0.329 A  
HETATM   25  C   UNL     1      -6.418  20.817  67.972  1.00  0.00    -0.362 C  
HETATM   26  C   UNL     1      -9.072  18.199  68.657  1.00  0.00    -0.290 A  
HETATM   27  C   UNL     1      -5.417  20.889  66.834  1.00  0.00    -0.245 C  
HETATM   28  C   UNL     1      -6.072  20.767  65.477  1.00  0.00    -0.242 C  
HETATM   29  O   UNL     1      -5.632  21.337  64.484  1.00  0.00    -0.214 OA 
HETATM   30  N   UNL     1      -7.112  19.884  65.381  1.00  0.00    -0.303 N  
HETATM   31  H   UNL     1      -7.453  19.647  64.450  1.00  0.00     0.000 HD 
ENDBRANCH  19  20
ENDBRANCH  18  19
ENDBRANCH  17  18
ENDBRANCH  16  17
ENDBRANCH  15  16
ENDBRANCH  12  15
ENDBRANCH   6   9
TORSDOF 7
ENDMDL
MODEL      105
REMARK 921   NORMALIZED FREE ENERGY PREDICTED BY IDOCK:   -5.05 KCAL/MOL
REMARK 922        TOTAL FREE ENERGY PREDICTED BY IDOCK:   -8.72 KCAL/MOL
REMARK 923 INTER-LIGAND FREE ENERGY PREDICTED BY IDOCK:   -7.47 KCAL/MOL
REMARK 924 INTRA-LIGAND FREE ENERGY PREDICTED BY IDOCK:   -1.25 KCAL/MOL
REMARK 927      BINDING AFFINITY PREDICTED BY RF-SCORE:    0.00 PKD
ROOT
HETATM    1 CL   UNL     1     -13.022  14.133  72.757  1.00  0.00    -0.525 Cl 
HETATM    2  C   UNL     1     -12.137  14.656  71.358  1.00  0.00    -0.355 A  
HETATM    3  C   UNL     1     -11.676  15.970  71.375  1.00  0.00    -0.536 A  
HETATM    4  C   UNL     1     -10.973  16.462  70.285  1.00  0.00    -0.262 A  
HETATM    5  C   UNL     1     -10.774  15.651  69.166  1.00  0.00    -0.243 A  
HETATM    6  C   UNL     1     -11.233  14.318  69.090  1.00  0.00    -0.270 A  
HETATM    7  C   UNL     1     -11.894  13.816  70.249  1.00  0.00    -0.272 A  
HETATM    8 CL   UNL     1     -12.321  12.131  70.403  1.00  0.00    -0.355 Cl 
ENDROOT
BRANCH   6   9
HETATM    9  N   UNL     1     -11.059  13.629  67.895  1.00  0.00    -0.253 NA 
HETATM   10  C   UNL     1     -12.187  13.318  66.997  1.00  0.00    -0.253 C  
HETATM   11  C   UNL     1     -11.810  13.552  65.517  1.00  0.00    -0.363 C  
HETATM   12  N   UNL     1     -10.564  12.884  65.078  1.00  0.00    -0.303 NA 
HETATM   13  C   UNL     1      -9.751  13.073  67.488  1.00  0.00    -0.206 C  
HETATM   14  C   UNL     1      -9.485  13.342  65.986  1.00  0.00    -0.082 C  
BRANCH  12  15
HETATM   15  C   UNL     1     -10.683  11.416  65.091  1.00  0.00    -0.269 C  
BRANCH  15  16
HETATM   16  C   UNL     1      -9.524  10.694  64.376  1.00  0.00    -0.317 C  
BRANCH  16  17
HETATM   17  C   UNL     1      -8.905   9.543  65.175  1.00  0.00    -0.223 C  
BRANCH  17  18
HETATM   18  C   UNL     1      -9.319   9.618  66.637  1.00  0.00    -0.156 C  
BRANCH  18  19
HETATM   19  O   UNL     1      -8.869   8.468  67.350  1.00  0.00    -0.132 OA 
BRANCH  19  20
HETATM   20  C   UNL     1      -9.303   8.424  68.654  1.00  0.00    -0.143 A  
HETATM   21  C   UNL     1      -8.299   8.525  69.621  1.00  0.00    -0.121 A  
HETATM   22  C   UNL     1      -8.640   8.485  70.973  1.00  0.00    -0.158 A  
HETATM   23  C   UNL     1      -9.976   8.349  71.371  1.00  0.00    -0.275 A  
HETATM   24  C   UNL     1     -10.974   8.283  70.401  1.00  0.00    -0.244 A  
HETATM   25  C   UNL     1     -10.330   8.403  72.829  1.00  0.00    -0.239 C  
HETATM   26  C   UNL     1     -10.639   8.327  69.053  1.00  0.00    -0.167 A  
HETATM   27  C   UNL     1      -9.187   7.926  73.705  1.00  0.00    -0.320 C  
HETATM   28  C   UNL     1      -7.855   8.505  73.286  1.00  0.00     0.006 C  
HETATM   29  O   UNL     1      -6.963   8.747  74.092  1.00  0.00    -0.339 OA 
HETATM   30  N   UNL     1      -7.643   8.631  71.940  1.00  0.00    -0.098 N  
HETATM   31  H   UNL     1      -6.698   8.846  71.623  1.00  0.00     0.000 HD 
ENDBRANCH  19  20
ENDBRANCH  18  19
ENDBRANCH  17  18
ENDBRANCH  16  17
ENDBRANCH  15  16
ENDBRANCH  12  15
ENDBRANCH   6   9
TORSDOF 7
ENDMDL
MODEL      106
REMARK 921   NORMALIZED FREE ENERGY PREDICTED BY IDOCK:   -5.04 KCAL/MOL
REMARK 922        TOTAL FREE ENERGY PREDICTED BY IDOCK:   -8.70 KCAL/MOL
REMARK 923 INTER-LIGAND FREE ENERGY PREDICTED BY IDOCK:   -7.89 KCAL/MOL
REMARK 924 INTRA-LIGAND FREE ENERGY PREDICTED BY IDOCK:   -0.81 KCAL/MOL
REMARK 927      BINDING AFFINITY PREDICTED BY RF-SCORE:    0.00 PKD
ROOT
HETATM    1 CL   UNL     1     -11.231   2.206  74.019  1.00  0.00    -0.235 Cl 
HETATM    2  C   UNL     1     -10.481   2.883  72.608  1.00  0.00    -0.099 A  
HETATM    3  C   UNL     1      -9.893   1.978  71.727  1.00  0.00    -0.218 A  
HETATM    4  C   UNL     1      -9.261   2.449  70.585  1.00  0.00    -0.200 A  
HETATM    5  C   UNL     1      -9.182   3.823  70.353  1.00  0.00    -0.213 A  
HETATM    6  C   UNL     1      -9.746   4.784  71.221  1.00  0.00    -0.178 A  
HETATM    7  C   UNL     1     -10.446   4.271  72.352  1.00  0.00    -0.126 A  
HETATM    8 CL   UNL     1     -11.387   5.309  73.394  1.00  0.00    -0.316 Cl 
ENDROOT
BRANCH   6   9
HETATM    9  N   UNL     1      -9.531   6.129  70.942  1.00  0.00    -0.171 NA 
HETATM   10  C   UNL     1     -10.055   6.770  69.721  1.00  0.00    -0.183 C  
HETATM   11  C   UNL     1     -10.635   8.170  70.024  1.00  0.00    -0.239 C  
HETATM   12  N   UNL     1      -9.727   9.073  70.767  1.00  0.00    -0.224 NA 
HETATM   13  C   UNL     1      -8.681   6.986  71.794  1.00  0.00    -0.122 C  
HETATM   14  C   UNL     1      -9.342   8.369  72.014  1.00  0.00    -0.262 C  
BRANCH  12  15
HETATM   15  C   UNL     1      -8.541   9.444  69.978  1.00  0.00    -0.203 C  
BRANCH  15  16
HETATM   16  C   UNL     1      -8.841  10.433  68.835  1.00  0.00    -0.161 C  
BRANCH  16  17
HETATM   17  C   UNL     1      -9.229   9.772  67.508  1.00  0.00    -0.145 C  
BRANCH  17  18
HETATM   18  C   UNL     1     -10.389  10.510  66.858  1.00  0.00    -0.239 C  
BRANCH  18  19
HETATM   19  O   UNL     1     -11.523  10.533  67.722  1.00  0.00    -0.443 OA 
BRANCH  19  20
HETATM   20  C   UNL     1     -11.776  11.770  68.266  1.00  0.00    -0.310 A  
HETATM   21  C   UNL     1     -12.121  11.767  69.620  1.00  0.00    -0.323 A  
HETATM   22  C   UNL     1     -12.402  12.974  70.261  1.00  0.00    -0.241 A  
HETATM   23  C   UNL     1     -12.338  14.187  69.563  1.00  0.00    -0.275 A  
HETATM   24  C   UNL     1     -11.961  14.184  68.223  1.00  0.00    -0.367 A  
HETATM   25  C   UNL     1     -12.551  15.481  70.294  1.00  0.00    -0.362 C  
HETATM   26  C   UNL     1     -11.675  12.984  67.581  1.00  0.00    -0.415 A  
HETATM   27  C   UNL     1     -13.452  15.305  71.502  1.00  0.00    -0.577 C  
HETATM   28  C   UNL     1     -13.089  14.088  72.323  1.00  0.00    -0.423 C  
HETATM   29  O   UNL     1     -13.239  14.050  73.540  1.00  0.00    -0.358 OA 
HETATM   30  N   UNL     1     -12.701  12.977  71.625  1.00  0.00    -0.259 N  
HETATM   31  H   UNL     1     -12.626  12.096  72.133  1.00  0.00     0.000 HD 
ENDBRANCH  19  20
ENDBRANCH  18  19
ENDBRANCH  17  18
ENDBRANCH  16  17
ENDBRANCH  15  16
ENDBRANCH  12  15
ENDBRANCH   6   9
TORSDOF 7
ENDMDL
MODEL      107
REMARK 921   NORMALIZED FREE ENERGY PREDICTED BY IDOCK:   -5.01 KCAL/MOL
REMARK 922        TOTAL FREE ENERGY PREDICTED BY IDOCK:   -8.66 KCAL/MOL
REMARK 923 INTER-LIGAND FREE ENERGY PREDICTED BY IDOCK:   -8.18 KCAL/MOL
REMARK 924 INTRA-LIGAND FREE ENERGY PREDICTED BY IDOCK:   -0.47 KCAL/MOL
REMARK 927      BINDING AFFINITY PREDICTED BY RF-SCORE:    0.00 PKD
ROOT
HETATM    1 CL   UNL     1      -9.557  20.657  67.503  1.00  0.00    -0.550 Cl 
HETATM    2  C   UNL     1      -9.634  19.040  66.878  1.00  0.00    -0.321 A  
HETATM    3  C   UNL     1     -10.617  18.794  65.921  1.00  0.00    -0.405 A  
HETATM    4  C   UNL     1     -10.747  17.520  65.387  1.00  0.00    -0.008 A  
HETATM    5  C   UNL     1      -9.926  16.489  65.846  1.00  0.00    -0.342 A  
HETATM    6  C   UNL     1      -8.926  16.679  66.825  1.00  0.00    -0.237 A  
HETATM    7  C   UNL     1      -8.768  18.011  67.308  1.00  0.00    -0.243 A  
HETATM    8 CL   UNL     1      -7.438  18.456  68.348  1.00  0.00    -0.288 Cl 
ENDROOT
BRANCH   6   9
HETATM    9  N   UNL     1      -8.225  15.566  67.274  1.00  0.00    -0.180 NA 
HETATM   10  C   UNL     1      -6.897  15.677  67.906  1.00  0.00    -0.143 C  
HETATM   11  C   UNL     1      -6.777  14.743  69.132  1.00  0.00    -0.123 C  
HETATM   12  N   UNL     1      -7.143  13.331  68.879  1.00  0.00    -0.099 NA 
HETATM   13  C   UNL     1      -8.713  14.187  67.059  1.00  0.00    -0.204 C  
HETATM   14  C   UNL     1      -8.524  13.334  68.338  1.00  0.00    -0.128 C  
BRANCH  12  15
HETATM   15  C   UNL     1      -6.209  12.670  67.951  1.00  0.00    -0.108 C  
BRANCH  15  16
HETATM   16  C   UNL     1      -6.799  11.425  67.262  1.00  0.00    -0.115 C  
BRANCH  16  17
HETATM   17  C   UNL     1      -6.866  10.179  68.151  1.00  0.00    -0.066 C  
BRANCH  17  18
HETATM   18  C   UNL     1      -8.305   9.869  68.534  1.00  0.00    -0.108 C  
BRANCH  18  19
HETATM   19  O   UNL     1      -8.907   8.997  67.579  1.00  0.00    -0.123 OA 
BRANCH  19  20
HETATM   20  C   UNL     1      -9.392   9.648  66.469  1.00  0.00    -0.165 A  
HETATM   21  C   UNL     1     -10.332  10.649  66.728  1.00  0.00    -0.299 A  
HETATM   22  C   UNL     1     -10.887  11.362  65.665  1.00  0.00    -0.218 A  
HETATM   23  C   UNL     1     -10.509  11.089  64.344  1.00  0.00    -0.422 A  
HETATM   24  C   UNL     1      -9.546  10.114  64.097  1.00  0.00    -0.336 A  
HETATM   25  C   UNL     1     -11.047  11.932  63.224  1.00  0.00    -0.390 C  
HETATM   26  C   UNL     1      -8.987   9.403  65.153  1.00  0.00    -0.258 A  
HETATM   27  C   UNL     1     -12.409  12.511  63.558  1.00  0.00    -0.623 C  
HETATM   28  C   UNL     1     -12.468  13.083  64.956  1.00  0.00    -0.477 C  
HETATM   29  O   UNL     1     -13.172  14.047  65.240  1.00  0.00    -0.782 OA 
HETATM   30  N   UNL     1     -11.793  12.393  65.925  1.00  0.00    -0.423 N  
HETATM   31  H   UNL     1     -11.960  12.648  66.898  1.00  0.00     0.000 HD 
ENDBRANCH  19  20
ENDBRANCH  18  19
ENDBRANCH  17  18
ENDBRANCH  16  17
ENDBRANCH  15  16
ENDBRANCH  12  15
ENDBRANCH   6   9
TORSDOF 7
ENDMDL
MODEL      108
REMARK 921   NORMALIZED FREE ENERGY PREDICTED BY IDOCK:   -5.00 KCAL/MOL
REMARK 922        TOTAL FREE ENERGY PREDICTED BY IDOCK:   -8.64 KCAL/MOL
REMARK 923 INTER-LIGAND FREE ENERGY PREDICTED BY IDOCK:   -7.89 KCAL/MOL
REMARK 924 INTRA-LIGAND FREE ENERGY PREDICTED BY IDOCK:   -0.75 KCAL/MOL
REMARK 927      BINDING AFFINITY PREDICTED BY RF-SCORE:    0.00 PKD
ROOT
HETATM    1 CL   UNL     1     -10.252  19.407  68.782  1.00  0.00    -0.474 Cl 
HETATM    2  C   UNL     1     -10.349  18.157  67.582  1.00  0.00    -0.397 A  
HETATM    3  C   UNL     1     -10.456  18.579  66.259  1.00  0.00    -0.441 A  
HETATM    4  C   UNL     1     -10.554  17.634  65.247  1.00  0.00     0.171 A  
HETATM    5  C   UNL     1     -10.588  16.277  65.568  1.00  0.00    -0.369 A  
HETATM    6  C   UNL     1     -10.499  15.795  66.893  1.00  0.00    -0.315 A  
HETATM    7  C   UNL     1     -10.333  16.783  67.907  1.00  0.00    -0.319 A  
HETATM    8 CL   UNL     1      -9.984  16.348  69.561  1.00  0.00    -0.207 Cl 
ENDROOT
BRANCH   6   9
HETATM    9  N   UNL     1     -10.633  14.428  67.107  1.00  0.00    -0.275 NA 
HETATM   10  C   UNL     1     -11.914  13.725  66.908  1.00  0.00    -0.421 C  
HETATM   11  C   UNL     1     -11.707  12.369  66.195  1.00  0.00    -0.400 C  
HETATM   12  N   UNL     1     -10.693  11.487  66.816  1.00  0.00    -0.257 NA 
HETATM   13  C   UNL     1      -9.532  13.602  67.644  1.00  0.00    -0.221 C  
HETATM   14  C   UNL     1      -9.428  12.260  66.877  1.00  0.00    -0.217 C  
BRANCH  12  15
HETATM   15  C   UNL     1     -11.099  11.024  68.153  1.00  0.00    -0.270 C  
BRANCH  15  16
HETATM   16  C   UNL     1     -10.008  10.220  68.888  1.00  0.00    -0.209 C  
BRANCH  16  17
HETATM   17  C   UNL     1     -10.526   9.354  70.040  1.00  0.00    -0.266 C  
BRANCH  17  18
HETATM   18  C   UNL     1     -10.060   7.915  69.883  1.00  0.00    -0.197 C  
BRANCH  18  19
HETATM   19  O   UNL     1     -10.900   7.207  68.972  1.00  0.00    -0.209 OA 
BRANCH  19  20
HETATM   20  C   UNL     1     -10.218   6.631  67.927  1.00  0.00    -0.171 A  
HETATM   21  C   UNL     1     -10.980   5.794  67.107  1.00  0.00    -0.205 A  
HETATM   22  C   UNL     1     -10.375   5.158  66.023  1.00  0.00    -0.188 A  
HETATM   23  C   UNL     1      -9.016   5.352  65.745  1.00  0.00    -0.161 A  
HETATM   24  C   UNL     1      -8.272   6.215  66.547  1.00  0.00    -0.111 A  
HETATM   25  C   UNL     1      -8.408   4.735  64.519  1.00  0.00    -0.128 C  
HETATM   26  C   UNL     1      -8.871   6.854  67.626  1.00  0.00    -0.118 A  
HETATM   27  C   UNL     1      -9.129   3.463  64.113  1.00  0.00    -0.122 C  
HETATM   28  C   UNL     1     -10.633   3.613  64.149  1.00  0.00    -0.237 C  
HETATM   29  O   UNL     1     -11.370   3.011  63.375  1.00  0.00    -0.240 OA 
HETATM   30  N   UNL     1     -11.145   4.358  65.176  1.00  0.00    -0.915 N  
HETATM   31  H   UNL     1     -12.152   4.328  65.332  1.00  0.00     0.000 HD 
ENDBRANCH  19  20
ENDBRANCH  18  19
ENDBRANCH  17  18
ENDBRANCH  16  17
ENDBRANCH  15  16
ENDBRANCH  12  15
ENDBRANCH   6   9
TORSDOF 7
ENDMDL
MODEL      109
REMARK 921   NORMALIZED FREE ENERGY PREDICTED BY IDOCK:   -4.99 KCAL/MOL
REMARK 922        TOTAL FREE ENERGY PREDICTED BY IDOCK:   -8.64 KCAL/MOL
REMARK 923 INTER-LIGAND FREE ENERGY PREDICTED BY IDOCK:   -7.75 KCAL/MOL
REMARK 924 INTRA-LIGAND FREE ENERGY PREDICTED BY IDOCK:   -0.89 KCAL/MOL
REMARK 927      BINDING AFFINITY PREDICTED BY RF-SCORE:    0.00 PKD
ROOT
HETATM    1 CL   UNL     1      -8.035   8.145  74.148  1.00  0.00    -0.286 Cl 
HETATM    2  C   UNL     1      -9.268   8.062  72.928  1.00  0.00    -0.265 A  
HETATM    3  C   UNL     1     -10.493   7.530  73.325  1.00  0.00    -0.426 A  
HETATM    4  C   UNL     1     -11.520   7.419  72.399  1.00  0.00    -0.343 A  
HETATM    5  C   UNL     1     -11.303   7.797  71.073  1.00  0.00    -0.287 A  
HETATM    6  C   UNL     1     -10.076   8.327  70.615  1.00  0.00    -0.191 A  
HETATM    7  C   UNL     1      -9.059   8.493  71.600  1.00  0.00    -0.229 A  
HETATM    8 CL   UNL     1      -7.572   9.336  71.248  1.00  0.00    -0.066 Cl 
ENDROOT
BRANCH   6   9
HETATM    9  N   UNL     1      -9.939   8.588  69.256  1.00  0.00    -0.190 NA 
HETATM   10  C   UNL     1      -9.690   7.517  68.273  1.00  0.00    -0.155 C  
HETATM   11  C   UNL     1     -10.535   7.719  66.995  1.00  0.00    -0.349 C  
HETATM   12  N   UNL     1     -10.423   9.061  66.379  1.00  0.00    -0.155 NA 
HETATM   13  C   UNL     1      -9.932   9.963  68.714  1.00  0.00    -0.173 C  
HETATM   14  C   UNL     1     -10.786  10.048  67.425  1.00  0.00    -0.274 C  
BRANCH  12  15
HETATM   15  C   UNL     1      -9.074   9.320  65.848  1.00  0.00    -0.197 C  
BRANCH  15  16
HETATM   16  C   UNL     1      -8.888  10.748  65.300  1.00  0.00    -0.200 C  
BRANCH  16  17
HETATM   17  C   UNL     1      -9.677  11.045  64.020  1.00  0.00    -0.333 C  
BRANCH  17  18
HETATM   18  C   UNL     1     -10.037  12.520  63.939  1.00  0.00    -0.282 C  
BRANCH  18  19
HETATM   19  O   UNL     1     -10.633  12.963  65.157  1.00  0.00    -0.287 OA 
BRANCH  19  20
HETATM   20  C   UNL     1     -10.446  14.302  65.407  1.00  0.00    -0.365 A  
HETATM   21  C   UNL     1      -9.539  14.597  66.428  1.00  0.00    -0.323 A  
HETATM   22  C   UNL     1      -9.287  15.929  66.760  1.00  0.00    -0.240 A  
HETATM   23  C   UNL     1      -9.929  16.971  66.078  1.00  0.00    -0.288 A  
HETATM   24  C   UNL     1     -10.806  16.668  65.039  1.00  0.00    -0.190 A  
HETATM   25  C   UNL     1      -9.572  18.396  66.385  1.00  0.00    -0.312 C  
HETATM   26  C   UNL     1     -11.057  15.343  64.702  1.00  0.00    -0.361 A  
HETATM   27  C   UNL     1      -9.087  18.560  67.814  1.00  0.00    -0.292 C  
HETATM   28  C   UNL     1      -8.100  17.489  68.217  1.00  0.00    -0.268 C  
HETATM   29  O   UNL     1      -7.191  17.701  69.013  1.00  0.00    -0.256 OA 
HETATM   30  N   UNL     1      -8.347  16.227  67.748  1.00  0.00    -0.160 N  
HETATM   31  H   UNL     1      -7.810  15.456  68.145  1.00  0.00     0.000 HD 
ENDBRANCH  19  20
ENDBRANCH  18  19
ENDBRANCH  17  18
ENDBRANCH  16  17
ENDBRANCH  15  16
ENDBRANCH  12  15
ENDBRANCH   6   9
TORSDOF 7
ENDMDL
MODEL      110
REMARK 921   NORMALIZED FREE ENERGY PREDICTED BY IDOCK:   -4.98 KCAL/MOL
REMARK 922        TOTAL FREE ENERGY PREDICTED BY IDOCK:   -8.62 KCAL/MOL
REMARK 923 INTER-LIGAND FREE ENERGY PREDICTED BY IDOCK:   -7.72 KCAL/MOL
REMARK 924 INTRA-LIGAND FREE ENERGY PREDICTED BY IDOCK:   -0.90 KCAL/MOL
REMARK 927      BINDING AFFINITY PREDICTED BY RF-SCORE:    0.00 PKD
ROOT
HETATM    1 CL   UNL     1      -8.121   8.313  64.649  1.00  0.00    -0.148 Cl 
HETATM    2  C   UNL     1      -7.827   9.588  65.789  1.00  0.00    -0.104 A  
HETATM    3  C   UNL     1      -6.831   9.354  66.735  1.00  0.00    -0.080 A  
HETATM    4  C   UNL     1      -6.552  10.324  67.687  1.00  0.00    -0.066 A  
HETATM    5  C   UNL     1      -7.299  11.502  67.716  1.00  0.00    -0.096 A  
HETATM    6  C   UNL     1      -8.330  11.783  66.791  1.00  0.00    -0.165 A  
HETATM    7  C   UNL     1      -8.551  10.801  65.783  1.00  0.00    -0.183 A  
HETATM    8 CL   UNL     1      -9.627  11.093  64.440  1.00  0.00    -0.275 Cl 
ENDROOT
BRANCH   6   9
HETATM    9  N   UNL     1      -9.070  12.947  66.966  1.00  0.00    -0.222 NA 
HETATM   10  C   UNL     1      -8.432  14.272  67.081  1.00  0.00    -0.200 C  
HETATM   11  C   UNL     1      -9.203  15.341  66.274  1.00  0.00    -0.315 C  
HETATM   12  N   UNL     1     -10.655  15.409  66.557  1.00  0.00    -0.301 NA 
HETATM   13  C   UNL     1     -10.536  12.930  67.148  1.00  0.00    -0.238 C  
HETATM   14  C   UNL     1     -11.205  14.052  66.317  1.00  0.00    -0.320 C  
BRANCH  12  15
HETATM   15  C   UNL     1     -10.936  15.861  67.930  1.00  0.00    -0.327 C  
BRANCH  15  16
HETATM   16  C   UNL     1     -12.226  15.266  68.527  1.00  0.00     0.026 C  
BRANCH  16  17
HETATM   17  C   UNL     1     -12.361  15.435  70.043  1.00  0.00    -0.368 C  
BRANCH  17  18
HETATM   18  C   UNL     1     -12.665  14.102  70.709  1.00  0.00    -0.344 C  
BRANCH  18  19
HETATM   19  O   UNL     1     -11.793  13.083  70.223  1.00  0.00    -0.305 OA 
BRANCH  19  20
HETATM   20  C   UNL     1     -12.096  11.828  70.694  1.00  0.00    -0.311 A  
HETATM   21  C   UNL     1     -11.429  10.776  70.061  1.00  0.00    -0.412 A  
HETATM   22  C   UNL     1     -11.675   9.463  70.465  1.00  0.00    -0.198 A  
HETATM   23  C   UNL     1     -12.579   9.189  71.500  1.00  0.00    -0.413 A  
HETATM   24  C   UNL     1     -13.214  10.246  72.148  1.00  0.00    -0.443 A  
HETATM   25  C   UNL     1     -12.757   7.779  71.982  1.00  0.00    -0.285 C  
HETATM   26  C   UNL     1     -12.969  11.556  71.752  1.00  0.00    -0.500 A  
HETATM   27  C   UNL     1     -12.472   6.768  70.887  1.00  0.00    -0.270 C  
HETATM   28  C   UNL     1     -11.213   7.090  70.115  1.00  0.00    -0.284 C  
HETATM   29  O   UNL     1     -10.497   6.217  69.635  1.00  0.00    -0.198 OA 
HETATM   30  N   UNL     1     -10.975   8.414  69.865  1.00  0.00    -0.373 N  
HETATM   31  H   UNL     1     -10.240   8.650  69.198  1.00  0.00     0.000 HD 
ENDBRANCH  19  20
ENDBRANCH  18  19
ENDBRANCH  17  18
ENDBRANCH  16  17
ENDBRANCH  15  16
ENDBRANCH  12  15
ENDBRANCH   6   9
TORSDOF 7
ENDMDL
MODEL      111
REMARK 921   NORMALIZED FREE ENERGY PREDICTED BY IDOCK:   -4.98 KCAL/MOL
REMARK 922        TOTAL FREE ENERGY PREDICTED BY IDOCK:   -8.61 KCAL/MOL
REMARK 923 INTER-LIGAND FREE ENERGY PREDICTED BY IDOCK:   -7.96 KCAL/MOL
REMARK 924 INTRA-LIGAND FREE ENERGY PREDICTED BY IDOCK:   -0.66 KCAL/MOL
REMARK 927      BINDING AFFINITY PREDICTED BY RF-SCORE:    0.00 PKD
ROOT
HETATM    1 CL   UNL     1      -9.719  21.058  67.079  1.00  0.00    -0.303 Cl 
HETATM    2  C   UNL     1      -8.874  19.572  66.780  1.00  0.00    -0.332 A  
HETATM    3  C   UNL     1      -7.565  19.688  66.317  1.00  0.00    -0.319 A  
HETATM    4  C   UNL     1      -6.833  18.542  66.042  1.00  0.00    -0.303 A  
HETATM    5  C   UNL     1      -7.428  17.288  66.189  1.00  0.00    -0.321 A  
HETATM    6  C   UNL     1      -8.755  17.114  66.640  1.00  0.00    -0.252 A  
HETATM    7  C   UNL     1      -9.463  18.304  66.979  1.00  0.00    -0.274 A  
HETATM    8 CL   UNL     1     -11.023  18.251  67.759  1.00  0.00    -0.248 Cl 
ENDROOT
BRANCH   6   9
HETATM    9  N   UNL     1      -9.277  15.825  66.666  1.00  0.00    -0.233 NA 
HETATM   10  C   UNL     1      -8.701  14.763  67.511  1.00  0.00    -0.186 C  
HETATM   11  C   UNL     1      -9.806  13.925  68.193  1.00  0.00    -0.240 C  
HETATM   12  N   UNL     1     -10.840  13.391  67.276  1.00  0.00    -0.266 NA 
HETATM   13  C   UNL     1     -10.378  15.402  65.776  1.00  0.00    -0.361 C  
HETATM   14  C   UNL     1     -11.414  14.552  66.551  1.00  0.00    -0.362 C  
BRANCH  12  15
HETATM   15  C   UNL     1     -10.294  12.396  66.338  1.00  0.00    -0.234 C  
BRANCH  15  16
HETATM   16  C   UNL     1      -9.225  11.478  66.962  1.00  0.00    -0.180 C  
BRANCH  16  17
HETATM   17  C   UNL     1      -9.683  10.035  67.194  1.00  0.00    -0.217 C  
BRANCH  17  18
HETATM   18  C   UNL     1     -11.009  10.005  67.938  1.00  0.00    -0.252 C  
BRANCH  18  19
HETATM   19  O   UNL     1     -10.899  10.666  69.197  1.00  0.00    -0.205 OA 
BRANCH  19  20
HETATM   20  C   UNL     1     -10.899   9.809  70.271  1.00  0.00    -0.301 A  
HETATM   21  C   UNL     1      -9.641   9.530  70.812  1.00  0.00    -0.261 A  
HETATM   22  C   UNL     1      -9.538   8.666  71.903  1.00  0.00    -0.307 A  
HETATM   23  C   UNL     1     -10.681   8.079  72.463  1.00  0.00    -0.407 A  
HETATM   24  C   UNL     1     -11.933   8.389  71.939  1.00  0.00    -0.397 A  
HETATM   25  C   UNL     1     -10.556   7.228  73.693  1.00  0.00    -0.353 C  
HETATM   26  C   UNL     1     -12.042   9.253  70.855  1.00  0.00    -0.297 A  
HETATM   27  C   UNL     1      -9.195   6.563  73.784  1.00  0.00    -0.160 C  
HETATM   28  C   UNL     1      -8.063   7.517  73.475  1.00  0.00    -0.133 C  
HETATM   29  O   UNL     1      -6.962   7.420  74.006  1.00  0.00    -0.085 OA 
HETATM   30  N   UNL     1      -8.287   8.422  72.473  1.00  0.00    -0.168 N  
HETATM   31  H   UNL     1      -7.490   8.952  72.121  1.00  0.00     0.000 HD 
ENDBRANCH  19  20
ENDBRANCH  18  19
ENDBRANCH  17  18
ENDBRANCH  16  17
ENDBRANCH  15  16
ENDBRANCH  12  15
ENDBRANCH   6   9
TORSDOF 7
ENDMDL
MODEL      112
REMARK 921   NORMALIZED FREE ENERGY PREDICTED BY IDOCK:   -4.97 KCAL/MOL
REMARK 922        TOTAL FREE ENERGY PREDICTED BY IDOCK:   -8.61 KCAL/MOL
REMARK 923 INTER-LIGAND FREE ENERGY PREDICTED BY IDOCK:   -7.47 KCAL/MOL
REMARK 924 INTRA-LIGAND FREE ENERGY PREDICTED BY IDOCK:   -1.14 KCAL/MOL
REMARK 927      BINDING AFFINITY PREDICTED BY RF-SCORE:    0.00 PKD
ROOT
HETATM    1 CL   UNL     1     -11.905   6.714  72.405  1.00  0.00    -0.271 Cl 
HETATM    2  C   UNL     1     -11.671   8.208  71.553  1.00  0.00    -0.286 A  
HETATM    3  C   UNL     1     -12.342   9.319  72.059  1.00  0.00    -0.433 A  
HETATM    4  C   UNL     1     -12.214  10.544  71.421  1.00  0.00    -0.429 A  
HETATM    5  C   UNL     1     -11.453  10.641  70.255  1.00  0.00    -0.422 A  
HETATM    6  C   UNL     1     -10.765   9.544  69.690  1.00  0.00    -0.238 A  
HETATM    7  C   UNL     1     -10.859   8.313  70.402  1.00  0.00    -0.235 A  
HETATM    8 CL   UNL     1      -9.894   6.926  69.966  1.00  0.00    -0.176 Cl 
ENDROOT
BRANCH   6   9
HETATM    9  N   UNL     1     -10.109   9.732  68.479  1.00  0.00    -0.160 NA 
HETATM   10  C   UNL     1      -8.992  10.683  68.331  1.00  0.00    -0.149 C  
HETATM   11  C   UNL     1      -7.853  10.086  67.473  1.00  0.00    -0.095 C  
HETATM   12  N   UNL     1      -8.280   9.539  66.165  1.00  0.00    -0.114 NA 
HETATM   13  C   UNL     1     -10.548   9.070  67.233  1.00  0.00    -0.231 C  
HETATM   14  C   UNL     1      -9.332   8.530  66.441  1.00  0.00    -0.213 C  
BRANCH  12  15
HETATM   15  C   UNL     1      -8.773  10.588  65.256  1.00  0.00    -0.188 C  
BRANCH  15  16
HETATM   16  C   UNL     1      -9.615  10.046  64.084  1.00  0.00    -0.274 C  
BRANCH  16  17
HETATM   17  C   UNL     1     -10.619  11.048  63.507  1.00  0.00    -0.303 C  
BRANCH  17  18
HETATM   18  C   UNL     1     -10.960  12.119  64.532  1.00  0.00    -0.314 C  
BRANCH  18  19
HETATM   19  O   UNL     1     -10.677  13.419  64.019  1.00  0.00    -0.342 OA 
BRANCH  19  20
HETATM   20  C   UNL     1     -10.298  14.322  64.984  1.00  0.00    -0.421 A  
HETATM   21  C   UNL     1      -9.439  13.821  65.965  1.00  0.00    -0.125 A  
HETATM   22  C   UNL     1      -9.003  14.659  66.992  1.00  0.00    -0.240 A  
HETATM   23  C   UNL     1      -9.415  15.998  67.047  1.00  0.00    -0.230 A  
HETATM   24  C   UNL     1     -10.244  16.498  66.046  1.00  0.00    -0.372 A  
HETATM   25  C   UNL     1      -8.859  16.907  68.104  1.00  0.00    -0.223 C  
HETATM   26  C   UNL     1     -10.677  15.668  65.019  1.00  0.00    -0.458 A  
HETATM   27  C   UNL     1      -8.469  16.143  69.356  1.00  0.00    -0.091 C  
HETATM   28  C   UNL     1      -7.701  14.878  69.046  1.00  0.00    -0.153 C  
HETATM   29  O   UNL     1      -6.834  14.438  69.795  1.00  0.00    -0.144 OA 
HETATM   30  N   UNL     1      -8.108  14.173  67.947  1.00  0.00    -0.140 N  
HETATM   31  H   UNL     1      -7.735  13.233  67.816  1.00  0.00     0.000 HD 
ENDBRANCH  19  20
ENDBRANCH  18  19
ENDBRANCH  17  18
ENDBRANCH  16  17
ENDBRANCH  15  16
ENDBRANCH  12  15
ENDBRANCH   6   9
TORSDOF 7
ENDMDL
MODEL      113
REMARK 921   NORMALIZED FREE ENERGY PREDICTED BY IDOCK:   -4.96 KCAL/MOL
REMARK 922        TOTAL FREE ENERGY PREDICTED BY IDOCK:   -8.59 KCAL/MOL
REMARK 923 INTER-LIGAND FREE ENERGY PREDICTED BY IDOCK:   -6.74 KCAL/MOL
REMARK 924 INTRA-LIGAND FREE ENERGY PREDICTED BY IDOCK:   -1.85 KCAL/MOL
REMARK 927      BINDING AFFINITY PREDICTED BY RF-SCORE:    0.00 PKD
ROOT
HETATM    1 CL   UNL     1      -7.981   9.639  62.733  1.00  0.00    -0.120 Cl 
HETATM    2  C   UNL     1      -7.750  10.066  64.399  1.00  0.00    -0.145 A  
HETATM    3  C   UNL     1      -6.463   9.902  64.906  1.00  0.00    -0.111 A  
HETATM    4  C   UNL     1      -6.209  10.209  66.235  1.00  0.00    -0.078 A  
HETATM    5  C   UNL     1      -7.250  10.636  67.060  1.00  0.00    -0.101 A  
HETATM    6  C   UNL     1      -8.576  10.805  66.601  1.00  0.00    -0.143 A  
HETATM    7  C   UNL     1      -8.797  10.546  65.217  1.00  0.00    -0.188 A  
HETATM    8 CL   UNL     1     -10.318  10.920  64.447  1.00  0.00    -0.422 Cl 
ENDROOT
BRANCH   6   9
HETATM    9  N   UNL     1      -9.553  11.150  67.528  1.00  0.00    -0.168 NA 
HETATM   10  C   UNL     1      -9.392  12.288  68.452  1.00  0.00    -0.162 C  
HETATM   11  C   UNL     1     -10.700  13.102  68.576  1.00  0.00    -0.259 C  
HETATM   12  N   UNL     1     -11.903  12.303  68.901  1.00  0.00    -0.314 NA 
HETATM   13  C   UNL     1     -10.775  10.342  67.722  1.00  0.00    -0.275 C  
HETATM   14  C   UNL     1     -12.020  11.254  67.858  1.00  0.00    -0.002 C  
BRANCH  12  15
HETATM   15  C   UNL     1     -11.833  11.710  70.247  1.00  0.00    -0.326 C  
BRANCH  15  16
HETATM   16  C   UNL     1     -12.902  10.630  70.505  1.00  0.00    -0.356 C  
BRANCH  16  17
HETATM   17  C   UNL     1     -12.922  10.086  71.937  1.00  0.00    -0.547 C  
BRANCH  17  18
HETATM   18  C   UNL     1     -13.009   8.568  71.934  1.00  0.00    -0.362 C  
BRANCH  18  19
HETATM   19  O   UNL     1     -11.755   7.988  72.287  1.00  0.00    -0.324 OA 
BRANCH  19  20
HETATM   20  C   UNL     1     -10.901   7.831  71.221  1.00  0.00    -0.231 A  
HETATM   21  C   UNL     1     -11.384   7.029  70.183  1.00  0.00    -0.321 A  
HETATM   22  C   UNL     1     -10.588   6.805  69.059  1.00  0.00    -0.230 A  
HETATM   23  C   UNL     1      -9.314   7.379  68.958  1.00  0.00    -0.145 A  
HETATM   24  C   UNL     1      -8.854   8.205  69.981  1.00  0.00    -0.139 A  
HETATM   25  C   UNL     1      -8.514   7.203  67.700  1.00  0.00    -0.120 C  
HETATM   26  C   UNL     1      -9.645   8.434  71.101  1.00  0.00    -0.226 A  
HETATM   27  C   UNL     1      -8.863   5.911  66.986  1.00  0.00    -0.112 C  
HETATM   28  C   UNL     1     -10.355   5.680  66.904  1.00  0.00    -0.259 C  
HETATM   29  O   UNL     1     -10.877   5.096  65.960  1.00  0.00    -0.252 OA 
HETATM   30  N   UNL     1     -11.087   6.042  68.002  1.00  0.00    -0.302 N  
HETATM   31  H   UNL     1     -12.059   5.735  68.051  1.00  0.00     0.000 HD 
ENDBRANCH  19  20
ENDBRANCH  18  19
ENDBRANCH  17  18
ENDBRANCH  16  17
ENDBRANCH  15  16
ENDBRANCH  12  15
ENDBRANCH   6   9
TORSDOF 7
ENDMDL
MODEL      114
REMARK 921   NORMALIZED FREE ENERGY PREDICTED BY IDOCK:   -4.95 KCAL/MOL
REMARK 922        TOTAL FREE ENERGY PREDICTED BY IDOCK:   -8.58 KCAL/MOL
REMARK 923 INTER-LIGAND FREE ENERGY PREDICTED BY IDOCK:   -7.95 KCAL/MOL
REMARK 924 INTRA-LIGAND FREE ENERGY PREDICTED BY IDOCK:   -0.62 KCAL/MOL
REMARK 927      BINDING AFFINITY PREDICTED BY RF-SCORE:    0.00 PKD
ROOT
HETATM    1 CL   UNL     1     -10.314   2.478  72.735  1.00  0.00    -0.232 Cl 
HETATM    2  C   UNL     1     -10.192   4.196  72.954  1.00  0.00    -0.165 A  
HETATM    3  C   UNL     1     -10.102   4.645  74.270  1.00  0.00    -0.249 A  
HETATM    4  C   UNL     1     -10.017   6.007  74.522  1.00  0.00    -0.321 A  
HETATM    5  C   UNL     1     -10.068   6.912  73.462  1.00  0.00    -0.323 A  
HETATM    6  C   UNL     1     -10.174   6.512  72.111  1.00  0.00    -0.185 A  
HETATM    7  C   UNL     1     -10.193   5.107  71.875  1.00  0.00    -0.209 A  
HETATM    8 CL   UNL     1     -10.095   4.447  70.262  1.00  0.00    -0.251 Cl 
ENDROOT
BRANCH   6   9
HETATM    9  N   UNL     1     -10.306   7.499  71.141  1.00  0.00    -0.201 NA 
HETATM   10  C   UNL     1     -11.617   8.061  70.767  1.00  0.00    -0.242 C  
HETATM   11  C   UNL     1     -11.543   9.595  70.592  1.00  0.00    -0.299 C  
HETATM   12  N   UNL     1     -10.470  10.068  69.688  1.00  0.00    -0.230 NA 
HETATM   13  C   UNL     1      -9.158   7.982  70.345  1.00  0.00    -0.150 C  
HETATM   14  C   UNL     1      -9.193   9.524  70.212  1.00  0.00    -0.258 C  
BRANCH  12  15
HETATM   15  C   UNL     1     -10.693   9.653  68.293  1.00  0.00    -0.217 C  
BRANCH  15  16
HETATM   16  C   UNL     1     -11.026  10.822  67.345  1.00  0.00    -0.361 C  
BRANCH  16  17
HETATM   17  C   UNL     1     -11.532  12.086  68.049  1.00  0.00    -0.392 C  
BRANCH  17  18
HETATM   18  C   UNL     1     -10.924  13.331  67.421  1.00  0.00    -0.271 C  
BRANCH  18  19
HETATM   19  O   UNL     1     -11.770  14.462  67.618  1.00  0.00    -0.355 OA 
BRANCH  19  20
HETATM   20  C   UNL     1     -11.083  15.632  67.835  1.00  0.00    -0.324 A  
HETATM   21  C   UNL     1     -10.147  15.965  66.852  1.00  0.00    -0.267 A  
HETATM   22  C   UNL     1      -9.395  17.133  66.986  1.00  0.00    -0.243 A  
HETATM   23  C   UNL     1      -9.570  17.976  68.092  1.00  0.00    -0.303 A  
HETATM   24  C   UNL     1     -10.529  17.654  69.049  1.00  0.00    -0.200 A  
HETATM   25  C   UNL     1      -8.820  19.273  68.168  1.00  0.00    -0.373 C  
HETATM   26  C   UNL     1     -11.284  16.494  68.918  1.00  0.00    -0.257 A  
HETATM   27  C   UNL     1      -7.501  19.207  67.421  1.00  0.00    -0.254 C  
HETATM   28  C   UNL     1      -7.637  18.556  66.063  1.00  0.00    -0.197 C  
HETATM   29  O   UNL     1      -6.941  18.881  65.107  1.00  0.00    -0.490 OA 
HETATM   30  N   UNL     1      -8.492  17.491  65.982  1.00  0.00    -0.135 N  
HETATM   31  H   UNL     1      -8.469  16.922  65.136  1.00  0.00     0.000 HD 
ENDBRANCH  19  20
ENDBRANCH  18  19
ENDBRANCH  17  18
ENDBRANCH  16  17
ENDBRANCH  15  16
ENDBRANCH  12  15
ENDBRANCH   6   9
TORSDOF 7
ENDMDL
MODEL      115
REMARK 921   NORMALIZED FREE ENERGY PREDICTED BY IDOCK:   -4.94 KCAL/MOL
REMARK 922        TOTAL FREE ENERGY PREDICTED BY IDOCK:   -8.57 KCAL/MOL
REMARK 923 INTER-LIGAND FREE ENERGY PREDICTED BY IDOCK:   -7.49 KCAL/MOL
REMARK 924 INTRA-LIGAND FREE ENERGY PREDICTED BY IDOCK:   -1.08 KCAL/MOL
REMARK 927      BINDING AFFINITY PREDICTED BY RF-SCORE:    0.00 PKD
ROOT
HETATM    1 CL   UNL     1      -7.120   5.910  71.403  1.00  0.00    -0.075 Cl 
HETATM    2  C   UNL     1      -8.760   6.237  70.939  1.00  0.00    -0.136 A  
HETATM    3  C   UNL     1      -9.371   5.289  70.122  1.00  0.00    -0.202 A  
HETATM    4  C   UNL     1     -10.677   5.491  69.700  1.00  0.00    -0.349 A  
HETATM    5  C   UNL     1     -11.349   6.661  70.060  1.00  0.00    -0.440 A  
HETATM    6  C   UNL     1     -10.771   7.661  70.873  1.00  0.00    -0.235 A  
HETATM    7  C   UNL     1      -9.453   7.398  71.348  1.00  0.00    -0.152 A  
HETATM    8 CL   UNL     1      -8.687   8.420  72.537  1.00  0.00    -0.281 Cl 
ENDROOT
BRANCH   6   9
HETATM    9  N   UNL     1     -11.496   8.826  71.097  1.00  0.00    -0.273 NA 
HETATM   10  C   UNL     1     -11.271  10.053  70.310  1.00  0.00    -0.313 C  
HETATM   11  C   UNL     1     -12.606  10.732  69.931  1.00  0.00    -0.132 C  
HETATM   12  N   UNL     1     -13.527  10.973  71.065  1.00  0.00     0.185 NA 
HETATM   13  C   UNL     1     -12.469   8.950  72.202  1.00  0.00    -0.389 C  
HETATM   14  C   UNL     1     -13.757   9.663  71.721  1.00  0.00    -0.270 C  
BRANCH  12  15
HETATM   15  C   UNL     1     -12.991  11.959  72.019  1.00  0.00    -0.265 C  
BRANCH  15  16
HETATM   16  C   UNL     1     -13.916  13.172  72.241  1.00  0.00    -0.490 C  
BRANCH  16  17
HETATM   17  C   UNL     1     -13.208  14.419  72.781  1.00  0.00    -0.611 C  
BRANCH  17  18
HETATM   18  C   UNL     1     -12.683  15.277  71.640  1.00  0.00    -0.384 C  
BRANCH  18  19
HETATM   19  O   UNL     1     -12.968  14.672  70.380  1.00  0.00    -0.323 OA 
BRANCH  19  20
HETATM   20  C   UNL     1     -11.946  14.793  69.468  1.00  0.00    -0.311 A  
HETATM   21  C   UNL     1     -11.075  13.702  69.400  1.00  0.00    -0.193 A  
HETATM   22  C   UNL     1     -10.003  13.733  68.508  1.00  0.00    -0.217 A  
HETATM   23  C   UNL     1      -9.793  14.842  67.678  1.00  0.00    -0.217 A  
HETATM   24  C   UNL     1     -10.685  15.911  67.728  1.00  0.00    -0.320 A  
HETATM   25  C   UNL     1      -8.690  14.815  66.660  1.00  0.00    -0.229 C  
HETATM   26  C   UNL     1     -11.758  15.883  68.612  1.00  0.00    -0.328 A  
HETATM   27  C   UNL     1      -7.546  13.917  67.092  1.00  0.00     0.045 C  
HETATM   28  C   UNL     1      -8.025  12.592  67.641  1.00  0.00    -0.169 C  
HETATM   29  O   UNL     1      -7.379  11.557  67.511  1.00  0.00    -0.098 OA 
HETATM   30  N   UNL     1      -9.158  12.625  68.406  1.00  0.00    -0.321 N  
HETATM   31  H   UNL     1      -9.403  11.788  68.936  1.00  0.00     0.000 HD 
ENDBRANCH  19  20
ENDBRANCH  18  19
ENDBRANCH  17  18
ENDBRANCH  16  17
ENDBRANCH  15  16
ENDBRANCH  12  15
ENDBRANCH   6   9
TORSDOF 7
ENDMDL
MODEL      116
REMARK 921   NORMALIZED FREE ENERGY PREDICTED BY IDOCK:   -4.94 KCAL/MOL
REMARK 922        TOTAL FREE ENERGY PREDICTED BY IDOCK:   -8.57 KCAL/MOL
REMARK 923 INTER-LIGAND FREE ENERGY PREDICTED BY IDOCK:   -7.30 KCAL/MOL
REMARK 924 INTRA-LIGAND FREE ENERGY PREDICTED BY IDOCK:   -1.27 KCAL/MOL
REMARK 927      BINDING AFFINITY PREDICTED BY RF-SCORE:    0.00 PKD
ROOT
HETATM    1 CL   UNL     1      -8.653  18.049  68.674  1.00  0.00    -0.300 Cl 
HETATM    2  C   UNL     1      -9.820  16.808  68.341  1.00  0.00    -0.253 A  
HETATM    3  C   UNL     1     -10.835  16.647  69.281  1.00  0.00    -0.310 A  
HETATM    4  C   UNL     1     -11.795  15.664  69.087  1.00  0.00    -0.378 A  
HETATM    5  C   UNL     1     -11.709  14.819  67.980  1.00  0.00    -0.360 A  
HETATM    6  C   UNL     1     -10.692  14.929  67.005  1.00  0.00    -0.307 A  
HETATM    7  C   UNL     1      -9.758  15.989  67.192  1.00  0.00    -0.228 A  
HETATM    8 CL   UNL     1      -8.582  16.400  65.970  1.00  0.00    -0.331 Cl 
ENDROOT
BRANCH   6   9
HETATM    9  N   UNL     1     -10.649  13.980  65.990  1.00  0.00    -0.291 NA 
HETATM   10  C   UNL     1     -10.039  12.651  66.184  1.00  0.00    -0.257 C  
HETATM   11  C   UNL     1     -10.896  11.539  65.539  1.00  0.00    -0.254 C  
HETATM   12  N   UNL     1     -11.255  11.771  64.122  1.00  0.00    -0.357 NA 
HETATM   13  C   UNL     1     -11.118  14.269  64.619  1.00  0.00    -0.363 C  
HETATM   14  C   UNL     1     -11.944  13.084  64.061  1.00  0.00    -0.456 C  
BRANCH  12  15
HETATM   15  C   UNL     1     -10.079  11.746  63.236  1.00  0.00    -0.420 C  
BRANCH  15  16
HETATM   16  C   UNL     1      -9.463  10.343  63.066  1.00  0.00    -0.362 C  
BRANCH  16  17
HETATM   17  C   UNL     1      -7.934  10.329  62.971  1.00  0.00    -0.150 C  
BRANCH  17  18
HETATM   18  C   UNL     1      -7.327   9.625  64.176  1.00  0.00    -0.122 C  
BRANCH  18  19
HETATM   19  O   UNL     1      -7.601  10.346  65.375  1.00  0.00    -0.144 OA 
BRANCH  19  20
HETATM   20  C   UNL     1      -8.069   9.556  66.398  1.00  0.00    -0.111 A  
HETATM   21  C   UNL     1      -8.441   8.261  66.029  1.00  0.00    -0.148 A  
HETATM   22  C   UNL     1      -8.934   7.384  66.997  1.00  0.00    -0.130 A  
HETATM   23  C   UNL     1      -9.055   7.788  68.333  1.00  0.00    -0.131 A  
HETATM   24  C   UNL     1      -8.649   9.069  68.699  1.00  0.00    -0.129 A  
HETATM   25  C   UNL     1      -9.496   6.800  69.374  1.00  0.00    -0.147 C  
HETATM   26  C   UNL     1      -8.154   9.944  67.739  1.00  0.00    -0.109 A  
HETATM   27  C   UNL     1     -10.386   5.721  68.785  1.00  0.00    -0.289 C  
HETATM   28  C   UNL     1      -9.846   5.172  67.484  1.00  0.00    -0.162 C  
HETATM   29  O   UNL     1     -10.018   4.006  67.143  1.00  0.00    -0.164 OA 
HETATM   30  N   UNL     1      -9.263   6.076  66.638  1.00  0.00    -0.138 N  
HETATM   31  H   UNL     1      -9.055   5.774  65.686  1.00  0.00     0.000 HD 
ENDBRANCH  19  20
ENDBRANCH  18  19
ENDBRANCH  17  18
ENDBRANCH  16  17
ENDBRANCH  15  16
ENDBRANCH  12  15
ENDBRANCH   6   9
TORSDOF 7
ENDMDL
MODEL      117
REMARK 921   NORMALIZED FREE ENERGY PREDICTED BY IDOCK:   -4.94 KCAL/MOL
REMARK 922        TOTAL FREE ENERGY PREDICTED BY IDOCK:   -8.56 KCAL/MOL
REMARK 923 INTER-LIGAND FREE ENERGY PREDICTED BY IDOCK:   -7.55 KCAL/MOL
REMARK 924 INTRA-LIGAND FREE ENERGY PREDICTED BY IDOCK:   -1.01 KCAL/MOL
REMARK 927      BINDING AFFINITY PREDICTED BY RF-SCORE:    0.00 PKD
ROOT
HETATM    1 CL   UNL     1      -8.952   4.771  70.674  1.00  0.00    -0.152 Cl 
HETATM    2  C   UNL     1      -9.303   5.190  69.027  1.00  0.00    -0.121 A  
HETATM    3  C   UNL     1      -9.416   4.130  68.131  1.00  0.00    -0.215 A  
HETATM    4  C   UNL     1      -9.681   4.391  66.794  1.00  0.00    -0.235 A  
HETATM    5  C   UNL     1      -9.785   5.710  66.353  1.00  0.00    -0.180 A  
HETATM    6  C   UNL     1      -9.662   6.823  67.215  1.00  0.00    -0.140 A  
HETATM    7  C   UNL     1      -9.457   6.526  68.594  1.00  0.00    -0.123 A  
HETATM    8 CL   UNL     1      -9.509   7.770  69.817  1.00  0.00    -0.160 Cl 
ENDROOT
BRANCH   6   9
HETATM    9  N   UNL     1      -9.694   8.095  66.656  1.00  0.00    -0.230 NA 
HETATM   10  C   UNL     1     -10.901   8.941  66.701  1.00  0.00     0.258 C  
HETATM   11  C   UNL     1     -10.548  10.410  67.029  1.00  0.00    -0.245 C  
HETATM   12  N   UNL     1      -9.497  11.005  66.172  1.00  0.00    -0.196 NA 
HETATM   13  C   UNL     1      -8.558   8.650  65.891  1.00  0.00    -0.157 C  
HETATM   14  C   UNL     1      -8.305  10.128  66.278  1.00  0.00    -0.130 C  
BRANCH  12  15
HETATM   15  C   UNL     1      -9.932  11.144  64.772  1.00  0.00    -0.287 C  
BRANCH  15  16
HETATM   16  C   UNL     1     -10.099  12.607  64.318  1.00  0.00    -0.292 C  
BRANCH  16  17
HETATM   17  C   UNL     1     -11.515  12.973  63.863  1.00  0.00    -0.490 C  
BRANCH  17  18
HETATM   18  C   UNL     1     -12.103  14.058  64.753  1.00  0.00    -0.437 C  
BRANCH  18  19
HETATM   19  O   UNL     1     -11.117  15.035  65.078  1.00  0.00    -0.368 OA 
BRANCH  19  20
HETATM   20  C   UNL     1     -11.035  15.309  66.422  1.00  0.00    -0.299 A  
HETATM   21  C   UNL     1     -11.720  14.420  67.254  1.00  0.00    -0.429 A  
HETATM   22  C   UNL     1     -11.701  14.617  68.636  1.00  0.00    -0.329 A  
HETATM   23  C   UNL     1     -10.999  15.693  69.196  1.00  0.00    -0.259 A  
HETATM   24  C   UNL     1     -10.291  16.554  68.362  1.00  0.00    -0.294 A  
HETATM   25  C   UNL     1     -10.913  15.831  70.688  1.00  0.00    -0.341 C  
HETATM   26  C   UNL     1     -10.304  16.359  66.986  1.00  0.00    -0.293 A  
HETATM   27  C   UNL     1     -12.115  15.218  71.382  1.00  0.00    -0.415 C  
HETATM   28  C   UNL     1     -12.474  13.859  70.825  1.00  0.00    -0.375 C  
HETATM   29  O   UNL     1     -12.961  12.974  71.520  1.00  0.00    -0.367 OA 
HETATM   30  N   UNL     1     -12.347  13.703  69.472  1.00  0.00    -0.252 N  
HETATM   31  H   UNL     1     -12.749  12.868  69.046  1.00  0.00     0.000 HD 
ENDBRANCH  19  20
ENDBRANCH  18  19
ENDBRANCH  17  18
ENDBRANCH  16  17
ENDBRANCH  15  16
ENDBRANCH  12  15
ENDBRANCH   6   9
TORSDOF 7
ENDMDL
MODEL      118
REMARK 921   NORMALIZED FREE ENERGY PREDICTED BY IDOCK:   -4.94 KCAL/MOL
REMARK 922        TOTAL FREE ENERGY PREDICTED BY IDOCK:   -8.56 KCAL/MOL
REMARK 923 INTER-LIGAND FREE ENERGY PREDICTED BY IDOCK:   -7.87 KCAL/MOL
REMARK 924 INTRA-LIGAND FREE ENERGY PREDICTED BY IDOCK:   -0.69 KCAL/MOL
REMARK 927      BINDING AFFINITY PREDICTED BY RF-SCORE:    0.00 PKD
ROOT
HETATM    1 CL   UNL     1     -11.188   6.682  70.437  1.00  0.00    -0.368 Cl 
HETATM    2  C   UNL     1     -12.247   7.942  70.988  1.00  0.00    -0.198 A  
HETATM    3  C   UNL     1     -13.483   7.536  71.485  1.00  0.00    -0.426 A  
HETATM    4  C   UNL     1     -14.387   8.490  71.929  1.00  0.00    -0.536 A  
HETATM    5  C   UNL     1     -14.068   9.845  71.833  1.00  0.00     0.084 A  
HETATM    6  C   UNL     1     -12.836  10.312  71.324  1.00  0.00    -0.422 A  
HETATM    7  C   UNL     1     -11.900   9.310  70.936  1.00  0.00    -0.282 A  
HETATM    8 CL   UNL     1     -10.258   9.711  70.500  1.00  0.00    -0.341 Cl 
ENDROOT
BRANCH   6   9
HETATM    9  N   UNL     1     -12.657  11.684  71.190  1.00  0.00    -0.378 NA 
HETATM   10  C   UNL     1     -11.853  12.268  70.101  1.00  0.00    -0.272 C  
HETATM   11  C   UNL     1     -12.536  13.519  69.504  1.00  0.00    -0.005 C  
HETATM   12  N   UNL     1     -12.936  14.544  70.494  1.00  0.00    -0.316 NA 
HETATM   13  C   UNL     1     -13.175  12.648  72.184  1.00  0.00    -0.421 C  
HETATM   14  C   UNL     1     -13.815  13.870  71.481  1.00  0.00    -0.218 C  
BRANCH  12  15
HETATM   15  C   UNL     1     -11.775  15.166  71.153  1.00  0.00    -0.353 C  
BRANCH  15  16
HETATM   16  C   UNL     1     -10.577  15.393  70.212  1.00  0.00    -0.299 C  
BRANCH  16  17
HETATM   17  C   UNL     1     -10.817  16.438  69.118  1.00  0.00    -0.329 C  
BRANCH  17  18
HETATM   18  C   UNL     1      -9.545  16.685  68.321  1.00  0.00    -0.233 C  
BRANCH  18  19
HETATM   19  O   UNL     1      -9.695  16.234  66.976  1.00  0.00    -0.231 OA 
BRANCH  19  20
HETATM   20  C   UNL     1      -9.968  14.891  66.872  1.00  0.00    -0.242 A  
HETATM   21  C   UNL     1      -9.031  14.044  67.471  1.00  0.00    -0.195 A  
HETATM   22  C   UNL     1      -9.217  12.663  67.414  1.00  0.00    -0.191 A  
HETATM   23  C   UNL     1     -10.333  12.116  66.768  1.00  0.00    -0.237 A  
HETATM   24  C   UNL     1     -11.280  12.968  66.204  1.00  0.00    -0.320 A  
HETATM   25  C   UNL     1     -10.563  10.633  66.801  1.00  0.00    -0.297 C  
HETATM   26  C   UNL     1     -11.101  14.345  66.262  1.00  0.00    -0.331 A  
HETATM   27  C   UNL     1      -9.262   9.863  66.927  1.00  0.00    -0.171 C  
HETATM   28  C   UNL     1      -8.340  10.452  67.970  1.00  0.00    -0.118 C  
HETATM   29  O   UNL     1      -7.575   9.760  68.634  1.00  0.00    -0.077 OA 
HETATM   30  N   UNL     1      -8.306  11.817  68.051  1.00  0.00    -0.146 N  
HETATM   31  H   UNL     1      -7.569  12.245  68.612  1.00  0.00     0.000 HD 
ENDBRANCH  19  20
ENDBRANCH  18  19
ENDBRANCH  17  18
ENDBRANCH  16  17
ENDBRANCH  15  16
ENDBRANCH  12  15
ENDBRANCH   6   9
TORSDOF 7
ENDMDL
MODEL      119
REMARK 921   NORMALIZED FREE ENERGY PREDICTED BY IDOCK:   -4.93 KCAL/MOL
REMARK 922        TOTAL FREE ENERGY PREDICTED BY IDOCK:   -8.55 KCAL/MOL
REMARK 923 INTER-LIGAND FREE ENERGY PREDICTED BY IDOCK:   -7.79 KCAL/MOL
REMARK 924 INTRA-LIGAND FREE ENERGY PREDICTED BY IDOCK:   -0.76 KCAL/MOL
REMARK 927      BINDING AFFINITY PREDICTED BY RF-SCORE:    0.00 PKD
ROOT
HETATM    1 CL   UNL     1      -7.983   3.216  62.868  1.00  0.00    -0.071 Cl 
HETATM    2  C   UNL     1      -7.556   4.364  64.098  1.00  0.00    -0.071 A  
HETATM    3  C   UNL     1      -6.272   4.899  64.025  1.00  0.00    -0.022 A  
HETATM    4  C   UNL     1      -5.857   5.811  64.984  1.00  0.00    -0.024 A  
HETATM    5  C   UNL     1      -6.710   6.149  66.035  1.00  0.00    -0.052 A  
HETATM    6  C   UNL     1      -8.015   5.624  66.166  1.00  0.00    -0.106 A  
HETATM    7  C   UNL     1      -8.441   4.741  65.132  1.00  0.00    -0.135 A  
HETATM    8 CL   UNL     1     -10.092   4.185  65.025  1.00  0.00    -0.221 Cl 
ENDROOT
BRANCH   6   9
HETATM    9  N   UNL     1      -8.748   5.959  67.299  1.00  0.00    -0.109 NA 
HETATM   10  C   UNL     1      -9.732   7.058  67.301  1.00  0.00    -0.149 C  
HETATM   11  C   UNL     1     -11.016   6.662  68.065  1.00  0.00    -0.249 C  
HETATM   12  N   UNL     1     -10.792   6.130  69.428  1.00  0.00    -0.315 NA 
HETATM   13  C   UNL     1      -8.521   5.307  68.606  1.00  0.00    -0.088 C  
HETATM   14  C   UNL     1      -9.868   4.977  69.295  1.00  0.00    -0.196 C  
BRANCH  12  15
HETATM   15  C   UNL     1     -10.244   7.148  70.341  1.00  0.00    -0.193 C  
BRANCH  15  16
HETATM   16  C   UNL     1     -10.580   6.894  71.824  1.00  0.00    -0.235 C  
BRANCH  16  17
HETATM   17  C   UNL     1     -11.678   7.799  72.390  1.00  0.00    -0.394 C  
BRANCH  17  18
HETATM   18  C   UNL     1     -12.739   8.081  71.337  1.00  0.00    -0.280 C  
BRANCH  18  19
HETATM   19  O   UNL     1     -13.593   9.146  71.751  1.00  0.00    -0.379 OA 
BRANCH  19  20
HETATM   20  C   UNL     1     -13.169  10.385  71.335  1.00  0.00    -0.364 A  
HETATM   21  C   UNL     1     -13.625  11.460  72.104  1.00  0.00    -0.084 A  
HETATM   22  C   UNL     1     -13.253  12.760  71.757  1.00  0.00    -0.374 A  
HETATM   23  C   UNL     1     -12.425  12.998  70.652  1.00  0.00    -0.347 A  
HETATM   24  C   UNL     1     -11.947  11.918  69.913  1.00  0.00    -0.398 A  
HETATM   25  C   UNL     1     -11.960  14.393  70.355  1.00  0.00    -0.395 C  
HETATM   26  C   UNL     1     -12.312  10.621  70.256  1.00  0.00    -0.406 A  
HETATM   27  C   UNL     1     -12.949  15.434  70.846  1.00  0.00    -0.539 C  
HETATM   28  C   UNL     1     -13.447  15.145  72.244  1.00  0.00    -0.437 C  
HETATM   29  O   UNL     1     -13.746  16.038  73.030  1.00  0.00    -0.590 OA 
HETATM   30  N   UNL     1     -13.670  13.831  72.550  1.00  0.00    -0.567 N  
HETATM   31  H   UNL     1     -14.172  13.620  73.413  1.00  0.00     0.000 HD 
ENDBRANCH  19  20
ENDBRANCH  18  19
ENDBRANCH  17  18
ENDBRANCH  16  17
ENDBRANCH  15  16
ENDBRANCH  12  15
ENDBRANCH   6   9
TORSDOF 7
ENDMDL
MODEL      120
REMARK 921   NORMALIZED FREE ENERGY PREDICTED BY IDOCK:   -4.91 KCAL/MOL
REMARK 922        TOTAL FREE ENERGY PREDICTED BY IDOCK:   -8.53 KCAL/MOL
REMARK 923 INTER-LIGAND FREE ENERGY PREDICTED BY IDOCK:   -7.03 KCAL/MOL
REMARK 924 INTRA-LIGAND FREE ENERGY PREDICTED BY IDOCK:   -1.50 KCAL/MOL
REMARK 927      BINDING AFFINITY PREDICTED BY RF-SCORE:    0.00 PKD
ROOT
HETATM    1 CL   UNL     1     -10.894  12.818  66.286  1.00  0.00    -0.291 Cl 
HETATM    2  C   UNL     1     -11.456  12.554  67.907  1.00  0.00    -0.315 A  
HETATM    3  C   UNL     1     -11.821  13.690  68.626  1.00  0.00    -0.409 A  
HETATM    4  C   UNL     1     -12.265  13.556  69.934  1.00  0.00    -0.356 A  
HETATM    5  C   UNL     1     -12.298  12.295  70.529  1.00  0.00    -0.349 A  
HETATM    6  C   UNL     1     -11.925  11.113  69.851  1.00  0.00    -0.363 A  
HETATM    7  C   UNL     1     -11.536  11.270  68.489  1.00  0.00    -0.315 A  
HETATM    8 CL   UNL     1     -11.262   9.894  67.450  1.00  0.00    -0.111 Cl 
ENDROOT
BRANCH   6   9
HETATM    9  N   UNL     1     -11.911   9.921  70.566  1.00  0.00    -0.259 NA 
HETATM   10  C   UNL     1     -10.689   9.110  70.715  1.00  0.00    -0.263 C  
HETATM   11  C   UNL     1     -10.543   8.572  72.156  1.00  0.00    -0.349 C  
HETATM   12  N   UNL     1     -11.733   7.865  72.682  1.00  0.00    -0.367 NA 
HETATM   13  C   UNL     1     -13.139   9.331  71.140  1.00  0.00    -0.190 C  
HETATM   14  C   UNL     1     -12.876   8.804  72.572  1.00  0.00    -0.316 C  
BRANCH  12  15
HETATM   15  C   UNL     1     -12.002   6.611  71.958  1.00  0.00    -0.319 C  
BRANCH  15  16
HETATM   16  C   UNL     1     -11.371   5.368  72.616  1.00  0.00    -0.327 C  
BRANCH  16  17
HETATM   17  C   UNL     1     -10.363   4.625  71.732  1.00  0.00    -0.208 C  
BRANCH  17  18
HETATM   18  C   UNL     1     -10.329   5.224  70.335  1.00  0.00    -0.275 C  
BRANCH  18  19
HETATM   19  O   UNL     1      -8.995   5.569  69.964  1.00  0.00    -0.128 OA 
BRANCH  19  20
HETATM   20  C   UNL     1      -8.916   6.273  68.786  1.00  0.00    -0.125 A  
HETATM   21  C   UNL     1      -8.381   7.559  68.896  1.00  0.00    -0.129 A  
HETATM   22  C   UNL     1      -8.265   8.355  67.755  1.00  0.00    -0.126 A  
HETATM   23  C   UNL     1      -8.673   7.877  66.503  1.00  0.00    -0.162 A  
HETATM   24  C   UNL     1      -9.174   6.581  66.398  1.00  0.00    -0.178 A  
HETATM   25  C   UNL     1      -8.451   8.713  65.276  1.00  0.00    -0.196 C  
HETATM   26  C   UNL     1      -9.288   5.783  67.530  1.00  0.00    -0.111 A  
HETATM   27  C   UNL     1      -8.444  10.195  65.598  1.00  0.00    -0.159 C  
HETATM   28  C   UNL     1      -7.620  10.519  66.823  1.00  0.00    -0.115 C  
HETATM   29  O   UNL     1      -7.011  11.576  66.943  1.00  0.00    -0.131 OA 
HETATM   30  N   UNL     1      -7.688   9.623  67.855  1.00  0.00    -0.087 N  
HETATM   31  H   UNL     1      -7.293   9.899  68.754  1.00  0.00     0.000 HD 
ENDBRANCH  19  20
ENDBRANCH  18  19
ENDBRANCH  17  18
ENDBRANCH  16  17
ENDBRANCH  15  16
ENDBRANCH  12  15
ENDBRANCH   6   9
TORSDOF 7
ENDMDL
MODEL      121
REMARK 921   NORMALIZED FREE ENERGY PREDICTED BY IDOCK:   -4.90 KCAL/MOL
REMARK 922        TOTAL FREE ENERGY PREDICTED BY IDOCK:   -8.51 KCAL/MOL
REMARK 923 INTER-LIGAND FREE ENERGY PREDICTED BY IDOCK:   -7.32 KCAL/MOL
REMARK 924 INTRA-LIGAND FREE ENERGY PREDICTED BY IDOCK:   -1.19 KCAL/MOL
REMARK 927      BINDING AFFINITY PREDICTED BY RF-SCORE:    0.00 PKD
ROOT
HETATM    1 CL   UNL     1      -7.287   5.720  64.345  1.00  0.00    -0.062 Cl 
HETATM    2  C   UNL     1      -7.261   5.536  66.071  1.00  0.00    -0.076 A  
HETATM    3  C   UNL     1      -6.298   4.671  66.585  1.00  0.00    -0.037 A  
HETATM    4  C   UNL     1      -6.228   4.464  67.955  1.00  0.00    -0.036 A  
HETATM    5  C   UNL     1      -7.149   5.086  68.798  1.00  0.00    -0.057 A  
HETATM    6  C   UNL     1      -8.155   5.960  68.328  1.00  0.00    -0.109 A  
HETATM    7  C   UNL     1      -8.163   6.208  66.925  1.00  0.00    -0.106 A  
HETATM    8 CL   UNL     1      -9.191   7.427  66.216  1.00  0.00    -0.200 Cl 
ENDROOT
BRANCH   6   9
HETATM    9  N   UNL     1      -9.075   6.456  69.245  1.00  0.00    -0.136 NA 
HETATM   10  C   UNL     1     -10.289   5.707  69.621  1.00  0.00    -0.276 C  
HETATM   11  C   UNL     1     -10.550   5.786  71.142  1.00  0.00    -0.251 C  
HETATM   12  N   UNL     1     -10.561   7.157  71.702  1.00  0.00    -0.207 NA 
HETATM   13  C   UNL     1      -8.957   7.808  69.829  1.00  0.00    -0.146 C  
HETATM   14  C   UNL     1      -9.261   7.778  71.347  1.00  0.00    -0.134 C  
BRANCH  12  15
HETATM   15  C   UNL     1     -11.689   7.958  71.198  1.00  0.00    -0.285 C  
BRANCH  15  16
HETATM   16  C   UNL     1     -11.779   9.363  71.823  1.00  0.00    -0.444 C  
BRANCH  16  17
HETATM   17  C   UNL     1     -12.441  10.415  70.928  1.00  0.00    -0.478 C  
BRANCH  17  18
HETATM   18  C   UNL     1     -11.571  10.715  69.717  1.00  0.00    -0.309 C  
BRANCH  18  19
HETATM   19  O   UNL     1     -11.653  12.095  69.363  1.00  0.00    -0.282 OA 
BRANCH  19  20
HETATM   20  C   UNL     1     -11.626  12.318  68.007  1.00  0.00    -0.349 A  
HETATM   21  C   UNL     1     -10.945  11.354  67.258  1.00  0.00    -0.336 A  
HETATM   22  C   UNL     1     -10.857  11.496  65.872  1.00  0.00    -0.260 A  
HETATM   23  C   UNL     1     -11.446  12.590  65.225  1.00  0.00    -0.374 A  
HETATM   24  C   UNL     1     -12.152  13.528  65.976  1.00  0.00    -0.489 A  
HETATM   25  C   UNL     1     -11.421  12.673  63.727  1.00  0.00    -0.539 C  
HETATM   26  C   UNL     1     -12.246  13.388  67.355  1.00  0.00    -0.262 A  
HETATM   27  C   UNL     1     -10.218  11.958  63.142  1.00  0.00    -0.334 C  
HETATM   28  C   UNL     1      -9.987  10.603  63.772  1.00  0.00    -0.317 C  
HETATM   29  O   UNL     1      -9.512   9.661  63.145  1.00  0.00    -0.125 OA 
HETATM   30  N   UNL     1     -10.216  10.511  65.118  1.00  0.00    -0.306 N  
HETATM   31  H   UNL     1      -9.900   9.670  65.600  1.00  0.00     0.000 HD 
ENDBRANCH  19  20
ENDBRANCH  18  19
ENDBRANCH  17  18
ENDBRANCH  16  17
ENDBRANCH  15  16
ENDBRANCH  12  15
ENDBRANCH   6   9
TORSDOF 7
ENDMDL
MODEL      122
REMARK 921   NORMALIZED FREE ENERGY PREDICTED BY IDOCK:   -4.88 KCAL/MOL
REMARK 922        TOTAL FREE ENERGY PREDICTED BY IDOCK:   -8.48 KCAL/MOL
REMARK 923 INTER-LIGAND FREE ENERGY PREDICTED BY IDOCK:   -7.48 KCAL/MOL
REMARK 924 INTRA-LIGAND FREE ENERGY PREDICTED BY IDOCK:   -1.00 KCAL/MOL
REMARK 927      BINDING AFFINITY PREDICTED BY RF-SCORE:    0.00 PKD
ROOT
HETATM    1 CL   UNL     1      -9.827   4.860  69.345  1.00  0.00    -0.265 Cl 
HETATM    2  C   UNL     1      -9.470   6.437  69.978  1.00  0.00    -0.156 A  
HETATM    3  C   UNL     1      -9.426   6.550  71.366  1.00  0.00    -0.164 A  
HETATM    4  C   UNL     1      -9.161   7.784  71.942  1.00  0.00    -0.173 A  
HETATM    5  C   UNL     1      -8.985   8.905  71.130  1.00  0.00    -0.305 A  
HETATM    6  C   UNL     1      -9.035   8.849  69.719  1.00  0.00    -0.149 A  
HETATM    7  C   UNL     1      -9.243   7.559  69.151  1.00  0.00    -0.144 A  
HETATM    8 CL   UNL     1      -9.108   7.282  67.433  1.00  0.00    -0.121 Cl 
ENDROOT
BRANCH   6   9
HETATM    9  N   UNL     1      -8.936  10.041  69.010  1.00  0.00    -0.153 NA 
HETATM   10  C   UNL     1      -7.799  10.964  69.184  1.00  0.00    -0.119 C  
HETATM   11  C   UNL     1      -7.312  11.521  67.827  1.00  0.00    -0.096 C  
HETATM   12  N   UNL     1      -8.372  12.115  66.981  1.00  0.00    -0.178 NA 
HETATM   13  C   UNL     1     -10.007  10.515  68.110  1.00  0.00    -0.153 C  
HETATM   14  C   UNL     1      -9.411  11.072  66.794  1.00  0.00    -0.181 C  
BRANCH  12  15
HETATM   15  C   UNL     1      -8.944  13.334  67.576  1.00  0.00    -0.208 C  
BRANCH  15  16
HETATM   16  C   UNL     1      -8.238  14.630  67.132  1.00  0.00    -0.227 C  
BRANCH  16  17
HETATM   17  C   UNL     1      -9.174  15.826  66.929  1.00  0.00    -0.250 C  
BRANCH  17  18
HETATM   18  C   UNL     1      -9.944  16.128  68.206  1.00  0.00    -0.226 C  
BRANCH  18  19
HETATM   19  O   UNL     1     -11.323  15.796  68.056  1.00  0.00    -0.348 OA 
BRANCH  19  20
HETATM   20  C   UNL     1     -11.862  15.175  69.158  1.00  0.00    -0.313 A  
HETATM   21  C   UNL     1     -11.682  13.790  69.210  1.00  0.00    -0.376 A  
HETATM   22  C   UNL     1     -12.199  13.070  70.287  1.00  0.00    -0.296 A  
HETATM   23  C   UNL     1     -12.892  13.719  71.317  1.00  0.00    -0.434 A  
HETATM   24  C   UNL     1     -13.038  15.104  71.274  1.00  0.00    -0.512 A  
HETATM   25  C   UNL     1     -13.356  12.939  72.513  1.00  0.00    -0.402 C  
HETATM   26  C   UNL     1     -12.520  15.827  70.206  1.00  0.00    -0.291 A  
HETATM   27  C   UNL     1     -13.623  11.486  72.168  1.00  0.00    -0.105 C  
HETATM   28  C   UNL     1     -12.527  10.881  71.320  1.00  0.00    -0.388 C  
HETATM   29  O   UNL     1     -12.216   9.697  71.398  1.00  0.00    -0.332 OA 
HETATM   30  N   UNL     1     -11.980  11.693  70.364  1.00  0.00    -0.420 N  
HETATM   31  H   UNL     1     -11.374  11.265  69.664  1.00  0.00     0.000 HD 
ENDBRANCH  19  20
ENDBRANCH  18  19
ENDBRANCH  17  18
ENDBRANCH  16  17
ENDBRANCH  15  16
ENDBRANCH  12  15
ENDBRANCH   6   9
TORSDOF 7
ENDMDL
MODEL      123
REMARK 921   NORMALIZED FREE ENERGY PREDICTED BY IDOCK:   -4.87 KCAL/MOL
REMARK 922        TOTAL FREE ENERGY PREDICTED BY IDOCK:   -8.47 KCAL/MOL
REMARK 923 INTER-LIGAND FREE ENERGY PREDICTED BY IDOCK:   -7.28 KCAL/MOL
REMARK 924 INTRA-LIGAND FREE ENERGY PREDICTED BY IDOCK:   -1.19 KCAL/MOL
REMARK 927      BINDING AFFINITY PREDICTED BY RF-SCORE:    0.00 PKD
ROOT
HETATM    1 CL   UNL     1     -11.105  15.214  66.673  1.00  0.00    -0.327 Cl 
HETATM    2  C   UNL     1     -11.105  13.866  65.580  1.00  0.00    -0.304 A  
HETATM    3  C   UNL     1     -12.004  13.932  64.518  1.00  0.00    -0.464 A  
HETATM    4  C   UNL     1     -12.070  12.883  63.612  1.00  0.00    -0.611 A  
HETATM    5  C   UNL     1     -11.270  11.755  63.799  1.00  0.00    -0.518 A  
HETATM    6  C   UNL     1     -10.354  11.629  64.866  1.00  0.00    -0.283 A  
HETATM    7  C   UNL     1     -10.257  12.748  65.744  1.00  0.00    -0.289 A  
HETATM    8 CL   UNL     1      -9.022  12.845  66.972  1.00  0.00    -0.220 Cl 
ENDROOT
BRANCH   6   9
HETATM    9  N   UNL     1      -9.671  10.426  65.008  1.00  0.00    -0.275 NA 
HETATM   10  C   UNL     1      -8.761   9.914  63.968  1.00  0.00    -0.212 C  
HETATM   11  C   UNL     1      -7.472   9.327  64.587  1.00  0.00    -0.102 C  
HETATM   12  N   UNL     1      -7.693   8.328  65.657  1.00  0.00    -0.088 NA 
HETATM   13  C   UNL     1      -9.886   9.529  66.163  1.00  0.00    -0.272 C  
HETATM   14  C   UNL     1      -8.537   8.980  66.689  1.00  0.00    -0.127 C  
BRANCH  12  15
HETATM   15  C   UNL     1      -8.327   7.098  65.151  1.00  0.00    -0.076 C  
BRANCH  15  16
HETATM   16  C   UNL     1      -8.477   5.995  66.216  1.00  0.00    -0.130 C  
BRANCH  16  17
HETATM   17  C   UNL     1      -7.151   5.436  66.743  1.00  0.00    -0.069 C  
BRANCH  17  18
HETATM   18  C   UNL     1      -7.332   4.840  68.130  1.00  0.00    -0.066 C  
BRANCH  18  19
HETATM   19  O   UNL     1      -7.159   5.836  69.136  1.00  0.00    -0.061 OA 
BRANCH  19  20
HETATM   20  C   UNL     1      -8.301   6.097  69.856  1.00  0.00    -0.128 A  
HETATM   21  C   UNL     1      -8.774   7.409  69.770  1.00  0.00    -0.141 A  
HETATM   22  C   UNL     1      -9.925   7.772  70.470  1.00  0.00    -0.187 A  
HETATM   23  C   UNL     1     -10.613   6.836  71.253  1.00  0.00    -0.246 A  
HETATM   24  C   UNL     1     -10.154   5.522  71.306  1.00  0.00    -0.266 A  
HETATM   25  C   UNL     1     -11.900   7.223  71.921  1.00  0.00    -0.333 C  
HETATM   26  C   UNL     1      -9.010   5.154  70.607  1.00  0.00    -0.162 A  
HETATM   27  C   UNL     1     -11.952   8.708  72.229  1.00  0.00    -0.438 C  
HETATM   28  C   UNL     1     -11.482   9.556  71.069  1.00  0.00    -0.349 C  
HETATM   29  O   UNL     1     -11.941  10.672  70.845  1.00  0.00    -0.332 OA 
HETATM   30  N   UNL     1     -10.424   9.071  70.349  1.00  0.00    -0.201 N  
HETATM   31  H   UNL     1      -9.973   9.696  69.683  1.00  0.00     0.000 HD 
ENDBRANCH  19  20
ENDBRANCH  18  19
ENDBRANCH  17  18
ENDBRANCH  16  17
ENDBRANCH  15  16
ENDBRANCH  12  15
ENDBRANCH   6   9
TORSDOF 7
ENDMDL
MODEL      124
REMARK 921   NORMALIZED FREE ENERGY PREDICTED BY IDOCK:   -4.87 KCAL/MOL
REMARK 922        TOTAL FREE ENERGY PREDICTED BY IDOCK:   -8.46 KCAL/MOL
REMARK 923 INTER-LIGAND FREE ENERGY PREDICTED BY IDOCK:   -7.80 KCAL/MOL
REMARK 924 INTRA-LIGAND FREE ENERGY PREDICTED BY IDOCK:   -0.66 KCAL/MOL
REMARK 927      BINDING AFFINITY PREDICTED BY RF-SCORE:    0.00 PKD
ROOT
HETATM    1 CL   UNL     1     -10.342   5.875  70.229  1.00  0.00    -0.276 Cl 
HETATM    2  C   UNL     1     -10.826   7.530  70.426  1.00  0.00    -0.244 A  
HETATM    3  C   UNL     1     -11.594   7.818  71.552  1.00  0.00    -0.303 A  
HETATM    4  C   UNL     1     -12.030   9.118  71.767  1.00  0.00    -0.449 A  
HETATM    5  C   UNL     1     -11.733  10.111  70.833  1.00  0.00    -0.468 A  
HETATM    6  C   UNL     1     -10.972   9.870  69.668  1.00  0.00    -0.252 A  
HETATM    7  C   UNL     1     -10.481   8.542  69.505  1.00  0.00    -0.220 A  
HETATM    8 CL   UNL     1      -9.344   8.134  68.244  1.00  0.00    -0.134 Cl 
ENDROOT
BRANCH   6   9
HETATM    9  N   UNL     1     -10.811  10.911  68.760  1.00  0.00    -0.192 NA 
HETATM   10  C   UNL     1     -11.845  11.252  67.766  1.00  0.00    -0.084 C  
HETATM   11  C   UNL     1     -12.027  12.782  67.645  1.00  0.00    -0.273 C  
HETATM   12  N   UNL     1     -10.777  13.542  67.412  1.00  0.00    -0.261 NA 
HETATM   13  C   UNL     1      -9.554  11.683  68.659  1.00  0.00    -0.133 C  
HETATM   14  C   UNL     1      -9.850  13.196  68.518  1.00  0.00    -0.153 C  
BRANCH  12  15
HETATM   15  C   UNL     1     -10.177  13.242  66.101  1.00  0.00    -0.296 C  
BRANCH  15  16
HETATM   16  C   UNL     1     -10.560  14.250  65.000  1.00  0.00    -0.444 C  
BRANCH  16  17
HETATM   17  C   UNL     1     -10.721  15.693  65.488  1.00  0.00    -0.403 C  
BRANCH  17  18
HETATM   18  C   UNL     1      -9.410  16.220  66.050  1.00  0.00    -0.326 C  
BRANCH  18  19
HETATM   19  O   UNL     1      -9.646  17.091  67.155  1.00  0.00    -0.243 OA 
BRANCH  19  20
HETATM   20  C   UNL     1      -8.648  18.016  67.350  1.00  0.00    -0.244 A  
HETATM   21  C   UNL     1      -8.193  18.134  68.666  1.00  0.00    -0.295 A  
HETATM   22  C   UNL     1      -7.185  19.051  68.966  1.00  0.00    -0.316 A  
HETATM   23  C   UNL     1      -6.621  19.850  67.963  1.00  0.00    -0.289 A  
HETATM   24  C   UNL     1      -7.056  19.701  66.648  1.00  0.00    -0.230 A  
HETATM   25  C   UNL     1      -5.474  20.760  68.290  1.00  0.00    -0.335 C  
HETATM   26  C   UNL     1      -8.058  18.786  66.343  1.00  0.00    -0.296 A  
HETATM   27  C   UNL     1      -5.504  21.208  69.739  1.00  0.00    -0.127 C  
HETATM   28  C   UNL     1      -5.787  20.068  70.691  1.00  0.00    -0.330 C  
HETATM   29  O   UNL     1      -5.320  20.030  71.825  1.00  0.00    -0.355 OA 
HETATM   30  N   UNL     1      -6.698  19.137  70.272  1.00  0.00     0.170 N  
HETATM   31  H   UNL     1      -7.043  18.464  70.956  1.00  0.00     0.000 HD 
ENDBRANCH  19  20
ENDBRANCH  18  19
ENDBRANCH  17  18
ENDBRANCH  16  17
ENDBRANCH  15  16
ENDBRANCH  12  15
ENDBRANCH   6   9
TORSDOF 7
ENDMDL
MODEL      125
REMARK 921   NORMALIZED FREE ENERGY PREDICTED BY IDOCK:   -4.87 KCAL/MOL
REMARK 922        TOTAL FREE ENERGY PREDICTED BY IDOCK:   -8.46 KCAL/MOL
REMARK 923 INTER-LIGAND FREE ENERGY PREDICTED BY IDOCK:   -7.63 KCAL/MOL
REMARK 924 INTRA-LIGAND FREE ENERGY PREDICTED BY IDOCK:   -0.83 KCAL/MOL
REMARK 927      BINDING AFFINITY PREDICTED BY RF-SCORE:    0.00 PKD
ROOT
HETATM    1 CL   UNL     1     -10.997   4.842  73.983  1.00  0.00    -0.313 Cl 
HETATM    2  C   UNL     1     -10.236   5.216  72.468  1.00  0.00    -0.194 A  
HETATM    3  C   UNL     1      -9.336   4.272  71.980  1.00  0.00    -0.180 A  
HETATM    4  C   UNL     1      -8.678   4.511  70.782  1.00  0.00    -0.124 A  
HETATM    5  C   UNL     1      -8.890   5.711  70.103  1.00  0.00    -0.144 A  
HETATM    6  C   UNL     1      -9.778   6.709  70.561  1.00  0.00    -0.176 A  
HETATM    7  C   UNL     1     -10.491   6.410  71.759  1.00  0.00    -0.214 A  
HETATM    8 CL   UNL     1     -11.784   7.432  72.335  1.00  0.00    -0.316 Cl 
ENDROOT
BRANCH   6   9
HETATM    9  N   UNL     1      -9.847   7.904  69.854  1.00  0.00    -0.180 NA 
HETATM   10  C   UNL     1      -9.457   9.194  70.454  1.00  0.00    -0.227 C  
HETATM   11  C   UNL     1      -8.643  10.053  69.461  1.00  0.00    -0.186 C  
HETATM   12  N   UNL     1      -9.272  10.238  68.134  1.00  0.00    -0.135 NA 
HETATM   13  C   UNL     1     -10.408   7.982  68.489  1.00  0.00    -0.199 C  
HETATM   14  C   UNL     1      -9.530   8.884  67.586  1.00  0.00    -0.138 C  
BRANCH  12  15
HETATM   15  C   UNL     1     -10.513  11.027  68.209  1.00  0.00    -0.186 C  
BRANCH  15  16
HETATM   16  C   UNL     1     -10.926  11.663  66.867  1.00  0.00    -0.342 C  
BRANCH  16  17
HETATM   17  C   UNL     1      -9.801  12.413  66.148  1.00  0.00    -0.263 C  
BRANCH  17  18
HETATM   18  C   UNL     1     -10.372  13.429  65.170  1.00  0.00    -0.336 C  
BRANCH  18  19
HETATM   19  O   UNL     1     -11.504  14.091  65.731  1.00  0.00    -0.308 OA 
BRANCH  19  20
HETATM   20  C   UNL     1     -11.176  15.157  66.534  1.00  0.00    -0.283 A  
HETATM   21  C   UNL     1     -10.328  16.104  65.953  1.00  0.00    -0.384 A  
HETATM   22  C   UNL     1      -9.933  17.220  66.692  1.00  0.00    -0.294 A  
HETATM   23  C   UNL     1     -10.381  17.403  68.007  1.00  0.00    -0.362 A  
HETATM   24  C   UNL     1     -11.252  16.472  68.567  1.00  0.00    -0.296 A  
HETATM   25  C   UNL     1     -10.021  18.656  68.750  1.00  0.00    -0.427 C  
HETATM   26  C   UNL     1     -11.652  15.361  67.833  1.00  0.00    -0.267 A  
HETATM   27  C   UNL     1      -8.705  19.239  68.269  1.00  0.00    -0.377 C  
HETATM   28  C   UNL     1      -8.600  19.265  66.761  1.00  0.00    -0.307 C  
HETATM   29  O   UNL     1      -7.981  20.138  66.163  1.00  0.00    -0.294 OA 
HETATM   30  N   UNL     1      -9.124  18.189  66.097  1.00  0.00    -0.179 N  
HETATM   31  H   UNL     1      -8.910  18.090  65.105  1.00  0.00     0.000 HD 
ENDBRANCH  19  20
ENDBRANCH  18  19
ENDBRANCH  17  18
ENDBRANCH  16  17
ENDBRANCH  15  16
ENDBRANCH  12  15
ENDBRANCH   6   9
TORSDOF 7
ENDMDL
MODEL      126
REMARK 921   NORMALIZED FREE ENERGY PREDICTED BY IDOCK:   -4.86 KCAL/MOL
REMARK 922        TOTAL FREE ENERGY PREDICTED BY IDOCK:   -8.45 KCAL/MOL
REMARK 923 INTER-LIGAND FREE ENERGY PREDICTED BY IDOCK:   -7.24 KCAL/MOL
REMARK 924 INTRA-LIGAND FREE ENERGY PREDICTED BY IDOCK:   -1.21 KCAL/MOL
REMARK 927      BINDING AFFINITY PREDICTED BY RF-SCORE:    0.00 PKD
ROOT
HETATM    1 CL   UNL     1     -11.783  15.366  68.051  1.00  0.00    -0.307 Cl 
HETATM    2  C   UNL     1     -11.698  14.044  66.929  1.00  0.00    -0.410 A  
HETATM    3  C   UNL     1     -12.594  14.081  65.863  1.00  0.00    -0.484 A  
HETATM    4  C   UNL     1     -12.593  13.050  64.935  1.00  0.00    -0.490 A  
HETATM    5  C   UNL     1     -11.729  11.967  65.102  1.00  0.00    -0.315 A  
HETATM    6  C   UNL     1     -10.812  11.872  66.172  1.00  0.00    -0.292 A  
HETATM    7  C   UNL     1     -10.786  12.975  67.074  1.00  0.00    -0.261 A  
HETATM    8 CL   UNL     1      -9.564  13.118  68.312  1.00  0.00    -0.225 Cl 
ENDROOT
BRANCH   6   9
HETATM    9  N   UNL     1     -10.060  10.709  66.293  1.00  0.00    -0.228 NA 
HETATM   10  C   UNL     1     -10.315   9.717  67.353  1.00  0.00    -0.247 C  
HETATM   11  C   UNL     1     -10.234   8.274  66.806  1.00  0.00    -0.304 C  
HETATM   12  N   UNL     1      -8.997   7.961  66.054  1.00  0.00    -0.170 NA 
HETATM   13  C   UNL     1      -8.891  10.432  65.432  1.00  0.00    -0.179 C  
HETATM   14  C   UNL     1      -8.894   8.957  64.960  1.00  0.00    -0.140 C  
BRANCH  12  15
HETATM   15  C   UNL     1      -7.800   7.986  66.911  1.00  0.00    -0.103 C  
BRANCH  15  16
HETATM   16  C   UNL     1      -6.757   6.912  66.549  1.00  0.00    -0.052 C  
BRANCH  16  17
HETATM   17  C   UNL     1      -7.295   5.477  66.551  1.00  0.00    -0.082 C  
BRANCH  17  18
HETATM   18  C   UNL     1      -7.774   5.084  67.940  1.00  0.00    -0.084 C  
BRANCH  18  19
HETATM   19  O   UNL     1      -9.190   5.219  68.044  1.00  0.00    -0.109 OA 
BRANCH  19  20
HETATM   20  C   UNL     1      -9.605   5.751  69.241  1.00  0.00    -0.139 A  
HETATM   21  C   UNL     1      -8.608   6.377  69.994  1.00  0.00    -0.135 A  
HETATM   22  C   UNL     1      -8.931   6.944  71.228  1.00  0.00    -0.142 A  
HETATM   23  C   UNL     1     -10.243   6.895  71.717  1.00  0.00    -0.206 A  
HETATM   24  C   UNL     1     -11.238   6.299  70.945  1.00  0.00    -0.386 A  
HETATM   25  C   UNL     1     -10.588   7.593  73.000  1.00  0.00    -0.433 C  
HETATM   26  C   UNL     1     -10.922   5.737  69.713  1.00  0.00    -0.397 A  
HETATM   27  C   UNL     1      -9.394   7.679  73.933  1.00  0.00    -0.270 C  
HETATM   28  C   UNL     1      -8.132   8.109  73.220  1.00  0.00    -0.188 C  
HETATM   29  O   UNL     1      -7.262   8.774  73.772  1.00  0.00    -0.366 OA 
HETATM   30  N   UNL     1      -7.946   7.610  71.960  1.00  0.00    -0.096 N  
HETATM   31  H   UNL     1      -7.030   7.732  71.528  1.00  0.00     0.000 HD 
ENDBRANCH  19  20
ENDBRANCH  18  19
ENDBRANCH  17  18
ENDBRANCH  16  17
ENDBRANCH  15  16
ENDBRANCH  12  15
ENDBRANCH   6   9
TORSDOF 7
ENDMDL
MODEL      127
REMARK 921   NORMALIZED FREE ENERGY PREDICTED BY IDOCK:   -4.86 KCAL/MOL
REMARK 922        TOTAL FREE ENERGY PREDICTED BY IDOCK:   -8.45 KCAL/MOL
REMARK 923 INTER-LIGAND FREE ENERGY PREDICTED BY IDOCK:   -7.30 KCAL/MOL
REMARK 924 INTRA-LIGAND FREE ENERGY PREDICTED BY IDOCK:   -1.15 KCAL/MOL
REMARK 927      BINDING AFFINITY PREDICTED BY RF-SCORE:    0.00 PKD
ROOT
HETATM    1 CL   UNL     1      -6.052   9.348  64.750  1.00  0.00    -0.070 Cl 
HETATM    2  C   UNL     1      -6.410   8.302  66.088  1.00  0.00    -0.049 A  
HETATM    3  C   UNL     1      -5.916   7.002  66.005  1.00  0.00    -0.036 A  
HETATM    4  C   UNL     1      -6.177   6.106  67.032  1.00  0.00    -0.029 A  
HETATM    5  C   UNL     1      -6.965   6.501  68.113  1.00  0.00    -0.077 A  
HETATM    6  C   UNL     1      -7.503   7.801  68.240  1.00  0.00    -0.104 A  
HETATM    7  C   UNL     1      -7.166   8.721  67.205  1.00  0.00    -0.080 A  
HETATM    8 CL   UNL     1      -7.560  10.418  67.323  1.00  0.00    -0.094 Cl 
ENDROOT
BRANCH   6   9
HETATM    9  N   UNL     1      -8.348   8.062  69.313  1.00  0.00    -0.133 NA 
HETATM   10  C   UNL     1      -9.787   7.743  69.273  1.00  0.00    -0.173 C  
HETATM   11  C   UNL     1     -10.265   7.126  70.607  1.00  0.00    -0.195 C  
HETATM   12  N   UNL     1      -9.913   7.905  71.816  1.00  0.00    -0.171 NA 
HETATM   13  C   UNL     1      -7.887   8.767  70.527  1.00  0.00    -0.103 C  
HETATM   14  C   UNL     1      -8.440   8.082  71.802  1.00  0.00    -0.129 C  
BRANCH  12  15
HETATM   15  C   UNL     1     -10.605   9.204  71.863  1.00  0.00    -0.233 C  
BRANCH  15  16
HETATM   16  C   UNL     1     -12.135   9.086  72.005  1.00  0.00    -0.440 C  
BRANCH  16  17
HETATM   17  C   UNL     1     -12.911  10.335  71.577  1.00  0.00    -0.557 C  
BRANCH  17  18
HETATM   18  C   UNL     1     -12.268  10.975  70.356  1.00  0.00    -0.373 C  
BRANCH  18  19
HETATM   19  O   UNL     1     -12.178  12.390  70.514  1.00  0.00    -0.361 OA 
BRANCH  19  20
HETATM   20  C   UNL     1     -11.983  13.064  69.332  1.00  0.00    -0.281 A  
HETATM   21  C   UNL     1     -11.872  12.258  68.196  1.00  0.00    -0.372 A  
HETATM   22  C   UNL     1     -11.666  12.850  66.950  1.00  0.00    -0.382 A  
HETATM   23  C   UNL     1     -11.575  14.243  66.825  1.00  0.00    -0.407 A  
HETATM   24  C   UNL     1     -11.720  15.041  67.957  1.00  0.00    -0.320 A  
HETATM   25  C   UNL     1     -11.449  14.864  65.464  1.00  0.00    -0.307 C  
HETATM   26  C   UNL     1     -11.929  14.455  69.200  1.00  0.00    -0.357 A  
HETATM   27  C   UNL     1     -10.770  13.931  64.479  1.00  0.00    -0.382 C  
HETATM   28  C   UNL     1     -11.303  12.518  64.558  1.00  0.00    -0.330 C  
HETATM   29  O   UNL     1     -11.362  11.784  63.577  1.00  0.00    -0.418 OA 
HETATM   30  N   UNL     1     -11.601  12.049  65.808  1.00  0.00    -0.337 N  
HETATM   31  H   UNL     1     -11.788  11.052  65.913  1.00  0.00     0.000 HD 
ENDBRANCH  19  20
ENDBRANCH  18  19
ENDBRANCH  17  18
ENDBRANCH  16  17
ENDBRANCH  15  16
ENDBRANCH  12  15
ENDBRANCH   6   9
TORSDOF 7
ENDMDL
MODEL      128
REMARK 921   NORMALIZED FREE ENERGY PREDICTED BY IDOCK:   -4.85 KCAL/MOL
REMARK 922        TOTAL FREE ENERGY PREDICTED BY IDOCK:   -8.43 KCAL/MOL
REMARK 923 INTER-LIGAND FREE ENERGY PREDICTED BY IDOCK:   -7.58 KCAL/MOL
REMARK 924 INTRA-LIGAND FREE ENERGY PREDICTED BY IDOCK:   -0.86 KCAL/MOL
REMARK 927      BINDING AFFINITY PREDICTED BY RF-SCORE:    0.00 PKD
ROOT
HETATM    1 CL   UNL     1      -8.767  20.061  65.942  1.00  0.00    -0.256 Cl 
HETATM    2  C   UNL     1      -8.357  18.482  66.534  1.00  0.00    -0.281 A  
HETATM    3  C   UNL     1      -7.025  18.099  66.401  1.00  0.00    -0.270 A  
HETATM    4  C   UNL     1      -6.628  16.843  66.838  1.00  0.00    -0.249 A  
HETATM    5  C   UNL     1      -7.573  15.962  67.365  1.00  0.00    -0.208 A  
HETATM    6  C   UNL     1      -8.939  16.293  67.508  1.00  0.00    -0.187 A  
HETATM    7  C   UNL     1      -9.308  17.612  67.113  1.00  0.00    -0.245 A  
HETATM    8 CL   UNL     1     -10.900  18.252  67.432  1.00  0.00    -0.363 Cl 
ENDROOT
BRANCH   6   9
HETATM    9  N   UNL     1      -9.810  15.309  67.962  1.00  0.00    -0.215 NA 
HETATM   10  C   UNL     1      -9.916  14.953  69.389  1.00  0.00    -0.136 C  
HETATM   11  C   UNL     1     -11.389  14.751  69.812  1.00  0.00    -0.283 C  
HETATM   12  N   UNL     1     -12.159  13.817  68.959  1.00  0.00    -0.350 NA 
HETATM   13  C   UNL     1     -10.616  14.483  67.040  1.00  0.00    -0.278 C  
HETATM   14  C   UNL     1     -12.063  14.324  67.568  1.00  0.00    -0.312 C  
BRANCH  12  15
HETATM   15  C   UNL     1     -11.664  12.434  69.056  1.00  0.00    -0.323 C  
BRANCH  15  16
HETATM   16  C   UNL     1     -11.921  11.780  70.428  1.00  0.00    -0.422 C  
BRANCH  16  17
HETATM   17  C   UNL     1     -12.644  10.431  70.363  1.00  0.00    -0.329 C  
BRANCH  17  18
HETATM   18  C   UNL     1     -11.746   9.314  70.871  1.00  0.00    -0.296 C  
BRANCH  18  19
HETATM   19  O   UNL     1     -10.526   9.270  70.133  1.00  0.00    -0.202 OA 
BRANCH  19  20
HETATM   20  C   UNL     1     -10.485   8.265  69.195  1.00  0.00    -0.206 A  
HETATM   21  C   UNL     1     -10.169   6.998  69.692  1.00  0.00    -0.212 A  
HETATM   22  C   UNL     1     -10.097   5.914  68.816  1.00  0.00    -0.172 A  
HETATM   23  C   UNL     1     -10.344   6.081  67.447  1.00  0.00    -0.268 A  
HETATM   24  C   UNL     1     -10.693   7.341  66.966  1.00  0.00    -0.406 A  
HETATM   25  C   UNL     1     -10.356   4.886  66.539  1.00  0.00    -0.311 C  
HETATM   26  C   UNL     1     -10.769   8.423  67.835  1.00  0.00    -0.141 A  
HETATM   27  C   UNL     1      -9.459   3.777  67.056  1.00  0.00    -0.227 C  
HETATM   28  C   UNL     1      -9.635   3.532  68.537  1.00  0.00    -0.081 C  
HETATM   29  O   UNL     1      -9.502   2.420  69.038  1.00  0.00    -0.148 OA 
HETATM   30  N   UNL     1      -9.826   4.639  69.318  1.00  0.00    -0.199 N  
HETATM   31  H   UNL     1      -9.767   4.526  70.330  1.00  0.00     0.000 HD 
ENDBRANCH  19  20
ENDBRANCH  18  19
ENDBRANCH  17  18
ENDBRANCH  16  17
ENDBRANCH  15  16
ENDBRANCH  12  15
ENDBRANCH   6   9
TORSDOF 7
ENDMDL
MODEL      129
REMARK 921   NORMALIZED FREE ENERGY PREDICTED BY IDOCK:   -4.84 KCAL/MOL
REMARK 922        TOTAL FREE ENERGY PREDICTED BY IDOCK:   -8.42 KCAL/MOL
REMARK 923 INTER-LIGAND FREE ENERGY PREDICTED BY IDOCK:   -6.93 KCAL/MOL
REMARK 924 INTRA-LIGAND FREE ENERGY PREDICTED BY IDOCK:   -1.49 KCAL/MOL
REMARK 927      BINDING AFFINITY PREDICTED BY RF-SCORE:    0.00 PKD
ROOT
HETATM    1 CL   UNL     1     -10.695  15.870  67.052  1.00  0.00    -0.313 Cl 
HETATM    2  C   UNL     1     -10.846  14.285  67.742  1.00  0.00    -0.253 A  
HETATM    3  C   UNL     1     -11.675  14.173  68.856  1.00  0.00    -0.369 A  
HETATM    4  C   UNL     1     -11.831  12.939  69.470  1.00  0.00    -0.383 A  
HETATM    5  C   UNL     1     -11.125  11.834  68.994  1.00  0.00    -0.301 A  
HETATM    6  C   UNL     1     -10.260  11.895  67.878  1.00  0.00    -0.193 A  
HETATM    7  C   UNL     1     -10.168  13.159  67.226  1.00  0.00    -0.243 A  
HETATM    8 CL   UNL     1      -9.324  13.348  65.710  1.00  0.00     0.043 Cl 
ENDROOT
BRANCH   6   9
HETATM    9  N   UNL     1      -9.537  10.755  67.543  1.00  0.00    -0.158 NA 
HETATM   10  C   UNL     1     -10.162   9.598  66.875  1.00  0.00    -0.237 C  
HETATM   11  C   UNL     1      -9.253   9.034  65.760  1.00  0.00    -0.232 C  
HETATM   12  N   UNL     1      -7.864   8.736  66.178  1.00  0.00    -0.100 NA 
HETATM   13  C   UNL     1      -8.119  10.581  67.922  1.00  0.00    -0.107 C  
HETATM   14  C   UNL     1      -7.306   9.989  66.744  1.00  0.00    -0.095 C  
BRANCH  12  15
HETATM   15  C   UNL     1      -7.799   7.636  67.155  1.00  0.00    -0.117 C  
BRANCH  15  16
HETATM   16  C   UNL     1      -7.062   6.387  66.632  1.00  0.00    -0.069 C  
BRANCH  16  17
HETATM   17  C   UNL     1      -7.981   5.282  66.103  1.00  0.00    -0.104 C  
BRANCH  17  18
HETATM   18  C   UNL     1      -8.428   4.367  67.233  1.00  0.00    -0.104 C  
BRANCH  18  19
HETATM   19  O   UNL     1      -9.827   4.507  67.474  1.00  0.00    -0.174 OA 
BRANCH  19  20
HETATM   20  C   UNL     1     -10.124   4.982  68.729  1.00  0.00    -0.130 A  
HETATM   21  C   UNL     1     -10.766   6.223  68.761  1.00  0.00    -0.352 A  
HETATM   22  C   UNL     1     -11.103   6.792  69.989  1.00  0.00    -0.315 A  
HETATM   23  C   UNL     1     -10.810   6.131  71.190  1.00  0.00    -0.328 A  
HETATM   24  C   UNL     1     -10.201   4.879  71.148  1.00  0.00    -0.261 A  
HETATM   25  C   UNL     1     -11.267   6.715  72.495  1.00  0.00    -0.302 C  
HETATM   26  C   UNL     1      -9.867   4.307  69.926  1.00  0.00    -0.267 A  
HETATM   27  C   UNL     1     -11.381   8.227  72.427  1.00  0.00    -0.457 C  
HETATM   28  C   UNL     1     -12.072   8.700  71.168  1.00  0.00    -0.260 C  
HETATM   29  O   UNL     1     -12.763   9.713  71.141  1.00  0.00    -0.321 OA 
HETATM   30  N   UNL     1     -11.785   8.010  70.021  1.00  0.00    -0.424 N  
HETATM   31  H   UNL     1     -12.089   8.411  69.134  1.00  0.00     0.000 HD 
ENDBRANCH  19  20
ENDBRANCH  18  19
ENDBRANCH  17  18
ENDBRANCH  16  17
ENDBRANCH  15  16
ENDBRANCH  12  15
ENDBRANCH   6   9
TORSDOF 7
ENDMDL
MODEL      130
REMARK 921   NORMALIZED FREE ENERGY PREDICTED BY IDOCK:   -4.83 KCAL/MOL
REMARK 922        TOTAL FREE ENERGY PREDICTED BY IDOCK:   -8.41 KCAL/MOL
REMARK 923 INTER-LIGAND FREE ENERGY PREDICTED BY IDOCK:   -6.80 KCAL/MOL
REMARK 924 INTRA-LIGAND FREE ENERGY PREDICTED BY IDOCK:   -1.61 KCAL/MOL
REMARK 927      BINDING AFFINITY PREDICTED BY RF-SCORE:    0.00 PKD
ROOT
HETATM    1 CL   UNL     1     -10.419  13.137  64.790  1.00  0.00    -0.367 Cl 
HETATM    2  C   UNL     1     -10.807  12.103  66.129  1.00  0.00    -0.282 A  
HETATM    3  C   UNL     1     -11.602  12.660  67.129  1.00  0.00    -0.434 A  
HETATM    4  C   UNL     1     -11.940  11.896  68.237  1.00  0.00    -0.235 A  
HETATM    5  C   UNL     1     -11.445  10.598  68.361  1.00  0.00    -0.330 A  
HETATM    6  C   UNL     1     -10.623   9.990  67.385  1.00  0.00    -0.271 A  
HETATM    7  C   UNL     1     -10.346  10.772  66.226  1.00  0.00    -0.244 A  
HETATM    8 CL   UNL     1      -9.538  10.094  64.836  1.00  0.00    -0.345 Cl 
ENDROOT
BRANCH   6   9
HETATM    9  N   UNL     1     -10.113   8.725  67.650  1.00  0.00    -0.201 NA 
HETATM   10  C   UNL     1     -10.969   7.524  67.680  1.00  0.00    -0.023 C  
HETATM   11  C   UNL     1     -10.288   6.329  66.976  1.00  0.00    -0.240 C  
HETATM   12  N   UNL     1      -8.915   6.030  67.443  1.00  0.00    -0.109 NA 
HETATM   13  C   UNL     1      -8.699   8.505  68.020  1.00  0.00    -0.142 C  
HETATM   14  C   UNL     1      -8.123   7.273  67.279  1.00  0.00    -0.112 C  
BRANCH  12  15
HETATM   15  C   UNL     1      -8.890   5.563  68.840  1.00  0.00    -0.107 C  
BRANCH  15  16
HETATM   16  C   UNL     1      -7.537   4.963  69.267  1.00  0.00    -0.060 C  
BRANCH  16  17
HETATM   17  C   UNL     1      -7.557   4.255  70.626  1.00  0.00    -0.052 C  
BRANCH  17  18
HETATM   18  C   UNL     1      -6.807   5.071  71.668  1.00  0.00    -0.048 C  
BRANCH  18  19
HETATM   19  O   UNL     1      -7.650   5.372  72.779  1.00  0.00    -0.095 OA 
BRANCH  19  20
HETATM   20  C   UNL     1      -8.553   6.377  72.527  1.00  0.00    -0.123 A  
HETATM   21  C   UNL     1      -9.885   5.967  72.417  1.00  0.00    -0.182 A  
HETATM   22  C   UNL     1     -10.877   6.914  72.157  1.00  0.00    -0.225 A  
HETATM   23  C   UNL     1     -10.552   8.269  72.010  1.00  0.00    -0.365 A  
HETATM   24  C   UNL     1      -9.227   8.673  72.154  1.00  0.00    -0.326 A  
HETATM   25  C   UNL     1     -11.644   9.282  71.825  1.00  0.00    -0.458 C  
HETATM   26  C   UNL     1      -8.236   7.734  72.418  1.00  0.00    -0.155 A  
HETATM   27  C   UNL     1     -12.865   8.679  71.156  1.00  0.00    -0.118 C  
HETATM   28  C   UNL     1     -13.246   7.340  71.744  1.00  0.00    -0.312 C  
HETATM   29  O   UNL     1     -14.410   6.957  71.805  1.00  0.00    -0.350 OA 
HETATM   30  N   UNL     1     -12.213   6.513  72.092  1.00  0.00    -0.492 N  
HETATM   31  H   UNL     1     -12.432   5.543  72.319  1.00  0.00     0.000 HD 
ENDBRANCH  19  20
ENDBRANCH  18  19
ENDBRANCH  17  18
ENDBRANCH  16  17
ENDBRANCH  15  16
ENDBRANCH  12  15
ENDBRANCH   6   9
TORSDOF 7
ENDMDL
MODEL      131
REMARK 921   NORMALIZED FREE ENERGY PREDICTED BY IDOCK:   -4.83 KCAL/MOL
REMARK 922        TOTAL FREE ENERGY PREDICTED BY IDOCK:   -8.41 KCAL/MOL
REMARK 923 INTER-LIGAND FREE ENERGY PREDICTED BY IDOCK:   -7.27 KCAL/MOL
REMARK 924 INTRA-LIGAND FREE ENERGY PREDICTED BY IDOCK:   -1.14 KCAL/MOL
REMARK 927      BINDING AFFINITY PREDICTED BY RF-SCORE:    0.00 PKD
ROOT
HETATM    1 CL   UNL     1      -8.502   3.871  62.584  1.00  0.00    -0.081 Cl 
HETATM    2  C   UNL     1      -8.379   5.206  63.688  1.00  0.00    -0.129 A  
HETATM    3  C   UNL     1      -7.635   6.300  63.252  1.00  0.00    -0.086 A  
HETATM    4  C   UNL     1      -7.481   7.397  64.087  1.00  0.00    -0.099 A  
HETATM    5  C   UNL     1      -8.033   7.375  65.369  1.00  0.00    -0.125 A  
HETATM    6  C   UNL     1      -8.782   6.286  65.866  1.00  0.00    -0.149 A  
HETATM    7  C   UNL     1      -8.982   5.200  64.965  1.00  0.00    -0.106 A  
HETATM    8 CL   UNL     1     -10.065   3.885  65.340  1.00  0.00    -0.139 Cl 
ENDROOT
BRANCH   6   9
HETATM    9  N   UNL     1      -9.211   6.332  67.188  1.00  0.00    -0.120 NA 
HETATM   10  C   UNL     1     -10.297   7.227  67.630  1.00  0.00    -0.227 C  
HETATM   11  C   UNL     1     -11.253   6.511  68.610  1.00  0.00    -0.216 C  
HETATM   12  N   UNL     1     -10.590   5.852  69.758  1.00  0.00    -0.272 NA 
HETATM   13  C   UNL     1      -8.545   5.564  68.260  1.00  0.00    -0.096 C  
HETATM   14  C   UNL     1      -9.591   4.909  69.197  1.00  0.00    -0.163 C  
BRANCH  12  15
HETATM   15  C   UNL     1      -9.955   6.820  70.668  1.00  0.00    -0.187 C  
BRANCH  15  16
HETATM   16  C   UNL     1     -10.627   6.902  72.052  1.00  0.00    -0.238 C  
BRANCH  16  17
HETATM   17  C   UNL     1     -10.836   8.328  72.573  1.00  0.00    -0.421 C  
BRANCH  17  18
HETATM   18  C   UNL     1     -10.786   9.331  71.431  1.00  0.00    -0.362 C  
BRANCH  18  19
HETATM   19  O   UNL     1     -11.869  10.254  71.519  1.00  0.00    -0.336 OA 
BRANCH  19  20
HETATM   20  C   UNL     1     -11.870  11.200  70.521  1.00  0.00    -0.351 A  
HETATM   21  C   UNL     1     -11.558  10.721  69.246  1.00  0.00    -0.376 A  
HETATM   22  C   UNL     1     -11.528  11.605  68.168  1.00  0.00    -0.313 A  
HETATM   23  C   UNL     1     -11.810  12.966  68.349  1.00  0.00    -0.357 A  
HETATM   24  C   UNL     1     -12.154  13.428  69.617  1.00  0.00    -0.349 A  
HETATM   25  C   UNL     1     -11.865  13.882  67.161  1.00  0.00    -0.445 C  
HETATM   26  C   UNL     1     -12.190  12.550  70.694  1.00  0.00    -0.365 A  
HETATM   27  C   UNL     1     -10.971  13.399  66.035  1.00  0.00    -0.281 C  
HETATM   28  C   UNL     1     -11.108  11.915  65.781  1.00  0.00    -0.317 C  
HETATM   29  O   UNL     1     -10.978  11.426  64.664  1.00  0.00    -0.310 OA 
HETATM   30  N   UNL     1     -11.261  11.121  66.885  1.00  0.00    -0.253 N  
HETATM   31  H   UNL     1     -11.175  10.112  66.764  1.00  0.00     0.000 HD 
ENDBRANCH  19  20
ENDBRANCH  18  19
ENDBRANCH  17  18
ENDBRANCH  16  17
ENDBRANCH  15  16
ENDBRANCH  12  15
ENDBRANCH   6   9
TORSDOF 7
ENDMDL
MODEL      132
REMARK 921   NORMALIZED FREE ENERGY PREDICTED BY IDOCK:   -4.82 KCAL/MOL
REMARK 922        TOTAL FREE ENERGY PREDICTED BY IDOCK:   -8.39 KCAL/MOL
REMARK 923 INTER-LIGAND FREE ENERGY PREDICTED BY IDOCK:   -7.77 KCAL/MOL
REMARK 924 INTRA-LIGAND FREE ENERGY PREDICTED BY IDOCK:   -0.62 KCAL/MOL
REMARK 927      BINDING AFFINITY PREDICTED BY RF-SCORE:    0.00 PKD
ROOT
HETATM    1 CL   UNL     1      -6.488  20.112  66.582  1.00  0.00    -0.221 Cl 
HETATM    2  C   UNL     1      -8.098  19.463  66.581  1.00  0.00    -0.295 A  
HETATM    3  C   UNL     1      -9.137  20.390  66.547  1.00  0.00    -0.280 A  
HETATM    4  C   UNL     1     -10.451  19.943  66.560  1.00  0.00    -0.589 A  
HETATM    5  C   UNL     1     -10.718  18.577  66.651  1.00  0.00    -0.278 A  
HETATM    6  C   UNL     1      -9.703  17.596  66.705  1.00  0.00    -0.301 A  
HETATM    7  C   UNL     1      -8.363  18.076  66.623  1.00  0.00    -0.262 A  
HETATM    8 CL   UNL     1      -7.009  16.989  66.451  1.00  0.00    -0.288 Cl 
ENDROOT
BRANCH   6   9
HETATM    9  N   UNL     1     -10.079  16.270  66.885  1.00  0.00    -0.271 NA 
HETATM   10  C   UNL     1     -10.850  15.528  65.870  1.00  0.00    -0.313 C  
HETATM   11  C   UNL     1     -10.313  14.090  65.694  1.00  0.00    -0.329 C  
HETATM   12  N   UNL     1     -10.180  13.316  66.949  1.00  0.00    -0.248 NA 
HETATM   13  C   UNL     1      -9.821  15.541  68.145  1.00  0.00    -0.216 C  
HETATM   14  C   UNL     1      -9.311  14.108  67.854  1.00  0.00    -0.204 C  
BRANCH  12  15
HETATM   15  C   UNL     1     -11.484  13.036  67.573  1.00  0.00    -0.328 C  
BRANCH  15  16
HETATM   16  C   UNL     1     -11.384  12.599  69.048  1.00  0.00    -0.345 C  
BRANCH  16  17
HETATM   17  C   UNL     1     -12.118  11.295  69.375  1.00  0.00    -0.384 C  
BRANCH  17  18
HETATM   18  C   UNL     1     -11.148  10.122  69.395  1.00  0.00    -0.243 C  
BRANCH  18  19
HETATM   19  O   UNL     1     -10.907   9.642  68.074  1.00  0.00    -0.242 OA 
BRANCH  19  20
HETATM   20  C   UNL     1     -10.480   8.336  68.032  1.00  0.00    -0.181 A  
HETATM   21  C   UNL     1     -10.153   7.856  66.762  1.00  0.00    -0.352 A  
HETATM   22  C   UNL     1      -9.715   6.539  66.616  1.00  0.00    -0.154 A  
HETATM   23  C   UNL     1      -9.595   5.696  67.729  1.00  0.00    -0.128 A  
HETATM   24  C   UNL     1      -9.891   6.193  68.996  1.00  0.00    -0.170 A  
HETATM   25  C   UNL     1      -9.032   4.315  67.563  1.00  0.00    -0.133 C  
HETATM   26  C   UNL     1     -10.324   7.506  69.147  1.00  0.00    -0.215 A  
HETATM   27  C   UNL     1      -9.290   3.764  66.172  1.00  0.00    -0.183 C  
HETATM   28  C   UNL     1      -8.998   4.775  65.086  1.00  0.00    -0.152 C  
HETATM   29  O   UNL     1      -8.582   4.446  63.980  1.00  0.00    -0.110 OA 
HETATM   30  N   UNL     1      -9.343   6.072  65.353  1.00  0.00    -0.358 N  
HETATM   31  H   UNL     1      -9.328   6.739  64.582  1.00  0.00     0.000 HD 
ENDBRANCH  19  20
ENDBRANCH  18  19
ENDBRANCH  17  18
ENDBRANCH  16  17
ENDBRANCH  15  16
ENDBRANCH  12  15
ENDBRANCH   6   9
TORSDOF 7
ENDMDL
MODEL      133
REMARK 921   NORMALIZED FREE ENERGY PREDICTED BY IDOCK:   -4.80 KCAL/MOL
REMARK 922        TOTAL FREE ENERGY PREDICTED BY IDOCK:   -8.37 KCAL/MOL
REMARK 923 INTER-LIGAND FREE ENERGY PREDICTED BY IDOCK:   -7.70 KCAL/MOL
REMARK 924 INTRA-LIGAND FREE ENERGY PREDICTED BY IDOCK:   -0.66 KCAL/MOL
REMARK 927      BINDING AFFINITY PREDICTED BY RF-SCORE:    0.00 PKD
ROOT
HETATM    1 CL   UNL     1      -7.142   4.653  64.141  1.00  0.00    -0.049 Cl 
HETATM    2  C   UNL     1      -7.939   4.074  65.569  1.00  0.00    -0.093 A  
HETATM    3  C   UNL     1      -8.224   2.711  65.608  1.00  0.00    -0.090 A  
HETATM    4  C   UNL     1      -8.874   2.180  66.713  1.00  0.00    -0.141 A  
HETATM    5  C   UNL     1      -9.275   3.022  67.751  1.00  0.00    -0.244 A  
HETATM    6  C   UNL     1      -9.026   4.412  67.756  1.00  0.00    -0.118 A  
HETATM    7  C   UNL     1      -8.299   4.921  66.641  1.00  0.00    -0.107 A  
HETATM    8 CL   UNL     1      -7.717   6.566  66.601  1.00  0.00    -0.098 Cl 
ENDROOT
BRANCH   6   9
HETATM    9  N   UNL     1      -9.548   5.170  68.798  1.00  0.00    -0.134 NA 
HETATM   10  C   UNL     1      -8.985   5.123  70.160  1.00  0.00    -0.119 C  
HETATM   11  C   UNL     1      -8.898   6.535  70.782  1.00  0.00    -0.144 C  
HETATM   12  N   UNL     1     -10.156   7.314  70.740  1.00  0.00    -0.190 NA 
HETATM   13  C   UNL     1     -10.762   5.998  68.641  1.00  0.00    -0.297 C  
HETATM   14  C   UNL     1     -10.577   7.377  69.319  1.00  0.00    -0.213 C  
BRANCH  12  15
HETATM   15  C   UNL     1     -11.209   6.719  71.581  1.00  0.00    -0.255 C  
BRANCH  15  16
HETATM   16  C   UNL     1     -12.635   7.149  71.184  1.00  0.00    -0.384 C  
BRANCH  16  17
HETATM   17  C   UNL     1     -13.225   8.268  72.049  1.00  0.00    -0.342 C  
BRANCH  17  18
HETATM   18  C   UNL     1     -12.537   9.592  71.757  1.00  0.00    -0.409 C  
BRANCH  18  19
HETATM   19  O   UNL     1     -13.337  10.687  72.201  1.00  0.00    -0.444 OA 
BRANCH  19  20
HETATM   20  C   UNL     1     -12.984  11.890  71.638  1.00  0.00    -0.342 A  
HETATM   21  C   UNL     1     -12.378  11.806  70.382  1.00  0.00    -0.362 A  
HETATM   22  C   UNL     1     -11.979  12.974  69.731  1.00  0.00    -0.308 A  
HETATM   23  C   UNL     1     -12.184  14.229  70.321  1.00  0.00    -0.407 A  
HETATM   24  C   UNL     1     -12.820  14.305  71.557  1.00  0.00    -0.419 A  
HETATM   25  C   UNL     1     -11.834  15.476  69.562  1.00  0.00    -0.390 C  
HETATM   26  C   UNL     1     -13.223  13.145  72.208  1.00  0.00    -0.555 A  
HETATM   27  C   UNL     1     -10.710  15.237  68.572  1.00  0.00    -0.247 C  
HETATM   28  C   UNL     1     -10.899  13.965  67.777  1.00  0.00    -0.250 C  
HETATM   29  O   UNL     1     -10.510  13.852  66.619  1.00  0.00    -0.268 OA 
HETATM   30  N   UNL     1     -11.414  12.895  68.456  1.00  0.00    -0.286 N  
HETATM   31  H   UNL     1     -11.384  11.982  68.003  1.00  0.00     0.000 HD 
ENDBRANCH  19  20
ENDBRANCH  18  19
ENDBRANCH  17  18
ENDBRANCH  16  17
ENDBRANCH  15  16
ENDBRANCH  12  15
ENDBRANCH   6   9
TORSDOF 7
ENDMDL
MODEL      134
REMARK 921   NORMALIZED FREE ENERGY PREDICTED BY IDOCK:   -4.78 KCAL/MOL
REMARK 922        TOTAL FREE ENERGY PREDICTED BY IDOCK:   -8.33 KCAL/MOL
REMARK 923 INTER-LIGAND FREE ENERGY PREDICTED BY IDOCK:   -7.50 KCAL/MOL
REMARK 924 INTRA-LIGAND FREE ENERGY PREDICTED BY IDOCK:   -0.84 KCAL/MOL
REMARK 927      BINDING AFFINITY PREDICTED BY RF-SCORE:    0.00 PKD
ROOT
HETATM    1 CL   UNL     1     -10.397  19.627  68.884  1.00  0.00    -0.394 Cl 
HETATM    2  C   UNL     1     -10.360  18.236  67.847  1.00  0.00    -0.399 A  
HETATM    3  C   UNL     1     -10.139  18.481  66.493  1.00  0.00    -0.425 A  
HETATM    4  C   UNL     1     -10.112  17.418  65.602  1.00  0.00    -0.034 A  
HETATM    5  C   UNL     1     -10.351  16.123  66.062  1.00  0.00    -0.372 A  
HETATM    6  C   UNL     1     -10.597  15.820  67.419  1.00  0.00    -0.313 A  
HETATM    7  C   UNL     1     -10.553  16.921  68.324  1.00  0.00    -0.363 A  
HETATM    8 CL   UNL     1     -10.612  16.689  70.053  1.00  0.00    -0.184 Cl 
ENDROOT
BRANCH   6   9
HETATM    9  N   UNL     1     -10.911  14.508  67.755  1.00  0.00    -0.268 NA 
HETATM   10  C   UNL     1     -12.161  13.863  67.310  1.00  0.00    -0.368 C  
HETATM   11  C   UNL     1     -11.911  12.409  66.848  1.00  0.00    -0.307 C  
HETATM   12  N   UNL     1     -11.177  11.564  67.817  1.00  0.00    -0.257 NA 
HETATM   13  C   UNL     1     -10.067  13.701  68.661  1.00  0.00    -0.180 C  
HETATM   14  C   UNL     1      -9.901  12.260  68.118  1.00  0.00    -0.212 C  
BRANCH  12  15
HETATM   15  C   UNL     1     -11.952  11.321  69.046  1.00  0.00    -0.325 C  
BRANCH  15  16
HETATM   16  C   UNL     1     -11.101  10.812  70.225  1.00  0.00    -0.248 C  
BRANCH  16  17
HETATM   17  C   UNL     1     -11.808   9.796  71.127  1.00  0.00    -0.466 C  
BRANCH  17  18
HETATM   18  C   UNL     1     -11.070   8.466  71.121  1.00  0.00    -0.256 C  
BRANCH  18  19
HETATM   19  O   UNL     1     -11.193   7.824  69.853  1.00  0.00    -0.190 OA 
BRANCH  19  20
HETATM   20  C   UNL     1     -10.065   7.924  69.075  1.00  0.00    -0.200 A  
HETATM   21  C   UNL     1     -10.294   8.225  67.729  1.00  0.00    -0.296 A  
HETATM   22  C   UNL     1      -9.211   8.342  66.857  1.00  0.00    -0.158 A  
HETATM   23  C   UNL     1      -7.899   8.165  67.315  1.00  0.00    -0.105 A  
HETATM   24  C   UNL     1      -7.678   7.899  68.665  1.00  0.00    -0.113 A  
HETATM   25  C   UNL     1      -6.745   8.388  66.382  1.00  0.00    -0.066 C  
HETATM   26  C   UNL     1      -8.753   7.786  69.539  1.00  0.00    -0.135 A  
HETATM   27  C   UNL     1      -7.126   8.115  64.939  1.00  0.00    -0.079 C  
HETATM   28  C   UNL     1      -8.457   8.728  64.566  1.00  0.00    -0.140 C  
HETATM   29  O   UNL     1      -8.696   9.138  63.435  1.00  0.00    -0.201 OA 
HETATM   30  N   UNL     1      -9.435   8.687  65.522  1.00  0.00    -0.443 N  
HETATM   31  H   UNL     1     -10.387   8.925  65.243  1.00  0.00     0.000 HD 
ENDBRANCH  19  20
ENDBRANCH  18  19
ENDBRANCH  17  18
ENDBRANCH  16  17
ENDBRANCH  15  16
ENDBRANCH  12  15
ENDBRANCH   6   9
TORSDOF 7
ENDMDL
MODEL      135
REMARK 921   NORMALIZED FREE ENERGY PREDICTED BY IDOCK:   -4.76 KCAL/MOL
REMARK 922        TOTAL FREE ENERGY PREDICTED BY IDOCK:   -8.31 KCAL/MOL
REMARK 923 INTER-LIGAND FREE ENERGY PREDICTED BY IDOCK:   -7.75 KCAL/MOL
REMARK 924 INTRA-LIGAND FREE ENERGY PREDICTED BY IDOCK:   -0.56 KCAL/MOL
REMARK 927      BINDING AFFINITY PREDICTED BY RF-SCORE:    0.00 PKD
ROOT
HETATM    1 CL   UNL     1      -9.277  19.684  69.315  1.00  0.00    -0.190 Cl 
HETATM    2  C   UNL     1      -9.820  18.870  67.882  1.00  0.00    -0.345 A  
HETATM    3  C   UNL     1     -10.312  19.680  66.861  1.00  0.00    -0.583 A  
HETATM    4  C   UNL     1     -10.778  19.097  65.691  1.00  0.00    -0.297 A  
HETATM    5  C   UNL     1     -10.791  17.707  65.567  1.00  0.00     0.056 A  
HETATM    6  C   UNL     1     -10.319  16.839  66.577  1.00  0.00    -0.301 A  
HETATM    7  C   UNL     1      -9.785  17.465  67.740  1.00  0.00    -0.268 A  
HETATM    8 CL   UNL     1      -8.960  16.549  68.976  1.00  0.00    -0.251 Cl 
ENDROOT
BRANCH   6   9
HETATM    9  N   UNL     1     -10.460  15.469  66.385  1.00  0.00    -0.298 NA 
HETATM   10  C   UNL     1      -9.310  14.548  66.431  1.00  0.00    -0.273 C  
HETATM   11  C   UNL     1      -9.654  13.254  67.202  1.00  0.00    -0.240 C  
HETATM   12  N   UNL     1     -10.884  12.566  66.749  1.00  0.00    -0.243 NA 
HETATM   13  C   UNL     1     -11.754  14.852  66.024  1.00  0.00    -0.173 C  
HETATM   14  C   UNL     1     -11.988  13.554  66.835  1.00  0.00    -0.399 C  
BRANCH  12  15
HETATM   15  C   UNL     1     -10.753  12.033  65.382  1.00  0.00    -0.287 C  
BRANCH  15  16
HETATM   16  C   UNL     1      -9.452  11.241  65.149  1.00  0.00    -0.242 C  
BRANCH  16  17
HETATM   17  C   UNL     1      -9.647   9.729  64.995  1.00  0.00    -0.333 C  
BRANCH  17  18
HETATM   18  C   UNL     1      -9.838   9.071  66.353  1.00  0.00    -0.286 C  
BRANCH  18  19
HETATM   19  O   UNL     1      -9.906   7.652  66.223  1.00  0.00    -0.140 OA 
BRANCH  19  20
HETATM   20  C   UNL     1     -10.063   6.996  67.421  1.00  0.00    -0.195 A  
HETATM   21  C   UNL     1     -10.500   7.792  68.483  1.00  0.00    -0.202 A  
HETATM   22  C   UNL     1     -10.684   7.218  69.742  1.00  0.00    -0.239 A  
HETATM   23  C   UNL     1     -10.441   5.854  69.950  1.00  0.00    -0.337 A  
HETATM   24  C   UNL     1     -10.039   5.061  68.877  1.00  0.00    -0.215 A  
HETATM   25  C   UNL     1     -10.736   5.238  71.286  1.00  0.00    -0.198 C  
HETATM   26  C   UNL     1      -9.858   5.628  67.621  1.00  0.00    -0.154 A  
HETATM   27  C   UNL     1     -10.614   6.248  72.412  1.00  0.00    -0.241 C  
HETATM   28  C   UNL     1     -11.282   7.564  72.084  1.00  0.00    -0.270 C  
HETATM   29  O   UNL     1     -11.806   8.265  72.944  1.00  0.00    -0.337 OA 
HETATM   30  N   UNL     1     -11.164   8.002  70.793  1.00  0.00    -0.264 N  
HETATM   31  H   UNL     1     -11.443   8.960  70.586  1.00  0.00     0.000 HD 
ENDBRANCH  19  20
ENDBRANCH  18  19
ENDBRANCH  17  18
ENDBRANCH  16  17
ENDBRANCH  15  16
ENDBRANCH  12  15
ENDBRANCH   6   9
TORSDOF 7
ENDMDL
MODEL      136
REMARK 921   NORMALIZED FREE ENERGY PREDICTED BY IDOCK:   -4.75 KCAL/MOL
REMARK 922        TOTAL FREE ENERGY PREDICTED BY IDOCK:   -8.29 KCAL/MOL
REMARK 923 INTER-LIGAND FREE ENERGY PREDICTED BY IDOCK:   -7.52 KCAL/MOL
REMARK 924 INTRA-LIGAND FREE ENERGY PREDICTED BY IDOCK:   -0.77 KCAL/MOL
REMARK 927      BINDING AFFINITY PREDICTED BY RF-SCORE:    0.00 PKD
ROOT
HETATM    1 CL   UNL     1     -10.858   1.768  73.047  1.00  0.00    -0.237 Cl 
HETATM    2  C   UNL     1     -10.424   3.425  72.766  1.00  0.00    -0.127 A  
HETATM    3  C   UNL     1     -10.719   4.322  73.790  1.00  0.00    -0.339 A  
HETATM    4  C   UNL     1     -10.414   5.666  73.629  1.00  0.00    -0.289 A  
HETATM    5  C   UNL     1      -9.859   6.112  72.429  1.00  0.00    -0.179 A  
HETATM    6  C   UNL     1      -9.555   5.248  71.353  1.00  0.00    -0.158 A  
HETATM    7  C   UNL     1      -9.816   3.864  71.569  1.00  0.00    -0.177 A  
HETATM    8 CL   UNL     1      -9.293   2.645  70.435  1.00  0.00    -0.212 Cl 
ENDROOT
BRANCH   6   9
HETATM    9  N   UNL     1      -9.087   5.810  70.171  1.00  0.00    -0.139 NA 
HETATM   10  C   UNL     1      -9.986   6.136  69.048  1.00  0.00    -0.153 C  
HETATM   11  C   UNL     1      -9.632   7.504  68.422  1.00  0.00    -0.150 C  
HETATM   12  N   UNL     1      -8.210   7.669  68.046  1.00  0.00    -0.123 NA 
HETATM   13  C   UNL     1      -7.648   6.026  69.915  1.00  0.00    -0.081 C  
HETATM   14  C   UNL     1      -7.408   7.412  69.268  1.00  0.00    -0.086 C  
BRANCH  12  15
HETATM   15  C   UNL     1      -7.814   6.767  66.951  1.00  0.00    -0.108 C  
BRANCH  15  16
HETATM   16  C   UNL     1      -7.455   7.501  65.644  1.00  0.00    -0.083 C  
BRANCH  16  17
HETATM   17  C   UNL     1      -8.654   8.101  64.903  1.00  0.00    -0.039 C  
BRANCH  17  18
HETATM   18  C   UNL     1      -8.392   9.557  64.546  1.00  0.00    -0.164 C  
BRANCH  18  19
HETATM   19  O   UNL     1      -9.559  10.160  63.990  1.00  0.00    -0.291 OA 
BRANCH  19  20
HETATM   20  C   UNL     1     -10.099  11.146  64.781  1.00  0.00    -0.295 A  
HETATM   21  C   UNL     1     -10.131  12.420  64.207  1.00  0.00    -0.305 A  
HETATM   22  C   UNL     1     -10.656  13.489  64.934  1.00  0.00    -0.397 A  
HETATM   23  C   UNL     1     -11.154  13.298  66.229  1.00  0.00    -0.306 A  
HETATM   24  C   UNL     1     -11.149  12.019  66.781  1.00  0.00    -0.353 A  
HETATM   25  C   UNL     1     -11.801  14.441  66.956  1.00  0.00    -0.437 C  
HETATM   26  C   UNL     1     -10.631  10.950  66.059  1.00  0.00    -0.254 A  
HETATM   27  C   UNL     1     -11.248  15.780  66.506  1.00  0.00     0.023 C  
HETATM   28  C   UNL     1     -11.132  15.883  65.002  1.00  0.00    -0.360 C  
HETATM   29  O   UNL     1     -11.276  16.945  64.405  1.00  0.00    -1.159 OA 
HETATM   30  N   UNL     1     -10.731  14.752  64.345  1.00  0.00    -0.546 N  
HETATM   31  H   UNL     1     -10.471  14.838  63.362  1.00  0.00     0.000 HD 
ENDBRANCH  19  20
ENDBRANCH  18  19
ENDBRANCH  17  18
ENDBRANCH  16  17
ENDBRANCH  15  16
ENDBRANCH  12  15
ENDBRANCH   6   9
TORSDOF 7
ENDMDL
MODEL      137
REMARK 921   NORMALIZED FREE ENERGY PREDICTED BY IDOCK:   -4.75 KCAL/MOL
REMARK 922        TOTAL FREE ENERGY PREDICTED BY IDOCK:   -8.29 KCAL/MOL
REMARK 923 INTER-LIGAND FREE ENERGY PREDICTED BY IDOCK:   -7.16 KCAL/MOL
REMARK 924 INTRA-LIGAND FREE ENERGY PREDICTED BY IDOCK:   -1.13 KCAL/MOL
REMARK 927      BINDING AFFINITY PREDICTED BY RF-SCORE:    0.00 PKD
ROOT
HETATM    1 CL   UNL     1     -10.387  16.984  68.570  1.00  0.00    -0.336 Cl 
HETATM    2  C   UNL     1     -10.822  15.308  68.694  1.00  0.00    -0.253 A  
HETATM    3  C   UNL     1     -11.747  14.982  69.683  1.00  0.00    -0.353 A  
HETATM    4  C   UNL     1     -12.131  13.659  69.850  1.00  0.00    -0.406 A  
HETATM    5  C   UNL     1     -11.554  12.665  69.058  1.00  0.00    -0.367 A  
HETATM    6  C   UNL     1     -10.601  12.939  68.052  1.00  0.00    -0.227 A  
HETATM    7  C   UNL     1     -10.274  14.312  67.856  1.00  0.00    -0.237 A  
HETATM    8 CL   UNL     1      -9.290  14.838  66.514  1.00  0.00    -0.299 Cl 
ENDROOT
BRANCH   6   9
HETATM    9  N   UNL     1     -10.025  11.865  67.382  1.00  0.00    -0.189 NA 
HETATM   10  C   UNL     1     -10.810  10.975  66.506  1.00  0.00    -0.209 C  
HETATM   11  C   UNL     1     -10.039  10.639  65.209  1.00  0.00    -0.297 C  
HETATM   12  N   UNL     1      -8.666  10.126  65.415  1.00  0.00    -0.153 NA 
HETATM   13  C   UNL     1      -8.612  11.479  67.578  1.00  0.00    -0.143 C  
HETATM   14  C   UNL     1      -7.944  11.140  66.223  1.00  0.00    -0.125 C  
BRANCH  12  15
HETATM   15  C   UNL     1      -8.654   8.811  66.079  1.00  0.00    -0.148 C  
BRANCH  15  16
HETATM   16  C   UNL     1      -8.117   7.674  65.189  1.00  0.00    -0.134 C  
BRANCH  16  17
HETATM   17  C   UNL     1      -8.519   6.267  65.644  1.00  0.00    -0.148 C  
BRANCH  17  18
HETATM   18  C   UNL     1      -8.550   6.182  67.163  1.00  0.00    -0.103 C  
BRANCH  18  19
HETATM   19  O   UNL     1      -9.834   5.761  67.620  1.00  0.00    -0.114 OA 
BRANCH  19  20
HETATM   20  C   UNL     1     -10.121   6.165  68.902  1.00  0.00    -0.173 A  
HETATM   21  C   UNL     1      -9.046   6.707  69.612  1.00  0.00    -0.142 A  
HETATM   22  C   UNL     1      -9.237   7.140  70.924  1.00  0.00    -0.152 A  
HETATM   23  C   UNL     1     -10.494   7.042  71.535  1.00  0.00    -0.222 A  
HETATM   24  C   UNL     1     -11.568   6.533  70.809  1.00  0.00    -0.437 A  
HETATM   25  C   UNL     1     -10.701   7.602  72.913  1.00  0.00    -0.428 C  
HETATM   26  C   UNL     1     -11.384   6.104  69.500  1.00  0.00    -0.426 A  
HETATM   27  C   UNL     1      -9.419   7.587  73.725  1.00  0.00    -0.330 C  
HETATM   28  C   UNL     1      -8.229   8.087  72.937  1.00  0.00    -0.167 C  
HETATM   29  O   UNL     1      -7.300   8.689  73.465  1.00  0.00    -0.343 OA 
HETATM   30  N   UNL     1      -8.176   7.723  71.619  1.00  0.00    -0.105 N  
HETATM   31  H   UNL     1      -7.306   7.889  71.113  1.00  0.00     0.000 HD 
ENDBRANCH  19  20
ENDBRANCH  18  19
ENDBRANCH  17  18
ENDBRANCH  16  17
ENDBRANCH  15  16
ENDBRANCH  12  15
ENDBRANCH   6   9
TORSDOF 7
ENDMDL
MODEL      138
REMARK 921   NORMALIZED FREE ENERGY PREDICTED BY IDOCK:   -4.74 KCAL/MOL
REMARK 922        TOTAL FREE ENERGY PREDICTED BY IDOCK:   -8.29 KCAL/MOL
REMARK 923 INTER-LIGAND FREE ENERGY PREDICTED BY IDOCK:   -7.49 KCAL/MOL
REMARK 924 INTRA-LIGAND FREE ENERGY PREDICTED BY IDOCK:   -0.80 KCAL/MOL
REMARK 927      BINDING AFFINITY PREDICTED BY RF-SCORE:    0.00 PKD
ROOT
HETATM    1 CL   UNL     1      -6.364   8.920  63.012  1.00  0.00    -0.090 Cl 
HETATM    2  C   UNL     1      -7.157   7.675  63.924  1.00  0.00    -0.066 A  
HETATM    3  C   UNL     1      -7.360   6.463  63.268  1.00  0.00    -0.065 A  
HETATM    4  C   UNL     1      -8.001   5.426  63.931  1.00  0.00    -0.111 A  
HETATM    5  C   UNL     1      -8.476   5.622  65.228  1.00  0.00    -0.147 A  
HETATM    6  C   UNL     1      -8.311   6.835  65.934  1.00  0.00    -0.137 A  
HETATM    7  C   UNL     1      -7.591   7.860  65.255  1.00  0.00    -0.090 A  
HETATM    8 CL   UNL     1      -7.109   9.330  66.064  1.00  0.00    -0.089 Cl 
ENDROOT
BRANCH   6   9
HETATM    9  N   UNL     1      -8.901   6.951  67.187  1.00  0.00    -0.119 NA 
HETATM   10  C   UNL     1     -10.337   7.242  67.355  1.00  0.00    -0.260 C  
HETATM   11  C   UNL     1     -10.958   6.381  68.478  1.00  0.00    -0.319 C  
HETATM   12  N   UNL     1     -10.239   6.429  69.771  1.00  0.00    -0.178 NA 
HETATM   13  C   UNL     1      -8.115   6.894  68.437  1.00  0.00    -0.120 C  
HETATM   14  C   UNL     1      -8.836   6.029  69.500  1.00  0.00    -0.125 C  
BRANCH  12  15
HETATM   15  C   UNL     1     -10.300   7.762  70.395  1.00  0.00    -0.212 C  
BRANCH  15  16
HETATM   16  C   UNL     1     -11.715   8.372  70.413  1.00  0.00     0.013 C  
BRANCH  16  17
HETATM   17  C   UNL     1     -11.746   9.903  70.466  1.00  0.00    -0.373 C  
BRANCH  17  18
HETATM   18  C   UNL     1     -11.043  10.497  69.256  1.00  0.00    -0.246 C  
BRANCH  18  19
HETATM   19  O   UNL     1     -11.960  11.229  68.445  1.00  0.00    -0.555 OA 
BRANCH  19  20
HETATM   20  C   UNL     1     -11.690  12.575  68.386  1.00  0.00    -0.328 A  
HETATM   21  C   UNL     1     -11.624  13.113  67.098  1.00  0.00    -0.410 A  
HETATM   22  C   UNL     1     -11.349  14.472  66.933  1.00  0.00    -0.348 A  
HETATM   23  C   UNL     1     -11.143  15.301  68.044  1.00  0.00    -0.312 A  
HETATM   24  C   UNL     1     -11.245  14.763  69.325  1.00  0.00    -0.303 A  
HETATM   25  C   UNL     1     -10.944  16.775  67.848  1.00  0.00    -0.260 C  
HETATM   26  C   UNL     1     -11.523  13.411  69.494  1.00  0.00    -0.308 A  
HETATM   27  C   UNL     1     -10.324  17.086  66.498  1.00  0.00    -0.298 C  
HETATM   28  C   UNL     1     -10.970  16.312  65.372  1.00  0.00    -0.197 C  
HETATM   29  O   UNL     1     -11.070  16.766  64.237  1.00  0.00    -1.106 OA 
HETATM   30  N   UNL     1     -11.328  15.020  65.649  1.00  0.00    -0.330 N  
HETATM   31  H   UNL     1     -11.596  14.421  64.869  1.00  0.00     0.000 HD 
ENDBRANCH  19  20
ENDBRANCH  18  19
ENDBRANCH  17  18
ENDBRANCH  16  17
ENDBRANCH  15  16
ENDBRANCH  12  15
ENDBRANCH   6   9
TORSDOF 7
ENDMDL
MODEL      139
REMARK 921   NORMALIZED FREE ENERGY PREDICTED BY IDOCK:   -4.73 KCAL/MOL
REMARK 922        TOTAL FREE ENERGY PREDICTED BY IDOCK:   -8.26 KCAL/MOL
REMARK 923 INTER-LIGAND FREE ENERGY PREDICTED BY IDOCK:   -7.68 KCAL/MOL
REMARK 924 INTRA-LIGAND FREE ENERGY PREDICTED BY IDOCK:   -0.58 KCAL/MOL
REMARK 927      BINDING AFFINITY PREDICTED BY RF-SCORE:    0.00 PKD
ROOT
HETATM    1 CL   UNL     1     -13.282  13.277  72.373  1.00  0.00    -0.571 Cl 
HETATM    2  C   UNL     1     -12.464  14.083  71.072  1.00  0.00    -0.371 A  
HETATM    3  C   UNL     1     -12.032  15.383  71.325  1.00  0.00    -0.431 A  
HETATM    4  C   UNL     1     -11.384  16.094  70.325  1.00  0.00    -0.363 A  
HETATM    5  C   UNL     1     -11.212  15.518  69.066  1.00  0.00    -0.304 A  
HETATM    6  C   UNL     1     -11.644  14.211  68.751  1.00  0.00    -0.327 A  
HETATM    7  C   UNL     1     -12.246  13.478  69.814  1.00  0.00    -0.269 A  
HETATM    8 CL   UNL     1     -12.630  11.782  69.656  1.00  0.00     0.026 Cl 
ENDROOT
BRANCH   6   9
HETATM    9  N   UNL     1     -11.501  13.769  67.441  1.00  0.00    -0.326 NA 
HETATM   10  C   UNL     1     -12.658  13.584  66.545  1.00  0.00    -0.124 C  
HETATM   11  C   UNL     1     -12.359  14.110  65.123  1.00  0.00    -0.451 C  
HETATM   12  N   UNL     1     -11.112  13.591  64.515  1.00  0.00    -0.367 NA 
HETATM   13  C   UNL     1     -10.195  13.357  66.884  1.00  0.00    -0.252 C  
HETATM   14  C   UNL     1     -10.009  13.916  65.452  1.00  0.00    -0.247 C  
BRANCH  12  15
HETATM   15  C   UNL     1     -11.179  12.144  64.253  1.00  0.00    -0.347 C  
BRANCH  15  16
HETATM   16  C   UNL     1     -10.073  11.634  63.308  1.00  0.00    -0.454 C  
BRANCH  16  17
HETATM   17  C   UNL     1      -9.414  10.324  63.751  1.00  0.00    -0.352 C  
BRANCH  17  18
HETATM   18  C   UNL     1      -8.914  10.431  65.184  1.00  0.00    -0.191 C  
BRANCH  18  19
HETATM   19  O   UNL     1      -9.983  10.244  66.109  1.00  0.00    -0.215 OA 
BRANCH  19  20
HETATM   20  C   UNL     1      -9.812   9.159  66.936  1.00  0.00    -0.217 A  
HETATM   21  C   UNL     1      -9.510   7.958  66.288  1.00  0.00    -0.220 A  
HETATM   22  C   UNL     1      -9.324   6.798  67.042  1.00  0.00    -0.143 A  
HETATM   23  C   UNL     1      -9.432   6.827  68.439  1.00  0.00    -0.126 A  
HETATM   24  C   UNL     1      -9.700   8.035  69.078  1.00  0.00    -0.159 A  
HETATM   25  C   UNL     1      -9.134   5.590  69.236  1.00  0.00    -0.132 C  
HETATM   26  C   UNL     1      -9.882   9.194  68.332  1.00  0.00    -0.181 A  
HETATM   27  C   UNL     1      -9.413   4.327  68.443  1.00  0.00    -0.215 C  
HETATM   28  C   UNL     1      -8.872   4.398  67.033  1.00  0.00    -0.114 C  
HETATM   29  O   UNL     1      -8.463   3.407  66.437  1.00  0.00    -0.103 OA 
HETATM   30  N   UNL     1      -8.977   5.607  66.401  1.00  0.00    -0.130 N  
HETATM   31  H   UNL     1      -8.790   5.641  65.399  1.00  0.00     0.000 HD 
ENDBRANCH  19  20
ENDBRANCH  18  19
ENDBRANCH  17  18
ENDBRANCH  16  17
ENDBRANCH  15  16
ENDBRANCH  12  15
ENDBRANCH   6   9
TORSDOF 7
ENDMDL
MODEL      140
REMARK 921   NORMALIZED FREE ENERGY PREDICTED BY IDOCK:   -4.73 KCAL/MOL
REMARK 922        TOTAL FREE ENERGY PREDICTED BY IDOCK:   -8.26 KCAL/MOL
REMARK 923 INTER-LIGAND FREE ENERGY PREDICTED BY IDOCK:   -7.61 KCAL/MOL
REMARK 924 INTRA-LIGAND FREE ENERGY PREDICTED BY IDOCK:   -0.65 KCAL/MOL
REMARK 927      BINDING AFFINITY PREDICTED BY RF-SCORE:    0.00 PKD
ROOT
HETATM    1 CL   UNL     1      -7.318  20.309  65.481  1.00  0.00    -0.270 Cl 
HETATM    2  C   UNL     1      -7.231  18.711  66.152  1.00  0.00    -0.262 A  
HETATM    3  C   UNL     1      -5.957  18.158  66.266  1.00  0.00    -0.219 A  
HETATM    4  C   UNL     1      -5.813  16.878  66.780  1.00  0.00    -0.190 A  
HETATM    5  C   UNL     1      -6.943  16.141  67.135  1.00  0.00    -0.244 A  
HETATM    6  C   UNL     1      -8.258  16.647  67.025  1.00  0.00    -0.191 A  
HETATM    7  C   UNL     1      -8.375  17.988  66.557  1.00  0.00    -0.268 A  
HETATM    8 CL   UNL     1      -9.901  18.835  66.576  1.00  0.00    -0.372 Cl 
ENDROOT
BRANCH   6   9
HETATM    9  N   UNL     1      -9.317  15.797  67.323  1.00  0.00    -0.209 NA 
HETATM   10  C   UNL     1     -10.009  15.833  68.624  1.00  0.00    -0.208 C  
HETATM   11  C   UNL     1     -11.540  15.711  68.452  1.00  0.00    -0.350 C  
HETATM   12  N   UNL     1     -11.985  14.563  67.629  1.00  0.00    -0.359 NA 
HETATM   13  C   UNL     1      -9.758  14.732  66.398  1.00  0.00    -0.291 C  
HETATM   14  C   UNL     1     -11.304  14.682  66.317  1.00  0.00    -0.347 C  
BRANCH  12  15
HETATM   15  C   UNL     1     -11.688  13.270  68.268  1.00  0.00    -0.353 C  
BRANCH  15  16
HETATM   16  C   UNL     1     -11.844  12.062  67.324  1.00  0.00    -0.257 C  
BRANCH  16  17
HETATM   17  C   UNL     1     -10.702  11.044  67.400  1.00  0.00    -0.303 C  
BRANCH  17  18
HETATM   18  C   UNL     1     -10.790  10.231  68.683  1.00  0.00    -0.234 C  
BRANCH  18  19
HETATM   19  O   UNL     1      -9.816   9.189  68.690  1.00  0.00    -0.156 OA 
BRANCH  19  20
HETATM   20  C   UNL     1      -9.577   8.667  69.938  1.00  0.00    -0.172 A  
HETATM   21  C   UNL     1     -10.437   7.636  70.328  1.00  0.00    -0.224 A  
HETATM   22  C   UNL     1     -10.278   7.044  71.582  1.00  0.00    -0.194 A  
HETATM   23  C   UNL     1      -9.265   7.470  72.451  1.00  0.00    -0.188 A  
HETATM   24  C   UNL     1      -8.392   8.475  72.042  1.00  0.00    -0.209 A  
HETATM   25  C   UNL     1      -9.052   6.757  73.755  1.00  0.00    -0.178 C  
HETATM   26  C   UNL     1      -8.543   9.064  70.791  1.00  0.00    -0.259 A  
HETATM   27  C   UNL     1     -10.334   6.134  74.273  1.00  0.00    -0.291 C  
HETATM   28  C   UNL     1     -11.101   5.404  73.193  1.00  0.00    -0.308 C  
HETATM   29  O   UNL     1     -11.778   4.409  73.429  1.00  0.00    -0.243 OA 
HETATM   30  N   UNL     1     -11.106   5.984  71.954  1.00  0.00    -0.266 N  
HETATM   31  H   UNL     1     -11.756   5.618  71.258  1.00  0.00     0.000 HD 
ENDBRANCH  19  20
ENDBRANCH  18  19
ENDBRANCH  17  18
ENDBRANCH  16  17
ENDBRANCH  15  16
ENDBRANCH  12  15
ENDBRANCH   6   9
TORSDOF 7
ENDMDL
MODEL      141
REMARK 921   NORMALIZED FREE ENERGY PREDICTED BY IDOCK:   -4.72 KCAL/MOL
REMARK 922        TOTAL FREE ENERGY PREDICTED BY IDOCK:   -8.26 KCAL/MOL
REMARK 923 INTER-LIGAND FREE ENERGY PREDICTED BY IDOCK:   -7.35 KCAL/MOL
REMARK 924 INTRA-LIGAND FREE ENERGY PREDICTED BY IDOCK:   -0.90 KCAL/MOL
REMARK 927      BINDING AFFINITY PREDICTED BY RF-SCORE:    0.00 PKD
ROOT
HETATM    1 CL   UNL     1     -12.654  16.111  72.633  1.00  0.00    -0.521 Cl 
HETATM    2  C   UNL     1     -12.601  14.598  71.783  1.00  0.00    -0.340 A  
HETATM    3  C   UNL     1     -13.123  13.495  72.455  1.00  0.00    -0.494 A  
HETATM    4  C   UNL     1     -13.100  12.250  71.843  1.00  0.00    -0.469 A  
HETATM    5  C   UNL     1     -12.515  12.107  70.584  1.00  0.00    -0.330 A  
HETATM    6  C   UNL     1     -11.958  13.188  69.866  1.00  0.00    -0.317 A  
HETATM    7  C   UNL     1     -12.054  14.467  70.488  1.00  0.00    -0.325 A  
HETATM    8 CL   UNL     1     -11.619  15.932  69.643  1.00  0.00    -0.339 Cl 
ENDROOT
BRANCH   6   9
HETATM    9  N   UNL     1     -11.322  12.919  68.660  1.00  0.00    -0.267 NA 
HETATM   10  C   UNL     1     -11.910  12.024  67.646  1.00  0.00    -0.224 C  
HETATM   11  C   UNL     1     -11.740  12.597  66.221  1.00  0.00    -0.402 C  
HETATM   12  N   UNL     1     -10.355  12.986  65.867  1.00  0.00    -0.283 NA 
HETATM   13  C   UNL     1      -9.970  13.429  68.349  1.00  0.00    -0.231 C  
HETATM   14  C   UNL     1      -9.903  13.955  66.894  1.00  0.00    -0.268 C  
BRANCH  12  15
HETATM   15  C   UNL     1      -9.451  11.826  65.795  1.00  0.00    -0.216 C  
BRANCH  15  16
HETATM   16  C   UNL     1      -9.796  10.841  64.661  1.00  0.00    -0.366 C  
BRANCH  16  17
HETATM   17  C   UNL     1      -9.006   9.529  64.698  1.00  0.00    -0.266 C  
BRANCH  17  18
HETATM   18  C   UNL     1      -8.138   9.458  65.945  1.00  0.00    -0.114 C  
BRANCH  18  19
HETATM   19  O   UNL     1      -7.459   8.206  66.019  1.00  0.00    -0.078 OA 
BRANCH  19  20
HETATM   20  C   UNL     1      -7.678   7.530  67.196  1.00  0.00    -0.112 A  
HETATM   21  C   UNL     1      -7.957   8.336  68.303  1.00  0.00    -0.119 A  
HETATM   22  C   UNL     1      -8.188   7.743  69.545  1.00  0.00    -0.128 A  
HETATM   23  C   UNL     1      -8.146   6.351  69.693  1.00  0.00    -0.124 A  
HETATM   24  C   UNL     1      -7.900   5.553  68.577  1.00  0.00    -0.088 A  
HETATM   25  C   UNL     1      -8.490   5.730  71.015  1.00  0.00    -0.123 C  
HETATM   26  C   UNL     1      -7.674   6.139  67.337  1.00  0.00    -0.094 A  
HETATM   27  C   UNL     1      -8.184   6.661  72.173  1.00  0.00    -0.105 C  
HETATM   28  C   UNL     1      -8.657   8.075  71.919  1.00  0.00    -0.137 C  
HETATM   29  O   UNL     1      -9.044   8.809  72.822  1.00  0.00    -0.338 OA 
HETATM   30  N   UNL     1      -8.513   8.544  70.642  1.00  0.00    -0.134 N  
HETATM   31  H   UNL     1      -8.651   9.542  70.481  1.00  0.00     0.000 HD 
ENDBRANCH  19  20
ENDBRANCH  18  19
ENDBRANCH  17  18
ENDBRANCH  16  17
ENDBRANCH  15  16
ENDBRANCH  12  15
ENDBRANCH   6   9
TORSDOF 7
ENDMDL
MODEL      142
REMARK 921   NORMALIZED FREE ENERGY PREDICTED BY IDOCK:   -4.71 KCAL/MOL
REMARK 922        TOTAL FREE ENERGY PREDICTED BY IDOCK:   -8.24 KCAL/MOL
REMARK 923 INTER-LIGAND FREE ENERGY PREDICTED BY IDOCK:   -7.13 KCAL/MOL
REMARK 924 INTRA-LIGAND FREE ENERGY PREDICTED BY IDOCK:   -1.11 KCAL/MOL
REMARK 927      BINDING AFFINITY PREDICTED BY RF-SCORE:    0.00 PKD
ROOT
HETATM    1 CL   UNL     1     -11.287  12.558  63.192  1.00  0.00    -0.345 Cl 
HETATM    2  C   UNL     1     -11.455  12.705  64.913  1.00  0.00    -0.322 A  
HETATM    3  C   UNL     1     -12.082  13.860  65.375  1.00  0.00    -0.423 A  
HETATM    4  C   UNL     1     -12.238  14.052  66.741  1.00  0.00    -0.439 A  
HETATM    5  C   UNL     1     -11.727  13.112  67.636  1.00  0.00    -0.414 A  
HETATM    6  C   UNL     1     -11.069  11.932  67.222  1.00  0.00    -0.288 A  
HETATM    7  C   UNL     1     -10.981  11.726  65.814  1.00  0.00    -0.301 A  
HETATM    8 CL   UNL     1     -10.403  10.223  65.143  1.00  0.00    -0.297 Cl 
ENDROOT
BRANCH   6   9
HETATM    9  N   UNL     1     -10.521  11.108  68.197  1.00  0.00    -0.181 NA 
HETATM   10  C   UNL     1     -11.276   9.993  68.797  1.00  0.00    -0.122 C  
HETATM   11  C   UNL     1     -10.394   8.733  68.953  1.00  0.00    -0.212 C  
HETATM   12  N   UNL     1      -9.107   8.956  69.650  1.00  0.00    -0.147 NA 
HETATM   13  C   UNL     1      -9.182  11.351  68.774  1.00  0.00    -0.100 C  
HETATM   14  C   UNL     1      -8.394  10.025  68.908  1.00  0.00    -0.130 C  
BRANCH  12  15
HETATM   15  C   UNL     1      -9.294   9.324  71.063  1.00  0.00    -0.227 C  
BRANCH  15  16
HETATM   16  C   UNL     1      -8.843   8.231  72.052  1.00  0.00    -0.256 C  
BRANCH  16  17
HETATM   17  C   UNL     1      -9.920   7.792  73.049  1.00  0.00    -0.356 C  
BRANCH  17  18
HETATM   18  C   UNL     1     -11.265   7.639  72.354  1.00  0.00    -0.320 C  
BRANCH  18  19
HETATM   19  O   UNL     1     -11.783   6.322  72.539  1.00  0.00    -0.274 OA 
BRANCH  19  20
HETATM   20  C   UNL     1     -11.073   5.353  71.871  1.00  0.00    -0.108 A  
HETATM   21  C   UNL     1     -10.781   5.640  70.535  1.00  0.00    -0.344 A  
HETATM   22  C   UNL     1     -10.069   4.715  69.772  1.00  0.00    -0.173 A  
HETATM   23  C   UNL     1      -9.640   3.504  70.331  1.00  0.00    -0.241 A  
HETATM   24  C   UNL     1      -9.905   3.240  71.673  1.00  0.00    -0.220 A  
HETATM   25  C   UNL     1      -8.793   2.565  69.521  1.00  0.00    -0.149 C  
HETATM   26  C   UNL     1     -10.610   4.161  72.439  1.00  0.00    -0.116 A  
HETATM   27  C   UNL     1      -9.065   2.702  68.035  1.00  0.00    -0.229 C  
HETATM   28  C   UNL     1      -9.132   4.145  67.589  1.00  0.00    -0.140 C  
HETATM   29  O   UNL     1      -8.773   4.504  66.473  1.00  0.00    -0.112 OA 
HETATM   30  N   UNL     1      -9.737   5.020  68.450  1.00  0.00    -0.144 N  
HETATM   31  H   UNL     1      -9.959   5.954  68.106  1.00  0.00     0.000 HD 
ENDBRANCH  19  20
ENDBRANCH  18  19
ENDBRANCH  17  18
ENDBRANCH  16  17
ENDBRANCH  15  16
ENDBRANCH  12  15
ENDBRANCH   6   9
TORSDOF 7
ENDMDL
MODEL      143
REMARK 921   NORMALIZED FREE ENERGY PREDICTED BY IDOCK:   -4.71 KCAL/MOL
REMARK 922        TOTAL FREE ENERGY PREDICTED BY IDOCK:   -8.23 KCAL/MOL
REMARK 923 INTER-LIGAND FREE ENERGY PREDICTED BY IDOCK:   -7.24 KCAL/MOL
REMARK 924 INTRA-LIGAND FREE ENERGY PREDICTED BY IDOCK:   -1.00 KCAL/MOL
REMARK 927      BINDING AFFINITY PREDICTED BY RF-SCORE:    0.00 PKD
ROOT
HETATM    1 CL   UNL     1      -5.560   9.062  73.084  1.00  0.00    -0.097 Cl 
HETATM    2  C   UNL     1      -6.832   8.362  72.133  1.00  0.00    -0.086 A  
HETATM    3  C   UNL     1      -7.474   7.254  72.681  1.00  0.00    -0.080 A  
HETATM    4  C   UNL     1      -8.491   6.634  71.970  1.00  0.00    -0.116 A  
HETATM    5  C   UNL     1      -8.830   7.096  70.698  1.00  0.00    -0.149 A  
HETATM    6  C   UNL     1      -8.201   8.205  70.089  1.00  0.00    -0.119 A  
HETATM    7  C   UNL     1      -7.206   8.865  70.867  1.00  0.00    -0.092 A  
HETATM    8 CL   UNL     1      -6.496  10.376  70.357  1.00  0.00    -0.136 Cl 
ENDROOT
BRANCH   6   9
HETATM    9  N   UNL     1      -8.554   8.527  68.783  1.00  0.00    -0.130 NA 
HETATM   10  C   UNL     1      -7.637   8.314  67.648  1.00  0.00    -0.098 C  
HETATM   11  C   UNL     1      -8.381   7.733  66.424  1.00  0.00    -0.131 C  
HETATM   12  N   UNL     1      -9.589   8.484  66.015  1.00  0.00    -0.206 NA 
HETATM   13  C   UNL     1      -9.829   9.196  68.453  1.00  0.00    -0.164 C  
HETATM   14  C   UNL     1     -10.477   8.554  67.201  1.00  0.00    -0.299 C  
BRANCH  12  15
HETATM   15  C   UNL     1      -9.266   9.831  65.513  1.00  0.00    -0.215 C  
BRANCH  15  16
HETATM   16  C   UNL     1     -10.488  10.602  64.978  1.00  0.00    -0.278 C  
BRANCH  16  17
HETATM   17  C   UNL     1     -10.225  11.396  63.694  1.00  0.00    -0.448 C  
BRANCH  17  18
HETATM   18  C   UNL     1     -10.636  12.851  63.869  1.00  0.00    -0.336 C  
BRANCH  18  19
HETATM   19  O   UNL     1     -11.743  12.961  64.761  1.00  0.00    -0.318 OA 
BRANCH  19  20
HETATM   20  C   UNL     1     -11.501  13.775  65.841  1.00  0.00    -0.322 A  
HETATM   21  C   UNL     1     -12.011  13.317  67.059  1.00  0.00    -0.419 A  
HETATM   22  C   UNL     1     -11.821  14.077  68.214  1.00  0.00    -0.371 A  
HETATM   23  C   UNL     1     -11.122  15.290  68.166  1.00  0.00    -0.309 A  
HETATM   24  C   UNL     1     -10.587  15.722  66.954  1.00  0.00    -0.317 A  
HETATM   25  C   UNL     1     -10.847  16.044  69.434  1.00  0.00    -0.300 C  
HETATM   26  C   UNL     1     -10.770  14.966  65.802  1.00  0.00    -0.338 A  
HETATM   27  C   UNL     1     -11.904  15.777  70.490  1.00  0.00    -0.402 C  
HETATM   28  C   UNL     1     -12.246  14.309  70.608  1.00  0.00    -0.357 C  
HETATM   29  O   UNL     1     -12.579  13.797  71.672  1.00  0.00    -0.332 OA 
HETATM   30  N   UNL     1     -12.290  13.599  69.439  1.00  0.00    -0.272 N  
HETATM   31  H   UNL     1     -12.690  12.661  69.464  1.00  0.00     0.000 HD 
ENDBRANCH  19  20
ENDBRANCH  18  19
ENDBRANCH  17  18
ENDBRANCH  16  17
ENDBRANCH  15  16
ENDBRANCH  12  15
ENDBRANCH   6   9
TORSDOF 7
ENDMDL
MODEL      144
REMARK 921   NORMALIZED FREE ENERGY PREDICTED BY IDOCK:   -4.70 KCAL/MOL
REMARK 922        TOTAL FREE ENERGY PREDICTED BY IDOCK:   -8.23 KCAL/MOL
REMARK 923 INTER-LIGAND FREE ENERGY PREDICTED BY IDOCK:   -7.41 KCAL/MOL
REMARK 924 INTRA-LIGAND FREE ENERGY PREDICTED BY IDOCK:   -0.82 KCAL/MOL
REMARK 927      BINDING AFFINITY PREDICTED BY RF-SCORE:    0.00 PKD
ROOT
HETATM    1 CL   UNL     1      -7.606   5.581  74.040  1.00  0.00    -0.093 Cl 
HETATM    2  C   UNL     1      -8.768   6.554  73.194  1.00  0.00    -0.121 A  
HETATM    3  C   UNL     1     -10.023   6.673  73.787  1.00  0.00    -0.297 A  
HETATM    4  C   UNL     1     -11.006   7.423  73.158  1.00  0.00    -0.408 A  
HETATM    5  C   UNL     1     -10.745   8.012  71.921  1.00  0.00    -0.311 A  
HETATM    6  C   UNL     1      -9.496   7.910  71.268  1.00  0.00    -0.157 A  
HETATM    7  C   UNL     1      -8.482   7.190  71.966  1.00  0.00    -0.107 A  
HETATM    8 CL   UNL     1      -6.829   7.161  71.406  1.00  0.00    -0.059 Cl 
ENDROOT
BRANCH   6   9
HETATM    9  N   UNL     1      -9.371   8.460  69.998  1.00  0.00    -0.158 NA 
HETATM   10  C   UNL     1      -9.285   9.916  69.778  1.00  0.00    -0.227 C  
HETATM   11  C   UNL     1      -8.217  10.263  68.717  1.00  0.00    -0.119 C  
HETATM   12  N   UNL     1      -8.345   9.527  67.438  1.00  0.00    -0.124 NA 
HETATM   13  C   UNL     1      -9.417   7.635  68.772  1.00  0.00    -0.152 C  
HETATM   14  C   UNL     1      -8.324   8.081  67.769  1.00  0.00    -0.129 C  
BRANCH  12  15
HETATM   15  C   UNL     1      -9.572   9.887  66.707  1.00  0.00    -0.183 C  
BRANCH  15  16
HETATM   16  C   UNL     1      -9.419  11.140  65.823  1.00  0.00    -0.248 C  
BRANCH  16  17
HETATM   17  C   UNL     1     -10.737  11.848  65.492  1.00  0.00    -0.329 C  
BRANCH  17  18
HETATM   18  C   UNL     1     -11.390  12.387  66.755  1.00  0.00    -0.335 C  
BRANCH  18  19
HETATM   19  O   UNL     1     -12.103  13.592  66.482  1.00  0.00    -0.404 OA 
BRANCH  19  20
HETATM   20  C   UNL     1     -11.547  14.705  67.067  1.00  0.00    -0.371 A  
HETATM   21  C   UNL     1     -10.648  15.414  66.265  1.00  0.00    -0.311 A  
HETATM   22  C   UNL     1     -10.027  16.556  66.771  1.00  0.00    -0.276 A  
HETATM   23  C   UNL     1     -10.297  17.001  68.072  1.00  0.00    -0.341 A  
HETATM   24  C   UNL     1     -11.219  16.308  68.853  1.00  0.00    -0.337 A  
HETATM   25  C   UNL     1      -9.691  18.283  68.563  1.00  0.00    -0.379 C  
HETATM   26  C   UNL     1     -11.844  15.172  68.350  1.00  0.00    -0.293 A  
HETATM   27  C   UNL     1      -8.370  18.581  67.879  1.00  0.00    -0.281 C  
HETATM   28  C   UNL     1      -8.429  18.362  66.385  1.00  0.00    -0.245 C  
HETATM   29  O   UNL     1      -7.767  19.031  65.598  1.00  0.00    -0.465 OA 
HETATM   30  N   UNL     1      -9.164  17.290  65.956  1.00  0.00    -0.152 N  
HETATM   31  H   UNL     1      -9.076  17.011  64.979  1.00  0.00     0.000 HD 
ENDBRANCH  19  20
ENDBRANCH  18  19
ENDBRANCH  17  18
ENDBRANCH  16  17
ENDBRANCH  15  16
ENDBRANCH  12  15
ENDBRANCH   6   9
TORSDOF 7
ENDMDL
MODEL      145
REMARK 921   NORMALIZED FREE ENERGY PREDICTED BY IDOCK:   -4.70 KCAL/MOL
REMARK 922        TOTAL FREE ENERGY PREDICTED BY IDOCK:   -8.22 KCAL/MOL
REMARK 923 INTER-LIGAND FREE ENERGY PREDICTED BY IDOCK:   -7.67 KCAL/MOL
REMARK 924 INTRA-LIGAND FREE ENERGY PREDICTED BY IDOCK:   -0.55 KCAL/MOL
REMARK 927      BINDING AFFINITY PREDICTED BY RF-SCORE:    0.00 PKD
ROOT
HETATM    1 CL   UNL     1     -10.544   4.170  72.644  1.00  0.00    -0.228 Cl 
HETATM    2  C   UNL     1      -9.888   5.772  72.525  1.00  0.00    -0.162 A  
HETATM    3  C   UNL     1      -8.692   6.001  73.203  1.00  0.00    -0.121 A  
HETATM    4  C   UNL     1      -8.117   7.263  73.164  1.00  0.00    -0.123 A  
HETATM    5  C   UNL     1      -8.762   8.299  72.488  1.00  0.00    -0.284 A  
HETATM    6  C   UNL     1      -9.983   8.125  71.799  1.00  0.00    -0.201 A  
HETATM    7  C   UNL     1     -10.519   6.805  71.797  1.00  0.00    -0.207 A  
HETATM    8 CL   UNL     1     -11.893   6.374  70.812  1.00  0.00    -0.387 Cl 
ENDROOT
BRANCH   6   9
HETATM    9  N   UNL     1     -10.584   9.245  71.234  1.00  0.00    -0.326 NA 
HETATM   10  C   UNL     1      -9.914  10.058  70.202  1.00  0.00    -0.184 C  
HETATM   11  C   UNL     1     -10.894  10.459  69.076  1.00  0.00    -0.234 C  
HETATM   12  N   UNL     1     -12.150  11.093  69.539  1.00  0.00    -0.333 NA 
HETATM   13  C   UNL     1     -11.891   9.757  71.697  1.00  0.00    -0.354 C  
HETATM   14  C   UNL     1     -12.783  10.150  70.493  1.00  0.00    -0.197 C  
BRANCH  12  15
HETATM   15  C   UNL     1     -11.915  12.405  70.164  1.00  0.00    -0.298 C  
BRANCH  15  16
HETATM   16  C   UNL     1     -13.011  12.820  71.164  1.00  0.00    -0.244 C  
BRANCH  16  17
HETATM   17  C   UNL     1     -12.813  14.207  71.785  1.00  0.00    -0.428 C  
BRANCH  17  18
HETATM   18  C   UNL     1     -11.500  14.820  71.323  1.00  0.00    -0.202 C  
BRANCH  18  19
HETATM   19  O   UNL     1     -11.725  15.781  70.293  1.00  0.00    -0.315 OA 
BRANCH  19  20
HETATM   20  C   UNL     1     -10.634  15.984  69.482  1.00  0.00    -0.290 A  
HETATM   21  C   UNL     1     -10.393  17.314  69.129  1.00  0.00    -0.290 A  
HETATM   22  C   UNL     1      -9.311  17.621  68.302  1.00  0.00    -0.290 A  
HETATM   23  C   UNL     1      -8.464  16.611  67.827  1.00  0.00    -0.191 A  
HETATM   24  C   UNL     1      -8.692  15.292  68.212  1.00  0.00    -0.165 A  
HETATM   25  C   UNL     1      -7.252  16.972  67.018  1.00  0.00    -0.224 C  
HETATM   26  C   UNL     1      -9.765  14.982  69.038  1.00  0.00    -0.229 A  
HETATM   27  C   UNL     1      -7.449  18.269  66.255  1.00  0.00    -0.295 C  
HETATM   28  C   UNL     1      -8.071  19.352  67.106  1.00  0.00    -0.266 C  
HETATM   29  O   UNL     1      -7.812  20.541  66.947  1.00  0.00    -0.308 OA 
HETATM   30  N   UNL     1      -9.041  18.954  67.986  1.00  0.00    -0.296 N  
HETATM   31  H   UNL     1      -9.601  19.675  68.439  1.00  0.00     0.000 HD 
ENDBRANCH  19  20
ENDBRANCH  18  19
ENDBRANCH  17  18
ENDBRANCH  16  17
ENDBRANCH  15  16
ENDBRANCH  12  15
ENDBRANCH   6   9
TORSDOF 7
ENDMDL
MODEL      146
REMARK 921   NORMALIZED FREE ENERGY PREDICTED BY IDOCK:   -4.69 KCAL/MOL
REMARK 922        TOTAL FREE ENERGY PREDICTED BY IDOCK:   -8.21 KCAL/MOL
REMARK 923 INTER-LIGAND FREE ENERGY PREDICTED BY IDOCK:   -7.82 KCAL/MOL
REMARK 924 INTRA-LIGAND FREE ENERGY PREDICTED BY IDOCK:   -0.39 KCAL/MOL
REMARK 927      BINDING AFFINITY PREDICTED BY RF-SCORE:    0.00 PKD
ROOT
HETATM    1 CL   UNL     1      -8.089   6.937  66.633  1.00  0.00    -0.108 Cl 
HETATM    2  C   UNL     1      -8.379   8.097  65.375  1.00  0.00    -0.155 A  
HETATM    3  C   UNL     1      -7.584   7.984  64.237  1.00  0.00    -0.118 A  
HETATM    4  C   UNL     1      -7.749   8.887  63.197  1.00  0.00    -0.119 A  
HETATM    5  C   UNL     1      -8.676   9.923  63.318  1.00  0.00    -0.227 A  
HETATM    6  C   UNL     1      -9.496  10.092  64.456  1.00  0.00    -0.303 A  
HETATM    7  C   UNL     1      -9.353   9.113  65.482  1.00  0.00    -0.221 A  
HETATM    8 CL   UNL     1     -10.442   9.049  66.845  1.00  0.00    -0.320 Cl 
ENDROOT
BRANCH   6   9
HETATM    9  N   UNL     1     -10.322  11.210  64.511  1.00  0.00    -0.315 NA 
HETATM   10  C   UNL     1     -11.149  11.631  63.366  1.00  0.00    -0.337 C  
HETATM   11  C   UNL     1     -12.562  12.062  63.819  1.00  0.00    -0.454 C  
HETATM   12  N   UNL     1     -12.588  13.066  64.907  1.00  0.00    -0.633 NA 
HETATM   13  C   UNL     1     -10.353  12.111  65.682  1.00  0.00    -0.257 C  
HETATM   14  C   UNL     1     -11.810  12.499  66.036  1.00  0.00    -0.418 C  
BRANCH  12  15
HETATM   15  C   UNL     1     -12.039  14.365  64.482  1.00  0.00    -0.481 C  
BRANCH  15  16
HETATM   16  C   UNL     1     -11.291  15.117  65.600  1.00  0.00    -0.255 C  
BRANCH  16  17
HETATM   17  C   UNL     1     -10.991  16.586  65.286  1.00  0.00    -0.170 C  
BRANCH  17  18
HETATM   18  C   UNL     1      -9.705  17.030  65.967  1.00  0.00    -0.218 C  
BRANCH  18  19
HETATM   19  O   UNL     1      -9.904  17.190  67.370  1.00  0.00    -0.253 OA 
BRANCH  19  20
HETATM   20  C   UNL     1      -8.748  17.083  68.106  1.00  0.00    -0.233 A  
HETATM   21  C   UNL     1      -8.531  15.836  68.698  1.00  0.00    -0.193 A  
HETATM   22  C   UNL     1      -7.387  15.631  69.470  1.00  0.00    -0.197 A  
HETATM   23  C   UNL     1      -6.454  16.660  69.655  1.00  0.00    -0.195 A  
HETATM   24  C   UNL     1      -6.661  17.889  69.034  1.00  0.00    -0.247 A  
HETATM   25  C   UNL     1      -5.185  16.389  70.410  1.00  0.00    -0.194 C  
HETATM   26  C   UNL     1      -7.797  18.096  68.260  1.00  0.00    -0.301 A  
HETATM   27  C   UNL     1      -5.362  15.283  71.433  1.00  0.00    -0.016 C  
HETATM   28  C   UNL     1      -6.112  14.094  70.877  1.00  0.00    -0.149 C  
HETATM   29  O   UNL     1      -5.891  12.947  71.249  1.00  0.00    -0.343 OA 
HETATM   30  N   UNL     1      -7.146  14.372  70.024  1.00  0.00    -0.393 N  
HETATM   31  H   UNL     1      -7.779  13.612  69.778  1.00  0.00     0.000 HD 
ENDBRANCH  19  20
ENDBRANCH  18  19
ENDBRANCH  17  18
ENDBRANCH  16  17
ENDBRANCH  15  16
ENDBRANCH  12  15
ENDBRANCH   6   9
TORSDOF 7
ENDMDL
MODEL      147
REMARK 921   NORMALIZED FREE ENERGY PREDICTED BY IDOCK:   -4.69 KCAL/MOL
REMARK 922        TOTAL FREE ENERGY PREDICTED BY IDOCK:   -8.21 KCAL/MOL
REMARK 923 INTER-LIGAND FREE ENERGY PREDICTED BY IDOCK:   -6.54 KCAL/MOL
REMARK 924 INTRA-LIGAND FREE ENERGY PREDICTED BY IDOCK:   -1.67 KCAL/MOL
REMARK 927      BINDING AFFINITY PREDICTED BY RF-SCORE:    0.00 PKD
ROOT
HETATM    1 CL   UNL     1     -11.629  14.951  65.818  1.00  0.00    -0.288 Cl 
HETATM    2  C   UNL     1     -11.175  13.297  66.083  1.00  0.00    -0.296 A  
HETATM    3  C   UNL     1     -10.717  12.597  64.968  1.00  0.00    -0.321 A  
HETATM    4  C   UNL     1     -10.350  11.266  65.102  1.00  0.00    -0.353 A  
HETATM    5  C   UNL     1     -10.485  10.630  66.336  1.00  0.00    -0.276 A  
HETATM    6  C   UNL     1     -10.959  11.288  67.494  1.00  0.00    -0.265 A  
HETATM    7  C   UNL     1     -11.265  12.672  67.346  1.00  0.00    -0.290 A  
HETATM    8 CL   UNL     1     -11.645  13.678  68.720  1.00  0.00    -0.334 Cl 
ENDROOT
BRANCH   6   9
HETATM    9  N   UNL     1     -11.138  10.537  68.650  1.00  0.00    -0.252 NA 
HETATM   10  C   UNL     1     -10.112   9.599  69.143  1.00  0.00    -0.189 C  
HETATM   11  C   UNL     1      -9.953   9.695  70.678  1.00  0.00    -0.231 C  
HETATM   12  N   UNL     1     -11.215   9.575  71.444  1.00  0.00    -0.375 NA 
HETATM   13  C   UNL     1     -12.406  10.548  69.409  1.00  0.00     0.083 C  
HETATM   14  C   UNL     1     -12.132  10.622  70.932  1.00  0.00    -0.385 C  
BRANCH  12  15
HETATM   15  C   UNL     1     -11.815   8.235  71.323  1.00  0.00    -0.288 C  
BRANCH  15  16
HETATM   16  C   UNL     1     -10.828   7.086  71.607  1.00  0.00    -0.249 C  
BRANCH  16  17
HETATM   17  C   UNL     1     -11.261   5.726  71.052  1.00  0.00    -0.208 C  
BRANCH  17  18
HETATM   18  C   UNL     1     -10.201   5.164  70.117  1.00  0.00    -0.278 C  
BRANCH  18  19
HETATM   19  O   UNL     1     -10.476   5.524  68.765  1.00  0.00    -0.209 OA 
BRANCH  19  20
HETATM   20  C   UNL     1      -9.440   6.187  68.150  1.00  0.00    -0.113 A  
HETATM   21  C   UNL     1      -9.714   6.659  66.863  1.00  0.00    -0.209 A  
HETATM   22  C   UNL     1      -8.724   7.340  66.155  1.00  0.00    -0.155 A  
HETATM   23  C   UNL     1      -7.461   7.560  66.721  1.00  0.00    -0.093 A  
HETATM   24  C   UNL     1      -7.207   7.116  68.017  1.00  0.00    -0.091 A  
HETATM   25  C   UNL     1      -6.442   8.377  65.981  1.00  0.00    -0.053 C  
HETATM   26  C   UNL     1      -8.193   6.441  68.728  1.00  0.00    -0.121 A  
HETATM   27  C   UNL     1      -6.636   8.292  64.478  1.00  0.00    -0.065 C  
HETATM   28  C   UNL     1      -8.085   8.443  64.072  1.00  0.00    -0.142 C  
HETATM   29  O   UNL     1      -8.417   8.966  63.013  1.00  0.00    -0.196 OA 
HETATM   30  N   UNL     1      -9.010   7.852  64.888  1.00  0.00    -0.299 N  
HETATM   31  H   UNL     1      -9.970   7.780  64.550  1.00  0.00     0.000 HD 
ENDBRANCH  19  20
ENDBRANCH  18  19
ENDBRANCH  17  18
ENDBRANCH  16  17
ENDBRANCH  15  16
ENDBRANCH  12  15
ENDBRANCH   6   9
TORSDOF 7
ENDMDL
MODEL      148
REMARK 921   NORMALIZED FREE ENERGY PREDICTED BY IDOCK:   -4.68 KCAL/MOL
REMARK 922        TOTAL FREE ENERGY PREDICTED BY IDOCK:   -8.20 KCAL/MOL
REMARK 923 INTER-LIGAND FREE ENERGY PREDICTED BY IDOCK:   -7.00 KCAL/MOL
REMARK 924 INTRA-LIGAND FREE ENERGY PREDICTED BY IDOCK:   -1.20 KCAL/MOL
REMARK 927      BINDING AFFINITY PREDICTED BY RF-SCORE:    0.00 PKD
ROOT
HETATM    1 CL   UNL     1      -9.746   5.448  70.577  1.00  0.00    -0.231 Cl 
HETATM    2  C   UNL     1      -8.766   6.574  69.691  1.00  0.00    -0.139 A  
HETATM    3  C   UNL     1      -7.498   6.828  70.208  1.00  0.00    -0.090 A  
HETATM    4  C   UNL     1      -6.665   7.729  69.560  1.00  0.00    -0.043 A  
HETATM    5  C   UNL     1      -7.121   8.403  68.427  1.00  0.00    -0.080 A  
HETATM    6  C   UNL     1      -8.402   8.195  67.870  1.00  0.00    -0.129 A  
HETATM    7  C   UNL     1      -9.213   7.216  68.515  1.00  0.00    -0.134 A  
HETATM    8 CL   UNL     1     -10.725   6.681  67.827  1.00  0.00    -0.307 Cl 
ENDROOT
BRANCH   6   9
HETATM    9  N   UNL     1      -8.788   8.985  66.793  1.00  0.00    -0.125 NA 
HETATM   10  C   UNL     1      -9.658  10.164  66.956  1.00  0.00    -0.171 C  
HETATM   11  C   UNL     1      -9.167  11.350  66.096  1.00  0.00    -0.210 C  
HETATM   12  N   UNL     1      -8.942  11.033  64.667  1.00  0.00    -0.128 NA 
HETATM   13  C   UNL     1      -8.438   8.642  65.399  1.00  0.00    -0.172 C  
HETATM   14  C   UNL     1      -7.983   9.902  64.622  1.00  0.00    -0.141 C  
BRANCH  12  15
HETATM   15  C   UNL     1     -10.193  10.699  63.966  1.00  0.00    -0.264 C  
BRANCH  15  16
HETATM   16  C   UNL     1     -10.939  11.928  63.411  1.00  0.00    -0.470 C  
BRANCH  16  17
HETATM   17  C   UNL     1     -12.446  11.933  63.687  1.00  0.00    -0.583 C  
BRANCH  17  18
HETATM   18  C   UNL     1     -12.789  12.932  64.783  1.00  0.00    -0.283 C  
BRANCH  18  19
HETATM   19  O   UNL     1     -12.014  14.121  64.644  1.00  0.00    -0.399 OA 
BRANCH  19  20
HETATM   20  C   UNL     1     -11.410  14.524  65.812  1.00  0.00    -0.336 A  
HETATM   21  C   UNL     1     -10.161  15.132  65.658  1.00  0.00    -0.392 A  
HETATM   22  C   UNL     1      -9.466  15.570  66.786  1.00  0.00    -0.237 A  
HETATM   23  C   UNL     1     -10.008  15.411  68.068  1.00  0.00    -0.221 A  
HETATM   24  C   UNL     1     -11.268  14.835  68.209  1.00  0.00    -0.299 A  
HETATM   25  C   UNL     1      -9.288  15.974  69.258  1.00  0.00    -0.244 C  
HETATM   26  C   UNL     1     -11.966  14.401  67.088  1.00  0.00    -0.419 A  
HETATM   27  C   UNL     1      -7.789  16.040  69.031  1.00  0.00    -0.222 C  
HETATM   28  C   UNL     1      -7.433  16.595  67.670  1.00  0.00    -0.150 C  
HETATM   29  O   UNL     1      -6.416  17.253  67.476  1.00  0.00    -0.132 OA 
HETATM   30  N   UNL     1      -8.239  16.219  66.631  1.00  0.00    -0.251 N  
HETATM   31  H   UNL     1      -7.924  16.425  65.683  1.00  0.00     0.000 HD 
ENDBRANCH  19  20
ENDBRANCH  18  19
ENDBRANCH  17  18
ENDBRANCH  16  17
ENDBRANCH  15  16
ENDBRANCH  12  15
ENDBRANCH   6   9
TORSDOF 7
ENDMDL
MODEL      149
REMARK 921   NORMALIZED FREE ENERGY PREDICTED BY IDOCK:   -4.68 KCAL/MOL
REMARK 922        TOTAL FREE ENERGY PREDICTED BY IDOCK:   -8.19 KCAL/MOL
REMARK 923 INTER-LIGAND FREE ENERGY PREDICTED BY IDOCK:   -7.59 KCAL/MOL
REMARK 924 INTRA-LIGAND FREE ENERGY PREDICTED BY IDOCK:   -0.60 KCAL/MOL
REMARK 927      BINDING AFFINITY PREDICTED BY RF-SCORE:    0.00 PKD
ROOT
HETATM    1 CL   UNL     1      -6.389  21.353  66.972  1.00  0.00    -0.393 Cl 
HETATM    2  C   UNL     1      -6.489  19.857  67.847  1.00  0.00    -0.233 A  
HETATM    3  C   UNL     1      -5.423  19.566  68.695  1.00  0.00    -0.218 A  
HETATM    4  C   UNL     1      -5.428  18.380  69.415  1.00  0.00    -0.211 A  
HETATM    5  C   UNL     1      -6.475  17.472  69.250  1.00  0.00    -0.243 A  
HETATM    6  C   UNL     1      -7.571  17.711  68.392  1.00  0.00    -0.260 A  
HETATM    7  C   UNL     1      -7.575  18.965  67.715  1.00  0.00    -0.233 A  
HETATM    8 CL   UNL     1      -8.958  19.506  66.798  1.00  0.00    -0.358 Cl 
ENDROOT
BRANCH   6   9
HETATM    9  N   UNL     1      -8.514  16.701  68.234  1.00  0.00    -0.196 NA 
HETATM   10  C   UNL     1      -9.753  16.653  69.033  1.00  0.00    -0.260 C  
HETATM   11  C   UNL     1     -10.970  16.268  68.163  1.00  0.00    -0.343 C  
HETATM   12  N   UNL     1     -10.796  15.040  67.354  1.00  0.00    -0.298 NA 
HETATM   13  C   UNL     1      -8.297  15.553  67.329  1.00  0.00    -0.193 C  
HETATM   14  C   UNL     1      -9.583  15.238  66.524  1.00  0.00    -0.271 C  
BRANCH  12  15
HETATM   15  C   UNL     1     -10.678  13.834  68.191  1.00  0.00    -0.248 C  
BRANCH  15  16
HETATM   16  C   UNL     1     -11.638  12.700  67.782  1.00  0.00    -0.403 C  
BRANCH  16  17
HETATM   17  C   UNL     1     -11.753  11.565  68.805  1.00  0.00    -0.397 C  
BRANCH  17  18
HETATM   18  C   UNL     1     -11.267  10.253  68.209  1.00  0.00    -0.232 C  
BRANCH  18  19
HETATM   19  O   UNL     1     -10.641   9.446  69.204  1.00  0.00    -0.217 OA 
BRANCH  19  20
HETATM   20  C   UNL     1     -10.467   8.137  68.823  1.00  0.00    -0.174 A  
HETATM   21  C   UNL     1      -9.902   7.954  67.558  1.00  0.00    -0.221 A  
HETATM   22  C   UNL     1      -9.691   6.661  67.079  1.00  0.00    -0.157 A  
HETATM   23  C   UNL     1     -10.036   5.545  67.853  1.00  0.00    -0.218 A  
HETATM   24  C   UNL     1     -10.568   5.736  69.126  1.00  0.00    -0.365 A  
HETATM   25  C   UNL     1      -9.714   4.165  67.359  1.00  0.00    -0.202 C  
HETATM   26  C   UNL     1     -10.775   7.023  69.609  1.00  0.00    -0.265 A  
HETATM   27  C   UNL     1      -9.682   4.101  65.844  1.00  0.00    -0.208 C  
HETATM   28  C   UNL     1      -8.925   5.258  65.231  1.00  0.00    -0.125 C  
HETATM   29  O   UNL     1      -8.293   5.148  64.186  1.00  0.00    -0.129 OA 
HETATM   30  N   UNL     1      -9.084   6.476  65.835  1.00  0.00    -0.325 N  
HETATM   31  H   UNL     1      -8.738   7.301  65.345  1.00  0.00     0.000 HD 
ENDBRANCH  19  20
ENDBRANCH  18  19
ENDBRANCH  17  18
ENDBRANCH  16  17
ENDBRANCH  15  16
ENDBRANCH  12  15
ENDBRANCH   6   9
TORSDOF 7
ENDMDL
MODEL      150
REMARK 921   NORMALIZED FREE ENERGY PREDICTED BY IDOCK:   -4.63 KCAL/MOL
REMARK 922        TOTAL FREE ENERGY PREDICTED BY IDOCK:   -8.13 KCAL/MOL
REMARK 923 INTER-LIGAND FREE ENERGY PREDICTED BY IDOCK:   -7.16 KCAL/MOL
REMARK 924 INTRA-LIGAND FREE ENERGY PREDICTED BY IDOCK:   -0.97 KCAL/MOL
REMARK 927      BINDING AFFINITY PREDICTED BY RF-SCORE:    0.00 PKD
ROOT
HETATM    1 CL   UNL     1      -8.321   7.065  66.855  1.00  0.00    -0.116 Cl 
HETATM    2  C   UNL     1      -8.626   8.158  65.542  1.00  0.00    -0.149 A  
HETATM    3  C   UNL     1      -7.891   7.946  64.378  1.00  0.00    -0.139 A  
HETATM    4  C   UNL     1      -8.072   8.791  63.293  1.00  0.00    -0.170 A  
HETATM    5  C   UNL     1      -8.952   9.869  63.392  1.00  0.00    -0.278 A  
HETATM    6  C   UNL     1      -9.710  10.139  64.553  1.00  0.00    -0.293 A  
HETATM    7  C   UNL     1      -9.555   9.218  65.630  1.00  0.00    -0.254 A  
HETATM    8 CL   UNL     1     -10.579   9.279  67.042  1.00  0.00    -0.297 Cl 
ENDROOT
BRANCH   6   9
HETATM    9  N   UNL     1     -10.489  11.290  64.577  1.00  0.00    -0.314 NA 
HETATM   10  C   UNL     1     -11.255  11.743  63.400  1.00  0.00    -0.352 C  
HETATM   11  C   UNL     1     -12.664  12.234  63.801  1.00  0.00    -0.405 C  
HETATM   12  N   UNL     1     -12.689  13.241  64.886  1.00  0.00    -0.690 NA 
HETATM   13  C   UNL     1     -10.527  12.194  65.745  1.00  0.00    -0.253 C  
HETATM   14  C   UNL     1     -11.978  12.644  66.044  1.00  0.00    -0.417 C  
BRANCH  12  15
HETATM   15  C   UNL     1     -12.070  14.514  64.481  1.00  0.00    -0.484 C  
BRANCH  15  16
HETATM   16  C   UNL     1     -11.503  15.329  65.659  1.00  0.00    -0.123 C  
BRANCH  16  17
HETATM   17  C   UNL     1     -10.613  16.506  65.247  1.00  0.00    -0.273 C  
BRANCH  17  18
HETATM   18  C   UNL     1      -9.381  16.587  66.137  1.00  0.00    -0.304 C  
BRANCH  18  19
HETATM   19  O   UNL     1      -9.602  15.904  67.369  1.00  0.00    -0.219 OA 
BRANCH  19  20
HETATM   20  C   UNL     1      -8.589  15.039  67.708  1.00  0.00    -0.161 A  
HETATM   21  C   UNL     1      -9.001  13.767  68.116  1.00  0.00    -0.190 A  
HETATM   22  C   UNL     1      -8.046  12.820  68.486  1.00  0.00    -0.080 A  
HETATM   23  C   UNL     1      -6.680  13.128  68.448  1.00  0.00    -0.095 A  
HETATM   24  C   UNL     1      -6.276  14.386  68.008  1.00  0.00    -0.162 A  
HETATM   25  C   UNL     1      -5.666  12.065  68.759  1.00  0.00    -0.050 C  
HETATM   26  C   UNL     1      -7.223  15.331  67.634  1.00  0.00    -0.204 A  
HETATM   27  C   UNL     1      -6.219  11.018  69.707  1.00  0.00    -0.113 C  
HETATM   28  C   UNL     1      -7.611  10.568  69.325  1.00  0.00    -0.134 C  
HETATM   29  O   UNL     1      -8.010   9.427  69.531  1.00  0.00    -0.083 OA 
HETATM   30  N   UNL     1      -8.454  11.535  68.851  1.00  0.00    -0.357 N  
HETATM   31  H   UNL     1      -9.443  11.303  68.757  1.00  0.00     0.000 HD 
ENDBRANCH  19  20
ENDBRANCH  18  19
ENDBRANCH  17  18
ENDBRANCH  16  17
ENDBRANCH  15  16
ENDBRANCH  12  15
ENDBRANCH   6   9
TORSDOF 7
ENDMDL
MODEL      151
REMARK 921   NORMALIZED FREE ENERGY PREDICTED BY IDOCK:   -4.63 KCAL/MOL
REMARK 922        TOTAL FREE ENERGY PREDICTED BY IDOCK:   -8.12 KCAL/MOL
REMARK 923 INTER-LIGAND FREE ENERGY PREDICTED BY IDOCK:   -7.15 KCAL/MOL
REMARK 924 INTRA-LIGAND FREE ENERGY PREDICTED BY IDOCK:   -0.97 KCAL/MOL
REMARK 927      BINDING AFFINITY PREDICTED BY RF-SCORE:    0.00 PKD
ROOT
HETATM    1 CL   UNL     1     -13.493  11.548  72.320  1.00  0.00    -0.309 Cl 
HETATM    2  C   UNL     1     -13.253   9.878  71.914  1.00  0.00    -0.458 A  
HETATM    3  C   UNL     1     -14.242   8.992  72.339  1.00  0.00    -0.416 A  
HETATM    4  C   UNL     1     -14.109   7.639  72.063  1.00  0.00    -0.359 A  
HETATM    5  C   UNL     1     -12.970   7.173  71.405  1.00  0.00    -0.419 A  
HETATM    6  C   UNL     1     -11.932   8.025  70.968  1.00  0.00    -0.245 A  
HETATM    7  C   UNL     1     -12.123   9.418  71.204  1.00  0.00    -0.328 A  
HETATM    8 CL   UNL     1     -11.048  10.617  70.531  1.00  0.00    -0.286 Cl 
ENDROOT
BRANCH   6   9
HETATM    9  N   UNL     1     -10.801   7.447  70.402  1.00  0.00    -0.239 NA 
HETATM   10  C   UNL     1      -9.549   8.201  70.207  1.00  0.00    -0.171 C  
HETATM   11  C   UNL     1      -8.314   7.351  70.584  1.00  0.00    -0.127 C  
HETATM   12  N   UNL     1      -8.254   6.019  69.940  1.00  0.00    -0.117 NA 
HETATM   13  C   UNL     1     -10.803   6.070  69.865  1.00  0.00    -0.363 C  
HETATM   14  C   UNL     1      -9.516   5.317  70.281  1.00  0.00    -0.168 C  
BRANCH  12  15
HETATM   15  C   UNL     1      -8.075   6.112  68.481  1.00  0.00    -0.108 C  
BRANCH  15  16
HETATM   16  C   UNL     1      -6.972   7.101  68.055  1.00  0.00    -0.079 C  
BRANCH  16  17
HETATM   17  C   UNL     1      -6.600   7.036  66.570  1.00  0.00    -0.052 C  
BRANCH  17  18
HETATM   18  C   UNL     1      -6.844   8.378  65.896  1.00  0.00    -0.064 C  
BRANCH  18  19
HETATM   19  O   UNL     1      -8.163   8.442  65.357  1.00  0.00    -0.127 OA 
BRANCH  19  20
HETATM   20  C   UNL     1      -8.942   9.422  65.923  1.00  0.00    -0.178 A  
HETATM   21  C   UNL     1      -8.377  10.701  65.935  1.00  0.00    -0.161 A  
HETATM   22  C   UNL     1      -9.089  11.762  66.494  1.00  0.00    -0.203 A  
HETATM   23  C   UNL     1     -10.364  11.562  67.039  1.00  0.00    -0.254 A  
HETATM   24  C   UNL     1     -10.934  10.292  66.993  1.00  0.00    -0.189 A  
HETATM   25  C   UNL     1     -11.151  12.734  67.549  1.00  0.00    -0.300 C  
HETATM   26  C   UNL     1     -10.230   9.232  66.433  1.00  0.00    -0.298 A  
HETATM   27  C   UNL     1     -10.247  13.853  68.031  1.00  0.00    -0.246 C  
HETATM   28  C   UNL     1      -9.113  14.135  67.072  1.00  0.00    -0.243 C  
HETATM   29  O   UNL     1      -8.643  15.259  66.925  1.00  0.00    -0.221 OA 
HETATM   30  N   UNL     1      -8.545  13.048  66.465  1.00  0.00    -0.425 N  
HETATM   31  H   UNL     1      -7.671  13.186  65.959  1.00  0.00     0.000 HD 
ENDBRANCH  19  20
ENDBRANCH  18  19
ENDBRANCH  17  18
ENDBRANCH  16  17
ENDBRANCH  15  16
ENDBRANCH  12  15
ENDBRANCH   6   9
TORSDOF 7
ENDMDL
MODEL      152
REMARK 921   NORMALIZED FREE ENERGY PREDICTED BY IDOCK:   -4.63 KCAL/MOL
REMARK 922        TOTAL FREE ENERGY PREDICTED BY IDOCK:   -8.12 KCAL/MOL
REMARK 923 INTER-LIGAND FREE ENERGY PREDICTED BY IDOCK:   -7.37 KCAL/MOL
REMARK 924 INTRA-LIGAND FREE ENERGY PREDICTED BY IDOCK:   -0.75 KCAL/MOL
REMARK 927      BINDING AFFINITY PREDICTED BY RF-SCORE:    0.00 PKD
ROOT
HETATM    1 CL   UNL     1      -9.847  19.483  69.055  1.00  0.00    -0.511 Cl 
HETATM    2  C   UNL     1     -10.229  18.368  67.780  1.00  0.00    -0.385 A  
HETATM    3  C   UNL     1     -10.595  18.930  66.558  1.00  0.00    -0.462 A  
HETATM    4  C   UNL     1     -10.928  18.099  65.498  1.00  0.00     0.324 A  
HETATM    5  C   UNL     1     -10.938  16.716  65.678  1.00  0.00    -0.028 A  
HETATM    6  C   UNL     1     -10.591  16.095  66.898  1.00  0.00    -0.283 A  
HETATM    7  C   UNL     1     -10.189  16.967  67.951  1.00  0.00    -0.317 A  
HETATM    8 CL   UNL     1      -9.519  16.355  69.442  1.00  0.00    -0.179 Cl 
ENDROOT
BRANCH   6   9
HETATM    9  N   UNL     1     -10.720  14.714  66.994  1.00  0.00    -0.285 NA 
HETATM   10  C   UNL     1     -11.769  14.080  67.814  1.00  0.00    -0.368 C  
HETATM   11  C   UNL     1     -12.405  12.876  67.082  1.00  0.00     0.153 C  
HETATM   12  N   UNL     1     -11.440  11.879  66.566  1.00  0.00    -0.449 NA 
HETATM   13  C   UNL     1      -9.757  13.786  66.365  1.00  0.00    -0.294 C  
HETATM   14  C   UNL     1     -10.496  12.608  65.683  1.00  0.00    -0.275 C  
BRANCH  12  15
HETATM   15  C   UNL     1     -10.725  11.182  67.648  1.00  0.00    -0.230 C  
BRANCH  15  16
HETATM   16  C   UNL     1     -11.650  10.386  68.589  1.00  0.00    -0.172 C  
BRANCH  16  17
HETATM   17  C   UNL     1     -11.646  10.870  70.043  1.00  0.00    -0.424 C  
BRANCH  17  18
HETATM   18  C   UNL     1     -12.498   9.961  70.915  1.00  0.00    -0.307 C  
BRANCH  18  19
HETATM   19  O   UNL     1     -11.903   9.789  72.200  1.00  0.00    -0.134 OA 
BRANCH  19  20
HETATM   20  C   UNL     1     -11.077   8.693  72.283  1.00  0.00    -0.325 A  
HETATM   21  C   UNL     1     -11.696   7.511  72.699  1.00  0.00    -0.279 A  
HETATM   22  C   UNL     1     -10.939   6.345  72.819  1.00  0.00    -0.257 A  
HETATM   23  C   UNL     1      -9.569   6.345  72.524  1.00  0.00    -0.154 A  
HETATM   24  C   UNL     1      -8.968   7.520  72.077  1.00  0.00    -0.151 A  
HETATM   25  C   UNL     1      -8.795   5.060  72.568  1.00  0.00    -0.126 C  
HETATM   26  C   UNL     1      -9.719   8.683  71.951  1.00  0.00    -0.383 A  
HETATM   27  C   UNL     1      -9.396   4.074  73.553  1.00  0.00    -0.115 C  
HETATM   28  C   UNL     1     -10.900   3.981  73.435  1.00  0.00    -0.236 C  
HETATM   29  O   UNL     1     -11.512   2.942  73.658  1.00  0.00    -0.224 OA 
HETATM   30  N   UNL     1     -11.564   5.152  73.191  1.00  0.00    -0.496 N  
HETATM   31  H   UNL     1     -12.580   5.155  73.286  1.00  0.00     0.000 HD 
ENDBRANCH  19  20
ENDBRANCH  18  19
ENDBRANCH  17  18
ENDBRANCH  16  17
ENDBRANCH  15  16
ENDBRANCH  12  15
ENDBRANCH   6   9
TORSDOF 7
ENDMDL
MODEL      153
REMARK 921   NORMALIZED FREE ENERGY PREDICTED BY IDOCK:   -4.62 KCAL/MOL
REMARK 922        TOTAL FREE ENERGY PREDICTED BY IDOCK:   -8.11 KCAL/MOL
REMARK 923 INTER-LIGAND FREE ENERGY PREDICTED BY IDOCK:   -7.30 KCAL/MOL
REMARK 924 INTRA-LIGAND FREE ENERGY PREDICTED BY IDOCK:   -0.81 KCAL/MOL
REMARK 927      BINDING AFFINITY PREDICTED BY RF-SCORE:    0.00 PKD
ROOT
HETATM    1 CL   UNL     1     -10.236  19.075  68.592  1.00  0.00    -0.425 Cl 
HETATM    2  C   UNL     1     -10.324  17.651  67.604  1.00  0.00    -0.368 A  
HETATM    3  C   UNL     1     -10.431  17.859  66.230  1.00  0.00    -0.320 A  
HETATM    4  C   UNL     1     -10.521  16.767  65.379  1.00  0.00    -0.212 A  
HETATM    5  C   UNL     1     -10.549  15.476  65.909  1.00  0.00    -0.350 A  
HETATM    6  C   UNL     1     -10.459  15.209  67.293  1.00  0.00    -0.271 A  
HETATM    7  C   UNL     1     -10.301  16.345  68.140  1.00  0.00    -0.283 A  
HETATM    8 CL   UNL     1      -9.952  16.177  69.842  1.00  0.00    -0.109 Cl 
ENDROOT
BRANCH   6   9
HETATM    9  N   UNL     1     -10.586  13.892  67.719  1.00  0.00    -0.244 NA 
HETATM   10  C   UNL     1     -11.852  13.146  67.596  1.00  0.00    -0.359 C  
HETATM   11  C   UNL     1     -11.609  11.698  67.116  1.00  0.00    -0.212 C  
HETATM   12  N   UNL     1     -10.606  10.941  67.901  1.00  0.00    -0.193 NA 
HETATM   13  C   UNL     1      -9.494  13.179  68.415  1.00  0.00    -0.166 C  
HETATM   14  C   UNL     1      -9.352  11.734  67.876  1.00  0.00    -0.184 C  
BRANCH  12  15
HETATM   15  C   UNL     1     -11.050  10.691  69.282  1.00  0.00    -0.252 C  
BRANCH  15  16
HETATM   16  C   UNL     1     -10.062   9.844  70.107  1.00  0.00    -0.309 C  
BRANCH  16  17
HETATM   17  C   UNL     1     -10.666   9.204  71.360  1.00  0.00    -0.414 C  
BRANCH  17  18
HETATM   18  C   UNL     1     -10.608   7.686  71.270  1.00  0.00    -0.219 C  
BRANCH  18  19
HETATM   19  O   UNL     1     -11.571   7.198  70.338  1.00  0.00    -0.295 OA 
BRANCH  19  20
HETATM   20  C   UNL     1     -11.020   6.486  69.299  1.00  0.00    -0.331 A  
HETATM   21  C   UNL     1     -10.345   5.319  69.667  1.00  0.00    -0.348 A  
HETATM   22  C   UNL     1      -9.746   4.532  68.683  1.00  0.00    -0.134 A  
HETATM   23  C   UNL     1      -9.818   4.895  67.332  1.00  0.00    -0.213 A  
HETATM   24  C   UNL     1     -10.523   6.042  66.970  1.00  0.00    -0.334 A  
HETATM   25  C   UNL     1      -9.250   3.985  66.282  1.00  0.00    -0.160 C  
HETATM   26  C   UNL     1     -11.124   6.827  67.947  1.00  0.00    -0.262 A  
HETATM   27  C   UNL     1      -8.103   3.151  66.820  1.00  0.00    -0.080 C  
HETATM   28  C   UNL     1      -8.408   2.553  68.175  1.00  0.00    -0.070 C  
HETATM   29  O   UNL     1      -7.959   1.467  68.528  1.00  0.00    -0.049 OA 
HETATM   30  N   UNL     1      -9.110   3.342  69.044  1.00  0.00    -0.129 N  
HETATM   31  H   UNL     1      -9.174   3.043  70.017  1.00  0.00     0.000 HD 
ENDBRANCH  19  20
ENDBRANCH  18  19
ENDBRANCH  17  18
ENDBRANCH  16  17
ENDBRANCH  15  16
ENDBRANCH  12  15
ENDBRANCH   6   9
TORSDOF 7
ENDMDL
MODEL      154
REMARK 921   NORMALIZED FREE ENERGY PREDICTED BY IDOCK:   -4.61 KCAL/MOL
REMARK 922        TOTAL FREE ENERGY PREDICTED BY IDOCK:   -8.09 KCAL/MOL
REMARK 923 INTER-LIGAND FREE ENERGY PREDICTED BY IDOCK:   -7.55 KCAL/MOL
REMARK 924 INTRA-LIGAND FREE ENERGY PREDICTED BY IDOCK:   -0.54 KCAL/MOL
REMARK 927      BINDING AFFINITY PREDICTED BY RF-SCORE:    0.00 PKD
ROOT
HETATM    1 CL   UNL     1      -8.986   1.470  71.760  1.00  0.00    -0.096 Cl 
HETATM    2  C   UNL     1      -9.429   2.863  70.825  1.00  0.00    -0.153 A  
HETATM    3  C   UNL     1      -9.034   2.860  69.489  1.00  0.00    -0.171 A  
HETATM    4  C   UNL     1      -9.340   3.948  68.684  1.00  0.00    -0.227 A  
HETATM    5  C   UNL     1      -9.999   5.050  69.229  1.00  0.00    -0.277 A  
HETATM    6  C   UNL     1     -10.408   5.112  70.580  1.00  0.00    -0.243 A  
HETATM    7  C   UNL     1     -10.141   3.955  71.368  1.00  0.00    -0.054 A  
HETATM    8 CL   UNL     1     -10.777   3.780  72.984  1.00  0.00    -0.250 Cl 
ENDROOT
BRANCH   6   9
HETATM    9  N   UNL     1     -10.978   6.293  71.041  1.00  0.00    -0.269 NA 
HETATM   10  C   UNL     1     -12.262   6.799  70.523  1.00  0.00    -0.195 C  
HETATM   11  C   UNL     1     -13.156   7.340  71.662  1.00  0.00    -0.369 C  
HETATM   12  N   UNL     1     -12.502   8.326  72.553  1.00  0.00    -0.301 NA 
HETATM   13  C   UNL     1     -10.291   7.175  72.008  1.00  0.00    -0.191 C  
HETATM   14  C   UNL     1     -11.279   7.679  73.089  1.00  0.00    -0.256 C  
BRANCH  12  15
HETATM   15  C   UNL     1     -12.177   9.580  71.853  1.00  0.00    -0.358 C  
BRANCH  15  16
HETATM   16  C   UNL     1     -13.084   9.866  70.640  1.00  0.00    -0.161 C  
BRANCH  16  17
HETATM   17  C   UNL     1     -12.965  11.286  70.079  1.00  0.00     0.202 C  
BRANCH  17  18
HETATM   18  C   UNL     1     -11.568  11.533  69.531  1.00  0.00    -0.333 C  
BRANCH  18  19
HETATM   19  O   UNL     1     -11.504  12.786  68.852  1.00  0.00    -0.264 OA 
BRANCH  19  20
HETATM   20  C   UNL     1     -11.471  12.670  67.483  1.00  0.00    -0.340 A  
HETATM   21  C   UNL     1     -10.620  11.677  66.989  1.00  0.00    -0.272 A  
HETATM   22  C   UNL     1     -10.514  11.485  65.611  1.00  0.00    -0.266 A  
HETATM   23  C   UNL     1     -11.252  12.274  64.719  1.00  0.00    -0.364 A  
HETATM   24  C   UNL     1     -12.123  13.238  65.221  1.00  0.00    -0.456 A  
HETATM   25  C   UNL     1     -11.195  11.988  63.247  1.00  0.00    -0.403 C  
HETATM   26  C   UNL     1     -12.236  13.429  66.593  1.00  0.00    -0.391 A  
HETATM   27  C   UNL     1      -9.874  11.359  62.845  1.00  0.00    -0.314 C  
HETATM   28  C   UNL     1      -9.447  10.258  63.789  1.00  0.00    -0.300 C  
HETATM   29  O   UNL     1      -8.807   9.283  63.411  1.00  0.00    -0.212 OA 
HETATM   30  N   UNL     1      -9.699  10.464  65.118  1.00  0.00    -0.267 N  
HETATM   31  H   UNL     1      -9.266   9.832  65.790  1.00  0.00     0.000 HD 
ENDBRANCH  19  20
ENDBRANCH  18  19
ENDBRANCH  17  18
ENDBRANCH  16  17
ENDBRANCH  15  16
ENDBRANCH  12  15
ENDBRANCH   6   9
TORSDOF 7
ENDMDL
MODEL      155
REMARK 921   NORMALIZED FREE ENERGY PREDICTED BY IDOCK:   -4.60 KCAL/MOL
REMARK 922        TOTAL FREE ENERGY PREDICTED BY IDOCK:   -8.08 KCAL/MOL
REMARK 923 INTER-LIGAND FREE ENERGY PREDICTED BY IDOCK:   -7.28 KCAL/MOL
REMARK 924 INTRA-LIGAND FREE ENERGY PREDICTED BY IDOCK:   -0.81 KCAL/MOL
REMARK 927      BINDING AFFINITY PREDICTED BY RF-SCORE:    0.00 PKD
ROOT
HETATM    1 CL   UNL     1     -11.758   8.243  72.768  1.00  0.00    -0.410 Cl 
HETATM    2  C   UNL     1     -11.031   6.874  71.987  1.00  0.00    -0.235 A  
HETATM    3  C   UNL     1     -11.065   5.672  72.690  1.00  0.00    -0.331 A  
HETATM    4  C   UNL     1     -10.490   4.539  72.133  1.00  0.00    -0.192 A  
HETATM    5  C   UNL     1      -9.845   4.624  70.899  1.00  0.00    -0.272 A  
HETATM    6  C   UNL     1      -9.768   5.820  70.151  1.00  0.00    -0.170 A  
HETATM    7  C   UNL     1     -10.424   6.953  70.714  1.00  0.00    -0.216 A  
HETATM    8 CL   UNL     1     -10.614   8.440  69.819  1.00  0.00    -0.222 Cl 
ENDROOT
BRANCH   6   9
HETATM    9  N   UNL     1      -9.025   5.815  68.976  1.00  0.00    -0.117 NA 
HETATM   10  C   UNL     1      -7.569   6.045  68.967  1.00  0.00    -0.091 C  
HETATM   11  C   UNL     1      -6.851   5.075  68.001  1.00  0.00    -0.060 C  
HETATM   12  N   UNL     1      -7.405   5.039  66.628  1.00  0.00    -0.084 NA 
HETATM   13  C   UNL     1      -9.655   5.679  67.645  1.00  0.00    -0.118 C  
HETATM   14  C   UNL     1      -8.846   4.706  66.752  1.00  0.00    -0.111 C  
BRANCH  12  15
HETATM   15  C   UNL     1      -7.213   6.313  65.915  1.00  0.00    -0.075 C  
BRANCH  15  16
HETATM   16  C   UNL     1      -8.105   6.465  64.668  1.00  0.00    -0.100 C  
BRANCH  16  17
HETATM   17  C   UNL     1      -7.470   7.265  63.526  1.00  0.00    -0.100 C  
BRANCH  17  18
HETATM   18  C   UNL     1      -8.151   8.616  63.371  1.00  0.00    -0.168 C  
BRANCH  18  19
HETATM   19  O   UNL     1      -8.853   8.968  64.562  1.00  0.00    -0.172 OA 
BRANCH  19  20
HETATM   20  C   UNL     1      -9.605  10.112  64.440  1.00  0.00    -0.302 A  
HETATM   21  C   UNL     1      -9.959  10.725  65.645  1.00  0.00    -0.317 A  
HETATM   22  C   UNL     1     -10.727  11.890  65.625  1.00  0.00    -0.280 A  
HETATM   23  C   UNL     1     -11.145  12.452  64.411  1.00  0.00    -0.381 A  
HETATM   24  C   UNL     1     -10.759  11.853  63.213  1.00  0.00    -0.415 A  
HETATM   25  C   UNL     1     -11.889  13.755  64.408  1.00  0.00    -0.458 C  
HETATM   26  C   UNL     1      -9.990  10.695  63.228  1.00  0.00    -0.314 A  
HETATM   27  C   UNL     1     -12.675  13.958  65.690  1.00  0.00    -0.534 C  
HETATM   28  C   UNL     1     -11.871  13.613  66.923  1.00  0.00    -0.411 C  
HETATM   29  O   UNL     1     -12.029  14.194  67.992  1.00  0.00    -0.355 OA 
HETATM   30  N   UNL     1     -11.042  12.529  66.825  1.00  0.00    -0.266 N  
HETATM   31  H   UNL     1     -10.628  12.165  67.683  1.00  0.00     0.000 HD 
ENDBRANCH  19  20
ENDBRANCH  18  19
ENDBRANCH  17  18
ENDBRANCH  16  17
ENDBRANCH  15  16
ENDBRANCH  12  15
ENDBRANCH   6   9
TORSDOF 7
ENDMDL
MODEL      156
REMARK 921   NORMALIZED FREE ENERGY PREDICTED BY IDOCK:   -4.59 KCAL/MOL
REMARK 922        TOTAL FREE ENERGY PREDICTED BY IDOCK:   -8.07 KCAL/MOL
REMARK 923 INTER-LIGAND FREE ENERGY PREDICTED BY IDOCK:   -6.25 KCAL/MOL
REMARK 924 INTRA-LIGAND FREE ENERGY PREDICTED BY IDOCK:   -1.82 KCAL/MOL
REMARK 927      BINDING AFFINITY PREDICTED BY RF-SCORE:    0.00 PKD
ROOT
HETATM    1 CL   UNL     1     -11.910  13.032  67.546  1.00  0.00    -0.415 Cl 
HETATM    2  C   UNL     1     -11.185  11.481  67.831  1.00  0.00    -0.279 A  
HETATM    3  C   UNL     1     -10.479  10.925  66.766  1.00  0.00    -0.302 A  
HETATM    4  C   UNL     1      -9.885   9.680  66.917  1.00  0.00    -0.257 A  
HETATM    5  C   UNL     1     -10.038   8.979  68.113  1.00  0.00    -0.229 A  
HETATM    6  C   UNL     1     -10.755   9.489  69.218  1.00  0.00    -0.222 A  
HETATM    7  C   UNL     1     -11.299  10.797  69.061  1.00  0.00    -0.284 A  
HETATM    8 CL   UNL     1     -12.016  11.658  70.400  1.00  0.00    -0.457 Cl 
ENDROOT
BRANCH   6   9
HETATM    9  N   UNL     1     -10.920   8.671  70.330  1.00  0.00    -0.242 NA 
HETATM   10  C   UNL     1      -9.788   7.971  70.963  1.00  0.00    -0.174 C  
HETATM   11  C   UNL     1      -9.875   8.037  72.505  1.00  0.00    -0.263 C  
HETATM   12  N   UNL     1     -11.171   7.603  73.075  1.00  0.00    -0.380 NA 
HETATM   13  C   UNL     1     -12.252   8.364  70.893  1.00  0.00    -0.095 C  
HETATM   14  C   UNL     1     -12.222   8.435  72.440  1.00  0.00    -0.367 C  
BRANCH  12  15
HETATM   15  C   UNL     1     -11.424   6.169  72.857  1.00  0.00    -0.113 C  
BRANCH  15  16
HETATM   16  C   UNL     1     -10.640   5.250  73.814  1.00  0.00    -0.330 C  
BRANCH  16  17
HETATM   17  C   UNL     1     -10.864   3.752  73.582  1.00  0.00    -0.329 C  
BRANCH  17  18
HETATM   18  C   UNL     1      -9.738   3.163  72.746  1.00  0.00    -0.129 C  
BRANCH  18  19
HETATM   19  O   UNL     1     -10.031   3.269  71.354  1.00  0.00    -0.167 OA 
BRANCH  19  20
HETATM   20  C   UNL     1      -9.167   4.091  70.671  1.00  0.00    -0.126 A  
HETATM   21  C   UNL     1      -9.495   4.320  69.332  1.00  0.00    -0.256 A  
HETATM   22  C   UNL     1      -8.675   5.137  68.552  1.00  0.00    -0.097 A  
HETATM   23  C   UNL     1      -7.531   5.733  69.099  1.00  0.00    -0.084 A  
HETATM   24  C   UNL     1      -7.230   5.527  70.443  1.00  0.00    -0.067 A  
HETATM   25  C   UNL     1      -6.716   6.684  68.270  1.00  0.00    -0.068 C  
HETATM   26  C   UNL     1      -8.046   4.717  71.224  1.00  0.00    -0.101 A  
HETATM   27  C   UNL     1      -6.821   6.373  66.789  1.00  0.00    -0.066 C  
HETATM   28  C   UNL     1      -8.243   6.106  66.352  1.00  0.00    -0.113 C  
HETATM   29  O   UNL     1      -8.651   6.396  65.232  1.00  0.00    -0.131 OA 
HETATM   30  N   UNL     1      -9.027   5.404  67.228  1.00  0.00    -0.112 N  
HETATM   31  H   UNL     1      -9.924   5.054  66.891  1.00  0.00     0.000 HD 
ENDBRANCH  19  20
ENDBRANCH  18  19
ENDBRANCH  17  18
ENDBRANCH  16  17
ENDBRANCH  15  16
ENDBRANCH  12  15
ENDBRANCH   6   9
TORSDOF 7
ENDMDL
MODEL      157
REMARK 921   NORMALIZED FREE ENERGY PREDICTED BY IDOCK:   -4.58 KCAL/MOL
REMARK 922        TOTAL FREE ENERGY PREDICTED BY IDOCK:   -8.06 KCAL/MOL
REMARK 923 INTER-LIGAND FREE ENERGY PREDICTED BY IDOCK:   -7.09 KCAL/MOL
REMARK 924 INTRA-LIGAND FREE ENERGY PREDICTED BY IDOCK:   -0.96 KCAL/MOL
REMARK 927      BINDING AFFINITY PREDICTED BY RF-SCORE:    0.00 PKD
ROOT
HETATM    1 CL   UNL     1      -8.642  18.386  68.715  1.00  0.00    -0.292 Cl 
HETATM    2  C   UNL     1      -9.807  17.123  68.469  1.00  0.00    -0.297 A  
HETATM    3  C   UNL     1     -10.784  16.985  69.451  1.00  0.00    -0.184 A  
HETATM    4  C   UNL     1     -11.740  15.987  69.328  1.00  0.00    -0.302 A  
HETATM    5  C   UNL     1     -11.686  15.105  68.248  1.00  0.00    -0.336 A  
HETATM    6  C   UNL     1     -10.707  15.190  67.233  1.00  0.00    -0.305 A  
HETATM    7  C   UNL     1      -9.778  16.265  67.348  1.00  0.00    -0.234 A  
HETATM    8 CL   UNL     1      -8.653  16.644  66.068  1.00  0.00    -0.307 Cl 
ENDROOT
BRANCH   6   9
HETATM    9  N   UNL     1     -10.692  14.207  66.250  1.00  0.00    -0.290 NA 
HETATM   10  C   UNL     1     -10.421  12.791  66.561  1.00  0.00    -0.263 C  
HETATM   11  C   UNL     1     -11.370  11.852  65.783  1.00  0.00    -0.299 C  
HETATM   12  N   UNL     1     -11.421  12.088  64.322  1.00  0.00    -0.353 NA 
HETATM   13  C   UNL     1     -10.844  14.524  64.814  1.00  0.00    -0.393 C  
HETATM   14  C   UNL     1     -11.793  13.511  64.127  1.00  0.00    -0.437 C  
BRANCH  12  15
HETATM   15  C   UNL     1     -10.142  11.778  63.662  1.00  0.00    -0.418 C  
BRANCH  15  16
HETATM   16  C   UNL     1      -9.639  10.345  63.927  1.00  0.00    -0.370 C  
BRANCH  16  17
HETATM   17  C   UNL     1      -8.253  10.268  64.576  1.00  0.00    -0.158 C  
BRANCH  17  18
HETATM   18  C   UNL     1      -8.276   9.346  65.785  1.00  0.00    -0.116 C  
BRANCH  18  19
HETATM   19  O   UNL     1      -8.420  10.094  66.990  1.00  0.00    -0.128 OA 
BRANCH  19  20
HETATM   20  C   UNL     1      -8.953   9.368  68.029  1.00  0.00    -0.127 A  
HETATM   21  C   UNL     1      -8.033   8.619  68.767  1.00  0.00    -0.114 A  
HETATM   22  C   UNL     1      -8.480   7.844  69.838  1.00  0.00    -0.127 A  
HETATM   23  C   UNL     1      -9.837   7.812  70.183  1.00  0.00    -0.184 A  
HETATM   24  C   UNL     1     -10.742   8.588  69.463  1.00  0.00    -0.181 A  
HETATM   25  C   UNL     1     -10.282   7.048  71.396  1.00  0.00    -0.208 C  
HETATM   26  C   UNL     1     -10.302   9.365  68.398  1.00  0.00    -0.238 A  
HETATM   27  C   UNL     1      -9.357   5.884  71.699  1.00  0.00    -0.162 C  
HETATM   28  C   UNL     1      -7.897   6.265  71.609  1.00  0.00    -0.102 C  
HETATM   29  O   UNL     1      -7.039   5.747  72.316  1.00  0.00    -0.080 OA 
HETATM   30  N   UNL     1      -7.556   7.131  70.606  1.00  0.00    -0.091 N  
HETATM   31  H   UNL     1      -6.565   7.265  70.406  1.00  0.00     0.000 HD 
ENDBRANCH  19  20
ENDBRANCH  18  19
ENDBRANCH  17  18
ENDBRANCH  16  17
ENDBRANCH  15  16
ENDBRANCH  12  15
ENDBRANCH   6   9
TORSDOF 7
ENDMDL
MODEL      158
REMARK 921   NORMALIZED FREE ENERGY PREDICTED BY IDOCK:   -4.58 KCAL/MOL
REMARK 922        TOTAL FREE ENERGY PREDICTED BY IDOCK:   -8.06 KCAL/MOL
REMARK 923 INTER-LIGAND FREE ENERGY PREDICTED BY IDOCK:   -6.46 KCAL/MOL
REMARK 924 INTRA-LIGAND FREE ENERGY PREDICTED BY IDOCK:   -1.59 KCAL/MOL
REMARK 927      BINDING AFFINITY PREDICTED BY RF-SCORE:    0.00 PKD
ROOT
HETATM    1 CL   UNL     1      -6.817  11.265  66.987  1.00  0.00    -0.116 Cl 
HETATM    2  C   UNL     1      -8.220  10.258  67.166  1.00  0.00    -0.121 A  
HETATM    3  C   UNL     1      -9.437  10.917  67.326  1.00  0.00    -0.176 A  
HETATM    4  C   UNL     1     -10.598  10.176  67.490  1.00  0.00    -0.327 A  
HETATM    5  C   UNL     1     -10.531   8.783  67.536  1.00  0.00    -0.340 A  
HETATM    6  C   UNL     1      -9.322   8.065  67.395  1.00  0.00    -0.145 A  
HETATM    7  C   UNL     1      -8.154   8.847  67.162  1.00  0.00    -0.103 A  
HETATM    8 CL   UNL     1      -6.627   8.111  66.745  1.00  0.00    -0.056 Cl 
ENDROOT
BRANCH   6   9
HETATM    9  N   UNL     1      -9.356   6.683  67.546  1.00  0.00    -0.123 NA 
HETATM   10  C   UNL     1     -10.393   5.850  66.910  1.00  0.00    -0.247 C  
HETATM   11  C   UNL     1      -9.790   4.558  66.313  1.00  0.00    -0.230 C  
HETATM   12  N   UNL     1      -8.956   3.770  67.249  1.00  0.00    -0.127 NA 
HETATM   13  C   UNL     1      -8.420   5.964  68.435  1.00  0.00    -0.111 C  
HETATM   14  C   UNL     1      -7.895   4.677  67.752  1.00  0.00    -0.086 C  
BRANCH  12  15
HETATM   15  C   UNL     1      -9.743   3.206  68.359  1.00  0.00     0.085 C  
BRANCH  15  16
HETATM   16  C   UNL     1      -8.885   2.722  69.543  1.00  0.00    -0.151 C  
BRANCH  16  17
HETATM   17  C   UNL     1      -9.483   3.017  70.923  1.00  0.00    -0.229 C  
BRANCH  17  18
HETATM   18  C   UNL     1      -8.559   3.918  71.728  1.00  0.00    -0.094 C  
BRANCH  18  19
HETATM   19  O   UNL     1      -9.291   4.642  72.715  1.00  0.00    -0.127 OA 
BRANCH  19  20
HETATM   20  C   UNL     1      -9.668   5.900  72.309  1.00  0.00    -0.160 A  
HETATM   21  C   UNL     1     -10.965   6.277  72.664  1.00  0.00    -0.285 A  
HETATM   22  C   UNL     1     -11.442   7.535  72.292  1.00  0.00    -0.303 A  
HETATM   23  C   UNL     1     -10.633   8.423  71.570  1.00  0.00    -0.307 A  
HETATM   24  C   UNL     1      -9.329   8.052  71.250  1.00  0.00    -0.182 A  
HETATM   25  C   UNL     1     -11.131   9.805  71.263  1.00  0.00    -0.375 C  
HETATM   26  C   UNL     1      -8.849   6.802  71.623  1.00  0.00    -0.129 A  
HETATM   27  C   UNL     1     -12.645   9.850  71.166  1.00  0.00    -0.464 C  
HETATM   28  C   UNL     1     -13.320   9.096  72.289  1.00  0.00    -0.477 C  
HETATM   29  O   UNL     1     -14.404   9.439  72.749  1.00  0.00    -0.407 OA 
HETATM   30  N   UNL     1     -12.722   7.931  72.685  1.00  0.00    -0.550 N  
HETATM   31  H   UNL     1     -13.243   7.314  73.307  1.00  0.00     0.000 HD 
ENDBRANCH  19  20
ENDBRANCH  18  19
ENDBRANCH  17  18
ENDBRANCH  16  17
ENDBRANCH  15  16
ENDBRANCH  12  15
ENDBRANCH   6   9
TORSDOF 7
ENDMDL
MODEL      159
REMARK 921   NORMALIZED FREE ENERGY PREDICTED BY IDOCK:   -4.57 KCAL/MOL
REMARK 922        TOTAL FREE ENERGY PREDICTED BY IDOCK:   -8.04 KCAL/MOL
REMARK 923 INTER-LIGAND FREE ENERGY PREDICTED BY IDOCK:   -6.23 KCAL/MOL
REMARK 924 INTRA-LIGAND FREE ENERGY PREDICTED BY IDOCK:   -1.82 KCAL/MOL
REMARK 927      BINDING AFFINITY PREDICTED BY RF-SCORE:    0.00 PKD
ROOT
HETATM    1 CL   UNL     1     -10.171  10.832  65.487  1.00  0.00    -0.328 Cl 
HETATM    2  C   UNL     1     -10.750  10.998  67.115  1.00  0.00    -0.265 A  
HETATM    3  C   UNL     1     -11.122  12.282  67.509  1.00  0.00    -0.326 A  
HETATM    4  C   UNL     1     -11.580  12.492  68.802  1.00  0.00    -0.366 A  
HETATM    5  C   UNL     1     -11.621  11.429  69.705  1.00  0.00    -0.399 A  
HETATM    6  C   UNL     1     -11.241  10.113  69.362  1.00  0.00    -0.215 A  
HETATM    7  C   UNL     1     -10.838   9.910  68.010  1.00  0.00    -0.243 A  
HETATM    8 CL   UNL     1     -10.554   8.311  67.369  1.00  0.00    -0.354 Cl 
ENDROOT
BRANCH   6   9
HETATM    9  N   UNL     1     -11.236   9.148  70.363  1.00  0.00    -0.247 NA 
HETATM   10  C   UNL     1      -9.986   8.639  70.956  1.00  0.00    -0.215 C  
HETATM   11  C   UNL     1     -10.108   8.495  72.490  1.00  0.00    -0.249 C  
HETATM   12  N   UNL     1     -11.283   7.722  72.952  1.00  0.00    -0.396 NA 
HETATM   13  C   UNL     1     -12.475   8.491  70.831  1.00  0.00     0.008 C  
HETATM   14  C   UNL     1     -12.484   8.376  72.376  1.00  0.00    -0.331 C  
BRANCH  12  15
HETATM   15  C   UNL     1     -11.209   6.305  72.558  1.00  0.00    -0.279 C  
BRANCH  15  16
HETATM   16  C   UNL     1     -10.028   5.546  73.195  1.00  0.00    -0.191 C  
BRANCH  16  17
HETATM   17  C   UNL     1      -9.817   4.129  72.653  1.00  0.00    -0.205 C  
BRANCH  17  18
HETATM   18  C   UNL     1      -8.572   4.066  71.782  1.00  0.00    -0.099 C  
BRANCH  18  19
HETATM   19  O   UNL     1      -8.092   5.377  71.489  1.00  0.00    -0.112 OA 
BRANCH  19  20
HETATM   20  C   UNL     1      -7.930   5.617  70.145  1.00  0.00    -0.099 A  
HETATM   21  C   UNL     1      -8.930   5.093  69.322  1.00  0.00    -0.126 A  
HETATM   22  C   UNL     1      -8.852   5.279  67.941  1.00  0.00    -0.105 A  
HETATM   23  C   UNL     1      -7.785   5.988  67.373  1.00  0.00    -0.097 A  
HETATM   24  C   UNL     1      -6.811   6.536  68.204  1.00  0.00    -0.074 A  
HETATM   25  C   UNL     1      -7.770   6.258  65.897  1.00  0.00    -0.093 C  
HETATM   26  C   UNL     1      -6.887   6.357  69.581  1.00  0.00    -0.065 A  
HETATM   27  C   UNL     1      -8.517   5.190  65.120  1.00  0.00    -0.147 C  
HETATM   28  C   UNL     1      -9.844   4.836  65.754  1.00  0.00    -0.199 C  
HETATM   29  O   UNL     1     -10.815   4.490  65.089  1.00  0.00    -0.227 OA 
HETATM   30  N   UNL     1      -9.874   4.796  67.121  1.00  0.00    -0.184 N  
HETATM   31  H   UNL     1     -10.694   4.388  67.569  1.00  0.00     0.000 HD 
ENDBRANCH  19  20
ENDBRANCH  18  19
ENDBRANCH  17  18
ENDBRANCH  16  17
ENDBRANCH  15  16
ENDBRANCH  12  15
ENDBRANCH   6   9
TORSDOF 7
ENDMDL
MODEL      160
REMARK 921   NORMALIZED FREE ENERGY PREDICTED BY IDOCK:   -4.54 KCAL/MOL
REMARK 922        TOTAL FREE ENERGY PREDICTED BY IDOCK:   -8.01 KCAL/MOL
REMARK 923 INTER-LIGAND FREE ENERGY PREDICTED BY IDOCK:   -7.48 KCAL/MOL
REMARK 924 INTRA-LIGAND FREE ENERGY PREDICTED BY IDOCK:   -0.53 KCAL/MOL
REMARK 927      BINDING AFFINITY PREDICTED BY RF-SCORE:    0.00 PKD
ROOT
HETATM    1 CL   UNL     1      -8.933   2.076  66.391  1.00  0.00    -0.123 Cl 
HETATM    2  C   UNL     1      -9.199   3.268  67.624  1.00  0.00    -0.195 A  
HETATM    3  C   UNL     1      -9.352   2.789  68.923  1.00  0.00    -0.220 A  
HETATM    4  C   UNL     1      -9.583   3.684  69.958  1.00  0.00    -0.244 A  
HETATM    5  C   UNL     1      -9.705   5.046  69.682  1.00  0.00    -0.266 A  
HETATM    6  C   UNL     1      -9.575   5.583  68.382  1.00  0.00    -0.124 A  
HETATM    7  C   UNL     1      -9.272   4.651  67.347  1.00  0.00    -0.131 A  
HETATM    8 CL   UNL     1      -8.860   5.175  65.734  1.00  0.00    -0.138 Cl 
ENDROOT
BRANCH   6   9
HETATM    9  N   UNL     1      -9.803   6.944  68.206  1.00  0.00    -0.135 NA 
HETATM   10  C   UNL     1      -9.221   7.959  69.104  1.00  0.00    -0.144 C  
HETATM   11  C   UNL     1      -8.693   9.176  68.311  1.00  0.00    -0.129 C  
HETATM   12  N   UNL     1      -9.665   9.775  67.368  1.00  0.00    -0.157 NA 
HETATM   13  C   UNL     1     -10.723   7.462  67.172  1.00  0.00    -0.330 C  
HETATM   14  C   UNL     1     -10.108   8.691  66.458  1.00  0.00    -0.269 C  
BRANCH  12  15
HETATM   15  C   UNL     1     -10.810  10.389  68.062  1.00  0.00    -0.270 C  
BRANCH  15  16
HETATM   16  C   UNL     1     -11.444  11.563  67.291  1.00  0.00    -0.338 C  
BRANCH  16  17
HETATM   17  C   UNL     1     -10.654  12.013  66.058  1.00  0.00    -0.303 C  
BRANCH  17  18
HETATM   18  C   UNL     1     -10.154  13.440  66.231  1.00  0.00    -0.299 C  
BRANCH  18  19
HETATM   19  O   UNL     1     -10.024  13.766  67.613  1.00  0.00    -0.230 OA 
BRANCH  19  20
HETATM   20  C   UNL     1     -10.006  15.118  67.860  1.00  0.00    -0.221 A  
HETATM   21  C   UNL     1     -10.348  15.928  66.774  1.00  0.00    -0.298 A  
HETATM   22  C   UNL     1     -10.353  17.315  66.924  1.00  0.00    -0.310 A  
HETATM   23  C   UNL     1     -10.023  17.904  68.152  1.00  0.00    -0.350 A  
HETATM   24  C   UNL     1      -9.716  17.089  69.239  1.00  0.00    -0.083 A  
HETATM   25  C   UNL     1     -10.127  19.392  68.318  1.00  0.00    -0.531 C  
HETATM   26  C   UNL     1      -9.714  15.706  69.095  1.00  0.00    -0.249 A  
HETATM   27  C   UNL     1      -9.917  20.122  67.004  1.00  0.00    -0.596 C  
HETATM   28  C   UNL     1     -10.681  19.490  65.862  1.00  0.00    -0.420 C  
HETATM   29  O   UNL     1     -11.130  20.149  64.931  1.00  0.00    -0.112 OA 
HETATM   30  N   UNL     1     -10.739  18.123  65.852  1.00  0.00    -0.262 N  
HETATM   31  H   UNL     1     -11.086  17.666  65.009  1.00  0.00     0.000 HD 
ENDBRANCH  19  20
ENDBRANCH  18  19
ENDBRANCH  17  18
ENDBRANCH  16  17
ENDBRANCH  15  16
ENDBRANCH  12  15
ENDBRANCH   6   9
TORSDOF 7
ENDMDL
MODEL      161
REMARK 921   NORMALIZED FREE ENERGY PREDICTED BY IDOCK:   -4.54 KCAL/MOL
REMARK 922        TOTAL FREE ENERGY PREDICTED BY IDOCK:   -8.00 KCAL/MOL
REMARK 923 INTER-LIGAND FREE ENERGY PREDICTED BY IDOCK:   -6.55 KCAL/MOL
REMARK 924 INTRA-LIGAND FREE ENERGY PREDICTED BY IDOCK:   -1.45 KCAL/MOL
REMARK 927      BINDING AFFINITY PREDICTED BY RF-SCORE:    0.00 PKD
ROOT
HETATM    1 CL   UNL     1      -7.970  15.700  69.888  1.00  0.00     0.048 Cl 
HETATM    2  C   UNL     1      -9.270  15.123  68.894  1.00  0.00    -0.209 A  
HETATM    3  C   UNL     1     -10.560  15.406  69.338  1.00  0.00    -0.251 A  
HETATM    4  C   UNL     1     -11.648  14.963  68.602  1.00  0.00    -0.342 A  
HETATM    5  C   UNL     1     -11.443  14.200  67.452  1.00  0.00    -0.369 A  
HETATM    6  C   UNL     1     -10.159  13.871  66.965  1.00  0.00    -0.256 A  
HETATM    7  C   UNL     1      -9.057  14.395  67.703  1.00  0.00    -0.194 A  
HETATM    8 CL   UNL     1      -7.418  14.270  67.115  1.00  0.00    -0.060 Cl 
ENDROOT
BRANCH   6   9
HETATM    9  N   UNL     1     -10.069  13.032  65.860  1.00  0.00    -0.286 NA 
HETATM   10  C   UNL     1      -9.523  11.665  65.956  1.00  0.00    -0.229 C  
HETATM   11  C   UNL     1     -10.365  10.664  65.132  1.00  0.00    -0.261 C  
HETATM   12  N   UNL     1     -10.603  11.059  63.725  1.00  0.00    -0.352 NA 
HETATM   13  C   UNL     1     -10.418  13.483  64.497  1.00  0.00    -0.407 C  
HETATM   14  C   UNL     1     -11.238  12.399  63.754  1.00  0.00    -0.453 C  
BRANCH  12  15
HETATM   15  C   UNL     1      -9.362  11.074  62.933  1.00  0.00    -0.361 C  
BRANCH  15  16
HETATM   16  C   UNL     1      -8.603   9.733  62.943  1.00  0.00    -0.195 C  
BRANCH  16  17
HETATM   17  C   UNL     1      -7.182   9.812  63.511  1.00  0.00    -0.117 C  
BRANCH  17  18
HETATM   18  C   UNL     1      -6.577   8.422  63.639  1.00  0.00    -0.076 C  
BRANCH  18  19
HETATM   19  O   UNL     1      -6.341   8.097  65.008  1.00  0.00    -0.048 OA 
BRANCH  19  20
HETATM   20  C   UNL     1      -7.420   7.515  65.630  1.00  0.00    -0.083 A  
HETATM   21  C   UNL     1      -7.902   8.197  66.750  1.00  0.00    -0.095 A  
HETATM   22  C   UNL     1      -8.992   7.681  67.452  1.00  0.00    -0.126 A  
HETATM   23  C   UNL     1      -9.609   6.491  67.045  1.00  0.00    -0.174 A  
HETATM   24  C   UNL     1      -9.143   5.836  65.907  1.00  0.00    -0.148 A  
HETATM   25  C   UNL     1     -10.838   6.005  67.757  1.00  0.00    -0.380 C  
HETATM   26  C   UNL     1      -8.061   6.348  65.202  1.00  0.00    -0.136 A  
HETATM   27  C   UNL     1     -10.869   6.462  69.203  1.00  0.00    -0.382 C  
HETATM   28  C   UNL     1     -10.500   7.920  69.359  1.00  0.00    -0.220 C  
HETATM   29  O   UNL     1     -10.979   8.626  70.239  1.00  0.00    -0.241 OA 
HETATM   30  N   UNL     1      -9.504   8.385  68.544  1.00  0.00    -0.146 N  
HETATM   31  H   UNL     1      -9.112   9.304  68.747  1.00  0.00     0.000 HD 
ENDBRANCH  19  20
ENDBRANCH  18  19
ENDBRANCH  17  18
ENDBRANCH  16  17
ENDBRANCH  15  16
ENDBRANCH  12  15
ENDBRANCH   6   9
TORSDOF 7
ENDMDL
MODEL      162
REMARK 921   NORMALIZED FREE ENERGY PREDICTED BY IDOCK:   -4.54 KCAL/MOL
REMARK 922        TOTAL FREE ENERGY PREDICTED BY IDOCK:   -8.00 KCAL/MOL
REMARK 923 INTER-LIGAND FREE ENERGY PREDICTED BY IDOCK:   -6.67 KCAL/MOL
REMARK 924 INTRA-LIGAND FREE ENERGY PREDICTED BY IDOCK:   -1.33 KCAL/MOL
REMARK 927      BINDING AFFINITY PREDICTED BY RF-SCORE:    0.00 PKD
ROOT
HETATM    1 CL   UNL     1      -7.743   4.503  74.468  1.00  0.00    -0.080 Cl 
HETATM    2  C   UNL     1      -8.466   4.918  72.946  1.00  0.00    -0.108 A  
HETATM    3  C   UNL     1      -9.491   4.085  72.502  1.00  0.00    -0.178 A  
HETATM    4  C   UNL     1     -10.106   4.348  71.286  1.00  0.00    -0.202 A  
HETATM    5  C   UNL     1      -9.663   5.413  70.501  1.00  0.00    -0.246 A  
HETATM    6  C   UNL     1      -8.618   6.278  70.896  1.00  0.00    -0.135 A  
HETATM    7  C   UNL     1      -8.049   6.027  72.178  1.00  0.00    -0.107 A  
HETATM    8 CL   UNL     1      -6.911   7.132  72.907  1.00  0.00    -0.068 Cl 
ENDROOT
BRANCH   6   9
HETATM    9  N   UNL     1      -8.197   7.253  69.998  1.00  0.00    -0.130 NA 
HETATM   10  C   UNL     1      -8.840   8.577  69.920  1.00  0.00    -0.137 C  
HETATM   11  C   UNL     1      -7.793   9.704  69.770  1.00  0.00    -0.142 C  
HETATM   12  N   UNL     1      -6.818   9.507  68.674  1.00  0.00    -0.056 NA 
HETATM   13  C   UNL     1      -7.144   6.997  68.993  1.00  0.00    -0.084 C  
HETATM   14  C   UNL     1      -6.166   8.195  68.907  1.00  0.00    -0.040 C  
BRANCH  12  15
HETATM   15  C   UNL     1      -7.452   9.558  67.346  1.00  0.00    -0.091 C  
BRANCH  15  16
HETATM   16  C   UNL     1      -7.923  10.967  66.938  1.00  0.00    -0.143 C  
BRANCH  16  17
HETATM   17  C   UNL     1      -8.724  11.016  65.633  1.00  0.00    -0.162 C  
BRANCH  17  18
HETATM   18  C   UNL     1     -10.204  10.785  65.901  1.00  0.00    -0.259 C  
BRANCH  18  19
HETATM   19  O   UNL     1     -10.898  12.026  66.015  1.00  0.00    -0.268 OA 
BRANCH  19  20
HETATM   20  C   UNL     1     -11.300  12.316  67.297  1.00  0.00    -0.328 A  
HETATM   21  C   UNL     1     -11.525  11.208  68.117  1.00  0.00    -0.373 A  
HETATM   22  C   UNL     1     -11.941  11.400  69.435  1.00  0.00    -0.339 A  
HETATM   23  C   UNL     1     -12.132  12.691  69.944  1.00  0.00    -0.322 A  
HETATM   24  C   UNL     1     -11.873  13.792  69.130  1.00  0.00    -0.398 A  
HETATM   25  C   UNL     1     -12.488  12.878  71.390  1.00  0.00    -0.234 C  
HETATM   26  C   UNL     1     -11.454  13.605  67.818  1.00  0.00    -0.351 A  
HETATM   27  C   UNL     1     -13.245  11.685  71.944  1.00  0.00    -0.475 C  
HETATM   28  C   UNL     1     -12.623  10.367  71.540  1.00  0.00    -0.439 C  
HETATM   29  O   UNL     1     -12.663   9.376  72.262  1.00  0.00    -0.376 OA 
HETATM   30  N   UNL     1     -12.122  10.295  70.269  1.00  0.00    -0.397 N  
HETATM   31  H   UNL     1     -11.863   9.377  69.909  1.00  0.00     0.000 HD 
ENDBRANCH  19  20
ENDBRANCH  18  19
ENDBRANCH  17  18
ENDBRANCH  16  17
ENDBRANCH  15  16
ENDBRANCH  12  15
ENDBRANCH   6   9
TORSDOF 7
ENDMDL
MODEL      163
REMARK 921   NORMALIZED FREE ENERGY PREDICTED BY IDOCK:   -4.54 KCAL/MOL
REMARK 922        TOTAL FREE ENERGY PREDICTED BY IDOCK:   -7.99 KCAL/MOL
REMARK 923 INTER-LIGAND FREE ENERGY PREDICTED BY IDOCK:   -7.25 KCAL/MOL
REMARK 924 INTRA-LIGAND FREE ENERGY PREDICTED BY IDOCK:   -0.74 KCAL/MOL
REMARK 927      BINDING AFFINITY PREDICTED BY RF-SCORE:    0.00 PKD
ROOT
HETATM    1 CL   UNL     1      -9.361   4.030  64.732  1.00  0.00    -0.152 Cl 
HETATM    2  C   UNL     1      -8.824   4.561  66.295  1.00  0.00    -0.113 A  
HETATM    3  C   UNL     1      -7.512   4.242  66.638  1.00  0.00    -0.081 A  
HETATM    4  C   UNL     1      -7.020   4.621  67.879  1.00  0.00    -0.060 A  
HETATM    5  C   UNL     1      -7.854   5.276  68.785  1.00  0.00    -0.083 A  
HETATM    6  C   UNL     1      -9.196   5.610  68.494  1.00  0.00    -0.121 A  
HETATM    7  C   UNL     1      -9.657   5.269  67.189  1.00  0.00    -0.141 A  
HETATM    8 CL   UNL     1     -11.207   5.808  66.595  1.00  0.00    -0.078 Cl 
ENDROOT
BRANCH   6   9
HETATM    9  N   UNL     1      -9.964   6.184  69.501  1.00  0.00    -0.160 NA 
HETATM   10  C   UNL     1     -10.902   5.393  70.318  1.00  0.00    -0.144 C  
HETATM   11  C   UNL     1     -10.828   5.794  71.809  1.00  0.00    -0.252 C  
HETATM   12  N   UNL     1     -10.966   7.245  72.071  1.00  0.00    -0.233 NA 
HETATM   13  C   UNL     1      -9.970   7.639  69.756  1.00  0.00    -0.184 C  
HETATM   14  C   UNL     1      -9.917   7.929  71.277  1.00  0.00    -0.176 C  
BRANCH  12  15
HETATM   15  C   UNL     1     -12.307   7.748  71.729  1.00  0.00    -0.317 C  
BRANCH  15  16
HETATM   16  C   UNL     1     -12.803   8.871  72.661  1.00  0.00    -0.316 C  
BRANCH  16  17
HETATM   17  C   UNL     1     -13.155  10.180  71.947  1.00  0.00    -0.571 C  
BRANCH  17  18
HETATM   18  C   UNL     1     -12.064  10.564  70.959  1.00  0.00    -0.387 C  
BRANCH  18  19
HETATM   19  O   UNL     1     -12.624  11.169  69.795  1.00  0.00    -0.210 OA 
BRANCH  19  20
HETATM   20  C   UNL     1     -12.253  12.481  69.624  1.00  0.00    -0.103 A  
HETATM   21  C   UNL     1     -11.737  12.796  68.364  1.00  0.00    -0.380 A  
HETATM   22  C   UNL     1     -11.327  14.102  68.095  1.00  0.00    -0.290 A  
HETATM   23  C   UNL     1     -11.430  15.101  69.072  1.00  0.00    -0.325 A  
HETATM   24  C   UNL     1     -11.976  14.787  70.314  1.00  0.00    -0.367 A  
HETATM   25  C   UNL     1     -11.072  16.518  68.731  1.00  0.00    -0.309 C  
HETATM   26  C   UNL     1     -12.391  13.488  70.585  1.00  0.00    -0.432 A  
HETATM   27  C   UNL     1     -10.031  16.587  67.630  1.00  0.00    -0.254 C  
HETATM   28  C   UNL     1     -10.335  15.648  66.485  1.00  0.00    -0.291 C  
HETATM   29  O   UNL     1     -10.031  15.908  65.326  1.00  0.00    -0.424 OA 
HETATM   30  N   UNL     1     -10.855  14.428  66.822  1.00  0.00    -0.297 N  
HETATM   31  H   UNL     1     -10.900  13.711  66.097  1.00  0.00     0.000 HD 
ENDBRANCH  19  20
ENDBRANCH  18  19
ENDBRANCH  17  18
ENDBRANCH  16  17
ENDBRANCH  15  16
ENDBRANCH  12  15
ENDBRANCH   6   9
TORSDOF 7
ENDMDL
MODEL      164
REMARK 921   NORMALIZED FREE ENERGY PREDICTED BY IDOCK:   -4.54 KCAL/MOL
REMARK 922        TOTAL FREE ENERGY PREDICTED BY IDOCK:   -7.99 KCAL/MOL
REMARK 923 INTER-LIGAND FREE ENERGY PREDICTED BY IDOCK:   -6.89 KCAL/MOL
REMARK 924 INTRA-LIGAND FREE ENERGY PREDICTED BY IDOCK:   -1.10 KCAL/MOL
REMARK 927      BINDING AFFINITY PREDICTED BY RF-SCORE:    0.00 PKD
ROOT
HETATM    1 CL   UNL     1      -6.178   5.582  64.983  1.00  0.00    -0.029 Cl 
HETATM    2  C   UNL     1      -6.593   7.147  64.357  1.00  0.00    -0.040 A  
HETATM    3  C   UNL     1      -6.118   7.448  63.083  1.00  0.00    -0.053 A  
HETATM    4  C   UNL     1      -6.398   8.687  62.525  1.00  0.00    -0.095 A  
HETATM    5  C   UNL     1      -7.113   9.633  63.260  1.00  0.00    -0.109 A  
HETATM    6  C   UNL     1      -7.605   9.385  64.561  1.00  0.00    -0.110 A  
HETATM    7  C   UNL     1      -7.361   8.083  65.085  1.00  0.00    -0.074 A  
HETATM    8 CL   UNL     1      -8.090   7.544  66.577  1.00  0.00    -0.116 Cl 
ENDROOT
BRANCH   6   9
HETATM    9  N   UNL     1      -8.227  10.428  65.239  1.00  0.00    -0.161 NA 
HETATM   10  C   UNL     1      -9.558  10.931  64.850  1.00  0.00    -0.248 C  
HETATM   11  C   UNL     1     -10.440  11.205  66.090  1.00  0.00    -0.253 C  
HETATM   12  N   UNL     1      -9.814  12.061  67.123  1.00  0.00    -0.195 NA 
HETATM   13  C   UNL     1      -7.560  11.171  66.328  1.00  0.00    -0.075 C  
HETATM   14  C   UNL     1      -8.536  11.412  67.506  1.00  0.00    -0.137 C  
BRANCH  12  15
HETATM   15  C   UNL     1      -9.591  13.437  66.649  1.00  0.00    -0.270 C  
BRANCH  15  16
HETATM   16  C   UNL     1      -9.008  14.376  67.723  1.00  0.00    -0.192 C  
BRANCH  16  17
HETATM   17  C   UNL     1      -9.975  15.459  68.212  1.00  0.00    -0.214 C  
BRANCH  17  18
HETATM   18  C   UNL     1     -10.621  15.049  69.527  1.00  0.00    -0.254 C  
BRANCH  18  19
HETATM   19  O   UNL     1     -11.943  14.558  69.311  1.00  0.00    -0.310 OA 
BRANCH  19  20
HETATM   20  C   UNL     1     -12.272  13.492  70.113  1.00  0.00    -0.330 A  
HETATM   21  C   UNL     1     -11.787  12.253  69.686  1.00  0.00    -0.393 A  
HETATM   22  C   UNL     1     -12.073  11.108  70.430  1.00  0.00    -0.385 A  
HETATM   23  C   UNL     1     -12.837  11.188  71.602  1.00  0.00    -0.524 A  
HETATM   24  C   UNL     1     -13.289  12.432  72.039  1.00  0.00    -0.511 A  
HETATM   25  C   UNL     1     -13.053   9.960  72.438  1.00  0.00    -0.296 C  
HETATM   26  C   UNL     1     -13.002  13.575  71.302  1.00  0.00    -0.384 A  
HETATM   27  C   UNL     1     -13.009   8.694  71.603  1.00  0.00    -0.377 C  
HETATM   28  C   UNL     1     -11.853   8.684  70.629  1.00  0.00    -0.102 C  
HETATM   29  O   UNL     1     -11.284   7.648  70.299  1.00  0.00    -0.265 OA 
HETATM   30  N   UNL     1     -11.551   9.876  70.030  1.00  0.00    -0.389 N  
HETATM   31  H   UNL     1     -10.903   9.865  69.243  1.00  0.00     0.000 HD 
ENDBRANCH  19  20
ENDBRANCH  18  19
ENDBRANCH  17  18
ENDBRANCH  16  17
ENDBRANCH  15  16
ENDBRANCH  12  15
ENDBRANCH   6   9
TORSDOF 7
ENDMDL
MODEL      165
REMARK 921   NORMALIZED FREE ENERGY PREDICTED BY IDOCK:   -4.53 KCAL/MOL
REMARK 922        TOTAL FREE ENERGY PREDICTED BY IDOCK:   -7.98 KCAL/MOL
REMARK 923 INTER-LIGAND FREE ENERGY PREDICTED BY IDOCK:   -6.60 KCAL/MOL
REMARK 924 INTRA-LIGAND FREE ENERGY PREDICTED BY IDOCK:   -1.39 KCAL/MOL
REMARK 927      BINDING AFFINITY PREDICTED BY RF-SCORE:    0.00 PKD
ROOT
HETATM    1 CL   UNL     1      -7.478   9.161  63.226  1.00  0.00    -0.096 Cl 
HETATM    2  C   UNL     1      -7.376   9.976  64.755  1.00  0.00    -0.143 A  
HETATM    3  C   UNL     1      -6.094  10.193  65.254  1.00  0.00    -0.117 A  
HETATM    4  C   UNL     1      -5.936  10.825  66.479  1.00  0.00    -0.098 A  
HETATM    5  C   UNL     1      -7.060  11.195  67.218  1.00  0.00    -0.109 A  
HETATM    6  C   UNL     1      -8.382  10.984  66.767  1.00  0.00    -0.147 A  
HETATM    7  C   UNL     1      -8.516  10.394  65.476  1.00  0.00    -0.167 A  
HETATM    8 CL   UNL     1     -10.065  10.271  64.681  1.00  0.00    -0.391 Cl 
ENDROOT
BRANCH   6   9
HETATM    9  N   UNL     1      -9.429  11.310  67.621  1.00  0.00    -0.165 NA 
HETATM   10  C   UNL     1      -9.413  12.528  68.452  1.00  0.00    -0.167 C  
HETATM   11  C   UNL     1     -10.792  13.226  68.456  1.00  0.00    -0.265 C  
HETATM   12  N   UNL     1     -11.934  12.348  68.798  1.00  0.00    -0.282 NA 
HETATM   13  C   UNL     1     -10.583  10.411  67.834  1.00  0.00    -0.232 C  
HETATM   14  C   UNL     1     -11.908  11.213  67.844  1.00  0.00    -0.082 C  
BRANCH  12  15
HETATM   15  C   UNL     1     -11.875  11.874  70.191  1.00  0.00    -0.308 C  
BRANCH  15  16
HETATM   16  C   UNL     1     -12.944  10.817  70.531  1.00  0.00    -0.258 C  
BRANCH  16  17
HETATM   17  C   UNL     1     -13.056  10.484  72.022  1.00  0.00    -0.511 C  
BRANCH  17  18
HETATM   18  C   UNL     1     -13.399   9.015  72.220  1.00  0.00    -0.467 C  
BRANCH  18  19
HETATM   19  O   UNL     1     -12.254   8.282  72.654  1.00  0.00    -0.364 OA 
BRANCH  19  20
HETATM   20  C   UNL     1     -11.524   7.742  71.622  1.00  0.00    -0.261 A  
HETATM   21  C   UNL     1     -10.192   8.160  71.552  1.00  0.00    -0.261 A  
HETATM   22  C   UNL     1      -9.370   7.671  70.535  1.00  0.00    -0.163 A  
HETATM   23  C   UNL     1      -9.865   6.763  69.589  1.00  0.00    -0.173 A  
HETATM   24  C   UNL     1     -11.184   6.326  69.687  1.00  0.00    -0.506 A  
HETATM   25  C   UNL     1      -8.940   6.177  68.562  1.00  0.00    -0.115 C  
HETATM   26  C   UNL     1     -12.004   6.807  70.700  1.00  0.00    -0.418 A  
HETATM   27  C   UNL     1      -7.788   7.112  68.242  1.00  0.00    -0.122 C  
HETATM   28  C   UNL     1      -7.167   7.712  69.483  1.00  0.00    -0.080 C  
HETATM   29  O   UNL     1      -5.974   7.989  69.550  1.00  0.00    -0.032 OA 
HETATM   30  N   UNL     1      -8.028   8.052  70.490  1.00  0.00    -0.094 N  
HETATM   31  H   UNL     1      -7.666   8.618  71.257  1.00  0.00     0.000 HD 
ENDBRANCH  19  20
ENDBRANCH  18  19
ENDBRANCH  17  18
ENDBRANCH  16  17
ENDBRANCH  15  16
ENDBRANCH  12  15
ENDBRANCH   6   9
TORSDOF 7
ENDMDL
MODEL      166
REMARK 921   NORMALIZED FREE ENERGY PREDICTED BY IDOCK:   -4.52 KCAL/MOL
REMARK 922        TOTAL FREE ENERGY PREDICTED BY IDOCK:   -7.97 KCAL/MOL
REMARK 923 INTER-LIGAND FREE ENERGY PREDICTED BY IDOCK:   -6.12 KCAL/MOL
REMARK 924 INTRA-LIGAND FREE ENERGY PREDICTED BY IDOCK:   -1.85 KCAL/MOL
REMARK 927      BINDING AFFINITY PREDICTED BY RF-SCORE:    0.00 PKD
ROOT
HETATM    1 CL   UNL     1     -13.029  12.378  63.003  1.00  0.00     0.048 Cl 
HETATM    2  C   UNL     1     -11.628  12.604  64.002  1.00  0.00    -0.418 A  
HETATM    3  C   UNL     1     -10.756  11.522  64.096  1.00  0.00    -0.428 A  
HETATM    4  C   UNL     1      -9.623  11.626  64.889  1.00  0.00    -0.173 A  
HETATM    5  C   UNL     1      -9.392  12.792  65.619  1.00  0.00     0.144 A  
HETATM    6  C   UNL     1     -10.251  13.913  65.572  1.00  0.00    -0.331 A  
HETATM    7  C   UNL     1     -11.372  13.806  64.699  1.00  0.00    -0.372 A  
HETATM    8 CL   UNL     1     -12.400  15.174  64.356  1.00  0.00    -0.359 Cl 
ENDROOT
BRANCH   6   9
HETATM    9  N   UNL     1      -9.973  14.989  66.407  1.00  0.00    -0.266 NA 
HETATM   10  C   UNL     1      -8.936  15.986  66.083  1.00  0.00    -0.345 C  
HETATM   11  C   UNL     1      -9.416  17.421  66.396  1.00  0.00    -0.261 C  
HETATM   12  N   UNL     1      -9.949  17.616  67.764  1.00  0.00    -0.302 NA 
HETATM   13  C   UNL     1     -10.625  15.156  67.723  1.00  0.00    -0.264 C  
HETATM   14  C   UNL     1     -11.044  16.631  67.944  1.00  0.00    -0.212 C  
BRANCH  12  15
HETATM   15  C   UNL     1      -8.911  17.453  68.796  1.00  0.00    -0.219 C  
BRANCH  15  16
HETATM   16  C   UNL     1      -7.618  18.238  68.503  1.00  0.00    -0.313 C  
BRANCH  16  17
HETATM   17  C   UNL     1      -6.335  17.408  68.603  1.00  0.00    -0.179 C  
BRANCH  17  18
HETATM   18  C   UNL     1      -6.660  15.941  68.841  1.00  0.00    -0.126 C  
BRANCH  18  19
HETATM   19  O   UNL     1      -5.742  15.099  68.146  1.00  0.00    -0.114 OA 
BRANCH  19  20
HETATM   20  C   UNL     1      -6.117  13.777  68.122  1.00  0.00    -0.120 A  
HETATM   21  C   UNL     1      -7.438  13.525  68.501  1.00  0.00    -0.122 A  
HETATM   22  C   UNL     1      -7.912  12.212  68.514  1.00  0.00    -0.119 A  
HETATM   23  C   UNL     1      -7.079  11.147  68.147  1.00  0.00    -0.071 A  
HETATM   24  C   UNL     1      -5.774  11.410  67.738  1.00  0.00    -0.046 A  
HETATM   25  C   UNL     1      -7.635   9.755  68.076  1.00  0.00    -0.082 C  
HETATM   26  C   UNL     1      -5.299  12.717  67.720  1.00  0.00    -0.112 A  
HETATM   27  C   UNL     1      -8.798   9.563  69.033  1.00  0.00    -0.143 C  
HETATM   28  C   UNL     1      -9.779  10.712  68.989  1.00  0.00    -0.202 C  
HETATM   29  O   UNL     1     -10.980  10.555  69.182  1.00  0.00    -0.209 OA 
HETATM   30  N   UNL     1      -9.245  11.963  68.848  1.00  0.00    -0.399 N  
HETATM   31  H   UNL     1      -9.858  12.765  68.996  1.00  0.00     0.000 HD 
ENDBRANCH  19  20
ENDBRANCH  18  19
ENDBRANCH  17  18
ENDBRANCH  16  17
ENDBRANCH  15  16
ENDBRANCH  12  15
ENDBRANCH   6   9
TORSDOF 7
ENDMDL
MODEL      167
REMARK 921   NORMALIZED FREE ENERGY PREDICTED BY IDOCK:   -4.51 KCAL/MOL
REMARK 922        TOTAL FREE ENERGY PREDICTED BY IDOCK:   -7.96 KCAL/MOL
REMARK 923 INTER-LIGAND FREE ENERGY PREDICTED BY IDOCK:   -7.20 KCAL/MOL
REMARK 924 INTRA-LIGAND FREE ENERGY PREDICTED BY IDOCK:   -0.76 KCAL/MOL
REMARK 927      BINDING AFFINITY PREDICTED BY RF-SCORE:    0.00 PKD
ROOT
HETATM    1 CL   UNL     1      -6.403  21.246  65.900  1.00  0.00    -0.202 Cl 
HETATM    2  C   UNL     1      -6.614  20.097  67.184  1.00  0.00    -0.211 A  
HETATM    3  C   UNL     1      -5.586  20.023  68.121  1.00  0.00    -0.233 A  
HETATM    4  C   UNL     1      -5.680  19.116  69.167  1.00  0.00    -0.236 A  
HETATM    5  C   UNL     1      -6.778  18.259  69.245  1.00  0.00    -0.228 A  
HETATM    6  C   UNL     1      -7.840  18.281  68.313  1.00  0.00    -0.298 A  
HETATM    7  C   UNL     1      -7.751  19.266  67.287  1.00  0.00    -0.245 A  
HETATM    8 CL   UNL     1      -9.078  19.574  66.196  1.00  0.00    -0.381 Cl 
ENDROOT
BRANCH   6   9
HETATM    9  N   UNL     1      -8.840  17.323  68.434  1.00  0.00    -0.261 NA 
HETATM   10  C   UNL     1      -8.681  15.952  67.914  1.00  0.00    -0.168 C  
HETATM   11  C   UNL     1      -9.232  14.905  68.908  1.00  0.00    -0.192 C  
HETATM   12  N   UNL     1     -10.616  15.154  69.372  1.00  0.00    -0.245 NA 
HETATM   13  C   UNL     1     -10.170  17.638  68.998  1.00  0.00    -0.314 C  
HETATM   14  C   UNL     1     -10.636  16.516  69.959  1.00  0.00    -0.167 C  
BRANCH  12  15
HETATM   15  C   UNL     1     -11.600  15.029  68.284  1.00  0.00    -0.334 C  
BRANCH  15  16
HETATM   16  C   UNL     1     -11.944  13.570  67.925  1.00  0.00    -0.372 C  
BRANCH  16  17
HETATM   17  C   UNL     1     -11.948  12.607  69.116  1.00  0.00    -0.293 C  
BRANCH  17  18
HETATM   18  C   UNL     1     -11.551  11.206  68.676  1.00  0.00    -0.315 C  
BRANCH  18  19
HETATM   19  O   UNL     1     -11.441  11.133  67.256  1.00  0.00    -0.473 OA 
BRANCH  19  20
HETATM   20  C   UNL     1     -10.618  10.123  66.819  1.00  0.00    -0.169 A  
HETATM   21  C   UNL     1     -10.604   8.977  67.619  1.00  0.00    -0.298 A  
HETATM   22  C   UNL     1      -9.794   7.898  67.260  1.00  0.00    -0.195 A  
HETATM   23  C   UNL     1      -9.001   7.950  66.107  1.00  0.00    -0.214 A  
HETATM   24  C   UNL     1      -9.047   9.082  65.297  1.00  0.00    -0.226 A  
HETATM   25  C   UNL     1      -8.211   6.744  65.689  1.00  0.00    -0.134 C  
HETATM   26  C   UNL     1      -9.855  10.158  65.648  1.00  0.00    -0.347 A  
HETATM   27  C   UNL     1      -7.833   5.878  66.876  1.00  0.00    -0.101 C  
HETATM   28  C   UNL     1      -8.987   5.664  67.828  1.00  0.00    -0.107 C  
HETATM   29  O   UNL     1      -9.121   4.630  68.474  1.00  0.00    -0.108 OA 
HETATM   30  N   UNL     1      -9.814   6.735  68.033  1.00  0.00    -0.134 N  
HETATM   31  H   UNL     1     -10.486   6.681  68.798  1.00  0.00     0.000 HD 
ENDBRANCH  19  20
ENDBRANCH  18  19
ENDBRANCH  17  18
ENDBRANCH  16  17
ENDBRANCH  15  16
ENDBRANCH  12  15
ENDBRANCH   6   9
TORSDOF 7
ENDMDL
MODEL      168
REMARK 921   NORMALIZED FREE ENERGY PREDICTED BY IDOCK:   -4.51 KCAL/MOL
REMARK 922        TOTAL FREE ENERGY PREDICTED BY IDOCK:   -7.95 KCAL/MOL
REMARK 923 INTER-LIGAND FREE ENERGY PREDICTED BY IDOCK:   -6.87 KCAL/MOL
REMARK 924 INTRA-LIGAND FREE ENERGY PREDICTED BY IDOCK:   -1.08 KCAL/MOL
REMARK 927      BINDING AFFINITY PREDICTED BY RF-SCORE:    0.00 PKD
ROOT
HETATM    1 CL   UNL     1     -12.939  15.143  71.600  1.00  0.00    -0.409 Cl 
HETATM    2  C   UNL     1     -12.628  13.569  70.938  1.00  0.00    -0.337 A  
HETATM    3  C   UNL     1     -13.223  12.494  71.595  1.00  0.00    -0.381 A  
HETATM    4  C   UNL     1     -13.006  11.205  71.131  1.00  0.00    -0.393 A  
HETATM    5  C   UNL     1     -12.161  10.994  70.041  1.00  0.00    -0.441 A  
HETATM    6  C   UNL     1     -11.520  12.045  69.349  1.00  0.00    -0.296 A  
HETATM    7  C   UNL     1     -11.812  13.364  69.804  1.00  0.00    -0.326 A  
HETATM    8 CL   UNL     1     -11.283  14.775  68.923  1.00  0.00    -0.264 Cl 
ENDROOT
BRANCH   6   9
HETATM    9  N   UNL     1     -10.629  11.717  68.333  1.00  0.00    -0.208 NA 
HETATM   10  C   UNL     1     -11.042  10.948  67.145  1.00  0.00    -0.240 C  
HETATM   11  C   UNL     1     -10.421  11.528  65.854  1.00  0.00    -0.255 C  
HETATM   12  N   UNL     1      -8.953  11.715  65.898  1.00  0.00    -0.158 NA 
HETATM   13  C   UNL     1      -9.186  12.026  68.419  1.00  0.00    -0.160 C  
HETATM   14  C   UNL     1      -8.662  12.577  67.070  1.00  0.00    -0.205 C  
BRANCH  12  15
HETATM   15  C   UNL     1      -8.230  10.435  65.987  1.00  0.00    -0.144 C  
BRANCH  15  16
HETATM   16  C   UNL     1      -8.463   9.507  64.778  1.00  0.00    -0.170 C  
BRANCH  16  17
HETATM   17  C   UNL     1      -8.349   8.013  65.093  1.00  0.00    -0.139 C  
BRANCH  17  18
HETATM   18  C   UNL     1      -7.971   7.798  66.551  1.00  0.00    -0.106 C  
BRANCH  18  19
HETATM   19  O   UNL     1      -8.209   6.447  66.942  1.00  0.00    -0.108 OA 
BRANCH  19  20
HETATM   20  C   UNL     1      -9.022   6.328  68.044  1.00  0.00    -0.114 A  
HETATM   21  C   UNL     1      -8.424   5.751  69.167  1.00  0.00    -0.107 A  
HETATM   22  C   UNL     1      -9.170   5.582  70.334  1.00  0.00    -0.151 A  
HETATM   23  C   UNL     1     -10.510   5.988  70.392  1.00  0.00    -0.307 A  
HETATM   24  C   UNL     1     -11.089   6.593  69.279  1.00  0.00    -0.345 A  
HETATM   25  C   UNL     1     -11.266   5.885  71.685  1.00  0.00    -0.300 C  
HETATM   26  C   UNL     1     -10.348   6.767  68.116  1.00  0.00    -0.219 A  
HETATM   27  C   UNL     1     -10.736   4.764  72.560  1.00  0.00    -0.240 C  
HETATM   28  C   UNL     1      -9.226   4.749  72.629  1.00  0.00    -0.127 C  
HETATM   29  O   UNL     1      -8.620   4.379  73.629  1.00  0.00    -0.096 OA 
HETATM   30  N   UNL     1      -8.561   5.049  71.471  1.00  0.00    -0.122 N  
HETATM   31  H   UNL     1      -7.557   4.871  71.437  1.00  0.00     0.000 HD 
ENDBRANCH  19  20
ENDBRANCH  18  19
ENDBRANCH  17  18
ENDBRANCH  16  17
ENDBRANCH  15  16
ENDBRANCH  12  15
ENDBRANCH   6   9
TORSDOF 7
ENDMDL
MODEL      169
REMARK 921   NORMALIZED FREE ENERGY PREDICTED BY IDOCK:   -4.50 KCAL/MOL
REMARK 922        TOTAL FREE ENERGY PREDICTED BY IDOCK:   -7.94 KCAL/MOL
REMARK 923 INTER-LIGAND FREE ENERGY PREDICTED BY IDOCK:   -7.32 KCAL/MOL
REMARK 924 INTRA-LIGAND FREE ENERGY PREDICTED BY IDOCK:   -0.62 KCAL/MOL
REMARK 927      BINDING AFFINITY PREDICTED BY RF-SCORE:    0.00 PKD
ROOT
HETATM    1 CL   UNL     1      -6.778  21.278  66.411  1.00  0.00    -0.201 Cl 
HETATM    2  C   UNL     1      -6.814  19.894  67.458  1.00  0.00    -0.231 A  
HETATM    3  C   UNL     1      -5.866  19.868  68.479  1.00  0.00    -0.270 A  
HETATM    4  C   UNL     1      -5.826  18.785  69.345  1.00  0.00    -0.249 A  
HETATM    5  C   UNL     1      -6.702  17.714  69.159  1.00  0.00    -0.243 A  
HETATM    6  C   UNL     1      -7.670  17.683  68.131  1.00  0.00    -0.244 A  
HETATM    7  C   UNL     1      -7.735  18.836  67.296  1.00  0.00    -0.231 A  
HETATM    8 CL   UNL     1      -9.015  19.052  66.129  1.00  0.00    -0.273 Cl 
ENDROOT
BRANCH   6   9
HETATM    9  N   UNL     1      -8.432  16.529  67.980  1.00  0.00    -0.182 NA 
HETATM   10  C   UNL     1      -7.849  15.261  67.503  1.00  0.00    -0.176 C  
HETATM   11  C   UNL     1      -8.383  14.057  68.311  1.00  0.00    -0.162 C  
HETATM   12  N   UNL     1      -9.858  13.976  68.408  1.00  0.00    -0.229 NA 
HETATM   13  C   UNL     1      -9.895  16.517  68.189  1.00  0.00    -0.244 C  
HETATM   14  C   UNL     1     -10.324  15.260  68.986  1.00  0.00    -0.242 C  
BRANCH  12  15
HETATM   15  C   UNL     1     -10.490  13.719  67.103  1.00  0.00    -0.272 C  
BRANCH  15  16
HETATM   16  C   UNL     1     -10.992  12.272  66.932  1.00  0.00    -0.312 C  
BRANCH  16  17
HETATM   17  C   UNL     1     -11.995  11.818  67.998  1.00  0.00    -0.195 C  
BRANCH  17  18
HETATM   18  C   UNL     1     -11.336  10.867  68.986  1.00  0.00    -0.281 C  
BRANCH  18  19
HETATM   19  O   UNL     1     -12.267  10.446  69.981  1.00  0.00    -0.258 OA 
BRANCH  19  20
HETATM   20  C   UNL     1     -11.729   9.587  70.910  1.00  0.00    -0.317 A  
HETATM   21  C   UNL     1     -10.336   9.619  71.015  1.00  0.00    -0.292 A  
HETATM   22  C   UNL     1      -9.696   8.778  71.927  1.00  0.00    -0.316 A  
HETATM   23  C   UNL     1     -10.435   7.907  72.739  1.00  0.00    -0.412 A  
HETATM   24  C   UNL     1     -11.825   7.907  72.652  1.00  0.00    -0.352 A  
HETATM   25  C   UNL     1      -9.735   7.081  73.779  1.00  0.00    -0.311 C  
HETATM   26  C   UNL     1     -12.467   8.746  71.748  1.00  0.00    -0.407 A  
HETATM   27  C   UNL     1      -8.301   6.778  73.386  1.00  0.00    -0.129 C  
HETATM   28  C   UNL     1      -7.577   7.994  72.853  1.00  0.00    -0.130 C  
HETATM   29  O   UNL     1      -6.373   8.163  73.015  1.00  0.00    -0.071 OA 
HETATM   30  N   UNL     1      -8.308   8.841  72.066  1.00  0.00    -0.095 N  
HETATM   31  H   UNL     1      -7.809   9.564  71.548  1.00  0.00     0.000 HD 
ENDBRANCH  19  20
ENDBRANCH  18  19
ENDBRANCH  17  18
ENDBRANCH  16  17
ENDBRANCH  15  16
ENDBRANCH  12  15
ENDBRANCH   6   9
TORSDOF 7
ENDMDL
MODEL      170
REMARK 921   NORMALIZED FREE ENERGY PREDICTED BY IDOCK:   -4.50 KCAL/MOL
REMARK 922        TOTAL FREE ENERGY PREDICTED BY IDOCK:   -7.94 KCAL/MOL
REMARK 923 INTER-LIGAND FREE ENERGY PREDICTED BY IDOCK:   -7.15 KCAL/MOL
REMARK 924 INTRA-LIGAND FREE ENERGY PREDICTED BY IDOCK:   -0.79 KCAL/MOL
REMARK 927      BINDING AFFINITY PREDICTED BY RF-SCORE:    0.00 PKD
ROOT
HETATM    1 CL   UNL     1     -10.729  15.297  65.342  1.00  0.00    -0.375 Cl 
HETATM    2  C   UNL     1     -11.059  15.014  67.022  1.00  0.00    -0.334 A  
HETATM    3  C   UNL     1     -11.114  16.141  67.839  1.00  0.00    -0.293 A  
HETATM    4  C   UNL     1     -11.359  15.990  69.196  1.00  0.00    -0.352 A  
HETATM    5  C   UNL     1     -11.502  14.711  69.736  1.00  0.00    -0.325 A  
HETATM    6  C   UNL     1     -11.439  13.535  68.957  1.00  0.00    -0.303 A  
HETATM    7  C   UNL     1     -11.253  13.721  67.556  1.00  0.00    -0.294 A  
HETATM    8 CL   UNL     1     -11.376  12.392  66.431  1.00  0.00    -0.369 Cl 
ENDROOT
BRANCH   6   9
HETATM    9  N   UNL     1     -11.505  12.309  69.610  1.00  0.00    -0.249 NA 
HETATM   10  C   UNL     1     -12.362  12.095  70.791  1.00  0.00    -0.297 C  
HETATM   11  C   UNL     1     -13.087  10.732  70.721  1.00  0.00    -0.163 C  
HETATM   12  N   UNL     1     -12.205   9.569  70.471  1.00  0.00    -0.112 NA 
HETATM   13  C   UNL     1     -10.649  11.166  69.231  1.00  0.00    -0.175 C  
HETATM   14  C   UNL     1     -11.466   9.850  69.215  1.00  0.00     0.007 C  
BRANCH  12  15
HETATM   15  C   UNL     1     -11.279   9.320  71.589  1.00  0.00    -0.379 C  
BRANCH  15  16
HETATM   16  C   UNL     1     -11.057   7.824  71.887  1.00  0.00    -0.302 C  
BRANCH  16  17
HETATM   17  C   UNL     1      -9.791   7.232  71.260  1.00  0.00    -0.183 C  
BRANCH  17  18
HETATM   18  C   UNL     1     -10.119   5.974  70.471  1.00  0.00    -0.191 C  
BRANCH  18  19
HETATM   19  O   UNL     1     -10.748   6.302  69.233  1.00  0.00    -0.237 OA 
BRANCH  19  20
HETATM   20  C   UNL     1      -9.865   6.676  68.249  1.00  0.00    -0.137 A  
HETATM   21  C   UNL     1     -10.290   7.732  67.437  1.00  0.00    -0.354 A  
HETATM   22  C   UNL     1      -9.465   8.181  66.405  1.00  0.00    -0.218 A  
HETATM   23  C   UNL     1      -8.216   7.588  66.177  1.00  0.00    -0.125 A  
HETATM   24  C   UNL     1      -7.786   6.560  67.012  1.00  0.00    -0.108 A  
HETATM   25  C   UNL     1      -7.305   8.149  65.124  1.00  0.00    -0.078 C  
HETATM   26  C   UNL     1      -8.603   6.112  68.044  1.00  0.00    -0.115 A  
HETATM   27  C   UNL     1      -8.081   8.823  64.008  1.00  0.00    -0.164 C  
HETATM   28  C   UNL     1      -9.183   9.717  64.527  1.00  0.00    -0.253 C  
HETATM   29  O   UNL     1      -9.531  10.737  63.941  1.00  0.00    -0.227 OA 
HETATM   30  N   UNL     1      -9.868   9.265  65.623  1.00  0.00    -0.441 N  
HETATM   31  H   UNL     1     -10.725   9.751  65.885  1.00  0.00     0.000 HD 
ENDBRANCH  19  20
ENDBRANCH  18  19
ENDBRANCH  17  18
ENDBRANCH  16  17
ENDBRANCH  15  16
ENDBRANCH  12  15
ENDBRANCH   6   9
TORSDOF 7
ENDMDL
MODEL      171
REMARK 921   NORMALIZED FREE ENERGY PREDICTED BY IDOCK:   -4.49 KCAL/MOL
REMARK 922        TOTAL FREE ENERGY PREDICTED BY IDOCK:   -7.92 KCAL/MOL
REMARK 923 INTER-LIGAND FREE ENERGY PREDICTED BY IDOCK:   -7.01 KCAL/MOL
REMARK 924 INTRA-LIGAND FREE ENERGY PREDICTED BY IDOCK:   -0.91 KCAL/MOL
REMARK 927      BINDING AFFINITY PREDICTED BY RF-SCORE:    0.00 PKD
ROOT
HETATM    1 CL   UNL     1      -6.082  10.320  64.383  1.00  0.00    -0.135 Cl 
HETATM    2  C   UNL     1      -7.013  10.275  65.848  1.00  0.00    -0.126 A  
HETATM    3  C   UNL     1      -7.093  11.467  66.565  1.00  0.00    -0.058 A  
HETATM    4  C   UNL     1      -7.808  11.501  67.753  1.00  0.00    -0.126 A  
HETATM    5  C   UNL     1      -8.400  10.336  68.240  1.00  0.00    -0.116 A  
HETATM    6  C   UNL     1      -8.337   9.098  67.562  1.00  0.00    -0.116 A  
HETATM    7  C   UNL     1      -7.653   9.105  66.311  1.00  0.00    -0.092 A  
HETATM    8 CL   UNL     1      -7.677   7.721  65.247  1.00  0.00    -0.095 Cl 
ENDROOT
BRANCH   6   9
HETATM    9  N   UNL     1      -8.886   7.980  68.180  1.00  0.00    -0.132 NA 
HETATM   10  C   UNL     1      -9.974   7.199  67.564  1.00  0.00    -0.167 C  
HETATM   11  C   UNL     1      -9.743   5.681  67.732  1.00  0.00    -0.125 C  
HETATM   12  N   UNL     1      -9.474   5.240  69.119  1.00  0.00    -0.126 NA 
HETATM   13  C   UNL     1      -8.489   7.555  69.539  1.00  0.00    -0.132 C  
HETATM   14  C   UNL     1      -8.307   6.019  69.601  1.00  0.00    -0.119 C  
BRANCH  12  15
HETATM   15  C   UNL     1     -10.639   5.428  70.000  1.00  0.00    -0.284 C  
BRANCH  15  16
HETATM   16  C   UNL     1     -10.272   5.576  71.489  1.00  0.00    -0.270 C  
BRANCH  16  17
HETATM   17  C   UNL     1     -11.431   6.021  72.388  1.00  0.00    -0.357 C  
BRANCH  17  18
HETATM   18  C   UNL     1     -11.534   7.538  72.421  1.00  0.00    -0.315 C  
BRANCH  18  19
HETATM   19  O   UNL     1     -11.921   8.047  71.146  1.00  0.00    -0.293 OA 
BRANCH  19  20
HETATM   20  C   UNL     1     -12.188   9.395  71.149  1.00  0.00    -0.323 A  
HETATM   21  C   UNL     1     -11.506  10.141  70.184  1.00  0.00    -0.368 A  
HETATM   22  C   UNL     1     -11.706  11.520  70.111  1.00  0.00    -0.309 A  
HETATM   23  C   UNL     1     -12.586  12.163  70.992  1.00  0.00    -0.359 A  
HETATM   24  C   UNL     1     -13.287  11.408  71.928  1.00  0.00    -0.409 A  
HETATM   25  C   UNL     1     -12.859  13.631  70.835  1.00  0.00    -0.321 C  
HETATM   26  C   UNL     1     -13.094  10.033  72.001  1.00  0.00    -0.541 A  
HETATM   27  C   UNL     1     -11.683  14.360  70.212  1.00  0.00    -0.355 C  
HETATM   28  C   UNL     1     -11.109  13.623  69.023  1.00  0.00    -0.255 C  
HETATM   29  O   UNL     1     -10.607  14.209  68.070  1.00  0.00    -0.233 OA 
HETATM   30  N   UNL     1     -11.061  12.259  69.118  1.00  0.00    -0.355 N  
HETATM   31  H   UNL     1     -10.519  11.750  68.419  1.00  0.00     0.000 HD 
ENDBRANCH  19  20
ENDBRANCH  18  19
ENDBRANCH  17  18
ENDBRANCH  16  17
ENDBRANCH  15  16
ENDBRANCH  12  15
ENDBRANCH   6   9
TORSDOF 7
ENDMDL
MODEL      172
REMARK 921   NORMALIZED FREE ENERGY PREDICTED BY IDOCK:   -4.46 KCAL/MOL
REMARK 922        TOTAL FREE ENERGY PREDICTED BY IDOCK:   -7.89 KCAL/MOL
REMARK 923 INTER-LIGAND FREE ENERGY PREDICTED BY IDOCK:   -7.88 KCAL/MOL
REMARK 924 INTRA-LIGAND FREE ENERGY PREDICTED BY IDOCK:   -0.01 KCAL/MOL
REMARK 927      BINDING AFFINITY PREDICTED BY RF-SCORE:    0.00 PKD
ROOT
HETATM    1 CL   UNL     1      -8.302  20.378  67.022  1.00  0.00    -0.368 Cl 
HETATM    2  C   UNL     1      -8.094  18.656  67.079  1.00  0.00    -0.252 A  
HETATM    3  C   UNL     1      -6.791  18.198  67.262  1.00  0.00    -0.206 A  
HETATM    4  C   UNL     1      -6.547  16.833  67.302  1.00  0.00    -0.206 A  
HETATM    5  C   UNL     1      -7.598  15.935  67.114  1.00  0.00    -0.255 A  
HETATM    6  C   UNL     1      -8.934  16.345  66.908  1.00  0.00    -0.216 A  
HETATM    7  C   UNL     1      -9.168  17.751  66.938  1.00  0.00    -0.258 A  
HETATM    8 CL   UNL     1     -10.784  18.410  66.925  1.00  0.00    -0.364 Cl 
ENDROOT
BRANCH   6   9
HETATM    9  N   UNL     1      -9.888  15.370  66.643  1.00  0.00    -0.245 NA 
HETATM   10  C   UNL     1     -10.350  14.423  67.675  1.00  0.00    -0.237 C  
HETATM   11  C   UNL     1     -11.881  14.222  67.611  1.00  0.00    -0.385 C  
HETATM   12  N   UNL     1     -12.408  13.869  66.273  1.00  0.00    -0.460 NA 
HETATM   13  C   UNL     1     -10.433  15.146  65.287  1.00  0.00    -0.409 C  
HETATM   14  C   UNL     1     -11.966  14.934  65.340  1.00  0.00    -0.131 C  
BRANCH  12  15
HETATM   15  C   UNL     1     -11.949  12.544  65.825  1.00  0.00    -0.420 C  
BRANCH  15  16
HETATM   16  C   UNL     1     -11.153  11.770  66.893  1.00  0.00    -0.361 C  
BRANCH  16  17
HETATM   17  C   UNL     1     -10.639  10.401  66.435  1.00  0.00    -0.198 C  
BRANCH  17  18
HETATM   18  C   UNL     1     -10.636   9.413  67.591  1.00  0.00    -0.271 C  
BRANCH  18  19
HETATM   19  O   UNL     1     -10.685   8.071  67.111  1.00  0.00    -0.322 OA 
BRANCH  19  20
HETATM   20  C   UNL     1     -10.413   7.130  68.075  1.00  0.00    -0.201 A  
HETATM   21  C   UNL     1     -10.369   7.615  69.385  1.00  0.00    -0.214 A  
HETATM   22  C   UNL     1     -10.093   6.737  70.434  1.00  0.00    -0.183 A  
HETATM   23  C   UNL     1      -9.865   5.377  70.189  1.00  0.00    -0.273 A  
HETATM   24  C   UNL     1      -9.944   4.896  68.884  1.00  0.00    -0.220 A  
HETATM   25  C   UNL     1      -9.665   4.434  71.340  1.00  0.00    -0.248 C  
HETATM   26  C   UNL     1     -10.223   5.766  67.836  1.00  0.00    -0.231 A  
HETATM   27  C   UNL     1      -9.069   5.135  72.546  1.00  0.00    -0.142 C  
HETATM   28  C   UNL     1      -9.738   6.460  72.835  1.00  0.00    -0.157 C  
HETATM   29  O   UNL     1      -9.857   6.900  73.974  1.00  0.00    -0.261 OA 
HETATM   30  N   UNL     1     -10.094   7.211  71.748  1.00  0.00    -0.184 N  
HETATM   31  H   UNL     1     -10.378   8.178  71.907  1.00  0.00     0.000 HD 
ENDBRANCH  19  20
ENDBRANCH  18  19
ENDBRANCH  17  18
ENDBRANCH  16  17
ENDBRANCH  15  16
ENDBRANCH  12  15
ENDBRANCH   6   9
TORSDOF 7
ENDMDL
MODEL      173
REMARK 921   NORMALIZED FREE ENERGY PREDICTED BY IDOCK:   -4.44 KCAL/MOL
REMARK 922        TOTAL FREE ENERGY PREDICTED BY IDOCK:   -7.86 KCAL/MOL
REMARK 923 INTER-LIGAND FREE ENERGY PREDICTED BY IDOCK:   -6.82 KCAL/MOL
REMARK 924 INTRA-LIGAND FREE ENERGY PREDICTED BY IDOCK:   -1.03 KCAL/MOL
REMARK 927      BINDING AFFINITY PREDICTED BY RF-SCORE:    0.00 PKD
ROOT
HETATM    1 CL   UNL     1      -9.788  14.463  66.428  1.00  0.00    -0.294 Cl 
HETATM    2  C   UNL     1      -9.818  12.960  65.560  1.00  0.00    -0.146 A  
HETATM    3  C   UNL     1     -10.600  12.928  64.407  1.00  0.00    -0.418 A  
HETATM    4  C   UNL     1     -10.682  11.756  63.671  1.00  0.00    -0.503 A  
HETATM    5  C   UNL     1     -10.021  10.610  64.114  1.00  0.00    -0.406 A  
HETATM    6  C   UNL     1      -9.229  10.583  65.284  1.00  0.00    -0.200 A  
HETATM    7  C   UNL     1      -9.106  11.817  65.986  1.00  0.00    -0.155 A  
HETATM    8 CL   UNL     1      -7.991  12.008  67.315  1.00  0.00    -0.166 Cl 
ENDROOT
BRANCH   6   9
HETATM    9  N   UNL     1      -8.687   9.366  65.682  1.00  0.00    -0.144 NA 
HETATM   10  C   UNL     1      -8.925   8.803  67.025  1.00  0.00    -0.131 C  
HETATM   11  C   UNL     1      -9.198   7.284  66.958  1.00  0.00    -0.145 C  
HETATM   12  N   UNL     1      -8.188   6.501  66.211  1.00  0.00    -0.114 NA 
HETATM   13  C   UNL     1      -7.754   8.600  64.829  1.00  0.00    -0.108 C  
HETATM   14  C   UNL     1      -8.102   7.092  64.853  1.00  0.00    -0.107 C  
BRANCH  12  15
HETATM   15  C   UNL     1      -6.875   6.504  66.877  1.00  0.00    -0.066 C  
BRANCH  15  16
HETATM   16  C   UNL     1      -6.391   5.102  67.298  1.00  0.00    -0.040 C  
BRANCH  16  17
HETATM   17  C   UNL     1      -7.509   4.069  67.468  1.00  0.00    -0.068 C  
BRANCH  17  18
HETATM   18  C   UNL     1      -7.937   3.974  68.925  1.00  0.00    -0.067 C  
BRANCH  18  19
HETATM   19  O   UNL     1      -9.348   4.140  69.050  1.00  0.00    -0.138 OA 
BRANCH  19  20
HETATM   20  C   UNL     1      -9.714   4.984  70.071  1.00  0.00    -0.208 A  
HETATM   21  C   UNL     1     -10.942   5.629  69.900  1.00  0.00    -0.309 A  
HETATM   22  C   UNL     1     -11.399   6.511  70.880  1.00  0.00    -0.337 A  
HETATM   23  C   UNL     1     -10.642   6.754  72.034  1.00  0.00    -0.239 A  
HETATM   24  C   UNL     1      -9.436   6.081  72.213  1.00  0.00    -0.159 A  
HETATM   25  C   UNL     1     -11.195   7.632  73.118  1.00  0.00    -0.311 C  
HETATM   26  C   UNL     1      -8.979   5.198  71.241  1.00  0.00    -0.161 A  
HETATM   27  C   UNL     1     -12.161   8.665  72.569  1.00  0.00    -0.374 C  
HETATM   28  C   UNL     1     -13.140   8.075  71.579  1.00  0.00    -0.296 C  
HETATM   29  O   UNL     1     -14.284   8.499  71.457  1.00  0.00    -0.413 OA 
HETATM   30  N   UNL     1     -12.646   7.121  70.731  1.00  0.00    -0.600 N  
HETATM   31  H   UNL     1     -13.226   6.838  69.942  1.00  0.00     0.000 HD 
ENDBRANCH  19  20
ENDBRANCH  18  19
ENDBRANCH  17  18
ENDBRANCH  16  17
ENDBRANCH  15  16
ENDBRANCH  12  15
ENDBRANCH   6   9
TORSDOF 7
ENDMDL
MODEL      174
REMARK 921   NORMALIZED FREE ENERGY PREDICTED BY IDOCK:   -4.43 KCAL/MOL
REMARK 922        TOTAL FREE ENERGY PREDICTED BY IDOCK:   -7.85 KCAL/MOL
REMARK 923 INTER-LIGAND FREE ENERGY PREDICTED BY IDOCK:   -6.87 KCAL/MOL
REMARK 924 INTRA-LIGAND FREE ENERGY PREDICTED BY IDOCK:   -0.98 KCAL/MOL
REMARK 927      BINDING AFFINITY PREDICTED BY RF-SCORE:    0.00 PKD
ROOT
HETATM    1 CL   UNL     1      -9.462   2.227  63.192  1.00  0.00    -0.091 Cl 
HETATM    2  C   UNL     1      -8.650   2.807  64.611  1.00  0.00    -0.094 A  
HETATM    3  C   UNL     1      -7.339   2.372  64.793  1.00  0.00    -0.062 A  
HETATM    4  C   UNL     1      -6.632   2.783  65.914  1.00  0.00    -0.032 A  
HETATM    5  C   UNL     1      -7.254   3.589  66.868  1.00  0.00    -0.063 A  
HETATM    6  C   UNL     1      -8.584   4.046  66.741  1.00  0.00    -0.106 A  
HETATM    7  C   UNL     1      -9.266   3.664  65.549  1.00  0.00    -0.155 A  
HETATM    8 CL   UNL     1     -10.827   4.325  65.134  1.00  0.00    -0.198 Cl 
ENDROOT
BRANCH   6   9
HETATM    9  N   UNL     1      -9.134   4.771  67.792  1.00  0.00    -0.112 NA 
HETATM   10  C   UNL     1      -9.863   4.120  68.897  1.00  0.00    -0.022 C  
HETATM   11  C   UNL     1      -9.484   4.737  70.262  1.00  0.00    -0.174 C  
HETATM   12  N   UNL     1      -9.593   6.212  70.332  1.00  0.00    -0.163 NA 
HETATM   13  C   UNL     1      -9.116   6.248  67.827  1.00  0.00    -0.114 C  
HETATM   14  C   UNL     1      -8.749   6.759  69.242  1.00  0.00    -0.135 C  
BRANCH  12  15
HETATM   15  C   UNL     1     -10.985   6.675  70.211  1.00  0.00    -0.303 C  
BRANCH  15  16
HETATM   16  C   UNL     1     -11.708   6.824  71.564  1.00  0.00    -0.361 C  
BRANCH  16  17
HETATM   17  C   UNL     1     -12.023   8.270  71.960  1.00  0.00    -0.405 C  
BRANCH  17  18
HETATM   18  C   UNL     1     -10.946   9.214  71.449  1.00  0.00    -0.344 C  
BRANCH  18  19
HETATM   19  O   UNL     1     -11.525  10.405  70.919  1.00  0.00    -0.344 OA 
BRANCH  19  20
HETATM   20  C   UNL     1     -11.267  10.595  69.582  1.00  0.00    -0.289 A  
HETATM   21  C   UNL     1     -11.921  11.682  68.997  1.00  0.00    -0.368 A  
HETATM   22  C   UNL     1     -11.727  11.954  67.642  1.00  0.00    -0.275 A  
HETATM   23  C   UNL     1     -10.882  11.152  66.865  1.00  0.00    -0.333 A  
HETATM   24  C   UNL     1     -10.208  10.090  67.463  1.00  0.00    -0.260 A  
HETATM   25  C   UNL     1     -10.613  11.517  65.434  1.00  0.00    -0.336 C  
HETATM   26  C   UNL     1     -10.394   9.818  68.814  1.00  0.00    -0.227 A  
HETATM   27  C   UNL     1     -11.773  12.280  64.820  1.00  0.00    -0.419 C  
HETATM   28  C   UNL     1     -12.301  13.363  65.732  1.00  0.00    -0.460 C  
HETATM   29  O   UNL     1     -12.775  14.409  65.301  1.00  0.00    -0.498 OA 
HETATM   30  N   UNL     1     -12.344  13.067  67.067  1.00  0.00    -0.130 N  
HETATM   31  H   UNL     1     -12.858  13.699  67.681  1.00  0.00     0.000 HD 
ENDBRANCH  19  20
ENDBRANCH  18  19
ENDBRANCH  17  18
ENDBRANCH  16  17
ENDBRANCH  15  16
ENDBRANCH  12  15
ENDBRANCH   6   9
TORSDOF 7
ENDMDL
MODEL      175
REMARK 921   NORMALIZED FREE ENERGY PREDICTED BY IDOCK:   -4.42 KCAL/MOL
REMARK 922        TOTAL FREE ENERGY PREDICTED BY IDOCK:   -7.83 KCAL/MOL
REMARK 923 INTER-LIGAND FREE ENERGY PREDICTED BY IDOCK:   -6.57 KCAL/MOL
REMARK 924 INTRA-LIGAND FREE ENERGY PREDICTED BY IDOCK:   -1.25 KCAL/MOL
REMARK 927      BINDING AFFINITY PREDICTED BY RF-SCORE:    0.00 PKD
ROOT
HETATM    1 CL   UNL     1      -9.653  16.643  69.254  1.00  0.00    -0.202 Cl 
HETATM    2  C   UNL     1     -10.427  15.090  69.206  1.00  0.00    -0.249 A  
HETATM    3  C   UNL     1     -11.710  15.024  69.745  1.00  0.00    -0.341 A  
HETATM    4  C   UNL     1     -12.385  13.811  69.755  1.00  0.00    -0.311 A  
HETATM    5  C   UNL     1     -11.756  12.665  69.268  1.00  0.00    -0.379 A  
HETATM    6  C   UNL     1     -10.452  12.673  68.725  1.00  0.00    -0.143 A  
HETATM    7  C   UNL     1      -9.807  13.942  68.666  1.00  0.00    -0.175 A  
HETATM    8 CL   UNL     1      -8.293  14.163  67.825  1.00  0.00    -0.160 Cl 
ENDROOT
BRANCH   6   9
HETATM    9  N   UNL     1      -9.888  11.459  68.350  1.00  0.00    -0.200 NA 
HETATM   10  C   UNL     1      -8.539  11.053  68.786  1.00  0.00    -0.144 C  
HETATM   11  C   UNL     1      -8.504   9.563  69.197  1.00  0.00    -0.131 C  
HETATM   12  N   UNL     1      -9.057   8.626  68.192  1.00  0.00    -0.141 NA 
HETATM   13  C   UNL     1     -10.556  10.536  67.409  1.00  0.00    -0.263 C  
HETATM   14  C   UNL     1     -10.442   9.072  67.902  1.00  0.00    -0.234 C  
BRANCH  12  15
HETATM   15  C   UNL     1      -8.244   8.581  66.965  1.00  0.00    -0.107 C  
BRANCH  15  16
HETATM   16  C   UNL     1      -9.079   8.582  65.669  1.00  0.00    -0.189 C  
BRANCH  16  17
HETATM   17  C   UNL     1      -8.252   8.663  64.382  1.00  0.00    -0.163 C  
BRANCH  17  18
HETATM   18  C   UNL     1      -8.445  10.011  63.703  1.00  0.00    -0.180 C  
BRANCH  18  19
HETATM   19  O   UNL     1      -9.690  10.054  63.009  1.00  0.00    -0.193 OA 
BRANCH  19  20
HETATM   20  C   UNL     1     -10.475  11.129  63.353  1.00  0.00    -0.317 A  
HETATM   21  C   UNL     1      -9.796  12.199  63.942  1.00  0.00    -0.240 A  
HETATM   22  C   UNL     1     -10.507  13.335  64.332  1.00  0.00    -0.404 A  
HETATM   23  C   UNL     1     -11.892  13.415  64.135  1.00  0.00    -0.492 A  
HETATM   24  C   UNL     1     -12.556  12.358  63.516  1.00  0.00    -0.535 A  
HETATM   25  C   UNL     1     -12.622  14.682  64.473  1.00  0.00    -0.174 C  
HETATM   26  C   UNL     1     -11.850  11.227  63.122  1.00  0.00     0.460 A  
HETATM   27  C   UNL     1     -11.931  15.452  65.583  1.00  0.00     0.383 C  
HETATM   28  C   UNL     1     -10.435  15.538  65.384  1.00  0.00    -0.405 C  
HETATM   29  O   UNL     1      -9.778  16.505  65.756  1.00  0.00    -0.469 OA 
HETATM   30  N   UNL     1      -9.823  14.423  64.878  1.00  0.00    -0.471 N  
HETATM   31  H   UNL     1      -8.804  14.384  64.902  1.00  0.00     0.000 HD 
ENDBRANCH  19  20
ENDBRANCH  18  19
ENDBRANCH  17  18
ENDBRANCH  16  17
ENDBRANCH  15  16
ENDBRANCH  12  15
ENDBRANCH   6   9
TORSDOF 7
ENDMDL
MODEL      176
REMARK 921   NORMALIZED FREE ENERGY PREDICTED BY IDOCK:   -4.40 KCAL/MOL
REMARK 922        TOTAL FREE ENERGY PREDICTED BY IDOCK:   -7.80 KCAL/MOL
REMARK 923 INTER-LIGAND FREE ENERGY PREDICTED BY IDOCK:   -7.08 KCAL/MOL
REMARK 924 INTRA-LIGAND FREE ENERGY PREDICTED BY IDOCK:   -0.72 KCAL/MOL
REMARK 927      BINDING AFFINITY PREDICTED BY RF-SCORE:    0.00 PKD
ROOT
HETATM    1 CL   UNL     1      -9.034   8.359  71.343  1.00  0.00    -0.212 Cl 
HETATM    2  C   UNL     1     -10.204   9.525  70.808  1.00  0.00    -0.293 A  
HETATM    3  C   UNL     1     -11.478   9.418  71.361  1.00  0.00    -0.449 A  
HETATM    4  C   UNL     1     -12.469  10.307  70.968  1.00  0.00    -0.484 A  
HETATM    5  C   UNL     1     -12.193  11.266  69.993  1.00  0.00    -0.389 A  
HETATM    6  C   UNL     1     -10.924  11.407  69.389  1.00  0.00    -0.205 A  
HETATM    7  C   UNL     1      -9.906  10.526  69.858  1.00  0.00     0.107 A  
HETATM    8 CL   UNL     1      -8.238  10.716  69.380  1.00  0.00    -0.130 Cl 
ENDROOT
BRANCH   6   9
HETATM    9  N   UNL     1     -10.782  12.337  68.366  1.00  0.00    -0.226 NA 
HETATM   10  C   UNL     1     -11.836  12.561  67.358  1.00  0.00    -0.312 C  
HETATM   11  C   UNL     1     -12.024  14.067  67.065  1.00  0.00    -0.438 C  
HETATM   12  N   UNL     1     -10.781  14.796  66.724  1.00  0.00    -0.302 NA 
HETATM   13  C   UNL     1      -9.530  13.094  68.154  1.00  0.00    -0.222 C  
HETATM   14  C   UNL     1      -9.833  14.580  67.845  1.00  0.00    -0.222 C  
BRANCH  12  15
HETATM   15  C   UNL     1     -10.204  14.348  65.446  1.00  0.00    -0.382 C  
BRANCH  15  16
HETATM   16  C   UNL     1     -11.253  13.843  64.436  1.00  0.00    -0.341 C  
BRANCH  16  17
HETATM   17  C   UNL     1     -10.917  12.493  63.794  1.00  0.00    -0.496 C  
BRANCH  17  18
HETATM   18  C   UNL     1     -10.816  11.405  64.851  1.00  0.00    -0.257 C  
BRANCH  18  19
HETATM   19  O   UNL     1      -9.798  10.465  64.515  1.00  0.00    -0.308 OA 
BRANCH  19  20
HETATM   20  C   UNL     1      -9.610   9.492  65.468  1.00  0.00    -0.279 A  
HETATM   21  C   UNL     1      -8.388   8.816  65.397  1.00  0.00    -0.159 A  
HETATM   22  C   UNL     1      -8.107   7.806  66.318  1.00  0.00    -0.114 A  
HETATM   23  C   UNL     1      -9.032   7.467  67.314  1.00  0.00    -0.128 A  
HETATM   24  C   UNL     1     -10.232   8.168  67.398  1.00  0.00    -0.327 A  
HETATM   25  C   UNL     1      -8.670   6.444  68.352  1.00  0.00    -0.113 C  
HETATM   26  C   UNL     1     -10.516   9.178  66.486  1.00  0.00    -0.197 A  
HETATM   27  C   UNL     1      -7.663   5.439  67.826  1.00  0.00    -0.092 C  
HETATM   28  C   UNL     1      -6.533   6.095  67.066  1.00  0.00    -0.053 C  
HETATM   29  O   UNL     1      -5.396   5.636  67.058  1.00  0.00    -0.005 OA 
HETATM   30  N   UNL     1      -6.869   7.162  66.277  1.00  0.00    -0.056 N  
HETATM   31  H   UNL     1      -6.171   7.508  65.619  1.00  0.00     0.000 HD 
ENDBRANCH  19  20
ENDBRANCH  18  19
ENDBRANCH  17  18
ENDBRANCH  16  17
ENDBRANCH  15  16
ENDBRANCH  12  15
ENDBRANCH   6   9
TORSDOF 7
ENDMDL
MODEL      177
REMARK 921   NORMALIZED FREE ENERGY PREDICTED BY IDOCK:   -4.40 KCAL/MOL
REMARK 922        TOTAL FREE ENERGY PREDICTED BY IDOCK:   -7.80 KCAL/MOL
REMARK 923 INTER-LIGAND FREE ENERGY PREDICTED BY IDOCK:   -6.35 KCAL/MOL
REMARK 924 INTRA-LIGAND FREE ENERGY PREDICTED BY IDOCK:   -1.44 KCAL/MOL
REMARK 927      BINDING AFFINITY PREDICTED BY RF-SCORE:    0.00 PKD
ROOT
HETATM    1 CL   UNL     1     -10.542   7.254  73.874  1.00  0.00    -0.294 Cl 
HETATM    2  C   UNL     1     -11.010   8.317  72.584  1.00  0.00    -0.316 A  
HETATM    3  C   UNL     1     -12.362   8.646  72.515  1.00  0.00    -0.378 A  
HETATM    4  C   UNL     1     -12.811   9.479  71.501  1.00  0.00    -0.464 A  
HETATM    5  C   UNL     1     -11.915   9.943  70.537  1.00  0.00    -0.320 A  
HETATM    6  C   UNL     1     -10.538   9.628  70.551  1.00  0.00    -0.306 A  
HETATM    7  C   UNL     1     -10.091   8.825  71.640  1.00  0.00    -0.319 A  
HETATM    8 CL   UNL     1      -8.394   8.534  71.927  1.00  0.00    -0.217 Cl 
ENDROOT
BRANCH   6   9
HETATM    9  N   UNL     1      -9.752  10.070  69.493  1.00  0.00    -0.222 NA 
HETATM   10  C   UNL     1     -10.234  11.068  68.521  1.00  0.00    -0.192 C  
HETATM   11  C   UNL     1      -9.137  12.105  68.186  1.00  0.00    -0.196 C  
HETATM   12  N   UNL     1      -7.838  11.527  67.774  1.00  0.00    -0.120 NA 
HETATM   13  C   UNL     1      -8.419   9.499  69.208  1.00  0.00    -0.139 C  
HETATM   14  C   UNL     1      -7.405  10.617  68.863  1.00  0.00    -0.099 C  
BRANCH  12  15
HETATM   15  C   UNL     1      -7.927  10.813  66.489  1.00  0.00    -0.144 C  
BRANCH  15  16
HETATM   16  C   UNL     1      -6.558  10.406  65.911  1.00  0.00    -0.123 C  
BRANCH  16  17
HETATM   17  C   UNL     1      -6.629   9.385  64.771  1.00  0.00    -0.079 C  
BRANCH  17  18
HETATM   18  C   UNL     1      -8.070   8.983  64.496  1.00  0.00    -0.143 C  
BRANCH  18  19
HETATM   19  O   UNL     1      -8.156   7.599  64.164  1.00  0.00    -0.129 OA 
BRANCH  19  20
HETATM   20  C   UNL     1      -8.394   6.787  65.247  1.00  0.00    -0.105 A  
HETATM   21  C   UNL     1      -9.429   7.203  66.089  1.00  0.00    -0.059 A  
HETATM   22  C   UNL     1      -9.743   6.447  67.219  1.00  0.00    -0.130 A  
HETATM   23  C   UNL     1      -9.035   5.275  67.516  1.00  0.00    -0.108 A  
HETATM   24  C   UNL     1      -8.027   4.849  66.654  1.00  0.00    -0.103 A  
HETATM   25  C   UNL     1      -9.450   4.426  68.682  1.00  0.00    -0.219 C  
HETATM   26  C   UNL     1      -7.714   5.597  65.524  1.00  0.00    -0.089 A  
HETATM   27  C   UNL     1     -10.117   5.250  69.769  1.00  0.00    -0.334 C  
HETATM   28  C   UNL     1     -11.131   6.225  69.216  1.00  0.00    -0.393 C  
HETATM   29  O   UNL     1     -12.138   6.546  69.838  1.00  0.00    -0.229 OA 
HETATM   30  N   UNL     1     -10.806   6.836  68.036  1.00  0.00    -0.380 N  
HETATM   31  H   UNL     1     -11.378   7.625  67.732  1.00  0.00     0.000 HD 
ENDBRANCH  19  20
ENDBRANCH  18  19
ENDBRANCH  17  18
ENDBRANCH  16  17
ENDBRANCH  15  16
ENDBRANCH  12  15
ENDBRANCH   6   9
TORSDOF 7
ENDMDL
MODEL      178
REMARK 921   NORMALIZED FREE ENERGY PREDICTED BY IDOCK:   -4.39 KCAL/MOL
REMARK 922        TOTAL FREE ENERGY PREDICTED BY IDOCK:   -7.79 KCAL/MOL
REMARK 923 INTER-LIGAND FREE ENERGY PREDICTED BY IDOCK:   -6.93 KCAL/MOL
REMARK 924 INTRA-LIGAND FREE ENERGY PREDICTED BY IDOCK:   -0.86 KCAL/MOL
REMARK 927      BINDING AFFINITY PREDICTED BY RF-SCORE:    0.00 PKD
ROOT
HETATM    1 CL   UNL     1      -5.277   9.348  72.736  1.00  0.00    -0.078 Cl 
HETATM    2  C   UNL     1      -6.124   8.305  71.638  1.00  0.00    -0.042 A  
HETATM    3  C   UNL     1      -6.293   6.984  72.047  1.00  0.00    -0.044 A  
HETATM    4  C   UNL     1      -6.948   6.089  71.213  1.00  0.00    -0.068 A  
HETATM    5  C   UNL     1      -7.391   6.508  69.958  1.00  0.00    -0.089 A  
HETATM    6  C   UNL     1      -7.232   7.831  69.487  1.00  0.00    -0.079 A  
HETATM    7  C   UNL     1      -6.615   8.746  70.389  1.00  0.00    -0.042 A  
HETATM    8 CL   UNL     1      -6.547  10.457  70.053  1.00  0.00    -0.121 Cl 
ENDROOT
BRANCH   6   9
HETATM    9  N   UNL     1      -7.630   8.118  68.187  1.00  0.00    -0.103 NA 
HETATM   10  C   UNL     1      -6.709   8.003  67.041  1.00  0.00    -0.065 C  
HETATM   11  C   UNL     1      -7.403   7.353  65.823  1.00  0.00    -0.074 C  
HETATM   12  N   UNL     1      -8.686   7.978  65.429  1.00  0.00    -0.117 NA 
HETATM   13  C   UNL     1      -8.970   8.655  67.872  1.00  0.00    -0.140 C  
HETATM   14  C   UNL     1      -9.563   7.954  66.625  1.00  0.00    -0.226 C  
BRANCH  12  15
HETATM   15  C   UNL     1      -8.506   9.352  64.929  1.00  0.00    -0.163 C  
BRANCH  15  16
HETATM   16  C   UNL     1      -9.823  10.144  64.809  1.00  0.00    -0.382 C  
BRANCH  16  17
HETATM   17  C   UNL     1     -10.127  10.660  63.399  1.00  0.00    -0.266 C  
BRANCH  17  18
HETATM   18  C   UNL     1     -10.045  12.178  63.352  1.00  0.00    -0.351 C  
BRANCH  18  19
HETATM   19  O   UNL     1     -11.321  12.762  63.611  1.00  0.00    -0.433 OA 
BRANCH  19  20
HETATM   20  C   UNL     1     -11.392  13.414  64.819  1.00  0.00    -0.337 A  
HETATM   21  C   UNL     1     -10.859  14.706  64.833  1.00  0.00    -0.436 A  
HETATM   22  C   UNL     1     -10.880  15.446  66.015  1.00  0.00    -0.314 A  
HETATM   23  C   UNL     1     -11.433  14.911  67.186  1.00  0.00    -0.344 A  
HETATM   24  C   UNL     1     -11.992  13.636  67.155  1.00  0.00    -0.434 A  
HETATM   25  C   UNL     1     -11.531  15.759  68.421  1.00  0.00    -0.367 C  
HETATM   26  C   UNL     1     -11.978  12.896  65.979  1.00  0.00    -0.505 A  
HETATM   27  C   UNL     1     -10.445  16.817  68.466  1.00  0.00    -0.335 C  
HETATM   28  C   UNL     1     -10.271  17.526  67.142  1.00  0.00    -0.323 C  
HETATM   29  O   UNL     1      -9.930  18.702  67.068  1.00  0.00    -0.310 OA 
HETATM   30  N   UNL     1     -10.390  16.754  66.018  1.00  0.00    -0.346 N  
HETATM   31  H   UNL     1     -10.102  17.158  65.128  1.00  0.00     0.000 HD 
ENDBRANCH  19  20
ENDBRANCH  18  19
ENDBRANCH  17  18
ENDBRANCH  16  17
ENDBRANCH  15  16
ENDBRANCH  12  15
ENDBRANCH   6   9
TORSDOF 7
ENDMDL
MODEL      179
REMARK 921   NORMALIZED FREE ENERGY PREDICTED BY IDOCK:   -4.39 KCAL/MOL
REMARK 922        TOTAL FREE ENERGY PREDICTED BY IDOCK:   -7.79 KCAL/MOL
REMARK 923 INTER-LIGAND FREE ENERGY PREDICTED BY IDOCK:   -6.52 KCAL/MOL
REMARK 924 INTRA-LIGAND FREE ENERGY PREDICTED BY IDOCK:   -1.26 KCAL/MOL
REMARK 927      BINDING AFFINITY PREDICTED BY RF-SCORE:    0.00 PKD
ROOT
HETATM    1 CL   UNL     1      -9.928   5.913  70.423  1.00  0.00    -0.232 Cl 
HETATM    2  C   UNL     1     -10.519   7.542  70.518  1.00  0.00    -0.219 A  
HETATM    3  C   UNL     1     -11.401   7.819  71.560  1.00  0.00    -0.289 A  
HETATM    4  C   UNL     1     -11.926   9.097  71.688  1.00  0.00    -0.437 A  
HETATM    5  C   UNL     1     -11.602  10.077  70.750  1.00  0.00    -0.444 A  
HETATM    6  C   UNL     1     -10.726   9.846  69.666  1.00  0.00    -0.252 A  
HETATM    7  C   UNL     1     -10.149   8.545  69.595  1.00  0.00    -0.202 A  
HETATM    8 CL   UNL     1      -8.882   8.166  68.455  1.00  0.00    -0.134 Cl 
ENDROOT
BRANCH   6   9
HETATM    9  N   UNL     1     -10.542  10.866  68.740  1.00  0.00    -0.189 NA 
HETATM   10  C   UNL     1     -11.656  11.416  67.946  1.00  0.00    -0.266 C  
HETATM   11  C   UNL     1     -11.576  12.956  67.852  1.00  0.00    -0.345 C  
HETATM   12  N   UNL     1     -10.270  13.485  67.397  1.00  0.00    -0.236 NA 
HETATM   13  C   UNL     1      -9.204  11.402  68.412  1.00  0.00    -0.183 C  
HETATM   14  C   UNL     1      -9.240  12.948  68.319  1.00  0.00    -0.187 C  
BRANCH  12  15
HETATM   15  C   UNL     1      -9.976  13.120  66.001  1.00  0.00    -0.280 C  
BRANCH  15  16
HETATM   16  C   UNL     1     -11.141  13.394  65.030  1.00  0.00    -0.332 C  
BRANCH  16  17
HETATM   17  C   UNL     1     -11.301  12.352  63.919  1.00  0.00    -0.502 C  
BRANCH  17  18
HETATM   18  C   UNL     1     -10.514  11.092  64.246  1.00  0.00    -0.359 C  
BRANCH  18  19
HETATM   19  O   UNL     1      -9.190  11.170  63.720  1.00  0.00    -0.192 OA 
BRANCH  19  20
HETATM   20  C   UNL     1      -8.351  10.190  64.193  1.00  0.00    -0.168 A  
HETATM   21  C   UNL     1      -8.964   8.968  64.482  1.00  0.00    -0.069 A  
HETATM   22  C   UNL     1      -8.196   7.911  64.973  1.00  0.00    -0.131 A  
HETATM   23  C   UNL     1      -6.818   8.061  65.175  1.00  0.00    -0.058 A  
HETATM   24  C   UNL     1      -6.209   9.272  64.852  1.00  0.00    -0.067 A  
HETATM   25  C   UNL     1      -5.995   6.885  65.613  1.00  0.00    -0.035 C  
HETATM   26  C   UNL     1      -6.969  10.326  64.358  1.00  0.00    -0.060 A  
HETATM   27  C   UNL     1      -6.813   5.893  66.418  1.00  0.00    -0.059 C  
HETATM   28  C   UNL     1      -8.161   5.611  65.794  1.00  0.00    -0.114 C  
HETATM   29  O   UNL     1      -8.712   4.520  65.890  1.00  0.00    -0.117 OA 
HETATM   30  N   UNL     1      -8.799   6.676  65.219  1.00  0.00    -0.364 N  
HETATM   31  H   UNL     1      -9.777   6.561  64.953  1.00  0.00     0.000 HD 
ENDBRANCH  19  20
ENDBRANCH  18  19
ENDBRANCH  17  18
ENDBRANCH  16  17
ENDBRANCH  15  16
ENDBRANCH  12  15
ENDBRANCH   6   9
TORSDOF 7
ENDMDL
MODEL      180
REMARK 921   NORMALIZED FREE ENERGY PREDICTED BY IDOCK:   -4.38 KCAL/MOL
REMARK 922        TOTAL FREE ENERGY PREDICTED BY IDOCK:   -7.78 KCAL/MOL
REMARK 923 INTER-LIGAND FREE ENERGY PREDICTED BY IDOCK:   -7.26 KCAL/MOL
REMARK 924 INTRA-LIGAND FREE ENERGY PREDICTED BY IDOCK:   -0.51 KCAL/MOL
REMARK 927      BINDING AFFINITY PREDICTED BY RF-SCORE:    0.00 PKD
ROOT
HETATM    1 CL   UNL     1      -9.784   3.828  70.000  1.00  0.00    -0.255 Cl 
HETATM    2  C   UNL     1      -9.109   5.067  68.989  1.00  0.00    -0.105 A  
HETATM    3  C   UNL     1      -7.872   4.787  68.412  1.00  0.00    -0.081 A  
HETATM    4  C   UNL     1      -7.264   5.737  67.604  1.00  0.00    -0.076 A  
HETATM    5  C   UNL     1      -7.875   6.977  67.413  1.00  0.00    -0.111 A  
HETATM    6  C   UNL     1      -9.120   7.319  67.986  1.00  0.00    -0.133 A  
HETATM    7  C   UNL     1      -9.754   6.302  68.758  1.00  0.00    -0.128 A  
HETATM    8 CL   UNL     1     -11.388   6.481  69.345  1.00  0.00    -0.414 Cl 
ENDROOT
BRANCH   6   9
HETATM    9  N   UNL     1      -9.595   8.613  67.804  1.00  0.00    -0.145 NA 
HETATM   10  C   UNL     1      -9.743   9.559  68.926  1.00  0.00    -0.164 C  
HETATM   11  C   UNL     1      -9.261  10.974  68.536  1.00  0.00    -0.177 C  
HETATM   12  N   UNL     1      -9.851  11.512  67.288  1.00  0.00    -0.189 NA 
HETATM   13  C   UNL     1     -10.080   9.098  66.495  1.00  0.00    -0.287 C  
HETATM   14  C   UNL     1      -9.560  10.530  66.215  1.00  0.00    -0.187 C  
BRANCH  12  15
HETATM   15  C   UNL     1     -11.299  11.751  67.413  1.00  0.00    -0.311 C  
BRANCH  15  16
HETATM   16  C   UNL     1     -11.936  12.366  66.152  1.00  0.00    -0.397 C  
BRANCH  16  17
HETATM   17  C   UNL     1     -12.234  13.865  66.257  1.00  0.00    -0.498 C  
BRANCH  17  18
HETATM   18  C   UNL     1     -11.848  14.394  67.630  1.00  0.00    -0.378 C  
BRANCH  18  19
HETATM   19  O   UNL     1     -11.754  15.818  67.616  1.00  0.00    -0.131 OA 
BRANCH  19  20
HETATM   20  C   UNL     1     -10.494  16.284  67.328  1.00  0.00    -0.300 A  
HETATM   21  C   UNL     1     -10.016  17.279  68.184  1.00  0.00    -0.303 A  
HETATM   22  C   UNL     1      -8.748  17.821  67.970  1.00  0.00    -0.251 A  
HETATM   23  C   UNL     1      -7.948  17.374  66.910  1.00  0.00    -0.257 A  
HETATM   24  C   UNL     1      -8.418  16.358  66.082  1.00  0.00    -0.329 A  
HETATM   25  C   UNL     1      -6.551  17.901  66.755  1.00  0.00    -0.216 C  
HETATM   26  C   UNL     1      -9.679  15.813  66.294  1.00  0.00    -0.328 A  
HETATM   27  C   UNL     1      -6.411  19.302  67.321  1.00  0.00    -0.198 C  
HETATM   28  C   UNL     1      -7.068  19.447  68.675  1.00  0.00    -0.329 C  
HETATM   29  O   UNL     1      -6.634  20.206  69.536  1.00  0.00    -0.315 OA 
HETATM   30  N   UNL     1      -8.251  18.783  68.852  1.00  0.00    -0.271 N  
HETATM   31  H   UNL     1      -8.804  19.003  69.680  1.00  0.00     0.000 HD 
ENDBRANCH  19  20
ENDBRANCH  18  19
ENDBRANCH  17  18
ENDBRANCH  16  17
ENDBRANCH  15  16
ENDBRANCH  12  15
ENDBRANCH   6   9
TORSDOF 7
ENDMDL
MODEL      181
REMARK 921   NORMALIZED FREE ENERGY PREDICTED BY IDOCK:   -4.38 KCAL/MOL
REMARK 922        TOTAL FREE ENERGY PREDICTED BY IDOCK:   -7.77 KCAL/MOL
REMARK 923 INTER-LIGAND FREE ENERGY PREDICTED BY IDOCK:   -6.68 KCAL/MOL
REMARK 924 INTRA-LIGAND FREE ENERGY PREDICTED BY IDOCK:   -1.09 KCAL/MOL
REMARK 927      BINDING AFFINITY PREDICTED BY RF-SCORE:    0.00 PKD
ROOT
HETATM    1 CL   UNL     1     -11.489  14.791  66.801  1.00  0.00    -0.355 Cl 
HETATM    2  C   UNL     1      -9.944  14.059  67.097  1.00  0.00    -0.252 A  
HETATM    3  C   UNL     1      -8.937  14.906  67.554  1.00  0.00    -0.190 A  
HETATM    4  C   UNL     1      -7.671  14.392  67.798  1.00  0.00    -0.172 A  
HETATM    5  C   UNL     1      -7.408  13.047  67.540  1.00  0.00    -0.154 A  
HETATM    6  C   UNL     1      -8.387  12.148  67.061  1.00  0.00    -0.173 A  
HETATM    7  C   UNL     1      -9.695  12.685  66.882  1.00  0.00    -0.234 A  
HETATM    8 CL   UNL     1     -11.062  11.665  66.514  1.00  0.00    -0.349 Cl 
ENDROOT
BRANCH   6   9
HETATM    9  N   UNL     1      -7.995  10.850  66.753  1.00  0.00    -0.137 NA 
HETATM   10  C   UNL     1      -8.790   9.675  67.154  1.00  0.00    -0.132 C  
HETATM   11  C   UNL     1      -8.866   8.632  66.017  1.00  0.00    -0.178 C  
HETATM   12  N   UNL     1      -7.559   8.235  65.445  1.00  0.00    -0.091 NA 
HETATM   13  C   UNL     1      -6.707  10.551  66.094  1.00  0.00    -0.127 C  
HETATM   14  C   UNL     1      -6.892   9.480  64.990  1.00  0.00    -0.097 C  
BRANCH  12  15
HETATM   15  C   UNL     1      -6.723   7.508  66.415  1.00  0.00    -0.057 C  
BRANCH  15  16
HETATM   16  C   UNL     1      -7.233   6.087  66.728  1.00  0.00    -0.071 C  
BRANCH  16  17
HETATM   17  C   UNL     1      -7.507   5.824  68.212  1.00  0.00    -0.081 C  
BRANCH  17  18
HETATM   18  C   UNL     1      -9.004   5.798  68.486  1.00  0.00    -0.112 C  
BRANCH  18  19
HETATM   19  O   UNL     1      -9.261   5.576  69.871  1.00  0.00    -0.133 OA 
BRANCH  19  20
HETATM   20  C   UNL     1     -10.287   6.343  70.371  1.00  0.00    -0.205 A  
HETATM   21  C   UNL     1     -10.243   7.696  70.023  1.00  0.00    -0.213 A  
HETATM   22  C   UNL     1     -11.238   8.558  70.487  1.00  0.00    -0.242 A  
HETATM   23  C   UNL     1     -12.280   8.080  71.293  1.00  0.00    -0.308 A  
HETATM   24  C   UNL     1     -12.335   6.724  71.606  1.00  0.00    -0.409 A  
HETATM   25  C   UNL     1     -13.391   9.004  71.701  1.00  0.00    -0.433 C  
HETATM   26  C   UNL     1     -11.348   5.861  71.142  1.00  0.00    -0.230 A  
HETATM   27  C   UNL     1     -12.926  10.447  71.774  1.00  0.00    -0.580 C  
HETATM   28  C   UNL     1     -12.087  10.846  70.581  1.00  0.00    -0.371 C  
HETATM   29  O   UNL     1     -12.090  11.986  70.130  1.00  0.00    -0.322 OA 
HETATM   30  N   UNL     1     -11.221   9.900  70.103  1.00  0.00    -0.271 N  
HETATM   31  H   UNL     1     -10.520  10.194  69.424  1.00  0.00     0.000 HD 
ENDBRANCH  19  20
ENDBRANCH  18  19
ENDBRANCH  17  18
ENDBRANCH  16  17
ENDBRANCH  15  16
ENDBRANCH  12  15
ENDBRANCH   6   9
TORSDOF 7
ENDMDL
MODEL      182
REMARK 921   NORMALIZED FREE ENERGY PREDICTED BY IDOCK:   -4.38 KCAL/MOL
REMARK 922        TOTAL FREE ENERGY PREDICTED BY IDOCK:   -7.77 KCAL/MOL
REMARK 923 INTER-LIGAND FREE ENERGY PREDICTED BY IDOCK:   -7.08 KCAL/MOL
REMARK 924 INTRA-LIGAND FREE ENERGY PREDICTED BY IDOCK:   -0.69 KCAL/MOL
REMARK 927      BINDING AFFINITY PREDICTED BY RF-SCORE:    0.00 PKD
ROOT
HETATM    1 CL   UNL     1     -12.290  14.752  64.230  1.00  0.00    -0.472 Cl 
HETATM    2  C   UNL     1     -11.779  13.736  65.541  1.00  0.00    -0.346 A  
HETATM    3  C   UNL     1     -12.165  14.135  66.818  1.00  0.00    -0.429 A  
HETATM    4  C   UNL     1     -11.779  13.379  67.916  1.00  0.00    -0.396 A  
HETATM    5  C   UNL     1     -10.973  12.255  67.734  1.00  0.00    -0.274 A  
HETATM    6  C   UNL     1     -10.541  11.815  66.463  1.00  0.00    -0.253 A  
HETATM    7  C   UNL     1     -11.006  12.570  65.348  1.00  0.00    -0.294 A  
HETATM    8 CL   UNL     1     -10.750  12.033  63.707  1.00  0.00    -0.424 Cl 
ENDROOT
BRANCH   6   9
HETATM    9  N   UNL     1      -9.668  10.735  66.404  1.00  0.00    -0.192 NA 
HETATM   10  C   UNL     1      -9.887   9.598  65.490  1.00  0.00    -0.281 C  
HETATM   11  C   UNL     1      -8.568   9.152  64.819  1.00  0.00    -0.184 C  
HETATM   12  N   UNL     1      -7.451   8.890  65.754  1.00  0.00    -0.089 NA 
HETATM   13  C   UNL     1      -8.516  10.599  67.320  1.00  0.00    -0.126 C  
HETATM   14  C   UNL     1      -7.257  10.126  66.552  1.00  0.00    -0.104 C  
BRANCH  12  15
HETATM   15  C   UNL     1      -7.710   7.731  66.624  1.00  0.00    -0.098 C  
BRANCH  15  16
HETATM   16  C   UNL     1      -8.234   6.494  65.867  1.00  0.00    -0.131 C  
BRANCH  16  17
HETATM   17  C   UNL     1      -7.717   5.156  66.403  1.00  0.00    -0.092 C  
BRANCH  17  18
HETATM   18  C   UNL     1      -8.823   4.402  67.125  1.00  0.00    -0.114 C  
BRANCH  18  19
HETATM   19  O   UNL     1      -9.989   5.214  67.254  1.00  0.00    -0.159 OA 
BRANCH  19  20
HETATM   20  C   UNL     1     -10.261   5.584  68.549  1.00  0.00    -0.184 A  
HETATM   21  C   UNL     1      -9.924   4.640  69.523  1.00  0.00    -0.266 A  
HETATM   22  C   UNL     1     -10.168   4.922  70.868  1.00  0.00    -0.202 A  
HETATM   23  C   UNL     1     -10.741   6.141  71.252  1.00  0.00    -0.310 A  
HETATM   24  C   UNL     1     -11.043   7.090  70.278  1.00  0.00    -0.323 A  
HETATM   25  C   UNL     1     -10.907   6.462  72.709  1.00  0.00    -0.278 C  
HETATM   26  C   UNL     1     -10.798   6.816  68.937  1.00  0.00    -0.288 A  
HETATM   27  C   UNL     1     -11.068   5.209  73.548  1.00  0.00    -0.361 C  
HETATM   28  C   UNL     1     -10.074   4.132  73.177  1.00  0.00    -0.146 C  
HETATM   29  O   UNL     1      -9.627   3.341  74.001  1.00  0.00    -0.094 OA 
HETATM   30  N   UNL     1      -9.790   3.999  71.845  1.00  0.00    -0.169 N  
HETATM   31  H   UNL     1      -9.269   3.174  71.547  1.00  0.00     0.000 HD 
ENDBRANCH  19  20
ENDBRANCH  18  19
ENDBRANCH  17  18
ENDBRANCH  16  17
ENDBRANCH  15  16
ENDBRANCH  12  15
ENDBRANCH   6   9
TORSDOF 7
ENDMDL
MODEL      183
REMARK 921   NORMALIZED FREE ENERGY PREDICTED BY IDOCK:   -4.38 KCAL/MOL
REMARK 922        TOTAL FREE ENERGY PREDICTED BY IDOCK:   -7.77 KCAL/MOL
REMARK 923 INTER-LIGAND FREE ENERGY PREDICTED BY IDOCK:   -7.06 KCAL/MOL
REMARK 924 INTRA-LIGAND FREE ENERGY PREDICTED BY IDOCK:   -0.71 KCAL/MOL
REMARK 927      BINDING AFFINITY PREDICTED BY RF-SCORE:    0.00 PKD
ROOT
HETATM    1 CL   UNL     1      -9.876  17.661  65.847  1.00  0.00    -0.156 Cl 
HETATM    2  C   UNL     1     -10.585  16.120  65.475  1.00  0.00    -0.377 A  
HETATM    3  C   UNL     1     -11.536  16.108  64.457  1.00  0.00    -0.233 A  
HETATM    4  C   UNL     1     -12.155  14.914  64.116  1.00  0.00    -0.289 A  
HETATM    5  C   UNL     1     -11.854  13.750  64.823  1.00  0.00    -0.413 A  
HETATM    6  C   UNL     1     -10.910  13.710  65.874  1.00  0.00    -0.275 A  
HETATM    7  C   UNL     1     -10.240  14.935  66.160  1.00  0.00    -0.300 A  
HETATM    8 CL   UNL     1      -8.894  15.005  67.270  1.00  0.00    -0.201 Cl 
ENDROOT
BRANCH   6   9
HETATM    9  N   UNL     1     -10.752  12.517  66.571  1.00  0.00    -0.237 NA 
HETATM   10  C   UNL     1      -9.429  11.898  66.775  1.00  0.00    -0.201 C  
HETATM   11  C   UNL     1      -9.278  11.355  68.214  1.00  0.00    -0.183 C  
HETATM   12  N   UNL     1     -10.371  10.463  68.662  1.00  0.00    -0.174 NA 
HETATM   13  C   UNL     1     -11.903  11.735  67.067  1.00  0.00    -0.044 C  
HETATM   14  C   UNL     1     -11.638  11.220  68.503  1.00  0.00    -0.315 C  
BRANCH  12  15
HETATM   15  C   UNL     1     -10.408   9.200  67.906  1.00  0.00    -0.232 C  
BRANCH  15  16
HETATM   16  C   UNL     1      -9.029   8.527  67.759  1.00  0.00    -0.140 C  
BRANCH  16  17
HETATM   17  C   UNL     1      -9.076   7.099  67.205  1.00  0.00    -0.141 C  
BRANCH  17  18
HETATM   18  C   UNL     1     -10.489   6.542  67.273  1.00  0.00    -0.272 C  
BRANCH  18  19
HETATM   19  O   UNL     1     -10.512   5.305  67.983  1.00  0.00    -0.153 OA 
BRANCH  19  20
HETATM   20  C   UNL     1     -10.616   5.455  69.346  1.00  0.00    -0.225 A  
HETATM   21  C   UNL     1      -9.867   4.550  70.104  1.00  0.00    -0.296 A  
HETATM   22  C   UNL     1      -9.912   4.618  71.497  1.00  0.00    -0.195 A  
HETATM   23  C   UNL     1     -10.694   5.585  72.142  1.00  0.00    -0.288 A  
HETATM   24  C   UNL     1     -11.409   6.504  71.379  1.00  0.00    -0.344 A  
HETATM   25  C   UNL     1     -10.652   5.701  73.638  1.00  0.00    -0.310 C  
HETATM   26  C   UNL     1     -11.365   6.443  69.991  1.00  0.00    -0.496 A  
HETATM   27  C   UNL     1     -10.322   4.375  74.298  1.00  0.00    -0.296 C  
HETATM   28  C   UNL     1      -9.176   3.660  73.620  1.00  0.00    -0.093 C  
HETATM   29  O   UNL     1      -8.391   2.947  74.236  1.00  0.00    -0.068 OA 
HETATM   30  N   UNL     1      -9.129   3.744  72.255  1.00  0.00    -0.111 N  
HETATM   31  H   UNL     1      -8.482   3.131  71.760  1.00  0.00     0.000 HD 
ENDBRANCH  19  20
ENDBRANCH  18  19
ENDBRANCH  17  18
ENDBRANCH  16  17
ENDBRANCH  15  16
ENDBRANCH  12  15
ENDBRANCH   6   9
TORSDOF 7
ENDMDL
MODEL      184
REMARK 921   NORMALIZED FREE ENERGY PREDICTED BY IDOCK:   -4.35 KCAL/MOL
REMARK 922        TOTAL FREE ENERGY PREDICTED BY IDOCK:   -7.73 KCAL/MOL
REMARK 923 INTER-LIGAND FREE ENERGY PREDICTED BY IDOCK:   -7.17 KCAL/MOL
REMARK 924 INTRA-LIGAND FREE ENERGY PREDICTED BY IDOCK:   -0.56 KCAL/MOL
REMARK 927      BINDING AFFINITY PREDICTED BY RF-SCORE:    0.00 PKD
ROOT
HETATM    1 CL   UNL     1     -10.149  19.622  69.174  1.00  0.00    -0.477 Cl 
HETATM    2  C   UNL     1      -9.561  18.359  68.140  1.00  0.00    -0.316 A  
HETATM    3  C   UNL     1      -8.701  18.749  67.116  1.00  0.00    -0.288 A  
HETATM    4  C   UNL     1      -8.203  17.794  66.241  1.00  0.00    -0.252 A  
HETATM    5  C   UNL     1      -8.603  16.463  66.367  1.00  0.00    -0.358 A  
HETATM    6  C   UNL     1      -9.484  16.016  67.376  1.00  0.00    -0.219 A  
HETATM    7  C   UNL     1      -9.928  17.005  68.302  1.00  0.00    -0.285 A  
HETATM    8 CL   UNL     1     -10.835  16.579  69.732  1.00  0.00    -0.336 Cl 
ENDROOT
BRANCH   6   9
HETATM    9  N   UNL     1      -9.886  14.686  67.356  1.00  0.00    -0.221 NA 
HETATM   10  C   UNL     1     -11.308  14.295  67.385  1.00  0.00    -0.332 C  
HETATM   11  C   UNL     1     -11.595  13.139  66.401  1.00  0.00    -0.349 C  
HETATM   12  N   UNL     1     -10.705  11.964  66.542  1.00  0.00    -0.247 NA 
HETATM   13  C   UNL     1      -8.920  13.568  67.406  1.00  0.00    -0.219 C  
HETATM   14  C   UNL     1      -9.314  12.458  66.401  1.00  0.00    -0.219 C  
BRANCH  12  15
HETATM   15  C   UNL     1     -10.897  11.271  67.827  1.00  0.00    -0.235 C  
BRANCH  15  16
HETATM   16  C   UNL     1     -11.137   9.755  67.683  1.00  0.00    -0.118 C  
BRANCH  16  17
HETATM   17  C   UNL     1     -10.173   9.047  66.726  1.00  0.00    -0.341 C  
BRANCH  17  18
HETATM   18  C   UNL     1      -9.193   8.176  67.498  1.00  0.00    -0.137 C  
BRANCH  18  19
HETATM   19  O   UNL     1      -9.630   7.992  68.843  1.00  0.00    -0.151 OA 
BRANCH  19  20
HETATM   20  C   UNL     1      -9.611   6.681  69.254  1.00  0.00    -0.143 A  
HETATM   21  C   UNL     1      -9.992   6.465  70.581  1.00  0.00    -0.213 A  
HETATM   22  C   UNL     1      -9.999   5.167  71.092  1.00  0.00    -0.206 A  
HETATM   23  C   UNL     1      -9.633   4.079  70.290  1.00  0.00    -0.271 A  
HETATM   24  C   UNL     1      -9.287   4.298  68.958  1.00  0.00    -0.226 A  
HETATM   25  C   UNL     1      -9.739   2.683  70.831  1.00  0.00    -0.131 C  
HETATM   26  C   UNL     1      -9.282   5.589  68.443  1.00  0.00    -0.124 A  
HETATM   27  C   UNL     1      -9.576   2.649  72.339  1.00  0.00    -0.184 C  
HETATM   28  C   UNL     1     -10.373   3.731  73.032  1.00  0.00    -0.167 C  
HETATM   29  O   UNL     1     -10.855   3.576  74.149  1.00  0.00    -0.200 OA 
HETATM   30  N   UNL     1     -10.424   4.946  72.404  1.00  0.00    -0.206 N  
HETATM   31  H   UNL     1     -10.795   5.739  72.927  1.00  0.00     0.000 HD 
ENDBRANCH  19  20
ENDBRANCH  18  19
ENDBRANCH  17  18
ENDBRANCH  16  17
ENDBRANCH  15  16
ENDBRANCH  12  15
ENDBRANCH   6   9
TORSDOF 7
ENDMDL
MODEL      185
REMARK 921   NORMALIZED FREE ENERGY PREDICTED BY IDOCK:   -4.34 KCAL/MOL
REMARK 922        TOTAL FREE ENERGY PREDICTED BY IDOCK:   -7.72 KCAL/MOL
REMARK 923 INTER-LIGAND FREE ENERGY PREDICTED BY IDOCK:   -5.95 KCAL/MOL
REMARK 924 INTRA-LIGAND FREE ENERGY PREDICTED BY IDOCK:   -1.76 KCAL/MOL
REMARK 927      BINDING AFFINITY PREDICTED BY RF-SCORE:    0.00 PKD
ROOT
HETATM    1 CL   UNL     1     -12.963  13.794  70.227  1.00  0.00    -0.085 Cl 
HETATM    2  C   UNL     1     -11.910  12.450  69.912  1.00  0.00    -0.305 A  
HETATM    3  C   UNL     1     -10.987  12.617  68.882  1.00  0.00    -0.273 A  
HETATM    4  C   UNL     1     -10.123  11.579  68.565  1.00  0.00    -0.211 A  
HETATM    5  C   UNL     1     -10.218  10.365  69.246  1.00  0.00    -0.248 A  
HETATM    6  C   UNL     1     -11.146  10.137  70.287  1.00  0.00    -0.317 A  
HETATM    7  C   UNL     1     -11.976  11.241  70.639  1.00  0.00    -0.336 A  
HETATM    8 CL   UNL     1     -13.012  11.197  72.042  1.00  0.00    -0.499 Cl 
ENDROOT
BRANCH   6   9
HETATM    9  N   UNL     1     -11.215   8.863  70.839  1.00  0.00    -0.266 NA 
HETATM   10  C   UNL     1     -10.177   8.345  71.749  1.00  0.00    -0.253 C  
HETATM   11  C   UNL     1     -10.801   7.580  72.938  1.00  0.00    -0.373 C  
HETATM   12  N   UNL     1     -11.770   6.526  72.561  1.00  0.00    -0.216 NA 
HETATM   13  C   UNL     1     -12.277   7.902  70.474  1.00  0.00     0.201 C  
HETATM   14  C   UNL     1     -12.814   7.175  71.732  1.00  0.00    -0.330 C  
BRANCH  12  15
HETATM   15  C   UNL     1     -11.131   5.413  71.838  1.00  0.00    -0.108 C  
BRANCH  15  16
HETATM   16  C   UNL     1      -9.636   5.239  72.166  1.00  0.00    -0.183 C  
BRANCH  16  17
HETATM   17  C   UNL     1      -8.823   4.537  71.073  1.00  0.00    -0.151 C  
BRANCH  17  18
HETATM   18  C   UNL     1      -8.116   5.554  70.191  1.00  0.00    -0.098 C  
BRANCH  18  19
HETATM   19  O   UNL     1      -8.979   6.011  69.151  1.00  0.00    -0.124 OA 
BRANCH  19  20
HETATM   20  C   UNL     1      -8.476   7.078  68.447  1.00  0.00    -0.123 A  
HETATM   21  C   UNL     1      -9.105   7.336  67.226  1.00  0.00    -0.133 A  
HETATM   22  C   UNL     1      -8.661   8.396  66.434  1.00  0.00    -0.139 A  
HETATM   23  C   UNL     1      -7.597   9.206  66.852  1.00  0.00    -0.091 A  
HETATM   24  C   UNL     1      -6.999   8.963  68.086  1.00  0.00    -0.077 A  
HETATM   25  C   UNL     1      -7.199  10.398  66.032  1.00  0.00    -0.134 C  
HETATM   26  C   UNL     1      -7.440   7.911  68.880  1.00  0.00    -0.094 A  
HETATM   27  C   UNL     1      -7.520  10.203  64.562  1.00  0.00    -0.127 C  
HETATM   28  C   UNL     1      -8.902   9.632  64.341  1.00  0.00    -0.230 C  
HETATM   29  O   UNL     1      -9.577   9.910  63.356  1.00  0.00    -0.203 OA 
HETATM   30  N   UNL     1      -9.318   8.684  65.236  1.00  0.00    -0.428 N  
HETATM   31  H   UNL     1     -10.160   8.153  65.013  1.00  0.00     0.000 HD 
ENDBRANCH  19  20
ENDBRANCH  18  19
ENDBRANCH  17  18
ENDBRANCH  16  17
ENDBRANCH  15  16
ENDBRANCH  12  15
ENDBRANCH   6   9
TORSDOF 7
ENDMDL
MODEL      186
REMARK 921   NORMALIZED FREE ENERGY PREDICTED BY IDOCK:   -4.32 KCAL/MOL
REMARK 922        TOTAL FREE ENERGY PREDICTED BY IDOCK:   -7.70 KCAL/MOL
REMARK 923 INTER-LIGAND FREE ENERGY PREDICTED BY IDOCK:   -7.37 KCAL/MOL
REMARK 924 INTRA-LIGAND FREE ENERGY PREDICTED BY IDOCK:   -0.33 KCAL/MOL
REMARK 927      BINDING AFFINITY PREDICTED BY RF-SCORE:    0.00 PKD
ROOT
HETATM    1 CL   UNL     1      -7.675   5.880  67.760  1.00  0.00    -0.096 Cl 
HETATM    2  C   UNL     1      -8.966   6.341  68.824  1.00  0.00    -0.125 A  
HETATM    3  C   UNL     1      -9.640   5.303  69.464  1.00  0.00    -0.213 A  
HETATM    4  C   UNL     1     -10.693   5.596  70.318  1.00  0.00    -0.364 A  
HETATM    5  C   UNL     1     -11.095   6.920  70.493  1.00  0.00    -0.332 A  
HETATM    6  C   UNL     1     -10.458   8.009  69.857  1.00  0.00    -0.233 A  
HETATM    7  C   UNL     1      -9.338   7.687  69.038  1.00  0.00    -0.146 A  
HETATM    8 CL   UNL     1      -8.309   8.925  68.364  1.00  0.00    -0.124 Cl 
ENDROOT
BRANCH   6   9
HETATM    9  N   UNL     1     -10.996   9.279  70.032  1.00  0.00    -0.234 NA 
HETATM   10  C   UNL     1     -10.931  10.310  68.979  1.00  0.00    -0.232 C  
HETATM   11  C   UNL     1     -12.267  11.078  68.860  1.00  0.00    -0.030 C  
HETATM   12  N   UNL     1     -12.783  11.632  70.132  1.00  0.00     0.006 NA 
HETATM   13  C   UNL     1     -11.580   9.719  71.316  1.00  0.00    -0.390 C  
HETATM   14  C   UNL     1     -12.898  10.497  71.081  1.00  0.00    -0.416 C  
BRANCH  12  15
HETATM   15  C   UNL     1     -11.916  12.692  70.673  1.00  0.00    -0.106 C  
BRANCH  15  16
HETATM   16  C   UNL     1     -12.607  14.065  70.776  1.00  0.00    -0.431 C  
BRANCH  16  17
HETATM   17  C   UNL     1     -12.091  15.112  69.784  1.00  0.00    -0.354 C  
BRANCH  17  18
HETATM   18  C   UNL     1     -11.760  14.469  68.446  1.00  0.00    -0.333 C  
BRANCH  18  19
HETATM   19  O   UNL     1     -10.374  14.615  68.143  1.00  0.00    -0.225 OA 
BRANCH  19  20
HETATM   20  C   UNL     1     -10.050  15.847  67.625  1.00  0.00    -0.242 A  
HETATM   21  C   UNL     1      -8.973  16.489  68.241  1.00  0.00    -0.214 A  
HETATM   22  C   UNL     1      -8.572  17.747  67.789  1.00  0.00    -0.237 A  
HETATM   23  C   UNL     1      -9.235  18.370  66.723  1.00  0.00    -0.293 A  
HETATM   24  C   UNL     1     -10.286  17.708  66.093  1.00  0.00    -0.334 A  
HETATM   25  C   UNL     1      -8.728  19.678  66.191  1.00  0.00    -0.361 C  
HETATM   26  C   UNL     1     -10.686  16.453  66.537  1.00  0.00    -0.163 A  
HETATM   27  C   UNL     1      -8.012  20.482  67.260  1.00  0.00    -0.361 C  
HETATM   28  C   UNL     1      -7.056  19.640  68.074  1.00  0.00    -0.272 C  
HETATM   29  O   UNL     1      -6.018  20.095  68.544  1.00  0.00    -0.241 OA 
HETATM   30  N   UNL     1      -7.467  18.369  68.373  1.00  0.00    -0.276 N  
HETATM   31  H   UNL     1      -6.933  17.844  69.065  1.00  0.00     0.000 HD 
ENDBRANCH  19  20
ENDBRANCH  18  19
ENDBRANCH  17  18
ENDBRANCH  16  17
ENDBRANCH  15  16
ENDBRANCH  12  15
ENDBRANCH   6   9
TORSDOF 7
ENDMDL
MODEL      187
REMARK 921   NORMALIZED FREE ENERGY PREDICTED BY IDOCK:   -4.32 KCAL/MOL
REMARK 922        TOTAL FREE ENERGY PREDICTED BY IDOCK:   -7.68 KCAL/MOL
REMARK 923 INTER-LIGAND FREE ENERGY PREDICTED BY IDOCK:   -7.23 KCAL/MOL
REMARK 924 INTRA-LIGAND FREE ENERGY PREDICTED BY IDOCK:   -0.46 KCAL/MOL
REMARK 927      BINDING AFFINITY PREDICTED BY RF-SCORE:    0.00 PKD
ROOT
HETATM    1 CL   UNL     1      -9.536   3.603  69.683  1.00  0.00    -0.245 Cl 
HETATM    2  C   UNL     1      -8.481   4.544  68.675  1.00  0.00    -0.085 A  
HETATM    3  C   UNL     1      -7.125   4.229  68.737  1.00  0.00    -0.052 A  
HETATM    4  C   UNL     1      -6.221   4.949  67.971  1.00  0.00    -0.035 A  
HETATM    5  C   UNL     1      -6.671   6.008  67.181  1.00  0.00    -0.061 A  
HETATM    6  C   UNL     1      -8.031   6.380  67.094  1.00  0.00    -0.112 A  
HETATM    7  C   UNL     1      -8.947   5.582  67.839  1.00  0.00    -0.108 A  
HETATM    8 CL   UNL     1     -10.674   5.766  67.665  1.00  0.00    -0.319 Cl 
ENDROOT
BRANCH   6   9
HETATM    9  N   UNL     1      -8.358   7.506  66.347  1.00  0.00    -0.120 NA 
HETATM   10  C   UNL     1      -9.217   8.579  66.882  1.00  0.00    -0.158 C  
HETATM   11  C   UNL     1      -8.672   9.976  66.508  1.00  0.00    -0.132 C  
HETATM   12  N   UNL     1      -8.390  10.171  65.068  1.00  0.00    -0.149 NA 
HETATM   13  C   UNL     1      -7.954   7.661  64.934  1.00  0.00    -0.135 C  
HETATM   14  C   UNL     1      -7.447   9.099  64.663  1.00  0.00    -0.104 C  
BRANCH  12  15
HETATM   15  C   UNL     1      -9.615  10.138  64.251  1.00  0.00    -0.290 C  
BRANCH  15  16
HETATM   16  C   UNL     1     -10.720  11.088  64.753  1.00  0.00    -0.304 C  
BRANCH  16  17
HETATM   17  C   UNL     1     -11.430  11.877  63.648  1.00  0.00    -0.551 C  
BRANCH  17  18
HETATM   18  C   UNL     1     -12.549  12.727  64.228  1.00  0.00    -0.324 C  
BRANCH  18  19
HETATM   19  O   UNL     1     -12.294  14.114  64.016  1.00  0.00    -0.647 OA 
BRANCH  19  20
HETATM   20  C   UNL     1     -11.671  14.728  65.077  1.00  0.00    -0.364 A  
HETATM   21  C   UNL     1     -11.382  16.083  64.896  1.00  0.00    -0.232 A  
HETATM   22  C   UNL     1     -10.745  16.793  65.915  1.00  0.00    -0.163 A  
HETATM   23  C   UNL     1     -10.398  16.163  67.117  1.00  0.00    -0.291 A  
HETATM   24  C   UNL     1     -10.721  14.821  67.303  1.00  0.00    -0.294 A  
HETATM   25  C   UNL     1      -9.800  16.967  68.235  1.00  0.00    -0.266 C  
HETATM   26  C   UNL     1     -11.359  14.111  66.292  1.00  0.00    -0.340 A  
HETATM   27  C   UNL     1      -9.035  18.170  67.718  1.00  0.00    -0.266 C  
HETATM   28  C   UNL     1      -9.790  18.919  66.644  1.00  0.00    -0.358 C  
HETATM   29  O   UNL     1      -9.692  20.133  66.499  1.00  0.00    -0.404 OA 
HETATM   30  N   UNL     1     -10.496  18.157  65.753  1.00  0.00    -0.319 N  
HETATM   31  H   UNL     1     -10.863  18.614  64.919  1.00  0.00     0.000 HD 
ENDBRANCH  19  20
ENDBRANCH  18  19
ENDBRANCH  17  18
ENDBRANCH  16  17
ENDBRANCH  15  16
ENDBRANCH  12  15
ENDBRANCH   6   9
TORSDOF 7
ENDMDL
MODEL      188
REMARK 921   NORMALIZED FREE ENERGY PREDICTED BY IDOCK:   -4.31 KCAL/MOL
REMARK 922        TOTAL FREE ENERGY PREDICTED BY IDOCK:   -7.68 KCAL/MOL
REMARK 923 INTER-LIGAND FREE ENERGY PREDICTED BY IDOCK:   -6.97 KCAL/MOL
REMARK 924 INTRA-LIGAND FREE ENERGY PREDICTED BY IDOCK:   -0.71 KCAL/MOL
REMARK 927      BINDING AFFINITY PREDICTED BY RF-SCORE:    0.00 PKD
ROOT
HETATM    1 CL   UNL     1      -6.485  20.104  66.581  1.00  0.00    -0.221 Cl 
HETATM    2  C   UNL     1      -8.089  19.441  66.583  1.00  0.00    -0.295 A  
HETATM    3  C   UNL     1      -9.136  20.359  66.606  1.00  0.00    -0.325 A  
HETATM    4  C   UNL     1     -10.445  19.901  66.624  1.00  0.00    -0.580 A  
HETATM    5  C   UNL     1     -10.699  18.529  66.666  1.00  0.00    -0.278 A  
HETATM    6  C   UNL     1      -9.675  17.556  66.660  1.00  0.00    -0.299 A  
HETATM    7  C   UNL     1      -8.342  18.052  66.574  1.00  0.00    -0.268 A  
HETATM    8 CL   UNL     1      -6.982  16.985  66.332  1.00  0.00    -0.288 Cl 
ENDROOT
BRANCH   6   9
HETATM    9  N   UNL     1     -10.036  16.220  66.794  1.00  0.00    -0.269 NA 
HETATM   10  C   UNL     1     -10.750  15.491  65.729  1.00  0.00    -0.353 C  
HETATM   11  C   UNL     1     -10.181  14.066  65.545  1.00  0.00    -0.343 C  
HETATM   12  N   UNL     1     -10.091  13.265  66.787  1.00  0.00    -0.253 NA 
HETATM   13  C   UNL     1      -9.823  15.466  68.047  1.00  0.00    -0.216 C  
HETATM   14  C   UNL     1      -9.276  14.049  67.747  1.00  0.00    -0.195 C  
BRANCH  12  15
HETATM   15  C   UNL     1     -11.416  12.950  67.346  1.00  0.00    -0.336 C  
BRANCH  15  16
HETATM   16  C   UNL     1     -11.373  12.477  68.812  1.00  0.00    -0.337 C  
BRANCH  16  17
HETATM   17  C   UNL     1     -12.113  11.162  69.076  1.00  0.00    -0.315 C  
BRANCH  17  18
HETATM   18  C   UNL     1     -11.138   9.995  69.115  1.00  0.00    -0.190 C  
BRANCH  18  19
HETATM   19  O   UNL     1     -10.854   9.529  67.797  1.00  0.00    -0.269 OA 
BRANCH  19  20
HETATM   20  C   UNL     1      -9.588   9.844  67.363  1.00  0.00    -0.155 A  
HETATM   21  C   UNL     1      -9.257   9.366  66.092  1.00  0.00    -0.241 A  
HETATM   22  C   UNL     1      -7.991   9.630  65.566  1.00  0.00    -0.115 A  
HETATM   23  C   UNL     1      -7.052  10.370  66.296  1.00  0.00    -0.123 A  
HETATM   24  C   UNL     1      -7.402  10.871  67.548  1.00  0.00    -0.096 A  
HETATM   25  C   UNL     1      -5.733  10.723  65.674  1.00  0.00    -0.128 C  
HETATM   26  C   UNL     1      -8.663  10.615  68.074  1.00  0.00    -0.126 A  
HETATM   27  C   UNL     1      -5.307   9.700  64.638  1.00  0.00    -0.061 C  
HETATM   28  C   UNL     1      -6.436   9.309  63.711  1.00  0.00    -0.091 C  
HETATM   29  O   UNL     1      -6.245   9.001  62.540  1.00  0.00    -0.095 OA 
HETATM   30  N   UNL     1      -7.675   9.193  64.278  1.00  0.00    -0.115 N  
HETATM   31  H   UNL     1      -8.415   8.760  63.726  1.00  0.00     0.000 HD 
ENDBRANCH  19  20
ENDBRANCH  18  19
ENDBRANCH  17  18
ENDBRANCH  16  17
ENDBRANCH  15  16
ENDBRANCH  12  15
ENDBRANCH   6   9
TORSDOF 7
ENDMDL
MODEL      189
REMARK 921   NORMALIZED FREE ENERGY PREDICTED BY IDOCK:   -4.30 KCAL/MOL
REMARK 922        TOTAL FREE ENERGY PREDICTED BY IDOCK:   -7.66 KCAL/MOL
REMARK 923 INTER-LIGAND FREE ENERGY PREDICTED BY IDOCK:   -7.06 KCAL/MOL
REMARK 924 INTRA-LIGAND FREE ENERGY PREDICTED BY IDOCK:   -0.60 KCAL/MOL
REMARK 927      BINDING AFFINITY PREDICTED BY RF-SCORE:    0.00 PKD
ROOT
HETATM    1 CL   UNL     1      -9.646  19.541  69.384  1.00  0.00    -0.278 Cl 
HETATM    2  C   UNL     1     -10.001  18.623  67.953  1.00  0.00    -0.350 A  
HETATM    3  C   UNL     1     -10.341  19.356  66.818  1.00  0.00    -0.545 A  
HETATM    4  C   UNL     1     -10.652  18.688  65.643  1.00  0.00    -0.171 A  
HETATM    5  C   UNL     1     -10.664  17.293  65.620  1.00  0.00    -0.123 A  
HETATM    6  C   UNL     1     -10.343  16.502  66.746  1.00  0.00    -0.296 A  
HETATM    7  C   UNL     1      -9.963  17.212  67.922  1.00  0.00    -0.292 A  
HETATM    8 CL   UNL     1      -9.325  16.389  69.322  1.00  0.00    -0.222 Cl 
ENDROOT
BRANCH   6   9
HETATM    9  N   UNL     1     -10.474  15.122  66.638  1.00  0.00    -0.281 NA 
HETATM   10  C   UNL     1      -9.309  14.235  66.464  1.00  0.00    -0.271 C  
HETATM   11  C   UNL     1      -9.431  12.966  67.338  1.00  0.00    -0.198 C  
HETATM   12  N   UNL     1     -10.705  12.227  67.187  1.00  0.00    -0.228 NA 
HETATM   13  C   UNL     1     -11.792  14.456  66.589  1.00  0.00    -0.398 C  
HETATM   14  C   UNL     1     -11.798  13.187  67.477  1.00  0.00    -0.360 C  
BRANCH  12  15
HETATM   15  C   UNL     1     -10.855  11.639  65.845  1.00  0.00    -0.287 C  
BRANCH  15  16
HETATM   16  C   UNL     1      -9.591  10.917  65.341  1.00  0.00    -0.271 C  
BRANCH  16  17
HETATM   17  C   UNL     1      -9.752   9.404  65.164  1.00  0.00    -0.106 C  
BRANCH  17  18
HETATM   18  C   UNL     1     -10.092   8.741  66.490  1.00  0.00    -0.279 C  
BRANCH  18  19
HETATM   19  O   UNL     1     -10.097   7.321  66.360  1.00  0.00    -0.131 OA 
BRANCH  19  20
HETATM   20  C   UNL     1     -10.171   6.657  67.562  1.00  0.00    -0.181 A  
HETATM   21  C   UNL     1      -9.341   5.539  67.677  1.00  0.00    -0.116 A  
HETATM   22  C   UNL     1      -9.348   4.796  68.858  1.00  0.00    -0.135 A  
HETATM   23  C   UNL     1     -10.174   5.161  69.929  1.00  0.00    -0.361 A  
HETATM   24  C   UNL     1     -10.973   6.297  69.818  1.00  0.00    -0.444 A  
HETATM   25  C   UNL     1     -10.097   4.405  71.224  1.00  0.00    -0.202 C  
HETATM   26  C   UNL     1     -10.966   7.043  68.645  1.00  0.00    -0.144 A  
HETATM   27  C   UNL     1      -9.658   2.968  71.012  1.00  0.00    -0.224 C  
HETATM   28  C   UNL     1      -8.486   2.854  70.063  1.00  0.00    -0.050 C  
HETATM   29  O   UNL     1      -7.637   1.976  70.173  1.00  0.00    -0.042 OA 
HETATM   30  N   UNL     1      -8.486   3.706  68.992  1.00  0.00    -0.071 N  
HETATM   31  H   UNL     1      -7.813   3.533  68.245  1.00  0.00     0.000 HD 
ENDBRANCH  19  20
ENDBRANCH  18  19
ENDBRANCH  17  18
ENDBRANCH  16  17
ENDBRANCH  15  16
ENDBRANCH  12  15
ENDBRANCH   6   9
TORSDOF 7
ENDMDL
MODEL      190
REMARK 921   NORMALIZED FREE ENERGY PREDICTED BY IDOCK:   -4.30 KCAL/MOL
REMARK 922        TOTAL FREE ENERGY PREDICTED BY IDOCK:   -7.66 KCAL/MOL
REMARK 923 INTER-LIGAND FREE ENERGY PREDICTED BY IDOCK:   -6.97 KCAL/MOL
REMARK 924 INTRA-LIGAND FREE ENERGY PREDICTED BY IDOCK:   -0.69 KCAL/MOL
REMARK 927      BINDING AFFINITY PREDICTED BY RF-SCORE:    0.00 PKD
ROOT
HETATM    1 CL   UNL     1      -9.453   1.594  70.947  1.00  0.00    -0.185 Cl 
HETATM    2  C   UNL     1      -9.408   2.432  69.428  1.00  0.00    -0.097 A  
HETATM    3  C   UNL     1      -9.209   1.646  68.295  1.00  0.00    -0.219 A  
HETATM    4  C   UNL     1      -9.147   2.250  67.047  1.00  0.00    -0.132 A  
HETATM    5  C   UNL     1      -9.239   3.638  66.944  1.00  0.00    -0.204 A  
HETATM    6  C   UNL     1      -9.425   4.483  68.061  1.00  0.00    -0.148 A  
HETATM    7  C   UNL     1      -9.552   3.833  69.323  1.00  0.00    -0.138 A  
HETATM    8 CL   UNL     1     -10.008   4.708  70.762  1.00  0.00    -0.288 Cl 
ENDROOT
BRANCH   6   9
HETATM    9  N   UNL     1      -9.415   5.858  67.854  1.00  0.00    -0.110 NA 
HETATM   10  C   UNL     1     -10.439   6.537  67.039  1.00  0.00    -0.295 C  
HETATM   11  C   UNL     1     -10.899   7.856  67.698  1.00  0.00    -0.055 C  
HETATM   12  N   UNL     1      -9.805   8.780  68.076  1.00  0.00    -0.162 NA 
HETATM   13  C   UNL     1      -8.323   6.722  68.352  1.00  0.00    -0.123 C  
HETATM   14  C   UNL     1      -8.892   8.023  68.968  1.00  0.00    -0.145 C  
BRANCH  12  15
HETATM   15  C   UNL     1      -9.088   9.306  66.903  1.00  0.00    -0.131 C  
BRANCH  15  16
HETATM   16  C   UNL     1      -9.768  10.531  66.260  1.00  0.00    -0.254 C  
BRANCH  16  17
HETATM   17  C   UNL     1     -10.223  11.601  67.257  1.00  0.00    -0.226 C  
BRANCH  17  18
HETATM   18  C   UNL     1      -9.454  12.896  67.046  1.00  0.00    -0.235 C  
BRANCH  18  19
HETATM   19  O   UNL     1      -9.715  13.434  65.751  1.00  0.00    -0.230 OA 
BRANCH  19  20
HETATM   20  C   UNL     1      -9.948  14.789  65.755  1.00  0.00    -0.347 A  
HETATM   21  C   UNL     1      -9.166  15.526  66.648  1.00  0.00    -0.299 A  
HETATM   22  C   UNL     1      -9.333  16.909  66.729  1.00  0.00    -0.251 A  
HETATM   23  C   UNL     1     -10.273  17.565  65.924  1.00  0.00    -0.251 A  
HETATM   24  C   UNL     1     -11.025  16.827  65.012  1.00  0.00    -0.118 A  
HETATM   25  C   UNL     1     -10.370  19.063  65.959  1.00  0.00    -0.512 C  
HETATM   26  C   UNL     1     -10.858  15.450  64.924  1.00  0.00    -0.445 A  
HETATM   27  C   UNL     1      -9.945  19.624  67.303  1.00  0.00    -0.518 C  
HETATM   28  C   UNL     1      -8.671  18.993  67.817  1.00  0.00    -0.298 C  
HETATM   29  O   UNL     1      -7.864  19.612  68.502  1.00  0.00    -0.336 OA 
HETATM   30  N   UNL     1      -8.521  17.653  67.588  1.00  0.00    -0.222 N  
HETATM   31  H   UNL     1      -7.768  17.166  68.074  1.00  0.00     0.000 HD 
ENDBRANCH  19  20
ENDBRANCH  18  19
ENDBRANCH  17  18
ENDBRANCH  16  17
ENDBRANCH  15  16
ENDBRANCH  12  15
ENDBRANCH   6   9
TORSDOF 7
ENDMDL
MODEL      191
REMARK 921   NORMALIZED FREE ENERGY PREDICTED BY IDOCK:   -4.29 KCAL/MOL
REMARK 922        TOTAL FREE ENERGY PREDICTED BY IDOCK:   -7.65 KCAL/MOL
REMARK 923 INTER-LIGAND FREE ENERGY PREDICTED BY IDOCK:   -6.80 KCAL/MOL
REMARK 924 INTRA-LIGAND FREE ENERGY PREDICTED BY IDOCK:   -0.85 KCAL/MOL
REMARK 927      BINDING AFFINITY PREDICTED BY RF-SCORE:    0.00 PKD
ROOT
HETATM    1 CL   UNL     1     -10.713   3.534  72.950  1.00  0.00    -0.223 Cl 
HETATM    2  C   UNL     1      -9.283   4.115  72.155  1.00  0.00    -0.123 A  
HETATM    3  C   UNL     1      -8.099   3.441  72.445  1.00  0.00    -0.068 A  
HETATM    4  C   UNL     1      -6.914   3.861  71.858  1.00  0.00    -0.037 A  
HETATM    5  C   UNL     1      -6.912   4.977  71.021  1.00  0.00    -0.048 A  
HETATM    6  C   UNL     1      -8.080   5.706  70.706  1.00  0.00    -0.117 A  
HETATM    7  C   UNL     1      -9.294   5.215  71.269  1.00  0.00    -0.148 A  
HETATM    8 CL   UNL     1     -10.847   5.861  70.803  1.00  0.00    -0.347 Cl 
ENDROOT
BRANCH   6   9
HETATM    9  N   UNL     1      -7.951   6.855  69.934  1.00  0.00    -0.118 NA 
HETATM   10  C   UNL     1      -7.753   8.186  70.536  1.00  0.00    -0.085 C  
HETATM   11  C   UNL     1      -6.695   9.003  69.760  1.00  0.00    -0.049 C  
HETATM   12  N   UNL     1      -6.924   9.094  68.300  1.00  0.00    -0.075 NA 
HETATM   13  C   UNL     1      -8.104   6.838  68.464  1.00  0.00    -0.120 C  
HETATM   14  C   UNL     1      -7.011   7.704  67.790  1.00  0.00    -0.077 C  
BRANCH  12  15
HETATM   15  C   UNL     1      -8.139   9.858  67.973  1.00  0.00    -0.108 C  
BRANCH  15  16
HETATM   16  C   UNL     1      -7.937  10.890  66.846  1.00  0.00    -0.138 C  
BRANCH  16  17
HETATM   17  C   UNL     1      -9.235  11.412  66.223  1.00  0.00    -0.220 C  
BRANCH  17  18
HETATM   18  C   UNL     1     -10.443  10.931  67.013  1.00  0.00    -0.244 C  
BRANCH  18  19
HETATM   19  O   UNL     1     -11.580  11.751  66.749  1.00  0.00    -0.489 OA 
BRANCH  19  20
HETATM   20  C   UNL     1     -11.690  12.829  67.594  1.00  0.00    -0.367 A  
HETATM   21  C   UNL     1     -12.089  12.526  68.899  1.00  0.00    -0.167 A  
HETATM   22  C   UNL     1     -12.235  13.554  69.830  1.00  0.00    -0.292 A  
HETATM   23  C   UNL     1     -11.981  14.885  69.474  1.00  0.00    -0.347 A  
HETATM   24  C   UNL     1     -11.550  15.175  68.181  1.00  0.00    -0.358 A  
HETATM   25  C   UNL     1     -12.051  15.964  70.515  1.00  0.00    -0.343 C  
HETATM   26  C   UNL     1     -11.399  14.153  67.251  1.00  0.00    -0.349 A  
HETATM   27  C   UNL     1     -13.019  15.610  71.628  1.00  0.00    -0.551 C  
HETATM   28  C   UNL     1     -12.857  14.185  72.106  1.00  0.00    -0.332 C  
HETATM   29  O   UNL     1     -13.063  13.857  73.270  1.00  0.00    -0.501 OA 
HETATM   30  N   UNL     1     -12.590  13.248  71.146  1.00  0.00    -0.361 N  
HETATM   31  H   UNL     1     -12.654  12.264  71.407  1.00  0.00     0.000 HD 
ENDBRANCH  19  20
ENDBRANCH  18  19
ENDBRANCH  17  18
ENDBRANCH  16  17
ENDBRANCH  15  16
ENDBRANCH  12  15
ENDBRANCH   6   9
TORSDOF 7
ENDMDL
MODEL      192
REMARK 921   NORMALIZED FREE ENERGY PREDICTED BY IDOCK:   -4.26 KCAL/MOL
REMARK 922        TOTAL FREE ENERGY PREDICTED BY IDOCK:   -7.61 KCAL/MOL
REMARK 923 INTER-LIGAND FREE ENERGY PREDICTED BY IDOCK:   -6.96 KCAL/MOL
REMARK 924 INTRA-LIGAND FREE ENERGY PREDICTED BY IDOCK:   -0.65 KCAL/MOL
REMARK 927      BINDING AFFINITY PREDICTED BY RF-SCORE:    0.00 PKD
ROOT
HETATM    1 CL   UNL     1      -8.845   4.348  68.462  1.00  0.00    -0.121 Cl 
HETATM    2  C   UNL     1      -8.220   5.925  68.831  1.00  0.00    -0.103 A  
HETATM    3  C   UNL     1      -7.250   5.986  69.829  1.00  0.00    -0.074 A  
HETATM    4  C   UNL     1      -6.716   7.215  70.187  1.00  0.00    -0.051 A  
HETATM    5  C   UNL     1      -7.187   8.379  69.579  1.00  0.00    -0.061 A  
HETATM    6  C   UNL     1      -8.179   8.376  68.574  1.00  0.00    -0.124 A  
HETATM    7  C   UNL     1      -8.663   7.095  68.177  1.00  0.00    -0.127 A  
HETATM    8 CL   UNL     1      -9.720   6.901  66.802  1.00  0.00    -0.221 Cl 
ENDROOT
BRANCH   6   9
HETATM    9  N   UNL     1      -8.638   9.599  68.099  1.00  0.00    -0.119 NA 
HETATM   10  C   UNL     1      -7.847  10.837  68.226  1.00  0.00    -0.115 C  
HETATM   11  C   UNL     1      -7.908  11.679  66.932  1.00  0.00    -0.156 C  
HETATM   12  N   UNL     1      -9.274  11.955  66.431  1.00  0.00    -0.214 NA 
HETATM   13  C   UNL     1      -9.990   9.765  67.525  1.00  0.00    -0.184 C  
HETATM   14  C   UNL     1      -9.941  10.643  66.250  1.00  0.00    -0.222 C  
BRANCH  12  15
HETATM   15  C   UNL     1     -10.040  12.819  67.345  1.00  0.00    -0.219 C  
BRANCH  15  16
HETATM   16  C   UNL     1     -10.115  14.290  66.889  1.00  0.00    -0.264 C  
BRANCH  16  17
HETATM   17  C   UNL     1     -10.798  15.230  67.888  1.00  0.00    -0.288 C  
BRANCH  17  18
HETATM   18  C   UNL     1     -10.820  14.613  69.278  1.00  0.00    -0.258 C  
BRANCH  18  19
HETATM   19  O   UNL     1     -12.142  14.615  69.813  1.00  0.00    -0.302 OA 
BRANCH  19  20
HETATM   20  C   UNL     1     -12.453  13.477  70.517  1.00  0.00    -0.302 A  
HETATM   21  C   UNL     1     -11.904  12.295  70.013  1.00  0.00    -0.372 A  
HETATM   22  C   UNL     1     -12.167  11.085  70.657  1.00  0.00    -0.385 A  
HETATM   23  C   UNL     1     -12.971  11.043  71.804  1.00  0.00    -0.544 A  
HETATM   24  C   UNL     1     -13.486  12.230  72.319  1.00  0.00    -0.365 A  
HETATM   25  C   UNL     1     -13.163   9.746  72.534  1.00  0.00    -0.225 C  
HETATM   26  C   UNL     1     -13.223  13.439  71.684  1.00  0.00    -0.449 A  
HETATM   27  C   UNL     1     -13.041   8.553  71.606  1.00  0.00    -0.368 C  
HETATM   28  C   UNL     1     -11.854   8.663  70.675  1.00  0.00    -0.102 C  
HETATM   29  O   UNL     1     -11.233   7.679  70.286  1.00  0.00    -0.265 OA 
HETATM   30  N   UNL     1     -11.582   9.909  70.181  1.00  0.00    -0.359 N  
HETATM   31  H   UNL     1     -10.910   9.985  69.418  1.00  0.00     0.000 HD 
ENDBRANCH  19  20
ENDBRANCH  18  19
ENDBRANCH  17  18
ENDBRANCH  16  17
ENDBRANCH  15  16
ENDBRANCH  12  15
ENDBRANCH   6   9
TORSDOF 7
ENDMDL
MODEL      193
REMARK 921   NORMALIZED FREE ENERGY PREDICTED BY IDOCK:   -4.26 KCAL/MOL
REMARK 922        TOTAL FREE ENERGY PREDICTED BY IDOCK:   -7.60 KCAL/MOL
REMARK 923 INTER-LIGAND FREE ENERGY PREDICTED BY IDOCK:   -6.44 KCAL/MOL
REMARK 924 INTRA-LIGAND FREE ENERGY PREDICTED BY IDOCK:   -1.16 KCAL/MOL
REMARK 927      BINDING AFFINITY PREDICTED BY RF-SCORE:    0.00 PKD
ROOT
HETATM    1 CL   UNL     1     -10.937  12.950  66.277  1.00  0.00    -0.296 Cl 
HETATM    2  C   UNL     1     -11.440  12.649  67.910  1.00  0.00    -0.309 A  
HETATM    3  C   UNL     1     -11.798  13.766  68.662  1.00  0.00    -0.409 A  
HETATM    4  C   UNL     1     -12.196  13.603  69.981  1.00  0.00    -0.395 A  
HETATM    5  C   UNL     1     -12.190  12.330  70.554  1.00  0.00    -0.387 A  
HETATM    6  C   UNL     1     -11.821  11.167  69.842  1.00  0.00    -0.363 A  
HETATM    7  C   UNL     1     -11.481  11.354  68.471  1.00  0.00    -0.297 A  
HETATM    8 CL   UNL     1     -11.221  10.001  67.399  1.00  0.00    -0.167 Cl 
ENDROOT
BRANCH   6   9
HETATM    9  N   UNL     1     -11.766   9.963  70.535  1.00  0.00    -0.286 NA 
HETATM   10  C   UNL     1     -10.491   9.277  70.815  1.00  0.00    -0.276 C  
HETATM   11  C   UNL     1     -10.457   8.716  72.255  1.00  0.00    -0.306 C  
HETATM   12  N   UNL     1     -11.620   7.877  72.624  1.00  0.00    -0.388 NA 
HETATM   13  C   UNL     1     -12.983   9.234  70.950  1.00  0.00    -0.016 C  
HETATM   14  C   UNL     1     -12.835   8.696  72.394  1.00  0.00    -0.355 C  
BRANCH  12  15
HETATM   15  C   UNL     1     -11.670   6.623  71.854  1.00  0.00    -0.313 C  
BRANCH  15  16
HETATM   16  C   UNL     1     -11.087   5.410  72.605  1.00  0.00    -0.332 C  
BRANCH  16  17
HETATM   17  C   UNL     1     -10.028   4.627  71.824  1.00  0.00    -0.260 C  
BRANCH  17  18
HETATM   18  C   UNL     1      -9.924   5.141  70.396  1.00  0.00    -0.246 C  
BRANCH  18  19
HETATM   19  O   UNL     1      -8.559   5.275  70.004  1.00  0.00    -0.108 OA 
BRANCH  19  20
HETATM   20  C   UNL     1      -8.397   5.767  68.731  1.00  0.00    -0.104 A  
HETATM   21  C   UNL     1      -7.839   4.874  67.812  1.00  0.00    -0.094 A  
HETATM   22  C   UNL     1      -7.630   5.283  66.495  1.00  0.00    -0.088 A  
HETATM   23  C   UNL     1      -7.977   6.577  66.082  1.00  0.00    -0.110 A  
HETATM   24  C   UNL     1      -8.565   7.449  66.996  1.00  0.00    -0.119 A  
HETATM   25  C   UNL     1      -7.832   6.965  64.640  1.00  0.00    -0.116 C  
HETATM   26  C   UNL     1      -8.779   7.044  68.308  1.00  0.00    -0.127 A  
HETATM   27  C   UNL     1      -6.730   6.180  63.953  1.00  0.00    -0.037 C  
HETATM   28  C   UNL     1      -6.779   4.705  64.280  1.00  0.00    -0.044 C  
HETATM   29  O   UNL     1      -6.428   3.845  63.479  1.00  0.00    -0.028 OA 
HETATM   30  N   UNL     1      -7.115   4.378  65.565  1.00  0.00    -0.066 N  
HETATM   31  H   UNL     1      -6.981   3.411  65.862  1.00  0.00     0.000 HD 
ENDBRANCH  19  20
ENDBRANCH  18  19
ENDBRANCH  17  18
ENDBRANCH  16  17
ENDBRANCH  15  16
ENDBRANCH  12  15
ENDBRANCH   6   9
TORSDOF 7
ENDMDL
MODEL      194
REMARK 921   NORMALIZED FREE ENERGY PREDICTED BY IDOCK:   -4.25 KCAL/MOL
REMARK 922        TOTAL FREE ENERGY PREDICTED BY IDOCK:   -7.60 KCAL/MOL
REMARK 923 INTER-LIGAND FREE ENERGY PREDICTED BY IDOCK:   -6.38 KCAL/MOL
REMARK 924 INTRA-LIGAND FREE ENERGY PREDICTED BY IDOCK:   -1.21 KCAL/MOL
REMARK 927      BINDING AFFINITY PREDICTED BY RF-SCORE:    0.00 PKD
ROOT
HETATM    1 CL   UNL     1     -10.052  19.940  68.535  1.00  0.00    -0.549 Cl 
HETATM    2  C   UNL     1     -10.034  18.207  68.449  1.00  0.00    -0.380 A  
HETATM    3  C   UNL     1     -11.265  17.569  68.587  1.00  0.00     0.473 A  
HETATM    4  C   UNL     1     -11.324  16.183  68.543  1.00  0.00    -0.359 A  
HETATM    5  C   UNL     1     -10.149  15.443  68.408  1.00  0.00    -0.215 A  
HETATM    6  C   UNL     1      -8.875  16.038  68.281  1.00  0.00    -0.182 A  
HETATM    7  C   UNL     1      -8.848  17.463  68.261  1.00  0.00    -0.264 A  
HETATM    8 CL   UNL     1      -7.391  18.347  67.888  1.00  0.00    -0.234 Cl 
ENDROOT
BRANCH   6   9
HETATM    9  N   UNL     1      -7.761  15.206  68.241  1.00  0.00    -0.113 NA 
HETATM   10  C   UNL     1      -6.652  15.426  67.295  1.00  0.00    -0.013 C  
HETATM   11  C   UNL     1      -5.281  15.216  67.976  1.00  0.00    -0.120 C  
HETATM   12  N   UNL     1      -5.133  13.932  68.700  1.00  0.00    -0.084 NA 
HETATM   13  C   UNL     1      -7.656  13.988  69.071  1.00  0.00    -0.027 C  
HETATM   14  C   UNL     1      -6.240  13.863  69.685  1.00  0.00    -0.124 C  
BRANCH  12  15
HETATM   15  C   UNL     1      -5.157  12.774  67.791  1.00  0.00    -0.103 C  
BRANCH  15  16
HETATM   16  C   UNL     1      -5.286  11.420  68.517  1.00  0.00    -0.042 C  
BRANCH  16  17
HETATM   17  C   UNL     1      -6.295  10.455  67.885  1.00  0.00    -0.060 C  
BRANCH  17  18
HETATM   18  C   UNL     1      -7.213  11.192  66.922  1.00  0.00    -0.138 C  
BRANCH  18  19
HETATM   19  O   UNL     1      -8.508  10.594  66.900  1.00  0.00    -0.124 OA 
BRANCH  19  20
HETATM   20  C   UNL     1      -9.379  11.197  66.025  1.00  0.00    -0.206 A  
HETATM   21  C   UNL     1      -9.430  12.592  66.101  1.00  0.00    -0.184 A  
HETATM   22  C   UNL     1     -10.289  13.296  65.256  1.00  0.00    -0.312 A  
HETATM   23  C   UNL     1     -11.096  12.621  64.331  1.00  0.00    -0.385 A  
HETATM   24  C   UNL     1     -11.014  11.234  64.238  1.00  0.00    -0.358 A  
HETATM   25  C   UNL     1     -11.941  13.402  63.368  1.00  0.00    -0.406 C  
HETATM   26  C   UNL     1     -10.157  10.528  65.075  1.00  0.00    -0.390 A  
HETATM   27  C   UNL     1     -12.339  14.753  63.933  1.00  0.00     0.030 C  
HETATM   28  C   UNL     1     -11.181  15.470  64.589  1.00  0.00    -0.371 C  
HETATM   29  O   UNL     1     -11.081  16.692  64.589  1.00  0.00    -0.763 OA 
HETATM   30  N   UNL     1     -10.307  14.692  65.299  1.00  0.00    -0.376 N  
HETATM   31  H   UNL     1      -9.627  15.160  65.897  1.00  0.00     0.000 HD 
ENDBRANCH  19  20
ENDBRANCH  18  19
ENDBRANCH  17  18
ENDBRANCH  16  17
ENDBRANCH  15  16
ENDBRANCH  12  15
ENDBRANCH   6   9
TORSDOF 7
ENDMDL
MODEL      195
REMARK 921   NORMALIZED FREE ENERGY PREDICTED BY IDOCK:   -4.24 KCAL/MOL
REMARK 922        TOTAL FREE ENERGY PREDICTED BY IDOCK:   -7.58 KCAL/MOL
REMARK 923 INTER-LIGAND FREE ENERGY PREDICTED BY IDOCK:   -6.12 KCAL/MOL
REMARK 924 INTRA-LIGAND FREE ENERGY PREDICTED BY IDOCK:   -1.46 KCAL/MOL
REMARK 927      BINDING AFFINITY PREDICTED BY RF-SCORE:    0.00 PKD
ROOT
HETATM    1 CL   UNL     1     -10.842  11.359  65.958  1.00  0.00    -0.326 Cl 
HETATM    2  C   UNL     1     -11.200  11.182  67.647  1.00  0.00    -0.297 A  
HETATM    3  C   UNL     1     -11.716  12.305  68.289  1.00  0.00    -0.392 A  
HETATM    4  C   UNL     1     -12.012  12.241  69.643  1.00  0.00    -0.347 A  
HETATM    5  C   UNL     1     -11.748  11.071  70.356  1.00  0.00    -0.437 A  
HETATM    6  C   UNL     1     -11.210   9.909  69.758  1.00  0.00    -0.235 A  
HETATM    7  C   UNL     1     -10.978   9.979  68.353  1.00  0.00    -0.217 A  
HETATM    8 CL   UNL     1     -10.531   8.569  67.427  1.00  0.00    -0.350 Cl 
ENDROOT
BRANCH   6   9
HETATM    9  N   UNL     1     -10.903   8.829  70.577  1.00  0.00    -0.227 NA 
HETATM   10  C   UNL     1      -9.882   8.914  71.637  1.00  0.00    -0.317 C  
HETATM   11  C   UNL     1     -10.353   8.213  72.931  1.00  0.00    -0.263 C  
HETATM   12  N   UNL     1     -10.833   6.824  72.748  1.00  0.00    -0.248 NA 
HETATM   13  C   UNL     1     -11.504   7.493  70.380  1.00  0.00    -0.198 C  
HETATM   14  C   UNL     1     -11.917   6.872  71.737  1.00  0.00    -0.333 C  
BRANCH  12  15
HETATM   15  C   UNL     1      -9.755   5.911  72.330  1.00  0.00    -0.159 C  
BRANCH  15  16
HETATM   16  C   UNL     1     -10.263   4.621  71.658  1.00  0.00    -0.233 C  
BRANCH  16  17
HETATM   17  C   UNL     1      -9.388   4.119  70.505  1.00  0.00    -0.211 C  
BRANCH  17  18
HETATM   18  C   UNL     1      -8.624   5.270  69.869  1.00  0.00    -0.102 C  
BRANCH  18  19
HETATM   19  O   UNL     1      -7.736   4.793  68.860  1.00  0.00    -0.071 OA 
BRANCH  19  20
HETATM   20  C   UNL     1      -7.804   5.504  67.685  1.00  0.00    -0.097 A  
HETATM   21  C   UNL     1      -7.211   6.769  67.719  1.00  0.00    -0.091 A  
HETATM   22  C   UNL     1      -7.233   7.570  66.577  1.00  0.00    -0.076 A  
HETATM   23  C   UNL     1      -7.839   7.118  65.397  1.00  0.00    -0.119 A  
HETATM   24  C   UNL     1      -8.397   5.842  65.362  1.00  0.00    -0.149 A  
HETATM   25  C   UNL     1      -7.768   7.955  64.153  1.00  0.00    -0.132 C  
HETATM   26  C   UNL     1      -8.374   5.039  66.496  1.00  0.00    -0.107 A  
HETATM   27  C   UNL     1      -7.658   9.434  64.474  1.00  0.00    -0.110 C  
HETATM   28  C   UNL     1      -6.651   9.716  65.566  1.00  0.00    -0.080 C  
HETATM   29  O   UNL     1      -5.991  10.749  65.598  1.00  0.00    -0.133 OA 
HETATM   30  N   UNL     1      -6.601   8.815  66.595  1.00  0.00    -0.063 N  
HETATM   31  H   UNL     1      -6.068   9.068  67.427  1.00  0.00     0.000 HD 
ENDBRANCH  19  20
ENDBRANCH  18  19
ENDBRANCH  17  18
ENDBRANCH  16  17
ENDBRANCH  15  16
ENDBRANCH  12  15
ENDBRANCH   6   9
TORSDOF 7
ENDMDL
MODEL      196
REMARK 921   NORMALIZED FREE ENERGY PREDICTED BY IDOCK:   -4.24 KCAL/MOL
REMARK 922        TOTAL FREE ENERGY PREDICTED BY IDOCK:   -7.58 KCAL/MOL
REMARK 923 INTER-LIGAND FREE ENERGY PREDICTED BY IDOCK:   -7.75 KCAL/MOL
REMARK 924 INTRA-LIGAND FREE ENERGY PREDICTED BY IDOCK:    0.17 KCAL/MOL
REMARK 927      BINDING AFFINITY PREDICTED BY RF-SCORE:    0.00 PKD
ROOT
HETATM    1 CL   UNL     1     -10.082  19.763  69.486  1.00  0.00    -0.291 Cl 
HETATM    2  C   UNL     1     -10.347  18.970  67.965  1.00  0.00    -0.394 A  
HETATM    3  C   UNL     1     -10.534  19.798  66.861  1.00  0.00    -0.596 A  
HETATM    4  C   UNL     1     -10.767  19.234  65.615  1.00  0.00    -0.335 A  
HETATM    5  C   UNL     1     -10.855  17.847  65.488  1.00  0.00     0.112 A  
HETATM    6  C   UNL     1     -10.689  16.962  66.577  1.00  0.00    -0.087 A  
HETATM    7  C   UNL     1     -10.385  17.564  67.832  1.00  0.00    -0.371 A  
HETATM    8 CL   UNL     1      -9.932  16.609  69.221  1.00  0.00    -0.249 Cl 
ENDROOT
BRANCH   6   9
HETATM    9  N   UNL     1     -10.885  15.604  66.355  1.00  0.00    -0.289 NA 
HETATM   10  C   UNL     1     -10.960  14.632  67.462  1.00  0.00    -0.298 C  
HETATM   11  C   UNL     1     -12.087  13.600  67.230  1.00  0.00    -0.345 C  
HETATM   12  N   UNL     1     -12.053  12.924  65.913  1.00  0.00    -0.445 NA 
HETATM   13  C   UNL     1     -10.931  15.024  64.997  1.00  0.00    -0.423 C  
HETATM   14  C   UNL     1     -12.078  13.989  64.881  1.00  0.00    -0.420 C  
BRANCH  12  15
HETATM   15  C   UNL     1     -10.870  12.061  65.759  1.00  0.00    -0.287 C  
BRANCH  15  16
HETATM   16  C   UNL     1     -10.227  11.648  67.097  1.00  0.00    -0.240 C  
BRANCH  16  17
HETATM   17  C   UNL     1      -8.724  11.931  67.195  1.00  0.00    -0.176 C  
BRANCH  17  18
HETATM   18  C   UNL     1      -8.202  11.593  68.583  1.00  0.00    -0.110 C  
BRANCH  18  19
HETATM   19  O   UNL     1      -7.464  10.373  68.563  1.00  0.00    -0.083 OA 
BRANCH  19  20
HETATM   20  C   UNL     1      -7.884   9.460  69.500  1.00  0.00    -0.091 A  
HETATM   21  C   UNL     1      -9.138   9.716  70.062  1.00  0.00    -0.269 A  
HETATM   22  C   UNL     1      -9.649   8.849  71.028  1.00  0.00    -0.255 A  
HETATM   23  C   UNL     1      -8.922   7.724  71.438  1.00  0.00    -0.151 A  
HETATM   24  C   UNL     1      -7.688   7.457  70.848  1.00  0.00    -0.088 A  
HETATM   25  C   UNL     1      -9.531   6.753  72.407  1.00  0.00    -0.153 C  
HETATM   26  C   UNL     1      -7.177   8.316  69.882  1.00  0.00    -0.059 A  
HETATM   27  C   UNL     1     -10.535   7.427  73.323  1.00  0.00    -0.424 C  
HETATM   28  C   UNL     1     -11.471   8.351  72.577  1.00  0.00    -0.352 C  
HETATM   29  O   UNL     1     -12.632   8.532  72.929  1.00  0.00    -0.266 OA 
HETATM   30  N   UNL     1     -10.921   9.078  71.557  1.00  0.00    -0.321 N  
HETATM   31  H   UNL     1     -11.476   9.835  71.157  1.00  0.00     0.000 HD 
ENDBRANCH  19  20
ENDBRANCH  18  19
ENDBRANCH  17  18
ENDBRANCH  16  17
ENDBRANCH  15  16
ENDBRANCH  12  15
ENDBRANCH   6   9
TORSDOF 7
ENDMDL
MODEL      197
REMARK 921   NORMALIZED FREE ENERGY PREDICTED BY IDOCK:   -4.24 KCAL/MOL
REMARK 922        TOTAL FREE ENERGY PREDICTED BY IDOCK:   -7.58 KCAL/MOL
REMARK 923 INTER-LIGAND FREE ENERGY PREDICTED BY IDOCK:   -6.94 KCAL/MOL
REMARK 924 INTRA-LIGAND FREE ENERGY PREDICTED BY IDOCK:   -0.64 KCAL/MOL
REMARK 927      BINDING AFFINITY PREDICTED BY RF-SCORE:    0.00 PKD
ROOT
HETATM    1 CL   UNL     1      -7.845   8.493  65.260  1.00  0.00    -0.100 Cl 
HETATM    2  C   UNL     1      -7.434   7.324  66.475  1.00  0.00    -0.088 A  
HETATM    3  C   UNL     1      -6.563   6.309  66.085  1.00  0.00    -0.048 A  
HETATM    4  C   UNL     1      -6.202   5.330  67.001  1.00  0.00    -0.031 A  
HETATM    5  C   UNL     1      -6.748   5.347  68.285  1.00  0.00    -0.054 A  
HETATM    6  C   UNL     1      -7.647   6.343  68.726  1.00  0.00    -0.093 A  
HETATM    7  C   UNL     1      -7.949   7.374  67.789  1.00  0.00    -0.118 A  
HETATM    8 CL   UNL     1      -8.859   8.791  68.247  1.00  0.00    -0.141 Cl 
ENDROOT
BRANCH   6   9
HETATM    9  N   UNL     1      -8.199   6.215  69.996  1.00  0.00    -0.121 NA 
HETATM   10  C   UNL     1      -9.621   5.885  70.202  1.00  0.00    -0.162 C  
HETATM   11  C   UNL     1      -9.801   4.853  71.339  1.00  0.00    -0.186 C  
HETATM   12  N   UNL     1      -9.133   5.205  72.612  1.00  0.00    -0.131 NA 
HETATM   13  C   UNL     1      -7.428   6.498  71.224  1.00  0.00    -0.089 C  
HETATM   14  C   UNL     1      -7.698   5.420  72.302  1.00  0.00    -0.102 C  
BRANCH  12  15
HETATM   15  C   UNL     1      -9.726   6.397  73.242  1.00  0.00    -0.163 C  
BRANCH  15  16
HETATM   16  C   UNL     1     -11.139   6.731  72.727  1.00  0.00    -0.292 C  
BRANCH  16  17
HETATM   17  C   UNL     1     -11.464   8.228  72.691  1.00  0.00    -0.423 C  
BRANCH  17  18
HETATM   18  C   UNL     1     -12.803   8.472  72.013  1.00  0.00    -0.374 C  
BRANCH  18  19
HETATM   19  O   UNL     1     -13.360   9.718  72.425  1.00  0.00    -0.412 OA 
BRANCH  19  20
HETATM   20  C   UNL     1     -12.975  10.779  71.641  1.00  0.00    -0.476 A  
HETATM   21  C   UNL     1     -12.505  10.441  70.369  1.00  0.00    -0.348 A  
HETATM   22  C   UNL     1     -12.085  11.450  69.501  1.00  0.00    -0.302 A  
HETATM   23  C   UNL     1     -12.134  12.795  69.888  1.00  0.00    -0.329 A  
HETATM   24  C   UNL     1     -12.636  13.126  71.145  1.00  0.00    -0.403 A  
HETATM   25  C   UNL     1     -11.767  13.869  68.905  1.00  0.00    -0.373 C  
HETATM   26  C   UNL     1     -13.060  12.125  72.011  1.00  0.00    -0.462 A  
HETATM   27  C   UNL     1     -10.769  13.374  67.876  1.00  0.00    -0.259 C  
HETATM   28  C   UNL     1     -11.132  12.014  67.324  1.00  0.00    -0.285 C  
HETATM   29  O   UNL     1     -10.870  11.683  66.172  1.00  0.00    -0.276 OA 
HETATM   30  N   UNL     1     -11.657  11.117  68.214  1.00  0.00    -0.297 N  
HETATM   31  H   UNL     1     -11.742  10.145  67.918  1.00  0.00     0.000 HD 
ENDBRANCH  19  20
ENDBRANCH  18  19
ENDBRANCH  17  18
ENDBRANCH  16  17
ENDBRANCH  15  16
ENDBRANCH  12  15
ENDBRANCH   6   9
TORSDOF 7
ENDMDL
MODEL      198
REMARK 921   NORMALIZED FREE ENERGY PREDICTED BY IDOCK:   -4.24 KCAL/MOL
REMARK 922        TOTAL FREE ENERGY PREDICTED BY IDOCK:   -7.58 KCAL/MOL
REMARK 923 INTER-LIGAND FREE ENERGY PREDICTED BY IDOCK:   -7.20 KCAL/MOL
REMARK 924 INTRA-LIGAND FREE ENERGY PREDICTED BY IDOCK:   -0.38 KCAL/MOL
REMARK 927      BINDING AFFINITY PREDICTED BY RF-SCORE:    0.00 PKD
ROOT
HETATM    1 CL   UNL     1      -9.723   2.808  72.614  1.00  0.00    -0.178 Cl 
HETATM    2  C   UNL     1      -9.597   3.414  70.992  1.00  0.00    -0.169 A  
HETATM    3  C   UNL     1      -9.078   2.535  70.044  1.00  0.00    -0.182 A  
HETATM    4  C   UNL     1      -8.935   2.956  68.730  1.00  0.00    -0.187 A  
HETATM    5  C   UNL     1      -9.267   4.265  68.381  1.00  0.00    -0.190 A  
HETATM    6  C   UNL     1      -9.782   5.201  69.305  1.00  0.00    -0.172 A  
HETATM    7  C   UNL     1      -9.983   4.724  70.633  1.00  0.00    -0.230 A  
HETATM    8 CL   UNL     1     -10.815   5.679  71.834  1.00  0.00    -0.301 Cl 
ENDROOT
BRANCH   6   9
HETATM    9  N   UNL     1      -9.997   6.505  68.872  1.00  0.00    -0.147 NA 
HETATM   10  C   UNL     1      -9.282   7.654  69.457  1.00  0.00    -0.150 C  
HETATM   11  C   UNL     1      -8.827   8.650  68.366  1.00  0.00    -0.142 C  
HETATM   12  N   UNL     1      -9.895   9.088  67.438  1.00  0.00    -0.177 NA 
HETATM   13  C   UNL     1     -11.026   6.842  67.867  1.00  0.00    -0.183 C  
HETATM   14  C   UNL     1     -10.476   7.862  66.839  1.00  0.00    -0.318 C  
BRANCH  12  15
HETATM   15  C   UNL     1     -10.928   9.891  68.115  1.00  0.00    -0.207 C  
BRANCH  15  16
HETATM   16  C   UNL     1     -10.359  11.056  68.948  1.00  0.00    -0.223 C  
BRANCH  16  17
HETATM   17  C   UNL     1     -10.329  12.403  68.219  1.00  0.00    -0.232 C  
BRANCH  17  18
HETATM   18  C   UNL     1      -8.964  12.643  67.591  1.00  0.00    -0.186 C  
BRANCH  18  19
HETATM   19  O   UNL     1      -9.020  13.717  66.653  1.00  0.00    -0.211 OA 
BRANCH  19  20
HETATM   20  C   UNL     1      -9.167  14.952  67.238  1.00  0.00    -0.204 A  
HETATM   21  C   UNL     1      -9.577  15.974  66.379  1.00  0.00    -0.309 A  
HETATM   22  C   UNL     1      -9.748  17.266  66.878  1.00  0.00    -0.273 A  
HETATM   23  C   UNL     1      -9.517  17.547  68.231  1.00  0.00    -0.296 A  
HETATM   24  C   UNL     1      -9.141  16.515  69.088  1.00  0.00    -0.184 A  
HETATM   25  C   UNL     1      -9.798  18.921  68.767  1.00  0.00    -0.461 C  
HETATM   26  C   UNL     1      -8.974  15.226  68.596  1.00  0.00    -0.193 A  
HETATM   27  C   UNL     1      -9.647  19.985  67.696  1.00  0.00    -0.516 C  
HETATM   28  C   UNL     1     -10.305  19.594  66.393  1.00  0.00    -0.504 C  
HETATM   29  O   UNL     1     -10.807  20.420  65.639  1.00  0.00    -0.112 OA 
HETATM   30  N   UNL     1     -10.202  18.278  66.030  1.00  0.00    -0.360 N  
HETATM   31  H   UNL     1     -10.474  18.021  65.082  1.00  0.00     0.000 HD 
ENDBRANCH  19  20
ENDBRANCH  18  19
ENDBRANCH  17  18
ENDBRANCH  16  17
ENDBRANCH  15  16
ENDBRANCH  12  15
ENDBRANCH   6   9
TORSDOF 7
ENDMDL
MODEL      199
REMARK 921   NORMALIZED FREE ENERGY PREDICTED BY IDOCK:   -4.24 KCAL/MOL
REMARK 922        TOTAL FREE ENERGY PREDICTED BY IDOCK:   -7.57 KCAL/MOL
REMARK 923 INTER-LIGAND FREE ENERGY PREDICTED BY IDOCK:   -6.83 KCAL/MOL
REMARK 924 INTRA-LIGAND FREE ENERGY PREDICTED BY IDOCK:   -0.75 KCAL/MOL
REMARK 927      BINDING AFFINITY PREDICTED BY RF-SCORE:    0.00 PKD
ROOT
HETATM    1 CL   UNL     1     -12.659  14.494  64.702  1.00  0.00    -0.338 Cl 
HETATM    2  C   UNL     1     -11.486  13.221  64.835  1.00  0.00    -0.318 A  
HETATM    3  C   UNL     1     -10.997  12.705  63.637  1.00  0.00    -0.464 A  
HETATM    4  C   UNL     1     -10.069  11.675  63.666  1.00  0.00    -0.435 A  
HETATM    5  C   UNL     1      -9.668  11.137  64.889  1.00  0.00    -0.297 A  
HETATM    6  C   UNL     1     -10.144  11.611  66.132  1.00  0.00    -0.224 A  
HETATM    7  C   UNL     1     -11.046  12.713  66.077  1.00  0.00    -0.287 A  
HETATM    8 CL   UNL     1     -11.549  13.558  67.519  1.00  0.00    -0.361 Cl 
ENDROOT
BRANCH   6   9
HETATM    9  N   UNL     1      -9.748  10.945  67.285  1.00  0.00    -0.164 NA 
HETATM   10  C   UNL     1      -9.983   9.502  67.478  1.00  0.00    -0.186 C  
HETATM   11  C   UNL     1      -8.753   8.809  68.105  1.00  0.00    -0.134 C  
HETATM   12  N   UNL     1      -8.241   9.446  69.340  1.00  0.00    -0.110 NA 
HETATM   13  C   UNL     1      -9.155  11.651  68.441  1.00  0.00    -0.180 C  
HETATM   14  C   UNL     1      -7.949  10.861  69.006  1.00  0.00    -0.131 C  
BRANCH  12  15
HETATM   15  C   UNL     1      -9.196   9.349  70.456  1.00  0.00    -0.259 C  
BRANCH  15  16
HETATM   16  C   UNL     1      -8.837   8.260  71.486  1.00  0.00    -0.216 C  
BRANCH  16  17
HETATM   17  C   UNL     1      -8.103   7.049  70.900  1.00  0.00    -0.109 C  
BRANCH  17  18
HETATM   18  C   UNL     1      -8.794   5.755  71.303  1.00  0.00    -0.136 C  
BRANCH  18  19
HETATM   19  O   UNL     1     -10.134   5.723  70.814  1.00  0.00    -0.184 OA 
BRANCH  19  20
HETATM   20  C   UNL     1     -10.221   5.485  69.463  1.00  0.00    -0.261 A  
HETATM   21  C   UNL     1      -9.521   4.365  69.008  1.00  0.00    -0.237 A  
HETATM   22  C   UNL     1      -9.544   4.044  67.650  1.00  0.00    -0.159 A  
HETATM   23  C   UNL     1     -10.264   4.830  66.740  1.00  0.00    -0.253 A  
HETATM   24  C   UNL     1     -10.987   5.925  67.207  1.00  0.00    -0.276 A  
HETATM   25  C   UNL     1     -10.354   4.413  65.301  1.00  0.00    -0.220 C  
HETATM   26  C   UNL     1     -10.970   6.246  68.560  1.00  0.00    -0.421 A  
HETATM   27  C   UNL     1      -9.142   3.607  64.871  1.00  0.00    -0.136 C  
HETATM   28  C   UNL     1      -8.760   2.551  65.883  1.00  0.00    -0.125 C  
HETATM   29  O   UNL     1      -8.257   1.481  65.556  1.00  0.00    -0.073 OA 
HETATM   30  N   UNL     1      -8.883   2.899  67.201  1.00  0.00    -0.132 N  
HETATM   31  H   UNL     1      -8.467   2.283  67.899  1.00  0.00     0.000 HD 
ENDBRANCH  19  20
ENDBRANCH  18  19
ENDBRANCH  17  18
ENDBRANCH  16  17
ENDBRANCH  15  16
ENDBRANCH  12  15
ENDBRANCH   6   9
TORSDOF 7
ENDMDL
MODEL      200
REMARK 921   NORMALIZED FREE ENERGY PREDICTED BY IDOCK:   -4.24 KCAL/MOL
REMARK 922        TOTAL FREE ENERGY PREDICTED BY IDOCK:   -7.57 KCAL/MOL
REMARK 923 INTER-LIGAND FREE ENERGY PREDICTED BY IDOCK:   -6.86 KCAL/MOL
REMARK 924 INTRA-LIGAND FREE ENERGY PREDICTED BY IDOCK:   -0.71 KCAL/MOL
REMARK 927      BINDING AFFINITY PREDICTED BY RF-SCORE:    0.00 PKD
ROOT
HETATM    1 CL   UNL     1     -11.002  14.931  64.660  1.00  0.00    -0.361 Cl 
HETATM    2  C   UNL     1     -11.050  14.748  66.385  1.00  0.00    -0.340 A  
HETATM    3  C   UNL     1     -10.984  15.922  67.133  1.00  0.00    -0.214 A  
HETATM    4  C   UNL     1     -11.003  15.852  68.518  1.00  0.00    -0.324 A  
HETATM    5  C   UNL     1     -11.041  14.608  69.148  1.00  0.00    -0.285 A  
HETATM    6  C   UNL     1     -11.093  13.387  68.440  1.00  0.00    -0.273 A  
HETATM    7  C   UNL     1     -11.140  13.489  67.019  1.00  0.00    -0.296 A  
HETATM    8 CL   UNL     1     -11.431  12.096  66.009  1.00  0.00    -0.413 Cl 
ENDROOT
BRANCH   6   9
HETATM    9  N   UNL     1     -11.038  12.202  69.165  1.00  0.00    -0.227 NA 
HETATM   10  C   UNL     1     -11.942  11.935  70.300  1.00  0.00    -0.330 C  
HETATM   11  C   UNL     1     -12.465  10.482  70.273  1.00  0.00    -0.271 C  
HETATM   12  N   UNL     1     -11.417   9.443  70.156  1.00  0.00    -0.192 NA 
HETATM   13  C   UNL     1     -10.008  11.172  68.917  1.00  0.00    -0.175 C  
HETATM   14  C   UNL     1     -10.634   9.755  68.935  1.00  0.00    -0.218 C  
BRANCH  12  15
HETATM   15  C   UNL     1     -10.549   9.389  71.345  1.00  0.00    -0.311 C  
BRANCH  15  16
HETATM   16  C   UNL     1     -10.420   7.979  71.953  1.00  0.00    -0.296 C  
BRANCH  16  17
HETATM   17  C   UNL     1      -9.159   7.218  71.530  1.00  0.00    -0.145 C  
BRANCH  17  18
HETATM   18  C   UNL     1      -9.260   5.751  71.920  1.00  0.00    -0.144 C  
BRANCH  18  19
HETATM   19  O   UNL     1     -10.293   5.101  71.182  1.00  0.00    -0.221 OA 
BRANCH  19  20
HETATM   20  C   UNL     1      -9.826   4.316  70.155  1.00  0.00    -0.201 A  
HETATM   21  C   UNL     1      -9.948   4.870  68.878  1.00  0.00    -0.220 A  
HETATM   22  C   UNL     1      -9.507   4.147  67.769  1.00  0.00    -0.175 A  
HETATM   23  C   UNL     1      -8.940   2.875  67.923  1.00  0.00    -0.194 A  
HETATM   24  C   UNL     1      -8.790   2.345  69.202  1.00  0.00    -0.149 A  
HETATM   25  C   UNL     1      -8.386   2.155  66.728  1.00  0.00    -0.092 C  
HETATM   26  C   UNL     1      -9.224   3.064  70.310  1.00  0.00    -0.213 A  
HETATM   27  C   UNL     1      -9.091   2.561  65.448  1.00  0.00    -0.123 C  
HETATM   28  C   UNL     1      -9.278   4.057  65.339  1.00  0.00    -0.150 C  
HETATM   29  O   UNL     1      -9.269   4.642  64.261  1.00  0.00    -0.147 OA 
HETATM   30  N   UNL     1      -9.587   4.718  66.497  1.00  0.00    -0.158 N  
HETATM   31  H   UNL     1      -9.895   5.687  66.427  1.00  0.00     0.000 HD 
ENDBRANCH  19  20
ENDBRANCH  18  19
ENDBRANCH  17  18
ENDBRANCH  16  17
ENDBRANCH  15  16
ENDBRANCH  12  15
ENDBRANCH   6   9
TORSDOF 7
ENDMDL
MODEL      201
REMARK 921   NORMALIZED FREE ENERGY PREDICTED BY IDOCK:   -4.23 KCAL/MOL
REMARK 922        TOTAL FREE ENERGY PREDICTED BY IDOCK:   -7.57 KCAL/MOL
REMARK 923 INTER-LIGAND FREE ENERGY PREDICTED BY IDOCK:   -6.46 KCAL/MOL
REMARK 924 INTRA-LIGAND FREE ENERGY PREDICTED BY IDOCK:   -1.10 KCAL/MOL
REMARK 927      BINDING AFFINITY PREDICTED BY RF-SCORE:    0.00 PKD
ROOT
HETATM    1 CL   UNL     1     -10.732   1.807  72.511  1.00  0.00    -0.212 Cl 
HETATM    2  C   UNL     1     -10.532   3.517  72.287  1.00  0.00     0.022 A  
HETATM    3  C   UNL     1     -10.943   4.330  73.341  1.00  0.00    -0.366 A  
HETATM    4  C   UNL     1     -10.826   5.707  73.226  1.00  0.00    -0.321 A  
HETATM    5  C   UNL     1     -10.343   6.266  72.042  1.00  0.00    -0.231 A  
HETATM    6  C   UNL     1      -9.927   5.489  70.938  1.00  0.00    -0.199 A  
HETATM    7  C   UNL     1      -9.995   4.076  71.106  1.00  0.00    -0.127 A  
HETATM    8 CL   UNL     1      -9.314   2.979  69.931  1.00  0.00    -0.225 Cl 
ENDROOT
BRANCH   6   9
HETATM    9  N   UNL     1      -9.546   6.150  69.775  1.00  0.00    -0.149 NA 
HETATM   10  C   UNL     1     -10.445   6.276  68.614  1.00  0.00    -0.231 C  
HETATM   11  C   UNL     1     -10.379   7.693  68.001  1.00  0.00    -0.205 C  
HETATM   12  N   UNL     1      -9.014   8.173  67.687  1.00  0.00    -0.132 NA 
HETATM   13  C   UNL     1      -8.181   6.683  69.583  1.00  0.00    -0.127 C  
HETATM   14  C   UNL     1      -8.229   8.093  68.943  1.00  0.00    -0.124 C  
BRANCH  12  15
HETATM   15  C   UNL     1      -8.380   7.391  66.612  1.00  0.00    -0.124 C  
BRANCH  15  16
HETATM   16  C   UNL     1      -7.906   8.245  65.421  1.00  0.00    -0.113 C  
BRANCH  16  17
HETATM   17  C   UNL     1      -9.027   8.710  64.486  1.00  0.00     0.169 C  
BRANCH  17  18
HETATM   18  C   UNL     1      -8.887  10.192  64.174  1.00  0.00    -0.222 C  
BRANCH  18  19
HETATM   19  O   UNL     1     -10.167  10.818  64.107  1.00  0.00    -0.336 OA 
BRANCH  19  20
HETATM   20  C   UNL     1     -10.431  11.648  65.171  1.00  0.00    -0.279 A  
HETATM   21  C   UNL     1     -10.875  11.007  66.331  1.00  0.00    -0.253 A  
HETATM   22  C   UNL     1     -11.174  11.765  67.464  1.00  0.00    -0.291 A  
HETATM   23  C   UNL     1     -11.031  13.159  67.452  1.00  0.00    -0.283 A  
HETATM   24  C   UNL     1     -10.555  13.786  66.303  1.00  0.00    -0.289 A  
HETATM   25  C   UNL     1     -11.267  13.944  68.709  1.00  0.00    -0.302 C  
HETATM   26  C   UNL     1     -10.251  13.034  65.173  1.00  0.00    -0.289 A  
HETATM   27  C   UNL     1     -12.260  13.255  69.626  1.00  0.00    -0.258 C  
HETATM   28  C   UNL     1     -11.987  11.775  69.767  1.00  0.00    -0.322 C  
HETATM   29  O   UNL     1     -12.228  11.159  70.800  1.00  0.00    -0.346 OA 
HETATM   30  N   UNL     1     -11.574  11.122  68.637  1.00  0.00    -0.296 N  
HETATM   31  H   UNL     1     -11.557  10.103  68.653  1.00  0.00     0.000 HD 
ENDBRANCH  19  20
ENDBRANCH  18  19
ENDBRANCH  17  18
ENDBRANCH  16  17
ENDBRANCH  15  16
ENDBRANCH  12  15
ENDBRANCH   6   9
TORSDOF 7
ENDMDL
MODEL      202
REMARK 921   NORMALIZED FREE ENERGY PREDICTED BY IDOCK:   -4.23 KCAL/MOL
REMARK 922        TOTAL FREE ENERGY PREDICTED BY IDOCK:   -7.56 KCAL/MOL
REMARK 923 INTER-LIGAND FREE ENERGY PREDICTED BY IDOCK:   -7.40 KCAL/MOL
REMARK 924 INTRA-LIGAND FREE ENERGY PREDICTED BY IDOCK:   -0.16 KCAL/MOL
REMARK 927      BINDING AFFINITY PREDICTED BY RF-SCORE:    0.00 PKD
ROOT
HETATM    1 CL   UNL     1     -11.764  15.739  71.658  1.00  0.00    -0.488 Cl 
HETATM    2  C   UNL     1     -11.198  15.940  70.030  1.00  0.00    -0.353 A  
HETATM    3  C   UNL     1     -10.513  17.122  69.755  1.00  0.00     0.077 A  
HETATM    4  C   UNL     1     -10.045  17.357  68.471  1.00  0.00    -0.352 A  
HETATM    5  C   UNL     1     -10.302  16.432  67.459  1.00  0.00    -0.288 A  
HETATM    6  C   UNL     1     -11.004  15.226  67.678  1.00  0.00    -0.311 A  
HETATM    7  C   UNL     1     -11.417  14.977  69.020  1.00  0.00    -0.304 A  
HETATM    8 CL   UNL     1     -12.093  13.442  69.501  1.00  0.00    -0.357 Cl 
ENDROOT
BRANCH   6   9
HETATM    9  N   UNL     1     -11.282  14.418  66.582  1.00  0.00    -0.329 NA 
HETATM   10  C   UNL     1     -12.414  13.473  66.571  1.00  0.00    -0.253 C  
HETATM   11  C   UNL     1     -13.155  13.496  65.215  1.00  0.00    -0.062 C  
HETATM   12  N   UNL     1     -12.288  13.321  64.028  1.00  0.00    -0.636 NA 
HETATM   13  C   UNL     1     -10.408  14.374  65.392  1.00  0.00    -0.378 C  
HETATM   14  C   UNL     1     -11.250  14.378  64.092  1.00  0.00     0.070 C  
BRANCH  12  15
HETATM   15  C   UNL     1     -11.681  11.980  63.973  1.00  0.00    -0.410 C  
BRANCH  15  16
HETATM   16  C   UNL     1     -10.240  11.975  63.426  1.00  0.00    -0.457 C  
BRANCH  16  17
HETATM   17  C   UNL     1      -9.742  10.602  62.964  1.00  0.00    -0.362 C  
BRANCH  17  18
HETATM   18  C   UNL     1      -8.537  10.164  63.782  1.00  0.00    -0.200 C  
BRANCH  18  19
HETATM   19  O   UNL     1      -8.460   8.742  63.849  1.00  0.00    -0.168 OA 
BRANCH  19  20
HETATM   20  C   UNL     1      -8.541   8.245  65.128  1.00  0.00    -0.105 A  
HETATM   21  C   UNL     1      -9.191   9.072  66.049  1.00  0.00    -0.284 A  
HETATM   22  C   UNL     1      -9.318   8.658  67.375  1.00  0.00    -0.144 A  
HETATM   23  C   UNL     1      -8.805   7.422  67.792  1.00  0.00    -0.128 A  
HETATM   24  C   UNL     1      -8.189   6.590  66.861  1.00  0.00    -0.113 A  
HETATM   25  C   UNL     1      -9.036   6.955  69.200  1.00  0.00    -0.136 C  
HETATM   26  C   UNL     1      -8.064   6.996  65.537  1.00  0.00    -0.132 A  
HETATM   27  C   UNL     1      -9.190   8.117  70.162  1.00  0.00    -0.155 C  
HETATM   28  C   UNL     1     -10.101   9.197  69.625  1.00  0.00    -0.198 C  
HETATM   29  O   UNL     1     -10.806   9.884  70.357  1.00  0.00    -0.275 OA 
HETATM   30  N   UNL     1     -10.007   9.461  68.285  1.00  0.00    -0.167 N  
HETATM   31  H   UNL     1     -10.471  10.297  67.929  1.00  0.00     0.000 HD 
ENDBRANCH  19  20
ENDBRANCH  18  19
ENDBRANCH  17  18
ENDBRANCH  16  17
ENDBRANCH  15  16
ENDBRANCH  12  15
ENDBRANCH   6   9
TORSDOF 7
ENDMDL
MODEL      203
REMARK 921   NORMALIZED FREE ENERGY PREDICTED BY IDOCK:   -4.21 KCAL/MOL
REMARK 922        TOTAL FREE ENERGY PREDICTED BY IDOCK:   -7.54 KCAL/MOL
REMARK 923 INTER-LIGAND FREE ENERGY PREDICTED BY IDOCK:   -7.07 KCAL/MOL
REMARK 924 INTRA-LIGAND FREE ENERGY PREDICTED BY IDOCK:   -0.47 KCAL/MOL
REMARK 927      BINDING AFFINITY PREDICTED BY RF-SCORE:    0.00 PKD
ROOT
HETATM    1 CL   UNL     1     -10.877   3.264  74.281  1.00  0.00    -0.211 Cl 
HETATM    2  C   UNL     1     -10.203   3.264  72.682  1.00  0.00    -0.156 A  
HETATM    3  C   UNL     1      -9.521   2.110  72.300  1.00  0.00    -0.164 A  
HETATM    4  C   UNL     1      -8.943   2.044  71.041  1.00  0.00    -0.137 A  
HETATM    5  C   UNL     1      -9.010   3.147  70.189  1.00  0.00    -0.172 A  
HETATM    6  C   UNL     1      -9.674   4.346  70.531  1.00  0.00    -0.217 A  
HETATM    7  C   UNL     1     -10.316   4.363  71.803  1.00  0.00    -0.071 A  
HETATM    8 CL   UNL     1     -11.363   5.676  72.283  1.00  0.00    -0.321 Cl 
ENDROOT
BRANCH   6   9
HETATM    9  N   UNL     1      -9.604   5.414  69.644  1.00  0.00    -0.149 NA 
HETATM   10  C   UNL     1      -9.534   5.217  68.184  1.00  0.00    -0.127 C  
HETATM   11  C   UNL     1     -10.439   6.222  67.436  1.00  0.00    -0.248 C  
HETATM   12  N   UNL     1     -10.231   7.641  67.804  1.00  0.00    -0.188 NA 
HETATM   13  C   UNL     1      -9.492   6.814  70.101  1.00  0.00    -0.158 C  
HETATM   14  C   UNL     1     -10.419   7.738  69.273  1.00  0.00    -0.217 C  
BRANCH  12  15
HETATM   15  C   UNL     1      -8.902   8.133  67.404  1.00  0.00    -0.127 C  
BRANCH  15  16
HETATM   16  C   UNL     1      -8.861   8.713  65.977  1.00  0.00    -0.213 C  
BRANCH  16  17
HETATM   17  C   UNL     1     -10.127   9.469  65.562  1.00  0.00    -0.072 C  
BRANCH  17  18
HETATM   18  C   UNL     1      -9.834  10.951  65.382  1.00  0.00    -0.255 C  
BRANCH  18  19
HETATM   19  O   UNL     1     -11.043  11.707  65.359  1.00  0.00    -0.294 OA 
BRANCH  19  20
HETATM   20  C   UNL     1     -11.243  12.461  66.491  1.00  0.00    -0.319 A  
HETATM   21  C   UNL     1     -10.974  13.825  66.354  1.00  0.00    -0.298 A  
HETATM   22  C   UNL     1     -11.141  14.672  67.450  1.00  0.00    -0.326 A  
HETATM   23  C   UNL     1     -11.580  14.171  68.683  1.00  0.00    -0.352 A  
HETATM   24  C   UNL     1     -11.878  12.816  68.801  1.00  0.00    -0.346 A  
HETATM   25  C   UNL     1     -11.844  15.114  69.821  1.00  0.00    -0.364 C  
HETATM   26  C   UNL     1     -11.717  11.969  67.711  1.00  0.00    -0.379 A  
HETATM   27  C   UNL     1     -10.986  16.362  69.730  1.00  0.00    -0.341 C  
HETATM   28  C   UNL     1     -10.953  16.942  68.334  1.00  0.00    -0.296 C  
HETATM   29  O   UNL     1     -10.849  18.146  68.127  1.00  0.00    -0.287 OA 
HETATM   30  N   UNL     1     -10.916  16.043  67.303  1.00  0.00    -0.261 N  
HETATM   31  H   UNL     1     -10.712  16.396  66.368  1.00  0.00     0.000 HD 
ENDBRANCH  19  20
ENDBRANCH  18  19
ENDBRANCH  17  18
ENDBRANCH  16  17
ENDBRANCH  15  16
ENDBRANCH  12  15
ENDBRANCH   6   9
TORSDOF 7
ENDMDL
MODEL      204
REMARK 921   NORMALIZED FREE ENERGY PREDICTED BY IDOCK:   -4.19 KCAL/MOL
REMARK 922        TOTAL FREE ENERGY PREDICTED BY IDOCK:   -7.51 KCAL/MOL
REMARK 923 INTER-LIGAND FREE ENERGY PREDICTED BY IDOCK:   -6.89 KCAL/MOL
REMARK 924 INTRA-LIGAND FREE ENERGY PREDICTED BY IDOCK:   -0.61 KCAL/MOL
REMARK 927      BINDING AFFINITY PREDICTED BY RF-SCORE:    0.00 PKD
ROOT
HETATM    1 CL   UNL     1      -7.267   9.168  63.030  1.00  0.00    -0.095 Cl 
HETATM    2  C   UNL     1      -7.128  10.015  64.539  1.00  0.00    -0.139 A  
HETATM    3  C   UNL     1      -5.842  10.144  65.059  1.00  0.00    -0.120 A  
HETATM    4  C   UNL     1      -5.658  10.796  66.269  1.00  0.00    -0.104 A  
HETATM    5  C   UNL     1      -6.762  11.275  66.974  1.00  0.00    -0.126 A  
HETATM    6  C   UNL     1      -8.088  11.157  66.501  1.00  0.00    -0.163 A  
HETATM    7  C   UNL     1      -8.245  10.542  65.225  1.00  0.00    -0.146 A  
HETATM    8 CL   UNL     1      -9.783  10.521  64.401  1.00  0.00    -0.359 Cl 
ENDROOT
BRANCH   6   9
HETATM    9  N   UNL     1      -9.122  11.589  67.325  1.00  0.00    -0.162 NA 
HETATM   10  C   UNL     1      -9.015  12.814  68.139  1.00  0.00    -0.199 C  
HETATM   11  C   UNL     1     -10.325  13.633  68.098  1.00  0.00    -0.245 C  
HETATM   12  N   UNL     1     -11.550  12.867  68.424  1.00  0.00    -0.311 NA 
HETATM   13  C   UNL     1     -10.357  10.801  67.520  1.00  0.00    -0.206 C  
HETATM   14  C   UNL     1     -11.603  11.719  67.486  1.00  0.00    -0.291 C  
BRANCH  12  15
HETATM   15  C   UNL     1     -11.567  12.411  69.824  1.00  0.00    -0.232 C  
BRANCH  15  16
HETATM   16  C   UNL     1     -12.605  11.306  70.102  1.00  0.00    -0.207 C  
BRANCH  16  17
HETATM   17  C   UNL     1     -12.686  10.866  71.568  1.00  0.00    -0.533 C  
BRANCH  17  18
HETATM   18  C   UNL     1     -13.048   9.392  71.668  1.00  0.00    -0.394 C  
BRANCH  18  19
HETATM   19  O   UNL     1     -12.052   8.674  72.393  1.00  0.00    -0.375 OA 
BRANCH  19  20
HETATM   20  C   UNL     1     -11.522   7.614  71.698  1.00  0.00    -0.260 A  
HETATM   21  C   UNL     1     -11.149   6.516  72.478  1.00  0.00    -0.294 A  
HETATM   22  C   UNL     1     -10.595   5.392  71.864  1.00  0.00    -0.226 A  
HETATM   23  C   UNL     1     -10.413   5.351  70.475  1.00  0.00    -0.335 A  
HETATM   24  C   UNL     1     -10.818   6.437  69.702  1.00  0.00    -0.380 A  
HETATM   25  C   UNL     1      -9.904   4.098  69.825  1.00  0.00    -0.220 C  
HETATM   26  C   UNL     1     -11.375   7.557  70.309  1.00  0.00    -0.219 A  
HETATM   27  C   UNL     1      -9.030   3.290  70.766  1.00  0.00    -0.165 C  
HETATM   28  C   UNL     1      -9.626   3.169  72.150  1.00  0.00    -0.140 C  
HETATM   29  O   UNL     1      -9.455   2.178  72.853  1.00  0.00    -0.079 OA 
HETATM   30  N   UNL     1     -10.265   4.276  72.636  1.00  0.00    -0.167 N  
HETATM   31  H   UNL     1     -10.517   4.288  73.625  1.00  0.00     0.000 HD 
ENDBRANCH  19  20
ENDBRANCH  18  19
ENDBRANCH  17  18
ENDBRANCH  16  17
ENDBRANCH  15  16
ENDBRANCH  12  15
ENDBRANCH   6   9
TORSDOF 7
ENDMDL
MODEL      205
REMARK 921   NORMALIZED FREE ENERGY PREDICTED BY IDOCK:   -4.19 KCAL/MOL
REMARK 922        TOTAL FREE ENERGY PREDICTED BY IDOCK:   -7.50 KCAL/MOL
REMARK 923 INTER-LIGAND FREE ENERGY PREDICTED BY IDOCK:   -6.59 KCAL/MOL
REMARK 924 INTRA-LIGAND FREE ENERGY PREDICTED BY IDOCK:   -0.92 KCAL/MOL
REMARK 927      BINDING AFFINITY PREDICTED BY RF-SCORE:    0.00 PKD
ROOT
HETATM    1 CL   UNL     1     -12.489  15.508  63.984  1.00  0.00    -0.033 Cl 
HETATM    2  C   UNL     1     -11.239  14.851  64.993  1.00  0.00    -0.404 A  
HETATM    3  C   UNL     1     -10.338  15.766  65.534  1.00  0.00    -0.430 A  
HETATM    4  C   UNL     1      -9.303  15.312  66.338  1.00  0.00    -0.328 A  
HETATM    5  C   UNL     1      -9.147  13.943  66.560  1.00  0.00    -0.165 A  
HETATM    6  C   UNL     1     -10.021  12.972  66.023  1.00  0.00    -0.276 A  
HETATM    7  C   UNL     1     -11.115  13.469  65.256  1.00  0.00    -0.297 A  
HETATM    8 CL   UNL     1     -12.404  12.425  64.713  1.00  0.00    -0.518 Cl 
ENDROOT
BRANCH   6   9
HETATM    9  N   UNL     1      -9.723  11.630  66.233  1.00  0.00    -0.212 NA 
HETATM   10  C   UNL     1     -10.229  10.888  67.402  1.00  0.00    -0.201 C  
HETATM   11  C   UNL     1     -10.706   9.472  67.007  1.00  0.00    -0.149 C  
HETATM   12  N   UNL     1      -9.723   8.674  66.240  1.00  0.00    -0.258 NA 
HETATM   13  C   UNL     1      -8.798  10.881  65.356  1.00  0.00    -0.180 C  
HETATM   14  C   UNL     1      -9.360   9.472  65.043  1.00  0.00    -0.229 C  
BRANCH  12  15
HETATM   15  C   UNL     1      -8.532   8.338  67.037  1.00  0.00    -0.122 C  
BRANCH  15  16
HETATM   16  C   UNL     1      -8.068   6.878  66.873  1.00  0.00    -0.109 C  
BRANCH  16  17
HETATM   17  C   UNL     1      -8.970   6.022  65.977  1.00  0.00    -0.157 C  
BRANCH  17  18
HETATM   18  C   UNL     1      -9.795   5.054  66.812  1.00  0.00    -0.192 C  
BRANCH  18  19
HETATM   19  O   UNL     1      -8.997   3.958  67.252  1.00  0.00    -0.115 OA 
BRANCH  19  20
HETATM   20  C   UNL     1      -9.237   3.590  68.554  1.00  0.00    -0.166 A  
HETATM   21  C   UNL     1      -9.609   4.630  69.409  1.00  0.00    -0.257 A  
HETATM   22  C   UNL     1      -9.869   4.357  70.753  1.00  0.00    -0.203 A  
HETATM   23  C   UNL     1      -9.764   3.052  71.252  1.00  0.00    -0.208 A  
HETATM   24  C   UNL     1      -9.426   2.016  70.385  1.00  0.00    -0.156 A  
HETATM   25  C   UNL     1     -10.140   2.766  72.676  1.00  0.00    -0.232 C  
HETATM   26  C   UNL     1      -9.170   2.282  69.045  1.00  0.00    -0.207 A  
HETATM   27  C   UNL     1      -9.937   3.976  73.568  1.00  0.00    -0.172 C  
HETATM   28  C   UNL     1     -10.467   5.249  72.947  1.00  0.00    -0.211 C  
HETATM   29  O   UNL     1     -10.933   6.162  73.620  1.00  0.00    -0.196 OA 
HETATM   30  N   UNL     1     -10.286   5.388  71.598  1.00  0.00    -0.202 N  
HETATM   31  H   UNL     1     -10.466   6.302  71.183  1.00  0.00     0.000 HD 
ENDBRANCH  19  20
ENDBRANCH  18  19
ENDBRANCH  17  18
ENDBRANCH  16  17
ENDBRANCH  15  16
ENDBRANCH  12  15
ENDBRANCH   6   9
TORSDOF 7
ENDMDL
MODEL      206
REMARK 921   NORMALIZED FREE ENERGY PREDICTED BY IDOCK:   -4.18 KCAL/MOL
REMARK 922        TOTAL FREE ENERGY PREDICTED BY IDOCK:   -7.49 KCAL/MOL
REMARK 923 INTER-LIGAND FREE ENERGY PREDICTED BY IDOCK:   -6.24 KCAL/MOL
REMARK 924 INTRA-LIGAND FREE ENERGY PREDICTED BY IDOCK:   -1.25 KCAL/MOL
REMARK 927      BINDING AFFINITY PREDICTED BY RF-SCORE:    0.00 PKD
ROOT
HETATM    1 CL   UNL     1     -11.683   4.877  73.065  1.00  0.00    -0.310 Cl 
HETATM    2  C   UNL     1     -10.746   6.015  72.148  1.00  0.00    -0.226 A  
HETATM    3  C   UNL     1      -9.386   5.742  72.030  1.00  0.00    -0.163 A  
HETATM    4  C   UNL     1      -8.573   6.617  71.323  1.00  0.00    -0.126 A  
HETATM    5  C   UNL     1      -9.115   7.781  70.779  1.00  0.00    -0.149 A  
HETATM    6  C   UNL     1     -10.484   8.114  70.883  1.00  0.00    -0.202 A  
HETATM    7  C   UNL     1     -11.309   7.167  71.555  1.00  0.00    -0.255 A  
HETATM    8 CL   UNL     1     -13.048   7.317  71.574  1.00  0.00    -0.430 Cl 
ENDROOT
BRANCH   6   9
HETATM    9  N   UNL     1     -10.902   9.342  70.381  1.00  0.00    -0.238 NA 
HETATM   10  C   UNL     1     -10.464   9.841  69.064  1.00  0.00    -0.213 C  
HETATM   11  C   UNL     1     -11.634  10.489  68.290  1.00  0.00    -0.101 C  
HETATM   12  N   UNL     1     -12.383  11.522  69.042  1.00  0.00    -0.333 NA 
HETATM   13  C   UNL     1     -11.732  10.276  71.170  1.00  0.00    -0.341 C  
HETATM   14  C   UNL     1     -12.855  10.885  70.295  1.00  0.00    -0.142 C  
BRANCH  12  15
HETATM   15  C   UNL     1     -11.562  12.711  69.325  1.00  0.00    -0.318 C  
BRANCH  15  16
HETATM   16  C   UNL     1     -11.978  13.957  68.519  1.00  0.00    -0.394 C  
BRANCH  16  17
HETATM   17  C   UNL     1     -11.002  14.346  67.403  1.00  0.00    -0.303 C  
BRANCH  17  18
HETATM   18  C   UNL     1      -9.724  13.526  67.496  1.00  0.00    -0.228 C  
BRANCH  18  19
HETATM   19  O   UNL     1      -9.250  13.178  66.196  1.00  0.00    -0.135 OA 
BRANCH  19  20
HETATM   20  C   UNL     1      -9.172  11.823  65.983  1.00  0.00    -0.194 A  
HETATM   21  C   UNL     1      -8.308  11.133  66.837  1.00  0.00    -0.147 A  
HETATM   22  C   UNL     1      -8.157   9.753  66.695  1.00  0.00    -0.116 A  
HETATM   23  C   UNL     1      -8.864   9.053  65.709  1.00  0.00    -0.216 A  
HETATM   24  C   UNL     1      -9.749   9.743  64.884  1.00  0.00    -0.262 A  
HETATM   25  C   UNL     1      -8.759   7.557  65.635  1.00  0.00    -0.105 C  
HETATM   26  C   UNL     1      -9.907  11.117  65.025  1.00  0.00    -0.315 A  
HETATM   27  C   UNL     1      -7.427   7.058  66.163  1.00  0.00    -0.080 C  
HETATM   28  C   UNL     1      -7.034   7.725  67.462  1.00  0.00    -0.078 C  
HETATM   29  O   UNL     1      -6.384   7.144  68.325  1.00  0.00    -0.037 OA 
HETATM   30  N   UNL     1      -7.329   9.056  67.577  1.00  0.00    -0.080 N  
HETATM   31  H   UNL     1      -6.919   9.571  68.356  1.00  0.00     0.000 HD 
ENDBRANCH  19  20
ENDBRANCH  18  19
ENDBRANCH  17  18
ENDBRANCH  16  17
ENDBRANCH  15  16
ENDBRANCH  12  15
ENDBRANCH   6   9
TORSDOF 7
ENDMDL
MODEL      207
REMARK 921   NORMALIZED FREE ENERGY PREDICTED BY IDOCK:   -4.15 KCAL/MOL
REMARK 922        TOTAL FREE ENERGY PREDICTED BY IDOCK:   -7.46 KCAL/MOL
REMARK 923 INTER-LIGAND FREE ENERGY PREDICTED BY IDOCK:   -5.84 KCAL/MOL
REMARK 924 INTRA-LIGAND FREE ENERGY PREDICTED BY IDOCK:   -1.62 KCAL/MOL
REMARK 927      BINDING AFFINITY PREDICTED BY RF-SCORE:    0.00 PKD
ROOT
HETATM    1 CL   UNL     1     -10.416  11.661  65.477  1.00  0.00    -0.308 Cl 
HETATM    2  C   UNL     1     -11.000  11.688  67.112  1.00  0.00    -0.280 A  
HETATM    3  C   UNL     1     -11.425  12.924  67.595  1.00  0.00    -0.383 A  
HETATM    4  C   UNL     1     -11.890  13.024  68.898  1.00  0.00    -0.358 A  
HETATM    5  C   UNL     1     -11.886  11.899  69.724  1.00  0.00    -0.411 A  
HETATM    6  C   UNL     1     -11.451  10.627  69.290  1.00  0.00    -0.281 A  
HETATM    7  C   UNL     1     -11.041  10.537  67.928  1.00  0.00    -0.304 A  
HETATM    8 CL   UNL     1     -10.692   9.001  67.176  1.00  0.00    -0.285 Cl 
ENDROOT
BRANCH   6   9
HETATM    9  N   UNL     1     -11.406   9.595  70.221  1.00  0.00    -0.257 NA 
HETATM   10  C   UNL     1     -10.164   8.852  70.507  1.00  0.00    -0.204 C  
HETATM   11  C   UNL     1      -9.993   8.604  72.023  1.00  0.00    -0.329 C  
HETATM   12  N   UNL     1     -11.163   7.988  72.690  1.00  0.00    -0.385 NA 
HETATM   13  C   UNL     1     -12.615   9.103  70.913  1.00  0.00    -0.062 C  
HETATM   14  C   UNL     1     -12.327   8.866  72.416  1.00  0.00    -0.315 C  
BRANCH  12  15
HETATM   15  C   UNL     1     -11.411   6.614  72.224  1.00  0.00    -0.283 C  
BRANCH  15  16
HETATM   16  C   UNL     1     -10.184   5.689  72.341  1.00  0.00    -0.232 C  
BRANCH  16  17
HETATM   17  C   UNL     1     -10.104   4.601  71.265  1.00  0.00    -0.245 C  
BRANCH  17  18
HETATM   18  C   UNL     1      -8.847   4.769  70.423  1.00  0.00    -0.103 C  
BRANCH  18  19
HETATM   19  O   UNL     1      -7.818   5.413  71.173  1.00  0.00    -0.099 OA 
BRANCH  19  20
HETATM   20  C   UNL     1      -7.274   6.503  70.537  1.00  0.00    -0.074 A  
HETATM   21  C   UNL     1      -7.633   6.650  69.194  1.00  0.00    -0.100 A  
HETATM   22  C   UNL     1      -7.126   7.724  68.461  1.00  0.00    -0.073 A  
HETATM   23  C   UNL     1      -6.265   8.656  69.057  1.00  0.00    -0.044 A  
HETATM   24  C   UNL     1      -5.940   8.520  70.404  1.00  0.00    -0.027 A  
HETATM   25  C   UNL     1      -5.808   9.855  68.278  1.00  0.00    -0.042 C  
HETATM   26  C   UNL     1      -6.446   7.455  71.140  1.00  0.00    -0.039 A  
HETATM   27  C   UNL     1      -5.769   9.576  66.786  1.00  0.00    -0.051 C  
HETATM   28  C   UNL     1      -7.005   8.855  66.299  1.00  0.00    -0.079 C  
HETATM   29  O   UNL     1      -7.464   9.027  65.175  1.00  0.00    -0.094 OA 
HETATM   30  N   UNL     1      -7.519   7.899  67.133  1.00  0.00    -0.091 N  
HETATM   31  H   UNL     1      -8.235   7.275  66.760  1.00  0.00     0.000 HD 
ENDBRANCH  19  20
ENDBRANCH  18  19
ENDBRANCH  17  18
ENDBRANCH  16  17
ENDBRANCH  15  16
ENDBRANCH  12  15
ENDBRANCH   6   9
TORSDOF 7
ENDMDL
MODEL      208
REMARK 921   NORMALIZED FREE ENERGY PREDICTED BY IDOCK:   -4.14 KCAL/MOL
REMARK 922        TOTAL FREE ENERGY PREDICTED BY IDOCK:   -7.44 KCAL/MOL
REMARK 923 INTER-LIGAND FREE ENERGY PREDICTED BY IDOCK:   -6.91 KCAL/MOL
REMARK 924 INTRA-LIGAND FREE ENERGY PREDICTED BY IDOCK:   -0.53 KCAL/MOL
REMARK 927      BINDING AFFINITY PREDICTED BY RF-SCORE:    0.00 PKD
ROOT
HETATM    1 CL   UNL     1     -10.271  18.825  68.596  1.00  0.00    -0.412 Cl 
HETATM    2  C   UNL     1     -10.229  17.627  67.342  1.00  0.00    -0.345 A  
HETATM    3  C   UNL     1     -10.870  17.957  66.150  1.00  0.00     0.052 A  
HETATM    4  C   UNL     1     -10.889  17.042  65.108  1.00  0.00    -0.059 A  
HETATM    5  C   UNL     1     -10.307  15.785  65.279  1.00  0.00    -0.387 A  
HETATM    6  C   UNL     1      -9.659  15.392  66.471  1.00  0.00    -0.275 A  
HETATM    7  C   UNL     1      -9.595  16.375  67.501  1.00  0.00    -0.227 A  
HETATM    8 CL   UNL     1      -8.641  16.130  68.942  1.00  0.00    -0.233 Cl 
ENDROOT
BRANCH   6   9
HETATM    9  N   UNL     1      -9.193  14.086  66.567  1.00  0.00    -0.253 NA 
HETATM   10  C   UNL     1      -8.008  13.733  67.371  1.00  0.00    -0.162 C  
HETATM   11  C   UNL     1      -8.236  12.428  68.167  1.00  0.00    -0.173 C  
HETATM   12  N   UNL     1      -8.708  11.280  67.360  1.00  0.00    -0.137 NA 
HETATM   13  C   UNL     1      -9.787  12.977  65.791  1.00  0.00    -0.209 C  
HETATM   14  C   UNL     1      -9.949  11.715  66.674  1.00  0.00    -0.203 C  
BRANCH  12  15
HETATM   15  C   UNL     1      -7.696  10.825  66.392  1.00  0.00    -0.145 C  
BRANCH  15  16
HETATM   16  C   UNL     1      -7.987   9.432  65.800  1.00  0.00    -0.110 C  
BRANCH  16  17
HETATM   17  C   UNL     1      -7.397   8.267  66.601  1.00  0.00    -0.082 C  
BRANCH  17  18
HETATM   18  C   UNL     1      -8.085   6.960  66.235  1.00  0.00    -0.112 C  
BRANCH  18  19
HETATM   19  O   UNL     1      -9.498   7.071  66.393  1.00  0.00    -0.175 OA 
BRANCH  19  20
HETATM   20  C   UNL     1      -9.927   6.850  67.680  1.00  0.00    -0.144 A  
HETATM   21  C   UNL     1     -10.493   7.958  68.318  1.00  0.00    -0.212 A  
HETATM   22  C   UNL     1     -10.954   7.835  69.630  1.00  0.00    -0.122 A  
HETATM   23  C   UNL     1     -10.858   6.614  70.311  1.00  0.00    -0.321 A  
HETATM   24  C   UNL     1     -10.324   5.507  69.656  1.00  0.00    -0.359 A  
HETATM   25  C   UNL     1     -11.445   6.479  71.686  1.00  0.00    -0.345 C  
HETATM   26  C   UNL     1      -9.868   5.623  68.348  1.00  0.00    -0.178 A  
HETATM   27  C   UNL     1     -11.460   7.803  72.426  1.00  0.00    -0.418 C  
HETATM   28  C   UNL     1     -11.953   8.943  71.563  1.00  0.00    -0.333 C  
HETATM   29  O   UNL     1     -12.574   9.894  72.026  1.00  0.00    -0.377 OA 
HETATM   30  N   UNL     1     -11.561   8.927  70.253  1.00  0.00    -0.456 N  
HETATM   31  H   UNL     1     -11.723   9.766  69.695  1.00  0.00     0.000 HD 
ENDBRANCH  19  20
ENDBRANCH  18  19
ENDBRANCH  17  18
ENDBRANCH  16  17
ENDBRANCH  15  16
ENDBRANCH  12  15
ENDBRANCH   6   9
TORSDOF 7
ENDMDL
MODEL      209
REMARK 921   NORMALIZED FREE ENERGY PREDICTED BY IDOCK:   -4.11 KCAL/MOL
REMARK 922        TOTAL FREE ENERGY PREDICTED BY IDOCK:   -7.39 KCAL/MOL
REMARK 923 INTER-LIGAND FREE ENERGY PREDICTED BY IDOCK:   -7.39 KCAL/MOL
REMARK 924 INTRA-LIGAND FREE ENERGY PREDICTED BY IDOCK:    0.00 KCAL/MOL
REMARK 927      BINDING AFFINITY PREDICTED BY RF-SCORE:    0.00 PKD
ROOT
HETATM    1 CL   UNL     1      -9.800  18.964  69.200  1.00  0.00    -0.361 Cl 
HETATM    2  C   UNL     1     -10.079  17.961  67.811  1.00  0.00    -0.348 A  
HETATM    3  C   UNL     1     -10.314  18.624  66.609  1.00  0.00    -0.456 A  
HETATM    4  C   UNL     1     -10.559  17.886  65.460  1.00  0.00    -0.016 A  
HETATM    5  C   UNL     1     -10.612  16.493  65.528  1.00  0.00    -0.310 A  
HETATM    6  C   UNL     1     -10.397  15.772  66.724  1.00  0.00    -0.293 A  
HETATM    7  C   UNL     1     -10.081  16.550  67.875  1.00  0.00    -0.256 A  
HETATM    8 CL   UNL     1      -9.570  15.808  69.370  1.00  0.00    -0.273 Cl 
ENDROOT
BRANCH   6   9
HETATM    9  N   UNL     1     -10.561  14.392  66.698  1.00  0.00    -0.279 NA 
HETATM   10  C   UNL     1     -10.123  13.529  67.811  1.00  0.00    -0.236 C  
HETATM   11  C   UNL     1     -11.170  12.435  68.121  1.00  0.00    -0.265 C  
HETATM   12  N   UNL     1     -11.603  11.637  66.951  1.00  0.00    -0.542 NA 
HETATM   13  C   UNL     1     -11.091  13.682  65.515  1.00  0.00    -0.295 C  
HETATM   14  C   UNL     1     -12.110  12.595  65.939  1.00  0.00    -0.396 C  
BRANCH  12  15
HETATM   15  C   UNL     1     -10.512  10.812  66.404  1.00  0.00    -0.233 C  
BRANCH  15  16
HETATM   16  C   UNL     1      -9.714  10.049  67.479  1.00  0.00    -0.189 C  
BRANCH  16  17
HETATM   17  C   UNL     1     -10.499   8.938  68.183  1.00  0.00    -0.254 C  
BRANCH  17  18
HETATM   18  C   UNL     1     -10.352   9.049  69.693  1.00  0.00    -0.212 C  
BRANCH  18  19
HETATM   19  O   UNL     1     -11.453   8.430  70.356  1.00  0.00    -0.234 OA 
BRANCH  19  20
HETATM   20  C   UNL     1     -11.080   7.456  71.251  1.00  0.00    -0.246 A  
HETATM   21  C   UNL     1      -9.720   7.431  71.572  1.00  0.00    -0.170 A  
HETATM   22  C   UNL     1      -9.242   6.474  72.469  1.00  0.00    -0.135 A  
HETATM   23  C   UNL     1     -10.112   5.543  73.053  1.00  0.00    -0.204 A  
HETATM   24  C   UNL     1     -11.471   5.597  72.754  1.00  0.00    -0.328 A  
HETATM   25  C   UNL     1      -9.594   4.585  74.086  1.00  0.00    -0.136 C  
HETATM   26  C   UNL     1     -11.952   6.551  71.864  1.00  0.00    -0.389 A  
HETATM   27  C   UNL     1      -8.121   4.281  73.886  1.00  0.00    -0.092 C  
HETATM   28  C   UNL     1      -7.305   5.524  73.614  1.00  0.00    -0.087 C  
HETATM   29  O   UNL     1      -6.139   5.635  73.977  1.00  0.00    -0.055 OA 
HETATM   30  N   UNL     1      -7.892   6.476  72.826  1.00  0.00    -0.102 N  
HETATM   31  H   UNL     1      -7.307   7.235  72.477  1.00  0.00     0.000 HD 
ENDBRANCH  19  20
ENDBRANCH  18  19
ENDBRANCH  17  18
ENDBRANCH  16  17
ENDBRANCH  15  16
ENDBRANCH  12  15
ENDBRANCH   6   9
TORSDOF 7
ENDMDL
MODEL      210
REMARK 921   NORMALIZED FREE ENERGY PREDICTED BY IDOCK:   -4.10 KCAL/MOL
REMARK 922        TOTAL FREE ENERGY PREDICTED BY IDOCK:   -7.39 KCAL/MOL
REMARK 923 INTER-LIGAND FREE ENERGY PREDICTED BY IDOCK:   -5.88 KCAL/MOL
REMARK 924 INTRA-LIGAND FREE ENERGY PREDICTED BY IDOCK:   -1.50 KCAL/MOL
REMARK 927      BINDING AFFINITY PREDICTED BY RF-SCORE:    0.00 PKD
ROOT
HETATM    1 CL   UNL     1      -7.028  11.349  69.487  1.00  0.00    -0.100 Cl 
HETATM    2  C   UNL     1      -8.247  10.277  68.871  1.00  0.00    -0.130 A  
HETATM    3  C   UNL     1      -9.407  10.876  68.386  1.00  0.00    -0.172 A  
HETATM    4  C   UNL     1     -10.431  10.080  67.892  1.00  0.00    -0.276 A  
HETATM    5  C   UNL     1     -10.307   8.690  67.928  1.00  0.00    -0.286 A  
HETATM    6  C   UNL     1      -9.160   8.032  68.423  1.00  0.00    -0.136 A  
HETATM    7  C   UNL     1      -8.096   8.873  68.862  1.00  0.00    -0.112 A  
HETATM    8 CL   UNL     1      -6.533   8.225  69.290  1.00  0.00    -0.038 Cl 
ENDROOT
BRANCH   6   9
HETATM    9  N   UNL     1      -9.177   6.643  68.494  1.00  0.00    -0.128 NA 
HETATM   10  C   UNL     1     -10.109   5.829  67.693  1.00  0.00    -0.173 C  
HETATM   11  C   UNL     1      -9.407   4.584  67.105  1.00  0.00    -0.147 C  
HETATM   12  N   UNL     1      -8.672   3.759  68.090  1.00  0.00    -0.097 NA 
HETATM   13  C   UNL     1      -8.337   5.891  69.449  1.00  0.00    -0.114 C  
HETATM   14  C   UNL     1      -7.702   4.655  68.765  1.00  0.00    -0.072 C  
BRANCH  12  15
HETATM   15  C   UNL     1      -9.572   3.119  69.064  1.00  0.00    -0.014 C  
BRANCH  15  16
HETATM   16  C   UNL     1      -8.834   2.406  70.214  1.00  0.00    -0.141 C  
BRANCH  16  17
HETATM   17  C   UNL     1      -9.669   2.219  71.485  1.00  0.00    -0.224 C  
BRANCH  17  18
HETATM   18  C   UNL     1      -8.927   2.757  72.699  1.00  0.00    -0.085 C  
BRANCH  18  19
HETATM   19  O   UNL     1      -9.801   3.521  73.529  1.00  0.00    -0.106 OA 
BRANCH  19  20
HETATM   20  C   UNL     1      -9.898   4.841  73.158  1.00  0.00    -0.146 A  
HETATM   21  C   UNL     1     -11.181   5.267  72.801  1.00  0.00    -0.347 A  
HETATM   22  C   UNL     1     -11.380   6.590  72.404  1.00  0.00    -0.279 A  
HETATM   23  C   UNL     1     -10.311   7.495  72.364  1.00  0.00    -0.277 A  
HETATM   24  C   UNL     1      -9.043   7.070  72.754  1.00  0.00    -0.155 A  
HETATM   25  C   UNL     1     -10.565   8.935  72.026  1.00  0.00    -0.388 C  
HETATM   26  C   UNL     1      -8.840   5.755  73.154  1.00  0.00    -0.122 A  
HETATM   27  C   UNL     1     -11.779   9.099  71.132  1.00  0.00    -0.380 C  
HETATM   28  C   UNL     1     -12.956   8.271  71.596  1.00  0.00    -0.337 C  
HETATM   29  O   UNL     1     -14.117   8.636  71.438  1.00  0.00    -0.370 OA 
HETATM   30  N   UNL     1     -12.668   7.029  72.092  1.00  0.00    -0.532 N  
HETATM   31  H   UNL     1     -13.443   6.383  72.242  1.00  0.00     0.000 HD 
ENDBRANCH  19  20
ENDBRANCH  18  19
ENDBRANCH  17  18
ENDBRANCH  16  17
ENDBRANCH  15  16
ENDBRANCH  12  15
ENDBRANCH   6   9
TORSDOF 7
ENDMDL
MODEL      211
REMARK 921   NORMALIZED FREE ENERGY PREDICTED BY IDOCK:   -4.10 KCAL/MOL
REMARK 922        TOTAL FREE ENERGY PREDICTED BY IDOCK:   -7.38 KCAL/MOL
REMARK 923 INTER-LIGAND FREE ENERGY PREDICTED BY IDOCK:   -6.30 KCAL/MOL
REMARK 924 INTRA-LIGAND FREE ENERGY PREDICTED BY IDOCK:   -1.07 KCAL/MOL
REMARK 927      BINDING AFFINITY PREDICTED BY RF-SCORE:    0.00 PKD
ROOT
HETATM    1 CL   UNL     1     -11.482   8.094  72.763  1.00  0.00    -0.459 Cl 
HETATM    2  C   UNL     1     -10.835   6.930  71.650  1.00  0.00    -0.226 A  
HETATM    3  C   UNL     1     -10.846   5.601  72.070  1.00  0.00    -0.300 A  
HETATM    4  C   UNL     1     -10.331   4.618  71.238  1.00  0.00    -0.148 A  
HETATM    5  C   UNL     1      -9.769   4.972  70.012  1.00  0.00    -0.278 A  
HETATM    6  C   UNL     1      -9.717   6.304  69.544  1.00  0.00    -0.146 A  
HETATM    7  C   UNL     1     -10.313   7.287  70.387  1.00  0.00    -0.208 A  
HETATM    8 CL   UNL     1     -10.532   8.936  69.859  1.00  0.00    -0.214 Cl 
ENDROOT
BRANCH   6   9
HETATM    9  N   UNL     1      -9.055   6.556  68.348  1.00  0.00    -0.124 NA 
HETATM   10  C   UNL     1      -7.604   6.816  68.294  1.00  0.00    -0.107 C  
HETATM   11  C   UNL     1      -6.944   6.081  67.106  1.00  0.00    -0.069 C  
HETATM   12  N   UNL     1      -7.588   6.315  65.793  1.00  0.00    -0.082 NA 
HETATM   13  C   UNL     1      -9.771   6.681  67.061  1.00  0.00    -0.157 C  
HETATM   14  C   UNL     1      -9.013   5.931  65.937  1.00  0.00    -0.140 C  
BRANCH  12  15
HETATM   15  C   UNL     1      -7.455   7.712  65.347  1.00  0.00    -0.078 C  
BRANCH  15  16
HETATM   16  C   UNL     1      -8.443   8.102  64.231  1.00  0.00     0.041 C  
BRANCH  16  17
HETATM   17  C   UNL     1      -8.251   9.518  63.679  1.00  0.00    -0.165 C  
BRANCH  17  18
HETATM   18  C   UNL     1      -9.207  10.492  64.352  1.00  0.00    -0.245 C  
BRANCH  18  19
HETATM   19  O   UNL     1      -8.626  11.035  65.536  1.00  0.00    -0.173 OA 
BRANCH  19  20
HETATM   20  C   UNL     1      -9.542  11.610  66.384  1.00  0.00    -0.217 A  
HETATM   21  C   UNL     1      -9.287  12.942  66.723  1.00  0.00    -0.243 A  
HETATM   22  C   UNL     1     -10.157  13.612  67.584  1.00  0.00    -0.242 A  
HETATM   23  C   UNL     1     -11.285  12.966  68.107  1.00  0.00    -0.305 A  
HETATM   24  C   UNL     1     -11.551  11.650  67.737  1.00  0.00    -0.359 A  
HETATM   25  C   UNL     1     -12.258  13.733  68.954  1.00  0.00    -0.235 C  
HETATM   26  C   UNL     1     -10.689  10.980  66.877  1.00  0.00    -0.325 A  
HETATM   27  C   UNL     1     -11.587  14.880  69.687  1.00  0.00    -0.337 C  
HETATM   28  C   UNL     1     -10.659  15.673  68.795  1.00  0.00    -0.238 C  
HETATM   29  O   UNL     1     -10.477  16.876  68.943  1.00  0.00    -0.307 OA 
HETATM   30  N   UNL     1      -9.928  14.956  67.887  1.00  0.00    -0.218 N  
HETATM   31  H   UNL     1      -9.169  15.433  67.401  1.00  0.00     0.000 HD 
ENDBRANCH  19  20
ENDBRANCH  18  19
ENDBRANCH  17  18
ENDBRANCH  16  17
ENDBRANCH  15  16
ENDBRANCH  12  15
ENDBRANCH   6   9
TORSDOF 7
ENDMDL
MODEL      212
REMARK 921   NORMALIZED FREE ENERGY PREDICTED BY IDOCK:   -4.08 KCAL/MOL
REMARK 922        TOTAL FREE ENERGY PREDICTED BY IDOCK:   -7.35 KCAL/MOL
REMARK 923 INTER-LIGAND FREE ENERGY PREDICTED BY IDOCK:   -5.87 KCAL/MOL
REMARK 924 INTRA-LIGAND FREE ENERGY PREDICTED BY IDOCK:   -1.47 KCAL/MOL
REMARK 927      BINDING AFFINITY PREDICTED BY RF-SCORE:    0.00 PKD
ROOT
HETATM    1 CL   UNL     1     -10.565  11.069  65.709  1.00  0.00    -0.289 Cl 
HETATM    2  C   UNL     1     -10.988  11.061  67.392  1.00  0.00    -0.291 A  
HETATM    3  C   UNL     1     -11.477  12.258  67.911  1.00  0.00    -0.390 A  
HETATM    4  C   UNL     1     -11.822  12.329  69.253  1.00  0.00    -0.363 A  
HETATM    5  C   UNL     1     -11.633  11.220  70.078  1.00  0.00    -0.404 A  
HETATM    6  C   UNL     1     -11.126   9.988  69.607  1.00  0.00    -0.259 A  
HETATM    7  C   UNL     1     -10.843   9.920  68.212  1.00  0.00    -0.230 A  
HETATM    8 CL   UNL     1     -10.425   8.414  67.434  1.00  0.00    -0.352 Cl 
ENDROOT
BRANCH   6   9
HETATM    9  N   UNL     1     -10.894   8.976  70.532  1.00  0.00    -0.238 NA 
HETATM   10  C   UNL     1      -9.532   8.591  70.948  1.00  0.00    -0.180 C  
HETATM   11  C   UNL     1      -9.458   8.346  72.472  1.00  0.00    -0.289 C  
HETATM   12  N   UNL     1     -10.475   7.411  73.004  1.00  0.00    -0.288 NA 
HETATM   13  C   UNL     1     -11.985   8.148  71.085  1.00  0.00    -0.273 C  
HETATM   14  C   UNL     1     -11.801   7.945  72.609  1.00  0.00    -0.297 C  
BRANCH  12  15
HETATM   15  C   UNL     1     -10.285   6.038  72.507  1.00  0.00    -0.186 C  
BRANCH  15  16
HETATM   16  C   UNL     1     -10.567   4.952  73.563  1.00  0.00    -0.311 C  
BRANCH  16  17
HETATM   17  C   UNL     1     -10.250   3.524  73.107  1.00  0.00    -0.230 C  
BRANCH  17  18
HETATM   18  C   UNL     1     -10.034   3.476  71.602  1.00  0.00    -0.119 C  
BRANCH  18  19
HETATM   19  O   UNL     1      -8.661   3.241  71.295  1.00  0.00    -0.066 OA 
BRANCH  19  20
HETATM   20  C   UNL     1      -8.288   3.699  70.053  1.00  0.00    -0.055 A  
HETATM   21  C   UNL     1      -7.983   5.061  69.986  1.00  0.00    -0.074 A  
HETATM   22  C   UNL     1      -7.599   5.621  68.767  1.00  0.00    -0.088 A  
HETATM   23  C   UNL     1      -7.512   4.832  67.612  1.00  0.00    -0.078 A  
HETATM   24  C   UNL     1      -7.785   3.468  67.695  1.00  0.00    -0.077 A  
HETATM   25  C   UNL     1      -7.006   5.433  66.334  1.00  0.00    -0.064 C  
HETATM   26  C   UNL     1      -8.163   2.905  68.909  1.00  0.00    -0.077 A  
HETATM   27  C   UNL     1      -7.290   6.922  66.260  1.00  0.00    -0.076 C  
HETATM   28  C   UNL     1      -6.960   7.639  67.550  1.00  0.00    -0.081 C  
HETATM   29  O   UNL     1      -6.560   8.798  67.571  1.00  0.00    -0.060 OA 
HETATM   30  N   UNL     1      -7.251   6.972  68.708  1.00  0.00    -0.088 N  
HETATM   31  H   UNL     1      -7.210   7.493  69.584  1.00  0.00     0.000 HD 
ENDBRANCH  19  20
ENDBRANCH  18  19
ENDBRANCH  17  18
ENDBRANCH  16  17
ENDBRANCH  15  16
ENDBRANCH  12  15
ENDBRANCH   6   9
TORSDOF 7
ENDMDL
MODEL      213
REMARK 921   NORMALIZED FREE ENERGY PREDICTED BY IDOCK:   -4.07 KCAL/MOL
REMARK 922        TOTAL FREE ENERGY PREDICTED BY IDOCK:   -7.34 KCAL/MOL
REMARK 923 INTER-LIGAND FREE ENERGY PREDICTED BY IDOCK:   -6.84 KCAL/MOL
REMARK 924 INTRA-LIGAND FREE ENERGY PREDICTED BY IDOCK:   -0.50 KCAL/MOL
REMARK 927      BINDING AFFINITY PREDICTED BY RF-SCORE:    0.00 PKD
ROOT
HETATM    1 CL   UNL     1      -5.873   7.961  73.259  1.00  0.00    -0.053 Cl 
HETATM    2  C   UNL     1      -7.501   8.220  72.716  1.00  0.00    -0.108 A  
HETATM    3  C   UNL     1      -8.513   7.754  73.553  1.00  0.00    -0.259 A  
HETATM    4  C   UNL     1      -9.839   7.913  73.176  1.00  0.00    -0.357 A  
HETATM    5  C   UNL     1     -10.144   8.494  71.945  1.00  0.00    -0.367 A  
HETATM    6  C   UNL     1      -9.158   8.968  71.051  1.00  0.00    -0.257 A  
HETATM    7  C   UNL     1      -7.807   8.854  71.492  1.00  0.00    -0.058 A  
HETATM    8 CL   UNL     1      -6.491   9.590  70.612  1.00  0.00    -0.082 Cl 
ENDROOT
BRANCH   6   9
HETATM    9  N   UNL     1      -9.569   9.448  69.813  1.00  0.00    -0.187 NA 
HETATM   10  C   UNL     1      -9.239   8.754  68.554  1.00  0.00    -0.141 C  
HETATM   11  C   UNL     1     -10.449   8.726  67.592  1.00  0.00    -0.244 C  
HETATM   12  N   UNL     1     -11.075  10.044  67.340  1.00  0.00    -0.192 NA 
HETATM   13  C   UNL     1     -10.276  10.737  69.661  1.00  0.00    -0.057 C  
HETATM   14  C   UNL     1     -11.451  10.603  68.661  1.00  0.00    -0.263 C  
BRANCH  12  15
HETATM   15  C   UNL     1     -10.180  10.957  66.610  1.00  0.00    -0.234 C  
BRANCH  15  16
HETATM   16  C   UNL     1     -10.490  12.448  66.847  1.00  0.00    -0.243 C  
BRANCH  16  17
HETATM   17  C   UNL     1     -11.697  12.977  66.066  1.00  0.00    -0.442 C  
BRANCH  17  18
HETATM   18  C   UNL     1     -11.764  14.495  66.142  1.00  0.00    -0.350 C  
BRANCH  18  19
HETATM   19  O   UNL     1     -10.947  14.985  67.204  1.00  0.00    -0.315 OA 
BRANCH  19  20
HETATM   20  C   UNL     1     -10.431  16.237  66.969  1.00  0.00    -0.306 A  
HETATM   21  C   UNL     1      -9.223  16.514  67.615  1.00  0.00    -0.200 A  
HETATM   22  C   UNL     1      -8.622  17.762  67.443  1.00  0.00    -0.231 A  
HETATM   23  C   UNL     1      -9.214  18.736  66.628  1.00  0.00    -0.333 A  
HETATM   24  C   UNL     1     -10.400  18.439  65.962  1.00  0.00    -0.397 A  
HETATM   25  C   UNL     1      -8.504  20.035  66.382  1.00  0.00    -0.341 C  
HETATM   26  C   UNL     1     -11.000  17.196  66.126  1.00  0.00     0.193 A  
HETATM   27  C   UNL     1      -7.597  20.410  67.539  1.00  0.00    -0.346 C  
HETATM   28  C   UNL     1      -6.771  19.243  68.029  1.00  0.00    -0.240 C  
HETATM   29  O   UNL     1      -5.644  19.387  68.492  1.00  0.00    -0.199 OA 
HETATM   30  N   UNL     1      -7.392  18.025  68.051  1.00  0.00    -0.226 N  
HETATM   31  H   UNL     1      -6.928  17.260  68.541  1.00  0.00     0.000 HD 
ENDBRANCH  19  20
ENDBRANCH  18  19
ENDBRANCH  17  18
ENDBRANCH  16  17
ENDBRANCH  15  16
ENDBRANCH  12  15
ENDBRANCH   6   9
TORSDOF 7
ENDMDL
MODEL      214
REMARK 921   NORMALIZED FREE ENERGY PREDICTED BY IDOCK:   -4.07 KCAL/MOL
REMARK 922        TOTAL FREE ENERGY PREDICTED BY IDOCK:   -7.33 KCAL/MOL
REMARK 923 INTER-LIGAND FREE ENERGY PREDICTED BY IDOCK:   -6.38 KCAL/MOL
REMARK 924 INTRA-LIGAND FREE ENERGY PREDICTED BY IDOCK:   -0.95 KCAL/MOL
REMARK 927      BINDING AFFINITY PREDICTED BY RF-SCORE:    0.00 PKD
ROOT
HETATM    1 CL   UNL     1     -10.989   5.781  70.184  1.00  0.00    -0.394 Cl 
HETATM    2  C   UNL     1      -9.589   5.512  69.194  1.00  0.00    -0.143 A  
HETATM    3  C   UNL     1      -8.553   4.784  69.775  1.00  0.00    -0.101 A  
HETATM    4  C   UNL     1      -7.396   4.544  69.048  1.00  0.00    -0.056 A  
HETATM    5  C   UNL     1      -7.263   5.070  67.763  1.00  0.00    -0.070 A  
HETATM    6  C   UNL     1      -8.275   5.828  67.133  1.00  0.00    -0.102 A  
HETATM    7  C   UNL     1      -9.479   6.004  67.875  1.00  0.00    -0.112 A  
HETATM    8 CL   UNL     1     -10.901   6.718  67.158  1.00  0.00    -0.437 Cl 
ENDROOT
BRANCH   6   9
HETATM    9  N   UNL     1      -8.004   6.380  65.886  1.00  0.00    -0.112 NA 
HETATM   10  C   UNL     1      -7.594   7.787  65.723  1.00  0.00    -0.084 C  
HETATM   11  C   UNL     1      -6.452   7.926  64.691  1.00  0.00    -0.048 C  
HETATM   12  N   UNL     1      -6.712   7.280  63.384  1.00  0.00    -0.052 NA 
HETATM   13  C   UNL     1      -8.203   5.627  64.630  1.00  0.00    -0.129 C  
HETATM   14  C   UNL     1      -7.017   5.855  63.660  1.00  0.00    -0.042 C  
BRANCH  12  15
HETATM   15  C   UNL     1      -7.812   7.927  62.650  1.00  0.00    -0.142 C  
BRANCH  15  16
HETATM   16  C   UNL     1      -7.762   9.467  62.691  1.00  0.00    -0.115 C  
BRANCH  16  17
HETATM   17  C   UNL     1      -9.134  10.146  62.751  1.00  0.00    -0.299 C  
BRANCH  17  18
HETATM   18  C   UNL     1      -9.315  10.876  64.073  1.00  0.00    -0.237 C  
BRANCH  18  19
HETATM   19  O   UNL     1     -10.662  11.319  64.226  1.00  0.00    -0.338 OA 
BRANCH  19  20
HETATM   20  C   UNL     1     -10.857  12.119  65.326  1.00  0.00    -0.293 A  
HETATM   21  C   UNL     1     -11.129  11.440  66.517  1.00  0.00    -0.312 A  
HETATM   22  C   UNL     1     -11.347  12.166  67.689  1.00  0.00    -0.314 A  
HETATM   23  C   UNL     1     -11.293  13.566  67.685  1.00  0.00    -0.326 A  
HETATM   24  C   UNL     1     -10.988  14.233  66.501  1.00  0.00    -0.316 A  
HETATM   25  C   UNL     1     -11.436  14.322  68.973  1.00  0.00    -0.318 C  
HETATM   26  C   UNL     1     -10.765  13.514  65.332  1.00  0.00    -0.308 A  
HETATM   27  C   UNL     1     -12.275  13.562  69.983  1.00  0.00    -0.381 C  
HETATM   28  C   UNL     1     -11.897  12.101  70.067  1.00  0.00    -0.306 C  
HETATM   29  O   UNL     1     -11.982  11.461  71.110  1.00  0.00    -0.203 OA 
HETATM   30  N   UNL     1     -11.573  11.487  68.888  1.00  0.00    -0.290 N  
HETATM   31  H   UNL     1     -11.491  10.471  68.885  1.00  0.00     0.000 HD 
ENDBRANCH  19  20
ENDBRANCH  18  19
ENDBRANCH  17  18
ENDBRANCH  16  17
ENDBRANCH  15  16
ENDBRANCH  12  15
ENDBRANCH   6   9
TORSDOF 7
ENDMDL
MODEL      215
REMARK 921   NORMALIZED FREE ENERGY PREDICTED BY IDOCK:   -4.06 KCAL/MOL
REMARK 922        TOTAL FREE ENERGY PREDICTED BY IDOCK:   -7.33 KCAL/MOL
REMARK 923 INTER-LIGAND FREE ENERGY PREDICTED BY IDOCK:   -6.38 KCAL/MOL
REMARK 924 INTRA-LIGAND FREE ENERGY PREDICTED BY IDOCK:   -0.95 KCAL/MOL
REMARK 927      BINDING AFFINITY PREDICTED BY RF-SCORE:    0.00 PKD
ROOT
HETATM    1 CL   UNL     1     -12.956   6.845  71.098  1.00  0.00    -0.337 Cl 
HETATM    2  C   UNL     1     -11.370   7.308  71.630  1.00  0.00    -0.254 A  
HETATM    3  C   UNL     1     -11.143   7.270  73.004  1.00  0.00    -0.361 A  
HETATM    4  C   UNL     1      -9.903   7.642  73.502  1.00  0.00    -0.357 A  
HETATM    5  C   UNL     1      -8.912   8.093  72.629  1.00  0.00    -0.299 A  
HETATM    6  C   UNL     1      -9.094   8.166  71.230  1.00  0.00    -0.150 A  
HETATM    7  C   UNL     1     -10.353   7.716  70.738  1.00  0.00    -0.203 A  
HETATM    8 CL   UNL     1     -10.656   7.531  69.029  1.00  0.00    -0.212 Cl 
ENDROOT
BRANCH   6   9
HETATM    9  N   UNL     1      -8.072   8.713  70.462  1.00  0.00    -0.102 NA 
HETATM   10  C   UNL     1      -8.204  10.024  69.800  1.00  0.00    -0.178 C  
HETATM   11  C   UNL     1      -6.910  10.857  69.936  1.00  0.00    -0.125 C  
HETATM   12  N   UNL     1      -5.672  10.159  69.519  1.00  0.00    -0.037 NA 
HETATM   13  C   UNL     1      -6.823   7.978  70.172  1.00  0.00    -0.041 C  
HETATM   14  C   UNL     1      -5.594   8.909  70.314  1.00  0.00    -0.030 C  
BRANCH  12  15
HETATM   15  C   UNL     1      -5.652   9.874  68.075  1.00  0.00    -0.039 C  
BRANCH  15  16
HETATM   16  C   UNL     1      -6.259  10.999  67.213  1.00  0.00    -0.068 C  
BRANCH  16  17
HETATM   17  C   UNL     1      -5.385  12.251  67.097  1.00  0.00    -0.063 C  
BRANCH  17  18
HETATM   18  C   UNL     1      -5.976  13.397  67.905  1.00  0.00    -0.140 C  
BRANCH  18  19
HETATM   19  O   UNL     1      -6.884  14.160  67.112  1.00  0.00    -0.165 OA 
BRANCH  19  20
HETATM   20  C   UNL     1      -8.196  14.032  67.500  1.00  0.00    -0.186 A  
HETATM   21  C   UNL     1      -8.551  14.748  68.647  1.00  0.00    -0.169 A  
HETATM   22  C   UNL     1      -9.861  14.677  69.123  1.00  0.00    -0.124 A  
HETATM   23  C   UNL     1     -10.823  13.901  68.464  1.00  0.00    -0.274 A  
HETATM   24  C   UNL     1     -10.469  13.218  67.302  1.00  0.00    -0.247 A  
HETATM   25  C   UNL     1     -12.247  13.915  68.938  1.00  0.00    -0.257 C  
HETATM   26  C   UNL     1      -9.166  13.289  66.821  1.00  0.00    -0.237 A  
HETATM   27  C   UNL     1     -12.343  14.206  70.424  1.00  0.00    -0.428 C  
HETATM   28  C   UNL     1     -11.453  15.352  70.848  1.00  0.00    -0.361 C  
HETATM   29  O   UNL     1     -11.753  16.111  71.764  1.00  0.00    -0.470 OA 
HETATM   30  N   UNL     1     -10.229  15.428  70.242  1.00  0.00    -0.462 N  
HETATM   31  H   UNL     1      -9.541  16.073  70.632  1.00  0.00     0.000 HD 
ENDBRANCH  19  20
ENDBRANCH  18  19
ENDBRANCH  17  18
ENDBRANCH  16  17
ENDBRANCH  15  16
ENDBRANCH  12  15
ENDBRANCH   6   9
TORSDOF 7
ENDMDL
MODEL      216
REMARK 921   NORMALIZED FREE ENERGY PREDICTED BY IDOCK:   -4.04 KCAL/MOL
REMARK 922        TOTAL FREE ENERGY PREDICTED BY IDOCK:   -7.30 KCAL/MOL
REMARK 923 INTER-LIGAND FREE ENERGY PREDICTED BY IDOCK:   -6.39 KCAL/MOL
REMARK 924 INTRA-LIGAND FREE ENERGY PREDICTED BY IDOCK:   -0.91 KCAL/MOL
REMARK 927      BINDING AFFINITY PREDICTED BY RF-SCORE:    0.00 PKD
ROOT
HETATM    1 CL   UNL     1     -12.682  12.963  64.954  1.00  0.00    -0.517 Cl 
HETATM    2  C   UNL     1     -11.187  12.081  64.939  1.00  0.00    -0.320 A  
HETATM    3  C   UNL     1     -10.899  11.375  63.773  1.00  0.00    -0.468 A  
HETATM    4  C   UNL     1      -9.728  10.635  63.694  1.00  0.00    -0.383 A  
HETATM    5  C   UNL     1      -8.875  10.569  64.796  1.00  0.00    -0.211 A  
HETATM    6  C   UNL     1      -9.126  11.252  66.007  1.00  0.00    -0.209 A  
HETATM    7  C   UNL     1     -10.301  12.058  66.038  1.00  0.00    -0.238 A  
HETATM    8 CL   UNL     1     -10.637  13.137  67.369  1.00  0.00    -0.242 Cl 
ENDROOT
BRANCH   6   9
HETATM    9  N   UNL     1      -8.256  11.046  67.071  1.00  0.00    -0.133 NA 
HETATM   10  C   UNL     1      -8.671  10.343  68.299  1.00  0.00    -0.128 C  
HETATM   11  C   UNL     1      -7.575   9.368  68.787  1.00  0.00    -0.079 C  
HETATM   12  N   UNL     1      -6.228   9.965  68.931  1.00  0.00    -0.041 NA 
HETATM   13  C   UNL     1      -6.887  11.604  67.090  1.00  0.00    -0.143 C  
HETATM   14  C   UNL     1      -5.875  10.556  67.617  1.00  0.00    -0.044 C  
BRANCH  12  15
HETATM   15  C   UNL     1      -6.177  10.977  70.000  1.00  0.00    -0.139 C  
BRANCH  15  16
HETATM   16  C   UNL     1      -5.384  10.526  71.242  1.00  0.00    -0.070 C  
BRANCH  16  17
HETATM   17  C   UNL     1      -5.157   9.014  71.336  1.00  0.00    -0.036 C  
BRANCH  17  18
HETATM   18  C   UNL     1      -5.289   8.538  72.775  1.00  0.00    -0.049 C  
BRANCH  18  19
HETATM   19  O   UNL     1      -6.442   9.108  73.392  1.00  0.00    -0.323 OA 
BRANCH  19  20
HETATM   20  C   UNL     1      -7.528   8.267  73.413  1.00  0.00    -0.119 A  
HETATM   21  C   UNL     1      -8.210   8.143  72.200  1.00  0.00    -0.197 A  
HETATM   22  C   UNL     1      -9.331   7.315  72.122  1.00  0.00    -0.135 A  
HETATM   23  C   UNL     1      -9.776   6.605  73.245  1.00  0.00    -0.189 A  
HETATM   24  C   UNL     1      -9.071   6.709  74.442  1.00  0.00    -0.217 A  
HETATM   25  C   UNL     1     -10.925   5.648  73.116  1.00  0.00    -0.326 C  
HETATM   26  C   UNL     1      -7.951   7.528  74.523  1.00  0.00    -0.223 A  
HETATM   27  C   UNL     1     -11.874   6.053  72.003  1.00  0.00    -0.284 C  
HETATM   28  C   UNL     1     -11.148   6.450  70.738  1.00  0.00    -0.307 C  
HETATM   29  O   UNL     1     -11.620   6.257  69.623  1.00  0.00    -0.430 OA 
HETATM   30  N   UNL     1      -9.986   7.154  70.899  1.00  0.00    -0.189 N  
HETATM   31  H   UNL     1      -9.572   7.588  70.075  1.00  0.00     0.000 HD 
ENDBRANCH  19  20
ENDBRANCH  18  19
ENDBRANCH  17  18
ENDBRANCH  16  17
ENDBRANCH  15  16
ENDBRANCH  12  15
ENDBRANCH   6   9
TORSDOF 7
ENDMDL
MODEL      217
REMARK 921   NORMALIZED FREE ENERGY PREDICTED BY IDOCK:   -4.03 KCAL/MOL
REMARK 922        TOTAL FREE ENERGY PREDICTED BY IDOCK:   -7.28 KCAL/MOL
REMARK 923 INTER-LIGAND FREE ENERGY PREDICTED BY IDOCK:   -7.03 KCAL/MOL
REMARK 924 INTRA-LIGAND FREE ENERGY PREDICTED BY IDOCK:   -0.24 KCAL/MOL
REMARK 927      BINDING AFFINITY PREDICTED BY RF-SCORE:    0.00 PKD
ROOT
HETATM    1 CL   UNL     1     -10.381  19.727  69.762  1.00  0.00     0.033 Cl 
HETATM    2  C   UNL     1     -10.391  19.000  68.186  1.00  0.00    -0.368 A  
HETATM    3  C   UNL     1     -10.276  19.871  67.104  1.00  0.00    -0.579 A  
HETATM    4  C   UNL     1     -10.292  19.362  65.814  1.00  0.00    -0.431 A  
HETATM    5  C   UNL     1     -10.468  17.993  65.611  1.00  0.00    -0.101 A  
HETATM    6  C   UNL     1     -10.605  17.068  66.671  1.00  0.00    -0.182 A  
HETATM    7  C   UNL     1     -10.519  17.608  67.987  1.00  0.00    -0.394 A  
HETATM    8 CL   UNL     1     -10.444  16.580  69.395  1.00  0.00    -0.312 Cl 
ENDROOT
BRANCH   6   9
HETATM    9  N   UNL     1     -10.864  15.739  66.355  1.00  0.00    -0.273 NA 
HETATM   10  C   UNL     1     -10.436  14.629  67.225  1.00  0.00    -0.266 C  
HETATM   11  C   UNL     1     -11.539  13.554  67.352  1.00  0.00    -0.356 C  
HETATM   12  N   UNL     1     -12.079  13.060  66.065  1.00  0.00    -0.432 NA 
HETATM   13  C   UNL     1     -11.496  15.340  65.080  1.00  0.00    -0.300 C  
HETATM   14  C   UNL     1     -12.566  14.246  65.317  1.00  0.00    -0.394 C  
BRANCH  12  15
HETATM   15  C   UNL     1     -11.075  12.316  65.286  1.00  0.00    -0.316 C  
BRANCH  15  16
HETATM   16  C   UNL     1     -10.352  11.222  66.095  1.00  0.00    -0.300 C  
BRANCH  16  17
HETATM   17  C   UNL     1      -8.823  11.265  65.997  1.00  0.00    -0.189 C  
BRANCH  17  18
HETATM   18  C   UNL     1      -8.192  10.327  67.015  1.00  0.00    -0.122 C  
BRANCH  18  19
HETATM   19  O   UNL     1      -7.205   9.502  66.399  1.00  0.00    -0.087 OA 
BRANCH  19  20
HETATM   20  C   UNL     1      -7.382   8.160  66.639  1.00  0.00    -0.082 A  
HETATM   21  C   UNL     1      -8.286   7.516  65.790  1.00  0.00    -0.144 A  
HETATM   22  C   UNL     1      -8.537   6.154  65.959  1.00  0.00    -0.145 A  
HETATM   23  C   UNL     1      -7.889   5.425  66.966  1.00  0.00    -0.101 A  
HETATM   24  C   UNL     1      -6.964   6.067  67.785  1.00  0.00    -0.069 A  
HETATM   25  C   UNL     1      -8.101   3.943  67.068  1.00  0.00    -0.096 C  
HETATM   26  C   UNL     1      -6.707   7.423  67.618  1.00  0.00    -0.066 A  
HETATM   27  C   UNL     1      -9.462   3.530  66.538  1.00  0.00    -0.172 C  
HETATM   28  C   UNL     1      -9.796   4.195  65.222  1.00  0.00    -0.208 C  
HETATM   29  O   UNL     1     -10.479   3.645  64.365  1.00  0.00    -0.220 OA 
HETATM   30  N   UNL     1      -9.406   5.499  65.083  1.00  0.00    -0.360 N  
HETATM   31  H   UNL     1      -9.771   6.026  64.290  1.00  0.00     0.000 HD 
ENDBRANCH  19  20
ENDBRANCH  18  19
ENDBRANCH  17  18
ENDBRANCH  16  17
ENDBRANCH  15  16
ENDBRANCH  12  15
ENDBRANCH   6   9
TORSDOF 7
ENDMDL
MODEL      218
REMARK 921   NORMALIZED FREE ENERGY PREDICTED BY IDOCK:   -4.02 KCAL/MOL
REMARK 922        TOTAL FREE ENERGY PREDICTED BY IDOCK:   -7.27 KCAL/MOL
REMARK 923 INTER-LIGAND FREE ENERGY PREDICTED BY IDOCK:   -7.24 KCAL/MOL
REMARK 924 INTRA-LIGAND FREE ENERGY PREDICTED BY IDOCK:   -0.03 KCAL/MOL
REMARK 927      BINDING AFFINITY PREDICTED BY RF-SCORE:    0.00 PKD
ROOT
HETATM    1 CL   UNL     1      -7.725   7.694  72.731  1.00  0.00    -0.109 Cl 
HETATM    2  C   UNL     1      -7.507   7.427  71.030  1.00  0.00    -0.074 A  
HETATM    3  C   UNL     1      -6.684   6.362  70.672  1.00  0.00    -0.057 A  
HETATM    4  C   UNL     1      -6.452   6.098  69.330  1.00  0.00    -0.043 A  
HETATM    5  C   UNL     1      -7.009   6.927  68.355  1.00  0.00    -0.080 A  
HETATM    6  C   UNL     1      -7.838   8.029  68.663  1.00  0.00    -0.118 A  
HETATM    7  C   UNL     1      -8.113   8.238  70.045  1.00  0.00    -0.116 A  
HETATM    8 CL   UNL     1      -9.292   9.410  70.577  1.00  0.00    -0.305 Cl 
ENDROOT
BRANCH   6   9
HETATM    9  N   UNL     1      -8.266   8.841  67.619  1.00  0.00    -0.110 NA 
HETATM   10  C   UNL     1      -8.564  10.272  67.810  1.00  0.00    -0.118 C  
HETATM   11  C   UNL     1      -8.015  11.123  66.643  1.00  0.00    -0.159 C  
HETATM   12  N   UNL     1      -8.411  10.660  65.294  1.00  0.00    -0.168 NA 
HETATM   13  C   UNL     1      -8.551   8.308  66.270  1.00  0.00    -0.138 C  
HETATM   14  C   UNL     1      -7.979   9.246  65.178  1.00  0.00    -0.116 C  
BRANCH  12  15
HETATM   15  C   UNL     1      -9.859  10.796  65.060  1.00  0.00    -0.288 C  
BRANCH  15  16
HETATM   16  C   UNL     1     -10.518  11.916  65.888  1.00  0.00    -0.296 C  
BRANCH  16  17
HETATM   17  C   UNL     1     -10.230  13.333  65.381  1.00  0.00    -0.304 C  
BRANCH  17  18
HETATM   18  C   UNL     1     -10.740  14.371  66.369  1.00  0.00    -0.306 C  
BRANCH  18  19
HETATM   19  O   UNL     1     -10.035  14.282  67.606  1.00  0.00    -0.222 OA 
BRANCH  19  20
HETATM   20  C   UNL     1     -10.854  14.089  68.693  1.00  0.00    -0.258 A  
HETATM   21  C   UNL     1     -10.810  15.097  69.660  1.00  0.00    -0.297 A  
HETATM   22  C   UNL     1     -11.602  14.989  70.803  1.00  0.00    -0.317 A  
HETATM   23  C   UNL     1     -12.443  13.883  70.991  1.00  0.00    -0.452 A  
HETATM   24  C   UNL     1     -12.506  12.900  70.007  1.00  0.00    -0.084 A  
HETATM   25  C   UNL     1     -13.356  13.833  72.181  1.00  0.00    -0.569 C  
HETATM   26  C   UNL     1     -11.722  13.005  68.864  1.00  0.00    -0.371 A  
HETATM   27  C   UNL     1     -12.796  14.614  73.355  1.00  0.00    -0.526 C  
HETATM   28  C   UNL     1     -12.252  15.964  72.946  1.00  0.00    -0.500 C  
HETATM   29  O   UNL     1     -12.293  16.939  73.689  1.00  0.00    -0.278 OA 
HETATM   30  N   UNL     1     -11.594  16.018  71.748  1.00  0.00    -0.464 N  
HETATM   31  H   UNL     1     -11.065  16.862  71.530  1.00  0.00     0.000 HD 
ENDBRANCH  19  20
ENDBRANCH  18  19
ENDBRANCH  17  18
ENDBRANCH  16  17
ENDBRANCH  15  16
ENDBRANCH  12  15
ENDBRANCH   6   9
TORSDOF 7
ENDMDL
MODEL      219
REMARK 921   NORMALIZED FREE ENERGY PREDICTED BY IDOCK:   -4.02 KCAL/MOL
REMARK 922        TOTAL FREE ENERGY PREDICTED BY IDOCK:   -7.26 KCAL/MOL
REMARK 923 INTER-LIGAND FREE ENERGY PREDICTED BY IDOCK:   -6.25 KCAL/MOL
REMARK 924 INTRA-LIGAND FREE ENERGY PREDICTED BY IDOCK:   -1.01 KCAL/MOL
REMARK 927      BINDING AFFINITY PREDICTED BY RF-SCORE:    0.00 PKD
ROOT
HETATM    1 CL   UNL     1      -8.473   5.250  74.071  1.00  0.00    -0.113 Cl 
HETATM    2  C   UNL     1      -8.786   5.289  72.364  1.00  0.00    -0.125 A  
HETATM    3  C   UNL     1      -9.399   4.161  71.824  1.00  0.00    -0.194 A  
HETATM    4  C   UNL     1      -9.666   4.116  70.463  1.00  0.00    -0.270 A  
HETATM    5  C   UNL     1      -9.279   5.178  69.645  1.00  0.00    -0.164 A  
HETATM    6  C   UNL     1      -8.640   6.337  70.138  1.00  0.00    -0.134 A  
HETATM    7  C   UNL     1      -8.437   6.388  71.548  1.00  0.00    -0.129 A  
HETATM    8 CL   UNL     1      -7.870   7.835  72.340  1.00  0.00    -0.115 Cl 
ENDROOT
BRANCH   6   9
HETATM    9  N   UNL     1      -8.218   7.295  69.223  1.00  0.00    -0.130 NA 
HETATM   10  C   UNL     1      -8.829   8.635  69.152  1.00  0.00    -0.137 C  
HETATM   11  C   UNL     1      -7.757   9.734  68.968  1.00  0.00    -0.085 C  
HETATM   12  N   UNL     1      -6.816   9.505  67.849  1.00  0.00    -0.074 NA 
HETATM   13  C   UNL     1      -7.198   7.006  68.193  1.00  0.00    -0.091 C  
HETATM   14  C   UNL     1      -6.192   8.178  68.074  1.00  0.00    -0.047 C  
BRANCH  12  15
HETATM   15  C   UNL     1      -7.483   9.564  66.537  1.00  0.00    -0.093 C  
BRANCH  15  16
HETATM   16  C   UNL     1      -8.019  10.963  66.177  1.00  0.00    -0.155 C  
BRANCH  16  17
HETATM   17  C   UNL     1      -8.645  11.064  64.783  1.00  0.00     0.083 C  
BRANCH  17  18
HETATM   18  C   UNL     1     -10.097  10.611  64.812  1.00  0.00    -0.344 C  
BRANCH  18  19
HETATM   19  O   UNL     1     -10.957  11.690  65.174  1.00  0.00    -0.294 OA 
BRANCH  19  20
HETATM   20  C   UNL     1     -11.281  11.711  66.510  1.00  0.00    -0.294 A  
HETATM   21  C   UNL     1     -11.558  12.976  67.037  1.00  0.00    -0.413 A  
HETATM   22  C   UNL     1     -11.891  13.101  68.386  1.00  0.00    -0.351 A  
HETATM   23  C   UNL     1     -11.957  11.974  69.215  1.00  0.00    -0.329 A  
HETATM   24  C   UNL     1     -11.713  10.713  68.674  1.00  0.00    -0.228 A  
HETATM   25  C   UNL     1     -12.410  12.119  70.639  1.00  0.00    -0.385 C  
HETATM   26  C   UNL     1     -11.384  10.583  67.330  1.00  0.00    -0.120 A  
HETATM   27  C   UNL     1     -12.096  13.497  71.192  1.00  0.00    -0.157 C  
HETATM   28  C   UNL     1     -12.453  14.604  70.227  1.00  0.00    -0.346 C  
HETATM   29  O   UNL     1     -12.831  15.708  70.606  1.00  0.00    -0.463 OA 
HETATM   30  N   UNL     1     -12.212  14.358  68.903  1.00  0.00    -0.553 N  
HETATM   31  H   UNL     1     -12.271  15.141  68.252  1.00  0.00     0.000 HD 
ENDBRANCH  19  20
ENDBRANCH  18  19
ENDBRANCH  17  18
ENDBRANCH  16  17
ENDBRANCH  15  16
ENDBRANCH  12  15
ENDBRANCH   6   9
TORSDOF 7
ENDMDL
MODEL      220
REMARK 921   NORMALIZED FREE ENERGY PREDICTED BY IDOCK:   -4.01 KCAL/MOL
REMARK 922        TOTAL FREE ENERGY PREDICTED BY IDOCK:   -7.26 KCAL/MOL
REMARK 923 INTER-LIGAND FREE ENERGY PREDICTED BY IDOCK:   -6.38 KCAL/MOL
REMARK 924 INTRA-LIGAND FREE ENERGY PREDICTED BY IDOCK:   -0.87 KCAL/MOL
REMARK 927      BINDING AFFINITY PREDICTED BY RF-SCORE:    0.00 PKD
ROOT
HETATM    1 CL   UNL     1     -10.628  11.598  66.594  1.00  0.00    -0.268 Cl 
HETATM    2  C   UNL     1     -11.132  11.221  68.212  1.00  0.00    -0.240 A  
HETATM    3  C   UNL     1     -11.732  12.254  68.928  1.00  0.00    -0.380 A  
HETATM    4  C   UNL     1     -12.147  12.029  70.232  1.00  0.00    -0.395 A  
HETATM    5  C   UNL     1     -11.918  10.789  70.829  1.00  0.00    -0.464 A  
HETATM    6  C   UNL     1     -11.300   9.713  70.154  1.00  0.00    -0.227 A  
HETATM    7  C   UNL     1     -10.944   9.948  68.794  1.00  0.00    -0.179 A  
HETATM    8 CL   UNL     1     -10.379   8.661  67.759  1.00  0.00    -0.292 Cl 
ENDROOT
BRANCH   6   9
HETATM    9  N   UNL     1     -11.040   8.549  70.870  1.00  0.00    -0.249 NA 
HETATM   10  C   UNL     1      -9.900   8.438  71.798  1.00  0.00    -0.243 C  
HETATM   11  C   UNL     1     -10.303   7.711  73.101  1.00  0.00    -0.352 C  
HETATM   12  N   UNL     1     -10.975   6.406  72.905  1.00  0.00    -0.253 NA 
HETATM   13  C   UNL     1     -11.826   7.312  70.677  1.00  0.00    -0.252 C  
HETATM   14  C   UNL     1     -12.155   6.654  72.040  1.00  0.00    -0.310 C  
BRANCH  12  15
HETATM   15  C   UNL     1     -10.079   5.401  72.308  1.00  0.00    -0.186 C  
BRANCH  15  16
HETATM   16  C   UNL     1     -10.485   3.947  72.620  1.00  0.00    -0.204 C  
BRANCH  16  17
HETATM   17  C   UNL     1      -9.903   2.906  71.658  1.00  0.00    -0.209 C  
BRANCH  17  18
HETATM   18  C   UNL     1      -9.051   3.576  70.591  1.00  0.00    -0.116 C  
BRANCH  18  19
HETATM   19  O   UNL     1      -8.032   2.691  70.128  1.00  0.00    -0.043 OA 
BRANCH  19  20
HETATM   20  C   UNL     1      -7.899   2.674  68.760  1.00  0.00    -0.053 A  
HETATM   21  C   UNL     1      -9.021   3.104  68.046  1.00  0.00    -0.193 A  
HETATM   22  C   UNL     1      -8.985   3.117  66.651  1.00  0.00    -0.156 A  
HETATM   23  C   UNL     1      -7.836   2.708  65.960  1.00  0.00    -0.081 A  
HETATM   24  C   UNL     1      -6.711   2.313  66.680  1.00  0.00    -0.039 A  
HETATM   25  C   UNL     1      -7.785   2.820  64.464  1.00  0.00    -0.077 C  
HETATM   26  C   UNL     1      -6.741   2.303  68.070  1.00  0.00    -0.036 A  
HETATM   27  C   UNL     1      -9.166   2.715  63.843  1.00  0.00    -0.109 C  
HETATM   28  C   UNL     1     -10.194   3.550  64.573  1.00  0.00    -0.135 C  
HETATM   29  O   UNL     1     -11.142   4.073  63.997  1.00  0.00    -0.258 OA 
HETATM   30  N   UNL     1     -10.088   3.589  65.937  1.00  0.00    -0.387 N  
HETATM   31  H   UNL     1     -10.863   3.989  66.465  1.00  0.00     0.000 HD 
ENDBRANCH  19  20
ENDBRANCH  18  19
ENDBRANCH  17  18
ENDBRANCH  16  17
ENDBRANCH  15  16
ENDBRANCH  12  15
ENDBRANCH   6   9
TORSDOF 7
ENDMDL
MODEL      221
REMARK 921   NORMALIZED FREE ENERGY PREDICTED BY IDOCK:   -3.99 KCAL/MOL
REMARK 922        TOTAL FREE ENERGY PREDICTED BY IDOCK:   -7.23 KCAL/MOL
REMARK 923 INTER-LIGAND FREE ENERGY PREDICTED BY IDOCK:   -7.09 KCAL/MOL
REMARK 924 INTRA-LIGAND FREE ENERGY PREDICTED BY IDOCK:   -0.13 KCAL/MOL
REMARK 927      BINDING AFFINITY PREDICTED BY RF-SCORE:    0.00 PKD
ROOT
HETATM    1 CL   UNL     1      -7.033  20.708  64.983  1.00  0.00    -0.183 Cl 
HETATM    2  C   UNL     1      -6.853  19.200  65.823  1.00  0.00    -0.276 A  
HETATM    3  C   UNL     1      -5.569  18.661  65.854  1.00  0.00    -0.199 A  
HETATM    4  C   UNL     1      -5.353  17.449  66.495  1.00  0.00    -0.226 A  
HETATM    5  C   UNL     1      -6.428  16.763  67.061  1.00  0.00    -0.229 A  
HETATM    6  C   UNL     1      -7.752  17.257  67.044  1.00  0.00    -0.197 A  
HETATM    7  C   UNL     1      -7.936  18.534  66.438  1.00  0.00    -0.267 A  
HETATM    8 CL   UNL     1      -9.458  19.382  66.532  1.00  0.00    -0.394 Cl 
ENDROOT
BRANCH   6   9
HETATM    9  N   UNL     1      -8.761  16.451  67.558  1.00  0.00    -0.177 NA 
HETATM   10  C   UNL     1      -9.962  16.102  66.777  1.00  0.00    -0.258 C  
HETATM   11  C   UNL     1     -10.340  14.615  66.958  1.00  0.00    -0.263 C  
HETATM   12  N   UNL     1     -10.458  14.169  68.365  1.00  0.00    -0.247 NA 
HETATM   13  C   UNL     1      -8.752  15.970  68.956  1.00  0.00    -0.245 C  
HETATM   14  C   UNL     1      -9.167  14.480  69.026  1.00  0.00    -0.058 C  
BRANCH  12  15
HETATM   15  C   UNL     1     -11.583  14.814  69.063  1.00  0.00    -0.297 C  
BRANCH  15  16
HETATM   16  C   UNL     1     -11.819  14.275  70.487  1.00  0.00    -0.364 C  
BRANCH  16  17
HETATM   17  C   UNL     1     -12.370  12.846  70.542  1.00  0.00    -0.362 C  
BRANCH  17  18
HETATM   18  C   UNL     1     -11.343  11.853  70.020  1.00  0.00    -0.012 C  
BRANCH  18  19
HETATM   19  O   UNL     1     -11.897  10.540  69.953  1.00  0.00    -0.268 OA 
BRANCH  19  20
HETATM   20  C   UNL     1     -11.094   9.575  70.513  1.00  0.00    -0.283 A  
HETATM   21  C   UNL     1     -11.770   8.481  71.060  1.00  0.00    -0.310 A  
HETATM   22  C   UNL     1     -11.043   7.451  71.657  1.00  0.00    -0.236 A  
HETATM   23  C   UNL     1      -9.643   7.500  71.710  1.00  0.00    -0.178 A  
HETATM   24  C   UNL     1      -8.976   8.578  71.132  1.00  0.00    -0.232 A  
HETATM   25  C   UNL     1      -8.876   6.339  72.271  1.00  0.00    -0.136 C  
HETATM   26  C   UNL     1      -9.696   9.604  70.533  1.00  0.00    -0.280 A  
HETATM   27  C   UNL     1      -9.685   5.575  73.303  1.00  0.00    -0.160 C  
HETATM   28  C   UNL     1     -11.107   5.324  72.855  1.00  0.00    -0.305 C  
HETATM   29  O   UNL     1     -11.730   4.321  73.185  1.00  0.00    -0.134 OA 
HETATM   30  N   UNL     1     -11.714   6.336  72.163  1.00  0.00    -0.316 N  
HETATM   31  H   UNL     1     -12.720   6.272  72.007  1.00  0.00     0.000 HD 
ENDBRANCH  19  20
ENDBRANCH  18  19
ENDBRANCH  17  18
ENDBRANCH  16  17
ENDBRANCH  15  16
ENDBRANCH  12  15
ENDBRANCH   6   9
TORSDOF 7
ENDMDL
MODEL      222
REMARK 921   NORMALIZED FREE ENERGY PREDICTED BY IDOCK:   -3.98 KCAL/MOL
REMARK 922        TOTAL FREE ENERGY PREDICTED BY IDOCK:   -7.21 KCAL/MOL
REMARK 923 INTER-LIGAND FREE ENERGY PREDICTED BY IDOCK:   -5.27 KCAL/MOL
REMARK 924 INTRA-LIGAND FREE ENERGY PREDICTED BY IDOCK:   -1.94 KCAL/MOL
REMARK 927      BINDING AFFINITY PREDICTED BY RF-SCORE:    0.00 PKD
ROOT
HETATM    1 CL   UNL     1      -8.031   7.436  73.813  1.00  0.00    -0.136 Cl 
HETATM    2  C   UNL     1      -8.991   8.194  72.582  1.00  0.00    -0.232 A  
HETATM    3  C   UNL     1     -10.372   8.117  72.742  1.00  0.00    -0.384 A  
HETATM    4  C   UNL     1     -11.203   8.687  71.788  1.00  0.00    -0.396 A  
HETATM    5  C   UNL     1     -10.649   9.292  70.659  1.00  0.00    -0.324 A  
HETATM    6  C   UNL     1      -9.257   9.383  70.439  1.00  0.00    -0.257 A  
HETATM    7  C   UNL     1      -8.425   8.848  71.466  1.00  0.00    -0.114 A  
HETATM    8 CL   UNL     1      -6.695   9.080  71.457  1.00  0.00    -0.079 Cl 
ENDROOT
BRANCH   6   9
HETATM    9  N   UNL     1      -8.814   9.926  69.238  1.00  0.00    -0.161 NA 
HETATM   10  C   UNL     1      -9.507  11.052  68.585  1.00  0.00    -0.195 C  
HETATM   11  C   UNL     1      -8.502  12.086  68.029  1.00  0.00    -0.168 C  
HETATM   12  N   UNL     1      -7.442  11.521  67.162  1.00  0.00    -0.135 NA 
HETATM   13  C   UNL     1      -7.682   9.352  68.482  1.00  0.00    -0.085 C  
HETATM   14  C   UNL     1      -6.753  10.471  67.951  1.00  0.00    -0.065 C  
BRANCH  12  15
HETATM   15  C   UNL     1      -7.981  10.975  65.905  1.00  0.00    -0.054 C  
BRANCH  15  16
HETATM   16  C   UNL     1      -6.983  10.085  65.139  1.00  0.00    -0.134 C  
BRANCH  16  17
HETATM   17  C   UNL     1      -7.618   8.885  64.428  1.00  0.00    -0.114 C  
BRANCH  17  18
HETATM   18  C   UNL     1      -8.802   8.354  65.223  1.00  0.00    -0.069 C  
BRANCH  18  19
HETATM   19  O   UNL     1      -8.627   6.972  65.528  1.00  0.00    -0.146 OA 
BRANCH  19  20
HETATM   20  C   UNL     1      -9.260   6.579  66.683  1.00  0.00    -0.153 A  
HETATM   21  C   UNL     1      -8.417   6.104  67.692  1.00  0.00    -0.108 A  
HETATM   22  C   UNL     1      -8.966   5.676  68.901  1.00  0.00    -0.111 A  
HETATM   23  C   UNL     1     -10.350   5.720  69.116  1.00  0.00    -0.316 A  
HETATM   24  C   UNL     1     -11.179   6.227  68.118  1.00  0.00    -0.239 A  
HETATM   25  C   UNL     1     -10.910   5.345  70.457  1.00  0.00    -0.200 C  
HETATM   26  C   UNL     1     -10.637   6.659  66.913  1.00  0.00    -0.376 A  
HETATM   27  C   UNL     1     -10.026   4.344  71.177  1.00  0.00    -0.243 C  
HETATM   28  C   UNL     1      -8.561   4.711  71.108  1.00  0.00    -0.112 C  
HETATM   29  O   UNL     1      -7.776   4.445  72.012  1.00  0.00    -0.077 OA 
HETATM   30  N   UNL     1      -8.122   5.244  69.927  1.00  0.00    -0.083 N  
HETATM   31  H   UNL     1      -7.116   5.332  69.787  1.00  0.00     0.000 HD 
ENDBRANCH  19  20
ENDBRANCH  18  19
ENDBRANCH  17  18
ENDBRANCH  16  17
ENDBRANCH  15  16
ENDBRANCH  12  15
ENDBRANCH   6   9
TORSDOF 7
ENDMDL
MODEL      223
REMARK 921   NORMALIZED FREE ENERGY PREDICTED BY IDOCK:   -3.97 KCAL/MOL
REMARK 922        TOTAL FREE ENERGY PREDICTED BY IDOCK:   -7.20 KCAL/MOL
REMARK 923 INTER-LIGAND FREE ENERGY PREDICTED BY IDOCK:   -5.98 KCAL/MOL
REMARK 924 INTRA-LIGAND FREE ENERGY PREDICTED BY IDOCK:   -1.22 KCAL/MOL
REMARK 927      BINDING AFFINITY PREDICTED BY RF-SCORE:    0.00 PKD
ROOT
HETATM    1 CL   UNL     1     -12.150  15.783  64.449  1.00  0.00    -0.169 Cl 
HETATM    2  C   UNL     1     -11.760  14.093  64.495  1.00  0.00    -0.413 A  
HETATM    3  C   UNL     1     -12.172  13.334  63.402  1.00  0.00    -0.476 A  
HETATM    4  C   UNL     1     -11.908  11.972  63.378  1.00  0.00    -0.542 A  
HETATM    5  C   UNL     1     -11.274  11.369  64.465  1.00  0.00    -0.251 A  
HETATM    6  C   UNL     1     -10.849  12.089  65.605  1.00  0.00    -0.282 A  
HETATM    7  C   UNL     1     -11.073  13.496  65.575  1.00  0.00    -0.294 A  
HETATM    8 CL   UNL     1     -10.411  14.554  66.795  1.00  0.00    -0.268 Cl 
ENDROOT
BRANCH   6   9
HETATM    9  N   UNL     1     -10.308  11.376  66.668  1.00  0.00    -0.225 NA 
HETATM   10  C   UNL     1     -11.152  10.743  67.699  1.00  0.00    -0.319 C  
HETATM   11  C   UNL     1     -10.633   9.334  68.064  1.00  0.00    -0.208 C  
HETATM   12  N   UNL     1      -9.198   9.271  68.422  1.00  0.00    -0.132 NA 
HETATM   13  C   UNL     1      -8.851  11.287  66.898  1.00  0.00    -0.165 C  
HETATM   14  C   UNL     1      -8.443   9.843  67.280  1.00  0.00    -0.121 C  
BRANCH  12  15
HETATM   15  C   UNL     1      -8.902   9.993  69.671  1.00  0.00    -0.199 C  
BRANCH  15  16
HETATM   16  C   UNL     1      -8.183   9.133  70.728  1.00  0.00    -0.226 C  
BRANCH  16  17
HETATM   17  C   UNL     1      -7.671   7.785  70.209  1.00  0.00    -0.089 C  
BRANCH  17  18
HETATM   18  C   UNL     1      -8.514   6.643  70.756  1.00  0.00    -0.134 C  
BRANCH  18  19
HETATM   19  O   UNL     1      -9.487   6.229  69.800  1.00  0.00    -0.150 OA 
BRANCH  19  20
HETATM   20  C   UNL     1      -8.973   5.442  68.797  1.00  0.00    -0.117 A  
HETATM   21  C   UNL     1      -9.230   5.889  67.497  1.00  0.00    -0.108 A  
HETATM   22  C   UNL     1      -8.754   5.154  66.411  1.00  0.00    -0.113 A  
HETATM   23  C   UNL     1      -8.019   3.978  66.608  1.00  0.00    -0.097 A  
HETATM   24  C   UNL     1      -7.738   3.558  67.906  1.00  0.00    -0.069 A  
HETATM   25  C   UNL     1      -7.435   3.255  65.429  1.00  0.00    -0.076 C  
HETATM   26  C   UNL     1      -8.207   4.289  68.992  1.00  0.00    -0.077 A  
HETATM   27  C   UNL     1      -8.250   3.482  64.169  1.00  0.00    -0.090 C  
HETATM   28  C   UNL     1      -8.635   4.932  63.981  1.00  0.00    -0.133 C  
HETATM   29  O   UNL     1      -8.755   5.439  62.871  1.00  0.00    -0.092 OA 
HETATM   30  N   UNL     1      -8.970   5.624  65.113  1.00  0.00    -0.341 N  
HETATM   31  H   UNL     1      -9.404   6.540  65.003  1.00  0.00     0.000 HD 
ENDBRANCH  19  20
ENDBRANCH  18  19
ENDBRANCH  17  18
ENDBRANCH  16  17
ENDBRANCH  15  16
ENDBRANCH  12  15
ENDBRANCH   6   9
TORSDOF 7
ENDMDL
MODEL      224
REMARK 921   NORMALIZED FREE ENERGY PREDICTED BY IDOCK:   -3.94 KCAL/MOL
REMARK 922        TOTAL FREE ENERGY PREDICTED BY IDOCK:   -7.16 KCAL/MOL
REMARK 923 INTER-LIGAND FREE ENERGY PREDICTED BY IDOCK:   -6.93 KCAL/MOL
REMARK 924 INTRA-LIGAND FREE ENERGY PREDICTED BY IDOCK:   -0.23 KCAL/MOL
REMARK 927      BINDING AFFINITY PREDICTED BY RF-SCORE:    0.00 PKD
ROOT
HETATM    1 CL   UNL     1      -8.133   8.033  72.750  1.00  0.00    -0.187 Cl 
HETATM    2  C   UNL     1      -7.847   7.705  71.070  1.00  0.00    -0.090 A  
HETATM    3  C   UNL     1      -6.905   6.719  70.785  1.00  0.00    -0.059 A  
HETATM    4  C   UNL     1      -6.614   6.414  69.464  1.00  0.00    -0.048 A  
HETATM    5  C   UNL     1      -7.231   7.126  68.435  1.00  0.00    -0.091 A  
HETATM    6  C   UNL     1      -8.181   8.146  68.668  1.00  0.00    -0.125 A  
HETATM    7  C   UNL     1      -8.511   8.394  70.032  1.00  0.00    -0.125 A  
HETATM    8 CL   UNL     1      -9.821   9.458  70.478  1.00  0.00    -0.307 Cl 
ENDROOT
BRANCH   6   9
HETATM    9  N   UNL     1      -8.668   8.853  67.574  1.00  0.00    -0.123 NA 
HETATM   10  C   UNL     1      -8.765  10.325  67.571  1.00  0.00    -0.125 C  
HETATM   11  C   UNL     1      -8.307  10.917  66.220  1.00  0.00    -0.164 C  
HETATM   12  N   UNL     1      -8.956  10.326  65.027  1.00  0.00    -0.181 NA 
HETATM   13  C   UNL     1      -9.215   8.178  66.379  1.00  0.00    -0.199 C  
HETATM   14  C   UNL     1      -8.714   8.864  65.084  1.00  0.00    -0.178 C  
BRANCH  12  15
HETATM   15  C   UNL     1     -10.397  10.625  64.971  1.00  0.00    -0.271 C  
BRANCH  15  16
HETATM   16  C   UNL     1     -10.778  11.966  65.628  1.00  0.00    -0.325 C  
BRANCH  16  17
HETATM   17  C   UNL     1     -12.176  12.477  65.265  1.00  0.00    -0.493 C  
BRANCH  17  18
HETATM   18  C   UNL     1     -12.409  13.864  65.844  1.00  0.00    -0.483 C  
BRANCH  18  19
HETATM   19  O   UNL     1     -11.607  14.834  65.173  1.00  0.00    -0.354 OA 
BRANCH  19  20
HETATM   20  C   UNL     1     -10.771  15.533  66.011  1.00  0.00    -0.326 A  
HETATM   21  C   UNL     1     -10.812  16.923  65.872  1.00  0.00    -0.037 A  
HETATM   22  C   UNL     1      -9.995  17.719  66.675  1.00  0.00    -0.338 A  
HETATM   23  C   UNL     1      -9.139  17.142  67.621  1.00  0.00    -0.227 A  
HETATM   24  C   UNL     1      -9.129  15.757  67.777  1.00  0.00    -0.188 A  
HETATM   25  C   UNL     1      -8.340  18.020  68.539  1.00  0.00    -0.313 C  
HETATM   26  C   UNL     1      -9.944  14.960  66.983  1.00  0.00    -0.240 A  
HETATM   27  C   UNL     1      -8.036  19.366  67.909  1.00  0.00    -0.335 C  
HETATM   28  C   UNL     1      -9.243  19.975  67.233  1.00  0.00    -0.367 C  
HETATM   29  O   UNL     1      -9.422  21.187  67.180  1.00  0.00    -0.256 OA 
HETATM   30  N   UNL     1     -10.069  19.110  66.568  1.00  0.00    -0.374 N  
HETATM   31  H   UNL     1     -10.783  19.505  65.957  1.00  0.00     0.000 HD 
ENDBRANCH  19  20
ENDBRANCH  18  19
ENDBRANCH  17  18
ENDBRANCH  16  17
ENDBRANCH  15  16
ENDBRANCH  12  15
ENDBRANCH   6   9
TORSDOF 7
ENDMDL
MODEL      225
REMARK 921   NORMALIZED FREE ENERGY PREDICTED BY IDOCK:   -3.94 KCAL/MOL
REMARK 922        TOTAL FREE ENERGY PREDICTED BY IDOCK:   -7.16 KCAL/MOL
REMARK 923 INTER-LIGAND FREE ENERGY PREDICTED BY IDOCK:   -6.07 KCAL/MOL
REMARK 924 INTRA-LIGAND FREE ENERGY PREDICTED BY IDOCK:   -1.09 KCAL/MOL
REMARK 927      BINDING AFFINITY PREDICTED BY RF-SCORE:    0.00 PKD
ROOT
HETATM    1 CL   UNL     1      -9.598   1.632  63.354  1.00  0.00    -0.101 Cl 
HETATM    2  C   UNL     1      -8.675   2.322  64.652  1.00  0.00    -0.102 A  
HETATM    3  C   UNL     1      -7.512   1.645  65.011  1.00  0.00    -0.058 A  
HETATM    4  C   UNL     1      -6.733   2.130  66.051  1.00  0.00    -0.035 A  
HETATM    5  C   UNL     1      -7.143   3.263  66.755  1.00  0.00    -0.055 A  
HETATM    6  C   UNL     1      -8.321   3.978  66.443  1.00  0.00    -0.105 A  
HETATM    7  C   UNL     1      -9.068   3.498  65.329  1.00  0.00    -0.144 A  
HETATM    8 CL   UNL     1     -10.418   4.392  64.677  1.00  0.00    -0.105 Cl 
ENDROOT
BRANCH   6   9
HETATM    9  N   UNL     1      -8.682   5.040  67.264  1.00  0.00    -0.104 NA 
HETATM   10  C   UNL     1      -9.360   4.835  68.558  1.00  0.00    -0.133 C  
HETATM   11  C   UNL     1      -8.783   5.763  69.650  1.00  0.00    -0.122 C  
HETATM   12  N   UNL     1      -8.728   7.197  69.285  1.00  0.00    -0.136 NA 
HETATM   13  C   UNL     1      -8.505   6.449  66.856  1.00  0.00    -0.110 C  
HETATM   14  C   UNL     1      -7.945   7.293  68.028  1.00  0.00    -0.119 C  
BRANCH  12  15
HETATM   15  C   UNL     1     -10.069   7.784  69.123  1.00  0.00    -0.196 C  
BRANCH  15  16
HETATM   16  C   UNL     1     -10.803   8.029  70.455  1.00  0.00    -0.241 C  
BRANCH  16  17
HETATM   17  C   UNL     1     -11.529   9.376  70.542  1.00  0.00    -0.317 C  
BRANCH  17  18
HETATM   18  C   UNL     1     -10.937  10.370  69.555  1.00  0.00    -0.262 C  
BRANCH  18  19
HETATM   19  O   UNL     1     -11.966  11.119  68.912  1.00  0.00    -0.394 OA 
BRANCH  19  20
HETATM   20  C   UNL     1     -11.686  11.429  67.602  1.00  0.00    -0.168 A  
HETATM   21  C   UNL     1     -10.905  10.492  66.922  1.00  0.00    -0.252 A  
HETATM   22  C   UNL     1     -10.562  10.720  65.589  1.00  0.00    -0.129 A  
HETATM   23  C   UNL     1     -10.995  11.875  64.925  1.00  0.00    -0.367 A  
HETATM   24  C   UNL     1     -11.802  12.788  65.601  1.00  0.00    -0.472 A  
HETATM   25  C   UNL     1     -10.696  12.055  63.465  1.00  0.00    -0.513 C  
HETATM   26  C   UNL     1     -12.150  12.563  66.928  1.00  0.00    -0.164 A  
HETATM   27  C   UNL     1      -9.424  11.334  63.058  1.00  0.00    -0.385 C  
HETATM   28  C   UNL     1      -9.347   9.933  63.621  1.00  0.00    -0.191 C  
HETATM   29  O   UNL     1      -8.790   9.017  63.025  1.00  0.00    -0.172 OA 
HETATM   30  N   UNL     1      -9.820   9.762  64.894  1.00  0.00    -0.421 N  
HETATM   31  H   UNL     1      -9.618   8.880  65.364  1.00  0.00     0.000 HD 
ENDBRANCH  19  20
ENDBRANCH  18  19
ENDBRANCH  17  18
ENDBRANCH  16  17
ENDBRANCH  15  16
ENDBRANCH  12  15
ENDBRANCH   6   9
TORSDOF 7
ENDMDL
MODEL      226
REMARK 921   NORMALIZED FREE ENERGY PREDICTED BY IDOCK:   -3.93 KCAL/MOL
REMARK 922        TOTAL FREE ENERGY PREDICTED BY IDOCK:   -7.14 KCAL/MOL
REMARK 923 INTER-LIGAND FREE ENERGY PREDICTED BY IDOCK:   -6.57 KCAL/MOL
REMARK 924 INTRA-LIGAND FREE ENERGY PREDICTED BY IDOCK:   -0.57 KCAL/MOL
REMARK 927      BINDING AFFINITY PREDICTED BY RF-SCORE:    0.00 PKD
ROOT
HETATM    1 CL   UNL     1     -10.737  15.291  65.342  1.00  0.00    -0.375 Cl 
HETATM    2  C   UNL     1     -11.065  15.009  67.023  1.00  0.00    -0.334 A  
HETATM    3  C   UNL     1     -11.065  16.132  67.849  1.00  0.00    -0.293 A  
HETATM    4  C   UNL     1     -11.305  15.980  69.207  1.00  0.00    -0.356 A  
HETATM    5  C   UNL     1     -11.499  14.705  69.738  1.00  0.00    -0.325 A  
HETATM    6  C   UNL     1     -11.493  13.533  68.950  1.00  0.00    -0.306 A  
HETATM    7  C   UNL     1     -11.311  13.722  67.549  1.00  0.00    -0.309 A  
HETATM    8 CL   UNL     1     -11.500  12.409  66.415  1.00  0.00    -0.403 Cl 
ENDROOT
BRANCH   6   9
HETATM    9  N   UNL     1     -11.607  12.306  69.594  1.00  0.00    -0.295 NA 
HETATM   10  C   UNL     1     -12.428  12.130  70.806  1.00  0.00    -0.271 C  
HETATM   11  C   UNL     1     -13.235  10.813  70.754  1.00  0.00    -0.027 C  
HETATM   12  N   UNL     1     -12.435   9.603  70.458  1.00  0.00    -0.080 NA 
HETATM   13  C   UNL     1     -10.836  11.118  69.171  1.00  0.00    -0.238 C  
HETATM   14  C   UNL     1     -11.731   9.854  69.176  1.00  0.00     0.227 C  
BRANCH  12  15
HETATM   15  C   UNL     1     -11.483   9.286  71.535  1.00  0.00    -0.384 C  
BRANCH  15  16
HETATM   16  C   UNL     1     -11.385   7.781  71.852  1.00  0.00    -0.315 C  
BRANCH  16  17
HETATM   17  C   UNL     1     -10.236   7.056  71.143  1.00  0.00    -0.208 C  
BRANCH  17  18
HETATM   18  C   UNL     1     -10.739   5.797  70.453  1.00  0.00    -0.302 C  
BRANCH  18  19
HETATM   19  O   UNL     1     -11.454   6.124  69.263  1.00  0.00    -0.404 OA 
BRANCH  19  20
HETATM   20  C   UNL     1     -10.641   6.347  68.177  1.00  0.00    -0.255 A  
HETATM   21  C   UNL     1      -9.792   5.289  67.840  1.00  0.00    -0.189 A  
HETATM   22  C   UNL     1      -8.925   5.422  66.755  1.00  0.00    -0.112 A  
HETATM   23  C   UNL     1      -8.899   6.601  65.998  1.00  0.00    -0.151 A  
HETATM   24  C   UNL     1      -9.773   7.637  66.320  1.00  0.00    -0.126 A  
HETATM   25  C   UNL     1      -8.028   6.686  64.779  1.00  0.00    -0.118 C  
HETATM   26  C   UNL     1     -10.642   7.507  67.397  1.00  0.00    -0.364 A  
HETATM   27  C   UNL     1      -6.811   5.787  64.891  1.00  0.00    -0.051 C  
HETATM   28  C   UNL     1      -7.155   4.410  65.410  1.00  0.00    -0.067 C  
HETATM   29  O   UNL     1      -6.540   3.407  65.064  1.00  0.00    -0.038 OA 
HETATM   30  N   UNL     1      -8.109   4.349  66.390  1.00  0.00    -0.102 N  
HETATM   31  H   UNL     1      -8.231   3.465  66.883  1.00  0.00     0.000 HD 
ENDBRANCH  19  20
ENDBRANCH  18  19
ENDBRANCH  17  18
ENDBRANCH  16  17
ENDBRANCH  15  16
ENDBRANCH  12  15
ENDBRANCH   6   9
TORSDOF 7
ENDMDL
MODEL      227
REMARK 921   NORMALIZED FREE ENERGY PREDICTED BY IDOCK:   -3.92 KCAL/MOL
REMARK 922        TOTAL FREE ENERGY PREDICTED BY IDOCK:   -7.12 KCAL/MOL
REMARK 923 INTER-LIGAND FREE ENERGY PREDICTED BY IDOCK:   -6.84 KCAL/MOL
REMARK 924 INTRA-LIGAND FREE ENERGY PREDICTED BY IDOCK:   -0.29 KCAL/MOL
REMARK 927      BINDING AFFINITY PREDICTED BY RF-SCORE:    0.00 PKD
ROOT
HETATM    1 CL   UNL     1     -10.850   8.141  70.107  1.00  0.00    -0.245 Cl 
HETATM    2  C   UNL     1     -10.552   8.836  68.544  1.00  0.00    -0.129 A  
HETATM    3  C   UNL     1      -9.834   8.050  67.646  1.00  0.00    -0.214 A  
HETATM    4  C   UNL     1      -9.546   8.546  66.383  1.00  0.00    -0.314 A  
HETATM    5  C   UNL     1      -9.938   9.841  66.041  1.00  0.00    -0.342 A  
HETATM    6  C   UNL     1     -10.654  10.685  66.919  1.00  0.00    -0.254 A  
HETATM    7  C   UNL     1     -10.995  10.128  68.185  1.00  0.00    -0.259 A  
HETATM    8 CL   UNL     1     -12.064  10.952  69.291  1.00  0.00    -0.384 Cl 
ENDROOT
BRANCH   6   9
HETATM    9  N   UNL     1     -10.917  11.988  66.509  1.00  0.00    -0.281 NA 
HETATM   10  C   UNL     1     -11.673  12.286  65.279  1.00  0.00    -0.361 C  
HETATM   11  C   UNL     1     -12.679  13.437  65.501  1.00  0.00    -0.410 C  
HETATM   12  N   UNL     1     -12.101  14.664  66.095  1.00  0.00    -0.268 NA 
HETATM   13  C   UNL     1     -10.373  13.163  67.220  1.00  0.00    -0.243 C  
HETATM   14  C   UNL     1     -11.453  14.264  67.367  1.00  0.00    -0.347 C  
BRANCH  12  15
HETATM   15  C   UNL     1     -11.141  15.322  65.193  1.00  0.00    -0.404 C  
BRANCH  15  16
HETATM   16  C   UNL     1      -9.714  15.413  65.767  1.00  0.00    -0.385 C  
BRANCH  16  17
HETATM   17  C   UNL     1      -9.219  16.841  66.016  1.00  0.00    -0.236 C  
BRANCH  17  18
HETATM   18  C   UNL     1      -7.700  16.877  66.096  1.00  0.00    -0.224 C  
BRANCH  18  19
HETATM   19  O   UNL     1      -7.270  17.219  67.412  1.00  0.00    -0.153 OA 
BRANCH  19  20
HETATM   20  C   UNL     1      -6.907  16.133  68.172  1.00  0.00    -0.125 A  
HETATM   21  C   UNL     1      -6.816  14.923  67.479  1.00  0.00    -0.189 A  
HETATM   22  C   UNL     1      -6.459  13.762  68.165  1.00  0.00    -0.124 A  
HETATM   23  C   UNL     1      -6.187  13.797  69.539  1.00  0.00    -0.116 A  
HETATM   24  C   UNL     1      -6.247  15.013  70.216  1.00  0.00    -0.132 A  
HETATM   25  C   UNL     1      -5.713  12.556  70.238  1.00  0.00    -0.165 C  
HETATM   26  C   UNL     1      -6.598  16.173  69.536  1.00  0.00    -0.200 A  
HETATM   27  C   UNL     1      -6.221  11.298  69.560  1.00  0.00    -0.099 C  
HETATM   28  C   UNL     1      -6.077  11.352  68.056  1.00  0.00    -0.046 C  
HETATM   29  O   UNL     1      -5.865  10.350  67.381  1.00  0.00    -0.048 OA 
HETATM   30  N   UNL     1      -6.323  12.562  67.465  1.00  0.00    -0.142 N  
HETATM   31  H   UNL     1      -6.411  12.588  66.449  1.00  0.00     0.000 HD 
ENDBRANCH  19  20
ENDBRANCH  18  19
ENDBRANCH  17  18
ENDBRANCH  16  17
ENDBRANCH  15  16
ENDBRANCH  12  15
ENDBRANCH   6   9
TORSDOF 7
ENDMDL
MODEL      228
REMARK 921   NORMALIZED FREE ENERGY PREDICTED BY IDOCK:   -3.91 KCAL/MOL
REMARK 922        TOTAL FREE ENERGY PREDICTED BY IDOCK:   -7.11 KCAL/MOL
REMARK 923 INTER-LIGAND FREE ENERGY PREDICTED BY IDOCK:   -6.62 KCAL/MOL
REMARK 924 INTRA-LIGAND FREE ENERGY PREDICTED BY IDOCK:   -0.49 KCAL/MOL
REMARK 927      BINDING AFFINITY PREDICTED BY RF-SCORE:    0.00 PKD
ROOT
HETATM    1 CL   UNL     1      -9.286  20.500  66.303  1.00  0.00    -0.232 Cl 
HETATM    2  C   UNL     1      -8.795  18.879  66.682  1.00  0.00    -0.316 A  
HETATM    3  C   UNL     1      -7.523  18.504  66.255  1.00  0.00    -0.289 A  
HETATM    4  C   UNL     1      -7.069  17.218  66.510  1.00  0.00    -0.300 A  
HETATM    5  C   UNL     1      -7.905  16.302  67.150  1.00  0.00    -0.225 A  
HETATM    6  C   UNL     1      -9.208  16.625  67.590  1.00  0.00    -0.208 A  
HETATM    7  C   UNL     1      -9.625  17.971  67.375  1.00  0.00    -0.272 A  
HETATM    8 CL   UNL     1     -11.109  18.590  68.054  1.00  0.00     0.008 Cl 
ENDROOT
BRANCH   6   9
HETATM    9  N   UNL     1      -9.988  15.612  68.136  1.00  0.00    -0.216 NA 
HETATM   10  C   UNL     1     -10.484  15.666  69.524  1.00  0.00    -0.270 C  
HETATM   11  C   UNL     1     -11.953  15.194  69.616  1.00  0.00    -0.329 C  
HETATM   12  N   UNL     1     -12.226  13.880  68.991  1.00  0.00    -0.318 NA 
HETATM   13  C   UNL     1     -10.290  14.366  67.402  1.00  0.00    -0.252 C  
HETATM   14  C   UNL     1     -11.777  13.972  67.580  1.00  0.00    -0.387 C  
BRANCH  12  15
HETATM   15  C   UNL     1     -11.549  12.777  69.694  1.00  0.00    -0.252 C  
BRANCH  15  16
HETATM   16  C   UNL     1     -12.271  11.422  69.559  1.00  0.00    -0.303 C  
BRANCH  16  17
HETATM   17  C   UNL     1     -11.340  10.206  69.536  1.00  0.00    -0.260 C  
BRANCH  17  18
HETATM   18  C   UNL     1     -11.472   9.403  70.821  1.00  0.00    -0.300 C  
BRANCH  18  19
HETATM   19  O   UNL     1     -11.076   8.048  70.614  1.00  0.00    -0.256 OA 
BRANCH  19  20
HETATM   20  C   UNL     1     -10.171   7.591  71.542  1.00  0.00    -0.188 A  
HETATM   21  C   UNL     1      -9.650   6.319  71.291  1.00  0.00    -0.189 A  
HETATM   22  C   UNL     1      -8.728   5.765  72.181  1.00  0.00    -0.133 A  
HETATM   23  C   UNL     1      -8.317   6.472  73.318  1.00  0.00    -0.120 A  
HETATM   24  C   UNL     1      -8.815   7.753  73.543  1.00  0.00    -0.312 A  
HETATM   25  C   UNL     1      -7.254   5.899  74.210  1.00  0.00    -0.088 C  
HETATM   26  C   UNL     1      -9.731   8.311  72.657  1.00  0.00    -0.357 A  
HETATM   27  C   UNL     1      -7.241   4.382  74.168  1.00  0.00    -0.072 C  
HETATM   28  C   UNL     1      -7.341   3.841  72.760  1.00  0.00    -0.062 C  
HETATM   29  O   UNL     1      -6.802   2.792  72.422  1.00  0.00    -0.021 OA 
HETATM   30  N   UNL     1      -8.172   4.514  71.907  1.00  0.00    -0.102 N  
HETATM   31  H   UNL     1      -8.400   4.074  71.015  1.00  0.00     0.000 HD 
ENDBRANCH  19  20
ENDBRANCH  18  19
ENDBRANCH  17  18
ENDBRANCH  16  17
ENDBRANCH  15  16
ENDBRANCH  12  15
ENDBRANCH   6   9
TORSDOF 7
ENDMDL
MODEL      229
REMARK 921   NORMALIZED FREE ENERGY PREDICTED BY IDOCK:   -3.89 KCAL/MOL
REMARK 922        TOTAL FREE ENERGY PREDICTED BY IDOCK:   -7.09 KCAL/MOL
REMARK 923 INTER-LIGAND FREE ENERGY PREDICTED BY IDOCK:   -5.52 KCAL/MOL
REMARK 924 INTRA-LIGAND FREE ENERGY PREDICTED BY IDOCK:   -1.57 KCAL/MOL
REMARK 927      BINDING AFFINITY PREDICTED BY RF-SCORE:    0.00 PKD
ROOT
HETATM    1 CL   UNL     1     -11.774   4.971  73.132  1.00  0.00    -0.328 Cl 
HETATM    2  C   UNL     1     -10.869   5.850  71.941  1.00  0.00    -0.254 A  
HETATM    3  C   UNL     1      -9.668   5.276  71.529  1.00  0.00    -0.215 A  
HETATM    4  C   UNL     1      -8.885   5.931  70.590  1.00  0.00    -0.144 A  
HETATM    5  C   UNL     1      -9.283   7.175  70.101  1.00  0.00    -0.155 A  
HETATM    6  C   UNL     1     -10.482   7.809  70.496  1.00  0.00    -0.217 A  
HETATM    7  C   UNL     1     -11.301   7.086  71.411  1.00  0.00    -0.265 A  
HETATM    8 CL   UNL     1     -12.910   7.623  71.823  1.00  0.00    -0.354 Cl 
ENDROOT
BRANCH   6   9
HETATM    9  N   UNL     1     -10.739   9.088  70.015  1.00  0.00    -0.226 NA 
HETATM   10  C   UNL     1     -10.254   9.543  68.699  1.00  0.00    -0.195 C  
HETATM   11  C   UNL     1     -11.335  10.352  67.948  1.00  0.00    -0.173 C  
HETATM   12  N   UNL     1     -11.932  11.465  68.723  1.00  0.00    -0.487 NA 
HETATM   13  C   UNL     1     -11.428  10.113  70.827  1.00  0.00    -0.357 C  
HETATM   14  C   UNL     1     -12.470  10.879  69.975  1.00  0.00    -0.263 C  
BRANCH  12  15
HETATM   15  C   UNL     1     -10.957  12.530  69.010  1.00  0.00    -0.188 C  
BRANCH  15  16
HETATM   16  C   UNL     1     -11.216  13.834  68.230  1.00  0.00    -0.301 C  
BRANCH  16  17
HETATM   17  C   UNL     1      -9.954  14.510  67.685  1.00  0.00    -0.224 C  
BRANCH  17  18
HETATM   18  C   UNL     1      -8.719  14.021  68.427  1.00  0.00    -0.179 C  
BRANCH  18  19
HETATM   19  O   UNL     1      -7.709  13.604  67.510  1.00  0.00    -0.159 OA 
BRANCH  19  20
HETATM   20  C   UNL     1      -7.358  12.282  67.640  1.00  0.00    -0.127 A  
HETATM   21  C   UNL     1      -7.107  11.857  68.948  1.00  0.00    -0.110 A  
HETATM   22  C   UNL     1      -6.738  10.532  69.182  1.00  0.00    -0.069 A  
HETATM   23  C   UNL     1      -6.621   9.623  68.122  1.00  0.00    -0.061 A  
HETATM   24  C   UNL     1      -6.906  10.046  66.826  1.00  0.00    -0.081 A  
HETATM   25  C   UNL     1      -6.316   8.181  68.406  1.00  0.00    -0.050 C  
HETATM   26  C   UNL     1      -7.278  11.364  66.588  1.00  0.00    -0.102 A  
HETATM   27  C   UNL     1      -5.522   8.014  69.688  1.00  0.00    -0.023 C  
HETATM   28  C   UNL     1      -6.071   8.850  70.822  1.00  0.00    -0.040 C  
HETATM   29  O   UNL     1      -6.008   8.488  71.992  1.00  0.00    -0.049 OA 
HETATM   30  N   UNL     1      -6.532  10.095  70.492  1.00  0.00    -0.125 N  
HETATM   31  H   UNL     1      -6.738  10.745  71.251  1.00  0.00     0.000 HD 
ENDBRANCH  19  20
ENDBRANCH  18  19
ENDBRANCH  17  18
ENDBRANCH  16  17
ENDBRANCH  15  16
ENDBRANCH  12  15
ENDBRANCH   6   9
TORSDOF 7
ENDMDL
MODEL      230
REMARK 921   NORMALIZED FREE ENERGY PREDICTED BY IDOCK:   -3.88 KCAL/MOL
REMARK 922        TOTAL FREE ENERGY PREDICTED BY IDOCK:   -7.06 KCAL/MOL
REMARK 923 INTER-LIGAND FREE ENERGY PREDICTED BY IDOCK:   -5.59 KCAL/MOL
REMARK 924 INTRA-LIGAND FREE ENERGY PREDICTED BY IDOCK:   -1.47 KCAL/MOL
REMARK 927      BINDING AFFINITY PREDICTED BY RF-SCORE:    0.00 PKD
ROOT
HETATM    1 CL   UNL     1     -10.966   1.995  74.248  1.00  0.00    -0.189 Cl 
HETATM    2  C   UNL     1     -10.696   3.464  73.364  1.00  0.00    -0.207 A  
HETATM    3  C   UNL     1     -11.231   4.625  73.917  1.00  0.00    -0.129 A  
HETATM    4  C   UNL     1     -11.067   5.834  73.258  1.00  0.00    -0.252 A  
HETATM    5  C   UNL     1     -10.410   5.869  72.027  1.00  0.00    -0.250 A  
HETATM    6  C   UNL     1      -9.863   4.720  71.414  1.00  0.00    -0.187 A  
HETATM    7  C   UNL     1      -9.986   3.502  72.144  1.00  0.00    -0.164 A  
HETATM    8 CL   UNL     1      -9.174   2.043  71.636  1.00  0.00    -0.148 Cl 
ENDROOT
BRANCH   6   9
HETATM    9  N   UNL     1      -9.307   4.853  70.146  1.00  0.00    -0.142 NA 
HETATM   10  C   UNL     1      -7.903   5.258  69.944  1.00  0.00    -0.080 C  
HETATM   11  C   UNL     1      -7.231   4.423  68.831  1.00  0.00    -0.052 C  
HETATM   12  N   UNL     1      -7.975   4.377  67.551  1.00  0.00    -0.095 NA 
HETATM   13  C   UNL     1     -10.107   4.697  68.914  1.00  0.00    -0.033 C  
HETATM   14  C   UNL     1      -9.334   3.868  67.859  1.00  0.00    -0.177 C  
BRANCH  12  15
HETATM   15  C   UNL     1      -8.036   5.693  66.893  1.00  0.00    -0.102 C  
BRANCH  15  16
HETATM   16  C   UNL     1      -6.656   6.346  66.686  1.00  0.00    -0.048 C  
BRANCH  16  17
HETATM   17  C   UNL     1      -6.704   7.843  66.361  1.00  0.00    -0.054 C  
BRANCH  17  18
HETATM   18  C   UNL     1      -8.107   8.393  66.570  1.00  0.00    -0.101 C  
BRANCH  18  19
HETATM   19  O   UNL     1      -8.082   9.529  67.432  1.00  0.00    -0.109 OA 
BRANCH  19  20
HETATM   20  C   UNL     1      -9.125   9.563  68.327  1.00  0.00    -0.127 A  
HETATM   21  C   UNL     1      -9.674  10.828  68.555  1.00  0.00    -0.184 A  
HETATM   22  C   UNL     1     -10.734  10.967  69.452  1.00  0.00    -0.225 A  
HETATM   23  C   UNL     1     -11.255   9.852  70.122  1.00  0.00    -0.347 A  
HETATM   24  C   UNL     1     -10.725   8.591  69.864  1.00  0.00    -0.224 A  
HETATM   25  C   UNL     1     -12.456  10.009  71.009  1.00  0.00    -0.460 C  
HETATM   26  C   UNL     1      -9.672   8.447  68.967  1.00  0.00    -0.171 A  
HETATM   27  C   UNL     1     -12.542  11.404  71.600  1.00  0.00    -0.338 C  
HETATM   28  C   UNL     1     -12.284  12.484  70.574  1.00  0.00    -0.297 C  
HETATM   29  O   UNL     1     -12.827  13.583  70.628  1.00  0.00    -0.228 OA 
HETATM   30  N   UNL     1     -11.313  12.223  69.646  1.00  0.00    -0.471 N  
HETATM   31  H   UNL     1     -10.992  12.993  69.060  1.00  0.00     0.000 HD 
ENDBRANCH  19  20
ENDBRANCH  18  19
ENDBRANCH  17  18
ENDBRANCH  16  17
ENDBRANCH  15  16
ENDBRANCH  12  15
ENDBRANCH   6   9
TORSDOF 7
ENDMDL
MODEL      231
REMARK 921   NORMALIZED FREE ENERGY PREDICTED BY IDOCK:   -3.85 KCAL/MOL
REMARK 922        TOTAL FREE ENERGY PREDICTED BY IDOCK:   -7.03 KCAL/MOL
REMARK 923 INTER-LIGAND FREE ENERGY PREDICTED BY IDOCK:   -6.38 KCAL/MOL
REMARK 924 INTRA-LIGAND FREE ENERGY PREDICTED BY IDOCK:   -0.65 KCAL/MOL
REMARK 927      BINDING AFFINITY PREDICTED BY RF-SCORE:    0.00 PKD
ROOT
HETATM    1 CL   UNL     1      -8.631   2.117  70.398  1.00  0.00    -0.090 Cl 
HETATM    2  C   UNL     1      -9.153   3.374  69.321  1.00  0.00    -0.134 A  
HETATM    3  C   UNL     1      -9.277   3.024  67.978  1.00  0.00    -0.248 A  
HETATM    4  C   UNL     1      -9.675   3.982  67.057  1.00  0.00    -0.214 A  
HETATM    5  C   UNL     1      -9.903   5.293  67.475  1.00  0.00    -0.183 A  
HETATM    6  C   UNL     1      -9.777   5.706  68.821  1.00  0.00    -0.137 A  
HETATM    7  C   UNL     1      -9.431   4.688  69.757  1.00  0.00    -0.168 A  
HETATM    8 CL   UNL     1      -9.454   4.980  71.478  1.00  0.00    -0.191 Cl 
ENDROOT
BRANCH   6   9
HETATM    9  N   UNL     1      -9.941   7.055  69.113  1.00  0.00    -0.162 NA 
HETATM   10  C   UNL     1     -11.271   7.656  69.324  1.00  0.00     0.201 C  
HETATM   11  C   UNL     1     -11.262   8.638  70.517  1.00  0.00    -0.241 C  
HETATM   12  N   UNL     1     -10.201   9.670  70.467  1.00  0.00    -0.281 NA 
HETATM   13  C   UNL     1      -8.806   8.001  69.134  1.00  0.00    -0.145 C  
HETATM   14  C   UNL     1      -8.907   8.952  70.352  1.00  0.00    -0.181 C  
BRANCH  12  15
HETATM   15  C   UNL     1     -10.388  10.611  69.351  1.00  0.00    -0.208 C  
BRANCH  15  16
HETATM   16  C   UNL     1     -11.744  11.344  69.380  1.00  0.00    -0.406 C  
BRANCH  16  17
HETATM   17  C   UNL     1     -11.658  12.822  69.771  1.00  0.00    -0.288 C  
BRANCH  17  18
HETATM   18  C   UNL     1     -10.933  13.621  68.698  1.00  0.00    -0.267 C  
BRANCH  18  19
HETATM   19  O   UNL     1     -10.012  14.538  69.286  1.00  0.00    -0.159 OA 
BRANCH  19  20
HETATM   20  C   UNL     1      -9.896  15.721  68.595  1.00  0.00    -0.210 A  
HETATM   21  C   UNL     1      -8.656  16.356  68.704  1.00  0.00    -0.237 A  
HETATM   22  C   UNL     1      -8.443  17.566  68.043  1.00  0.00    -0.242 A  
HETATM   23  C   UNL     1      -9.456  18.148  67.270  1.00  0.00    -0.260 A  
HETATM   24  C   UNL     1     -10.678  17.492  67.140  1.00  0.00    -0.191 A  
HETATM   25  C   UNL     1      -9.175  19.400  66.491  1.00  0.00    -0.403 C  
HETATM   26  C   UNL     1     -10.893  16.284  67.793  1.00  0.00    -0.315 A  
HETATM   27  C   UNL     1      -8.091  20.239  67.143  1.00  0.00    -0.379 C  
HETATM   28  C   UNL     1      -6.907  19.410  67.588  1.00  0.00    -0.219 C  
HETATM   29  O   UNL     1      -5.763  19.851  67.590  1.00  0.00    -0.183 OA 
HETATM   30  N   UNL     1      -7.190  18.178  68.112  1.00  0.00    -0.238 N  
HETATM   31  H   UNL     1      -6.438  17.675  68.583  1.00  0.00     0.000 HD 
ENDBRANCH  19  20
ENDBRANCH  18  19
ENDBRANCH  17  18
ENDBRANCH  16  17
ENDBRANCH  15  16
ENDBRANCH  12  15
ENDBRANCH   6   9
TORSDOF 7
ENDMDL
MODEL      232
REMARK 921   NORMALIZED FREE ENERGY PREDICTED BY IDOCK:   -3.84 KCAL/MOL
REMARK 922        TOTAL FREE ENERGY PREDICTED BY IDOCK:   -7.02 KCAL/MOL
REMARK 923 INTER-LIGAND FREE ENERGY PREDICTED BY IDOCK:   -6.57 KCAL/MOL
REMARK 924 INTRA-LIGAND FREE ENERGY PREDICTED BY IDOCK:   -0.45 KCAL/MOL
REMARK 927      BINDING AFFINITY PREDICTED BY RF-SCORE:    0.00 PKD
ROOT
HETATM    1 CL   UNL     1      -6.167   6.951  62.672  1.00  0.00    -0.039 Cl 
HETATM    2  C   UNL     1      -7.356   5.967  63.467  1.00  0.00    -0.065 A  
HETATM    3  C   UNL     1      -8.085   5.102  62.653  1.00  0.00    -0.092 A  
HETATM    4  C   UNL     1      -9.063   4.296  63.218  1.00  0.00    -0.134 A  
HETATM    5  C   UNL     1      -9.337   4.392  64.583  1.00  0.00    -0.150 A  
HETATM    6  C   UNL     1      -8.639   5.262  65.449  1.00  0.00    -0.149 A  
HETATM    7  C   UNL     1      -7.595   6.031  64.857  1.00  0.00    -0.092 A  
HETATM    8 CL   UNL     1      -6.496   6.982  65.823  1.00  0.00    -0.049 Cl 
ENDROOT
BRANCH   6   9
HETATM    9  N   UNL     1      -9.053   5.342  66.774  1.00  0.00    -0.115 NA 
HETATM   10  C   UNL     1      -8.838   4.241  67.731  1.00  0.00    -0.111 C  
HETATM   11  C   UNL     1      -8.375   4.771  69.107  1.00  0.00    -0.081 C  
HETATM   12  N   UNL     1      -9.228   5.835  69.684  1.00  0.00    -0.137 NA 
HETATM   13  C   UNL     1      -9.824   6.492  67.292  1.00  0.00    -0.140 C  
HETATM   14  C   UNL     1      -9.295   6.926  68.681  1.00  0.00    -0.135 C  
BRANCH  12  15
HETATM   15  C   UNL     1     -10.574   5.346  70.028  1.00  0.00    -0.284 C  
BRANCH  15  16
HETATM   16  C   UNL     1     -11.620   6.467  70.180  1.00  0.00    -0.466 C  
BRANCH  16  17
HETATM   17  C   UNL     1     -12.130   6.670  71.611  1.00  0.00    -0.404 C  
BRANCH  17  18
HETATM   18  C   UNL     1     -10.968   6.850  72.576  1.00  0.00    -0.260 C  
BRANCH  18  19
HETATM   19  O   UNL     1     -10.881   8.204  73.016  1.00  0.00    -0.331 OA 
BRANCH  19  20
HETATM   20  C   UNL     1     -11.184   9.122  72.038  1.00  0.00    -0.240 A  
HETATM   21  C   UNL     1     -10.125   9.460  71.191  1.00  0.00    -0.335 A  
HETATM   22  C   UNL     1     -10.332  10.389  70.169  1.00  0.00    -0.056 A  
HETATM   23  C   UNL     1     -11.589  10.981  69.983  1.00  0.00    -0.427 A  
HETATM   24  C   UNL     1     -12.646  10.612  70.811  1.00  0.00    -0.479 A  
HETATM   25  C   UNL     1     -11.814  11.903  68.821  1.00  0.00    -0.371 C  
HETATM   26  C   UNL     1     -12.446   9.684  71.827  1.00  0.00    -0.487 A  
HETATM   27  C   UNL     1     -10.535  12.603  68.400  1.00  0.00    -0.248 C  
HETATM   28  C   UNL     1      -9.356  11.660  68.327  1.00  0.00    -0.191 C  
HETATM   29  O   UNL     1      -8.445  11.812  67.520  1.00  0.00    -0.141 OA 
HETATM   30  N   UNL     1      -9.289  10.694  69.293  1.00  0.00    -0.356 N  
HETATM   31  H   UNL     1      -8.422  10.163  69.379  1.00  0.00     0.000 HD 
ENDBRANCH  19  20
ENDBRANCH  18  19
ENDBRANCH  17  18
ENDBRANCH  16  17
ENDBRANCH  15  16
ENDBRANCH  12  15
ENDBRANCH   6   9
TORSDOF 7
ENDMDL
MODEL      233
REMARK 921   NORMALIZED FREE ENERGY PREDICTED BY IDOCK:   -3.81 KCAL/MOL
REMARK 922        TOTAL FREE ENERGY PREDICTED BY IDOCK:   -6.97 KCAL/MOL
REMARK 923 INTER-LIGAND FREE ENERGY PREDICTED BY IDOCK:   -7.68 KCAL/MOL
REMARK 924 INTRA-LIGAND FREE ENERGY PREDICTED BY IDOCK:    0.71 KCAL/MOL
REMARK 927      BINDING AFFINITY PREDICTED BY RF-SCORE:    0.00 PKD
ROOT
HETATM    1 CL   UNL     1      -8.167   8.484  64.055  1.00  0.00    -0.154 Cl 
HETATM    2  C   UNL     1      -9.098   9.948  64.067  1.00  0.00    -0.259 A  
HETATM    3  C   UNL     1      -9.309  10.556  62.831  1.00  0.00    -0.347 A  
HETATM    4  C   UNL     1     -10.032  11.738  62.766  1.00  0.00     0.089 A  
HETATM    5  C   UNL     1     -10.501  12.329  63.939  1.00  0.00    -0.458 A  
HETATM    6  C   UNL     1     -10.302  11.765  65.219  1.00  0.00    -0.274 A  
HETATM    7  C   UNL     1      -9.614  10.517  65.252  1.00  0.00    -0.249 A  
HETATM    8 CL   UNL     1      -9.483   9.582  66.720  1.00  0.00    -0.201 Cl 
ENDROOT
BRANCH   6   9
HETATM    9  N   UNL     1     -10.734  12.482  66.329  1.00  0.00    -0.256 NA 
HETATM   10  C   UNL     1     -10.036  12.415  67.626  1.00  0.00    -0.200 C  
HETATM   11  C   UNL     1      -9.920  13.812  68.276  1.00  0.00    -0.243 C  
HETATM   12  N   UNL     1     -11.194  14.559  68.382  1.00  0.00    -0.259 NA 
HETATM   13  C   UNL     1     -11.977  13.281  66.317  1.00  0.00    -0.417 C  
HETATM   14  C   UNL     1     -11.757  14.648  67.012  1.00  0.00    -0.362 C  
BRANCH  12  15
HETATM   15  C   UNL     1     -12.143  13.915  69.306  1.00  0.00    -0.339 C  
BRANCH  15  16
HETATM   16  C   UNL     1     -11.858  12.420  69.545  1.00  0.00    -0.368 C  
BRANCH  16  17
HETATM   17  C   UNL     1     -12.467  11.855  70.832  1.00  0.00    -0.397 C  
BRANCH  17  18
HETATM   18  C   UNL     1     -12.637  10.347  70.729  1.00  0.00    -0.371 C  
BRANCH  18  19
HETATM   19  O   UNL     1     -11.439   9.734  70.255  1.00  0.00    -0.253 OA 
BRANCH  19  20
HETATM   20  C   UNL     1     -11.110   8.578  70.924  1.00  0.00    -0.255 A  
HETATM   21  C   UNL     1     -10.367   7.653  70.185  1.00  0.00    -0.217 A  
HETATM   22  C   UNL     1      -9.989   6.447  70.776  1.00  0.00    -0.185 A  
HETATM   23  C   UNL     1     -10.343   6.155  72.100  1.00  0.00    -0.227 A  
HETATM   24  C   UNL     1     -11.055   7.097  72.839  1.00  0.00    -0.338 A  
HETATM   25  C   UNL     1      -9.846   4.895  72.745  1.00  0.00    -0.192 C  
HETATM   26  C   UNL     1     -11.429   8.302  72.257  1.00  0.00    -0.452 A  
HETATM   27  C   UNL     1      -9.606   3.796  71.726  1.00  0.00    -0.226 C  
HETATM   28  C   UNL     1      -8.871   4.293  70.502  1.00  0.00    -0.085 C  
HETATM   29  O   UNL     1      -8.097   3.582  69.869  1.00  0.00    -0.049 OA 
HETATM   30  N   UNL     1      -9.208   5.541  70.055  1.00  0.00    -0.137 N  
HETATM   31  H   UNL     1      -8.867   5.829  69.138  1.00  0.00     0.000 HD 
ENDBRANCH  19  20
ENDBRANCH  18  19
ENDBRANCH  17  18
ENDBRANCH  16  17
ENDBRANCH  15  16
ENDBRANCH  12  15
ENDBRANCH   6   9
TORSDOF 7
ENDMDL
MODEL      234
REMARK 921   NORMALIZED FREE ENERGY PREDICTED BY IDOCK:   -3.80 KCAL/MOL
REMARK 922        TOTAL FREE ENERGY PREDICTED BY IDOCK:   -6.96 KCAL/MOL
REMARK 923 INTER-LIGAND FREE ENERGY PREDICTED BY IDOCK:   -5.85 KCAL/MOL
REMARK 924 INTRA-LIGAND FREE ENERGY PREDICTED BY IDOCK:   -1.11 KCAL/MOL
REMARK 927      BINDING AFFINITY PREDICTED BY RF-SCORE:    0.00 PKD
ROOT
HETATM    1 CL   UNL     1     -13.488  11.640  72.256  1.00  0.00    -0.344 Cl 
HETATM    2  C   UNL     1     -12.794  12.721  71.088  1.00  0.00    -0.226 A  
HETATM    3  C   UNL     1     -12.809  14.075  71.415  1.00  0.00    -0.434 A  
HETATM    4  C   UNL     1     -12.285  14.998  70.522  1.00  0.00    -0.391 A  
HETATM    5  C   UNL     1     -11.790  14.568  69.290  1.00  0.00    -0.361 A  
HETATM    6  C   UNL     1     -11.764  13.210  68.902  1.00  0.00    -0.326 A  
HETATM    7  C   UNL     1     -12.247  12.276  69.864  1.00  0.00    -0.163 A  
HETATM    8 CL   UNL     1     -12.079  10.554  69.634  1.00  0.00    -0.283 Cl 
ENDROOT
BRANCH   6   9
HETATM    9  N   UNL     1     -11.332  12.901  67.618  1.00  0.00    -0.285 NA 
HETATM   10  C   UNL     1     -12.177  13.124  66.430  1.00  0.00    -0.329 C  
HETATM   11  C   UNL     1     -11.359  13.716  65.260  1.00  0.00    -0.296 C  
HETATM   12  N   UNL     1     -10.127  12.968  64.919  1.00  0.00    -0.252 NA 
HETATM   13  C   UNL     1     -10.038  12.234  67.360  1.00  0.00    -0.200 C  
HETATM   14  C   UNL     1      -9.314  12.887  66.157  1.00  0.00    -0.092 C  
BRANCH  12  15
HETATM   15  C   UNL     1     -10.419  11.627  64.386  1.00  0.00    -0.322 C  
BRANCH  15  16
HETATM   16  C   UNL     1      -9.234  10.988  63.636  1.00  0.00    -0.210 C  
BRANCH  16  17
HETATM   17  C   UNL     1      -9.122   9.469  63.803  1.00  0.00    -0.153 C  
BRANCH  17  18
HETATM   18  C   UNL     1      -7.729   9.081  64.278  1.00  0.00    -0.123 C  
BRANCH  18  19
HETATM   19  O   UNL     1      -7.444   9.671  65.545  1.00  0.00    -0.099 OA 
BRANCH  19  20
HETATM   20  C   UNL     1      -7.115   8.756  66.516  1.00  0.00    -0.080 A  
HETATM   21  C   UNL     1      -8.034   8.643  67.564  1.00  0.00    -0.106 A  
HETATM   22  C   UNL     1      -7.785   7.744  68.602  1.00  0.00    -0.118 A  
HETATM   23  C   UNL     1      -6.629   6.952  68.603  1.00  0.00    -0.054 A  
HETATM   24  C   UNL     1      -5.737   7.047  67.538  1.00  0.00    -0.024 A  
HETATM   25  C   UNL     1      -6.429   5.925  69.679  1.00  0.00    -0.042 C  
HETATM   26  C   UNL     1      -5.982   7.938  66.499  1.00  0.00    -0.041 A  
HETATM   27  C   UNL     1      -7.126   6.316  70.969  1.00  0.00    -0.070 C  
HETATM   28  C   UNL     1      -8.532   6.822  70.737  1.00  0.00    -0.133 C  
HETATM   29  O   UNL     1      -9.433   6.651  71.551  1.00  0.00    -0.158 OA 
HETATM   30  N   UNL     1      -8.724   7.597  69.626  1.00  0.00    -0.136 N  
HETATM   31  H   UNL     1      -9.608   8.098  69.539  1.00  0.00     0.000 HD 
ENDBRANCH  19  20
ENDBRANCH  18  19
ENDBRANCH  17  18
ENDBRANCH  16  17
ENDBRANCH  15  16
ENDBRANCH  12  15
ENDBRANCH   6   9
TORSDOF 7
ENDMDL
MODEL      235
REMARK 921   NORMALIZED FREE ENERGY PREDICTED BY IDOCK:   -3.80 KCAL/MOL
REMARK 922        TOTAL FREE ENERGY PREDICTED BY IDOCK:   -6.95 KCAL/MOL
REMARK 923 INTER-LIGAND FREE ENERGY PREDICTED BY IDOCK:   -6.39 KCAL/MOL
REMARK 924 INTRA-LIGAND FREE ENERGY PREDICTED BY IDOCK:   -0.56 KCAL/MOL
REMARK 927      BINDING AFFINITY PREDICTED BY RF-SCORE:    0.00 PKD
ROOT
HETATM    1 CL   UNL     1     -12.961   6.970  71.147  1.00  0.00    -0.366 Cl 
HETATM    2  C   UNL     1     -11.342   7.356  71.639  1.00  0.00    -0.256 A  
HETATM    3  C   UNL     1     -11.092   7.337  73.009  1.00  0.00    -0.361 A  
HETATM    4  C   UNL     1      -9.824   7.650  73.476  1.00  0.00    -0.357 A  
HETATM    5  C   UNL     1      -8.826   8.022  72.576  1.00  0.00    -0.237 A  
HETATM    6  C   UNL     1      -9.029   8.073  71.179  1.00  0.00    -0.141 A  
HETATM    7  C   UNL     1     -10.321   7.683  70.720  1.00  0.00    -0.203 A  
HETATM    8 CL   UNL     1     -10.666   7.475  69.022  1.00  0.00    -0.189 Cl 
ENDROOT
BRANCH   6   9
HETATM    9  N   UNL     1      -7.993   8.542  70.379  1.00  0.00    -0.093 NA 
HETATM   10  C   UNL     1      -7.806   9.978  70.102  1.00  0.00    -0.123 C  
HETATM   11  C   UNL     1      -6.314  10.377  70.175  1.00  0.00    -0.123 C  
HETATM   12  N   UNL     1      -5.405   9.541  69.358  1.00  0.00    -0.035 NA 
HETATM   13  C   UNL     1      -7.068   7.632  69.671  1.00  0.00    -0.064 C  
HETATM   14  C   UNL     1      -5.608   8.136  69.788  1.00  0.00    -0.026 C  
BRANCH  12  15
HETATM   15  C   UNL     1      -5.649   9.697  67.915  1.00  0.00    -0.040 C  
BRANCH  15  16
HETATM   16  C   UNL     1      -6.448  10.965  67.555  1.00  0.00    -0.058 C  
BRANCH  16  17
HETATM   17  C   UNL     1      -5.585  12.188  67.229  1.00  0.00    -0.135 C  
BRANCH  17  18
HETATM   18  C   UNL     1      -5.883  13.329  68.190  1.00  0.00    -0.105 C  
BRANCH  18  19
HETATM   19  O   UNL     1      -6.656  14.342  67.550  1.00  0.00    -0.230 OA 
BRANCH  19  20
HETATM   20  C   UNL     1      -7.993  14.036  67.455  1.00  0.00    -0.175 A  
HETATM   21  C   UNL     1      -8.595  14.370  66.239  1.00  0.00     0.375 A  
HETATM   22  C   UNL     1      -9.952  14.104  66.047  1.00  0.00    -0.322 A  
HETATM   23  C   UNL     1     -10.714  13.504  67.059  1.00  0.00    -0.278 A  
HETATM   24  C   UNL     1     -10.097  13.144  68.255  1.00  0.00    -0.247 A  
HETATM   25  C   UNL     1     -12.146  13.141  66.798  1.00  0.00    -0.389 C  
HETATM   26  C   UNL     1      -8.745  13.403  68.448  1.00  0.00    -0.134 A  
HETATM   27  C   UNL     1     -12.778  14.048  65.759  1.00  0.00    -0.487 C  
HETATM   28  C   UNL     1     -11.883  14.268  64.561  1.00  0.00    -0.442 C  
HETATM   29  O   UNL     1     -12.329  14.440  63.431  1.00  0.00    -0.622 OA 
HETATM   30  N   UNL     1     -10.544  14.395  64.817  1.00  0.00    -0.530 N  
HETATM   31  H   UNL     1      -9.942  14.721  64.062  1.00  0.00     0.000 HD 
ENDBRANCH  19  20
ENDBRANCH  18  19
ENDBRANCH  17  18
ENDBRANCH  16  17
ENDBRANCH  15  16
ENDBRANCH  12  15
ENDBRANCH   6   9
TORSDOF 7
ENDMDL
MODEL      236
REMARK 921   NORMALIZED FREE ENERGY PREDICTED BY IDOCK:   -3.77 KCAL/MOL
REMARK 922        TOTAL FREE ENERGY PREDICTED BY IDOCK:   -6.92 KCAL/MOL
REMARK 923 INTER-LIGAND FREE ENERGY PREDICTED BY IDOCK:   -6.46 KCAL/MOL
REMARK 924 INTRA-LIGAND FREE ENERGY PREDICTED BY IDOCK:   -0.46 KCAL/MOL
REMARK 927      BINDING AFFINITY PREDICTED BY RF-SCORE:    0.00 PKD
ROOT
HETATM    1 CL   UNL     1     -13.457  15.815  72.503  1.00  0.00    -0.583 Cl 
HETATM    2  C   UNL     1     -13.118  14.321  71.686  1.00  0.00    -0.346 A  
HETATM    3  C   UNL     1     -13.509  13.156  72.342  1.00  0.00    -0.643 A  
HETATM    4  C   UNL     1     -13.256  11.925  71.756  1.00  0.00    -0.426 A  
HETATM    5  C   UNL     1     -12.575  11.863  70.540  1.00  0.00    -0.212 A  
HETATM    6  C   UNL     1     -12.142  13.011  69.840  1.00  0.00    -0.277 A  
HETATM    7  C   UNL     1     -12.473  14.266  70.431  1.00  0.00    -0.362 A  
HETATM    8 CL   UNL     1     -12.211  15.772  69.590  1.00  0.00    -0.296 Cl 
ENDROOT
BRANCH   6   9
HETATM    9  N   UNL     1     -11.394  12.833  68.682  1.00  0.00    -0.271 NA 
HETATM   10  C   UNL     1     -11.885  12.030  67.547  1.00  0.00    -0.205 C  
HETATM   11  C   UNL     1     -11.576  12.715  66.197  1.00  0.00    -0.393 C  
HETATM   12  N   UNL     1     -10.162  13.114  66.010  1.00  0.00    -0.281 NA 
HETATM   13  C   UNL     1     -10.016  13.349  68.545  1.00  0.00    -0.193 C  
HETATM   14  C   UNL     1      -9.806  13.991  67.152  1.00  0.00    -0.240 C  
BRANCH  12  15
HETATM   15  C   UNL     1      -9.260  11.953  65.930  1.00  0.00    -0.141 C  
BRANCH  15  16
HETATM   16  C   UNL     1      -9.700  10.897  64.897  1.00  0.00    -0.318 C  
BRANCH  16  17
HETATM   17  C   UNL     1      -9.517   9.446  65.355  1.00  0.00    -0.322 C  
BRANCH  17  18
HETATM   18  C   UNL     1      -9.158   9.389  66.832  1.00  0.00    -0.135 C  
BRANCH  18  19
HETATM   19  O   UNL     1      -8.574   8.131  67.163  1.00  0.00    -0.121 OA 
BRANCH  19  20
HETATM   20  C   UNL     1      -7.813   7.595  66.152  1.00  0.00    -0.096 A  
HETATM   21  C   UNL     1      -8.296   6.400  65.611  1.00  0.00    -0.147 A  
HETATM   22  C   UNL     1      -7.589   5.775  64.583  1.00  0.00    -0.083 A  
HETATM   23  C   UNL     1      -6.405   6.333  64.085  1.00  0.00    -0.030 A  
HETATM   24  C   UNL     1      -5.948   7.542  64.606  1.00  0.00    -0.038 A  
HETATM   25  C   UNL     1      -5.712   5.695  62.916  1.00  0.00    -0.014 C  
HETATM   26  C   UNL     1      -6.651   8.171  65.627  1.00  0.00    -0.049 A  
HETATM   27  C   UNL     1      -5.976   4.203  62.850  1.00  0.00    -0.017 C  
HETATM   28  C   UNL     1      -7.433   3.862  63.072  1.00  0.00    -0.050 C  
HETATM   29  O   UNL     1      -7.971   2.902  62.531  1.00  0.00    -0.068 OA 
HETATM   30  N   UNL     1      -8.095   4.605  64.011  1.00  0.00    -0.098 N  
HETATM   31  H   UNL     1      -9.015   4.286  64.311  1.00  0.00     0.000 HD 
ENDBRANCH  19  20
ENDBRANCH  18  19
ENDBRANCH  17  18
ENDBRANCH  16  17
ENDBRANCH  15  16
ENDBRANCH  12  15
ENDBRANCH   6   9
TORSDOF 7
ENDMDL
MODEL      237
REMARK 921   NORMALIZED FREE ENERGY PREDICTED BY IDOCK:   -3.77 KCAL/MOL
REMARK 922        TOTAL FREE ENERGY PREDICTED BY IDOCK:   -6.91 KCAL/MOL
REMARK 923 INTER-LIGAND FREE ENERGY PREDICTED BY IDOCK:   -6.25 KCAL/MOL
REMARK 924 INTRA-LIGAND FREE ENERGY PREDICTED BY IDOCK:   -0.66 KCAL/MOL
REMARK 927      BINDING AFFINITY PREDICTED BY RF-SCORE:    0.00 PKD
ROOT
HETATM    1 CL   UNL     1      -9.864   1.898  70.908  1.00  0.00    -0.131 Cl 
HETATM    2  C   UNL     1      -9.055   3.369  71.350  1.00  0.00    -0.111 A  
HETATM    3  C   UNL     1      -8.339   3.344  72.545  1.00  0.00    -0.084 A  
HETATM    4  C   UNL     1      -7.679   4.489  72.969  1.00  0.00    -0.087 A  
HETATM    5  C   UNL     1      -7.775   5.662  72.220  1.00  0.00    -0.102 A  
HETATM    6  C   UNL     1      -8.500   5.746  71.010  1.00  0.00    -0.123 A  
HETATM    7  C   UNL     1      -9.113   4.540  70.563  1.00  0.00    -0.115 A  
HETATM    8 CL   UNL     1      -9.851   4.417  68.986  1.00  0.00    -0.222 Cl 
ENDROOT
BRANCH   6   9
HETATM    9  N   UNL     1      -8.604   6.986  70.391  1.00  0.00    -0.141 NA 
HETATM   10  C   UNL     1      -9.901   7.661  70.199  1.00  0.00    -0.184 C  
HETATM   11  C   UNL     1      -9.800   9.173  70.506  1.00  0.00    -0.233 C  
HETATM   12  N   UNL     1      -8.708   9.881  69.800  1.00  0.00    -0.209 NA 
HETATM   13  C   UNL     1      -7.438   7.669  69.791  1.00  0.00    -0.090 C  
HETATM   14  C   UNL     1      -7.447   9.178  70.139  1.00  0.00    -0.082 C  
BRANCH  12  15
HETATM   15  C   UNL     1      -8.920   9.921  68.343  1.00  0.00    -0.120 C  
BRANCH  15  16
HETATM   16  C   UNL     1      -7.834  10.705  67.581  1.00  0.00    -0.105 C  
BRANCH  16  17
HETATM   17  C   UNL     1      -8.297  12.056  67.027  1.00  0.00    -0.178 C  
BRANCH  17  18
HETATM   18  C   UNL     1      -9.751  12.316  67.390  1.00  0.00    -0.185 C  
BRANCH  18  19
HETATM   19  O   UNL     1     -10.326  13.286  66.517  1.00  0.00    -0.275 OA 
BRANCH  19  20
HETATM   20  C   UNL     1     -10.353  14.555  67.044  1.00  0.00    -0.263 A  
HETATM   21  C   UNL     1      -9.496  15.474  66.433  1.00  0.00    -0.320 A  
HETATM   22  C   UNL     1      -9.448  16.787  66.902  1.00  0.00    -0.241 A  
HETATM   23  C   UNL     1     -10.251  17.195  67.975  1.00  0.00    -0.332 A  
HETATM   24  C   UNL     1     -11.127  16.281  68.556  1.00  0.00    -0.368 A  
HETATM   25  C   UNL     1     -10.254  18.634  68.401  1.00  0.00    -0.415 C  
HETATM   26  C   UNL     1     -11.182  14.973  68.090  1.00  0.00    -0.316 A  
HETATM   27  C   UNL     1      -8.934  19.316  68.092  1.00  0.00    -0.371 C  
HETATM   28  C   UNL     1      -8.430  18.999  66.703  1.00  0.00    -0.304 C  
HETATM   29  O   UNL     1      -7.778  19.801  66.043  1.00  0.00    -0.315 OA 
HETATM   30  N   UNL     1      -8.626  17.718  66.262  1.00  0.00    -0.223 N  
HETATM   31  H   UNL     1      -8.142  17.425  65.414  1.00  0.00     0.000 HD 
ENDBRANCH  19  20
ENDBRANCH  18  19
ENDBRANCH  17  18
ENDBRANCH  16  17
ENDBRANCH  15  16
ENDBRANCH  12  15
ENDBRANCH   6   9
TORSDOF 7
ENDMDL
MODEL      238
REMARK 921   NORMALIZED FREE ENERGY PREDICTED BY IDOCK:   -3.76 KCAL/MOL
REMARK 922        TOTAL FREE ENERGY PREDICTED BY IDOCK:   -6.90 KCAL/MOL
REMARK 923 INTER-LIGAND FREE ENERGY PREDICTED BY IDOCK:   -5.89 KCAL/MOL
REMARK 924 INTRA-LIGAND FREE ENERGY PREDICTED BY IDOCK:   -1.01 KCAL/MOL
REMARK 927      BINDING AFFINITY PREDICTED BY RF-SCORE:    0.00 PKD
ROOT
HETATM    1 CL   UNL     1     -11.865  15.838  64.010  1.00  0.00    -0.119 Cl 
HETATM    2  C   UNL     1     -11.443  14.175  64.273  1.00  0.00    -0.272 A  
HETATM    3  C   UNL     1     -12.102  13.238  63.480  1.00  0.00    -0.550 A  
HETATM    4  C   UNL     1     -11.826  11.888  63.646  1.00  0.00    -0.573 A  
HETATM    5  C   UNL     1     -10.928  11.481  64.633  1.00  0.00    -0.353 A  
HETATM    6  C   UNL     1     -10.245  12.387  65.474  1.00  0.00    -0.274 A  
HETATM    7  C   UNL     1     -10.496  13.770  65.239  1.00  0.00    -0.363 A  
HETATM    8 CL   UNL     1      -9.571  15.017  66.035  1.00  0.00    -0.344 Cl 
ENDROOT
BRANCH   6   9
HETATM    9  N   UNL     1      -9.441  11.869  66.483  1.00  0.00    -0.212 NA 
HETATM   10  C   UNL     1      -8.063  11.408  66.229  1.00  0.00    -0.064 C  
HETATM   11  C   UNL     1      -7.102  11.858  67.352  1.00  0.00    -0.129 C  
HETATM   12  N   UNL     1      -7.545  11.519  68.724  1.00  0.00    -0.133 NA 
HETATM   13  C   UNL     1      -9.940  11.650  67.857  1.00  0.00    -0.182 C  
HETATM   14  C   UNL     1      -8.894  12.112  68.901  1.00  0.00     0.246 C  
BRANCH  12  15
HETATM   15  C   UNL     1      -7.567  10.066  68.961  1.00  0.00    -0.090 C  
BRANCH  15  16
HETATM   16  C   UNL     1      -8.325   9.659  70.240  1.00  0.00    -0.216 C  
BRANCH  16  17
HETATM   17  C   UNL     1      -8.813   8.207  70.253  1.00  0.00    -0.141 C  
BRANCH  17  18
HETATM   18  C   UNL     1     -10.330   8.148  70.156  1.00  0.00    -0.215 C  
BRANCH  18  19
HETATM   19  O   UNL     1     -10.743   7.048  69.347  1.00  0.00    -0.226 OA 
BRANCH  19  20
HETATM   20  C   UNL     1      -9.920   6.817  68.270  1.00  0.00    -0.146 A  
HETATM   21  C   UNL     1      -9.931   7.811  67.288  1.00  0.00    -0.277 A  
HETATM   22  C   UNL     1      -9.132   7.664  66.153  1.00  0.00    -0.144 A  
HETATM   23  C   UNL     1      -8.318   6.535  65.990  1.00  0.00    -0.133 A  
HETATM   24  C   UNL     1      -8.288   5.566  66.991  1.00  0.00    -0.107 A  
HETATM   25  C   UNL     1      -7.397   6.443  64.809  1.00  0.00    -0.076 C  
HETATM   26  C   UNL     1      -9.078   5.710  68.125  1.00  0.00    -0.111 A  
HETATM   27  C   UNL     1      -7.928   7.218  63.618  1.00  0.00    -0.073 C  
HETATM   28  C   UNL     1      -8.440   8.588  64.000  1.00  0.00    -0.028 C  
HETATM   29  O   UNL     1      -8.370   9.549  63.242  1.00  0.00    -0.156 OA 
HETATM   30  N   UNL     1      -9.107   8.677  65.192  1.00  0.00    -0.426 N  
HETATM   31  H   UNL     1      -9.617   9.537  65.391  1.00  0.00     0.000 HD 
ENDBRANCH  19  20
ENDBRANCH  18  19
ENDBRANCH  17  18
ENDBRANCH  16  17
ENDBRANCH  15  16
ENDBRANCH  12  15
ENDBRANCH   6   9
TORSDOF 7
ENDMDL
MODEL      239
REMARK 921   NORMALIZED FREE ENERGY PREDICTED BY IDOCK:   -3.72 KCAL/MOL
REMARK 922        TOTAL FREE ENERGY PREDICTED BY IDOCK:   -6.84 KCAL/MOL
REMARK 923 INTER-LIGAND FREE ENERGY PREDICTED BY IDOCK:   -5.03 KCAL/MOL
REMARK 924 INTRA-LIGAND FREE ENERGY PREDICTED BY IDOCK:   -1.81 KCAL/MOL
REMARK 927      BINDING AFFINITY PREDICTED BY RF-SCORE:    0.00 PKD
ROOT
HETATM    1 CL   UNL     1     -12.897  13.848  65.672  1.00  0.00    -0.538 Cl 
HETATM    2  C   UNL     1     -11.761  12.536  65.715  1.00  0.00    -0.426 A  
HETATM    3  C   UNL     1     -11.226  12.143  64.491  1.00  0.00    -0.385 A  
HETATM    4  C   UNL     1     -10.322  11.091  64.447  1.00  0.00    -0.424 A  
HETATM    5  C   UNL     1      -9.993  10.410  65.620  1.00  0.00    -0.337 A  
HETATM    6  C   UNL     1     -10.518  10.757  66.884  1.00  0.00    -0.252 A  
HETATM    7  C   UNL     1     -11.392  11.883  66.912  1.00  0.00    -0.330 A  
HETATM    8 CL   UNL     1     -11.946  12.577  68.415  1.00  0.00    -0.337 Cl 
ENDROOT
BRANCH   6   9
HETATM    9  N   UNL     1     -10.193   9.957  67.974  1.00  0.00    -0.172 NA 
HETATM   10  C   UNL     1      -8.796   9.659  68.339  1.00  0.00    -0.123 C  
HETATM   11  C   UNL     1      -8.585   9.735  69.868  1.00  0.00    -0.218 C  
HETATM   12  N   UNL     1      -9.539   8.935  70.669  1.00  0.00    -0.197 NA 
HETATM   13  C   UNL     1     -11.221   9.267  68.781  1.00  0.00     0.215 C  
HETATM   14  C   UNL     1     -10.901   9.384  70.291  1.00  0.00    -0.258 C  
BRANCH  12  15
HETATM   15  C   UNL     1      -9.375   7.488  70.451  1.00  0.00    -0.161 C  
BRANCH  15  16
HETATM   16  C   UNL     1      -7.976   6.960  70.825  1.00  0.00    -0.106 C  
BRANCH  16  17
HETATM   17  C   UNL     1      -7.625   5.602  70.208  1.00  0.00    -0.081 C  
BRANCH  17  18
HETATM   18  C   UNL     1      -6.381   5.712  69.340  1.00  0.00    -0.037 C  
BRANCH  18  19
HETATM   19  O   UNL     1      -6.734   5.895  67.970  1.00  0.00    -0.057 OA 
BRANCH  19  20
HETATM   20  C   UNL     1      -6.335   7.105  67.455  1.00  0.00    -0.050 A  
HETATM   21  C   UNL     1      -6.833   7.406  66.184  1.00  0.00    -0.057 A  
HETATM   22  C   UNL     1      -6.480   8.610  65.574  1.00  0.00    -0.059 A  
HETATM   23  C   UNL     1      -5.636   9.521  66.223  1.00  0.00    -0.052 A  
HETATM   24  C   UNL     1      -5.172   9.229  67.504  1.00  0.00    -0.037 A  
HETATM   25  C   UNL     1      -5.346  10.851  65.591  1.00  0.00    -0.138 C  
HETATM   26  C   UNL     1      -5.524   8.032  68.117  1.00  0.00    -0.033 A  
HETATM   27  C   UNL     1      -5.432  10.786  64.077  1.00  0.00    -0.033 C  
HETATM   28  C   UNL     1      -6.654  10.035  63.599  1.00  0.00    -0.130 C  
HETATM   29  O   UNL     1      -7.232  10.321  62.555  1.00  0.00    -0.133 OA 
HETATM   30  N   UNL     1      -7.013   8.933  64.325  1.00  0.00    -0.088 N  
HETATM   31  H   UNL     1      -7.715   8.307  63.929  1.00  0.00     0.000 HD 
ENDBRANCH  19  20
ENDBRANCH  18  19
ENDBRANCH  17  18
ENDBRANCH  16  17
ENDBRANCH  15  16
ENDBRANCH  12  15
ENDBRANCH   6   9
TORSDOF 7
ENDMDL
MODEL      240
REMARK 921   NORMALIZED FREE ENERGY PREDICTED BY IDOCK:   -3.72 KCAL/MOL
REMARK 922        TOTAL FREE ENERGY PREDICTED BY IDOCK:   -6.84 KCAL/MOL
REMARK 923 INTER-LIGAND FREE ENERGY PREDICTED BY IDOCK:   -6.70 KCAL/MOL
REMARK 924 INTRA-LIGAND FREE ENERGY PREDICTED BY IDOCK:   -0.15 KCAL/MOL
REMARK 927      BINDING AFFINITY PREDICTED BY RF-SCORE:    0.00 PKD
ROOT
HETATM    1 CL   UNL     1      -7.890   9.664  65.151  1.00  0.00    -0.112 Cl 
HETATM    2  C   UNL     1      -7.170   8.785  66.463  1.00  0.00    -0.081 A  
HETATM    3  C   UNL     1      -6.025   8.051  66.161  1.00  0.00    -0.041 A  
HETATM    4  C   UNL     1      -5.405   7.312  67.157  1.00  0.00    -0.022 A  
HETATM    5  C   UNL     1      -5.958   7.274  68.438  1.00  0.00    -0.027 A  
HETATM    6  C   UNL     1      -7.125   7.985  68.794  1.00  0.00    -0.071 A  
HETATM    7  C   UNL     1      -7.705   8.790  67.771  1.00  0.00    -0.102 A  
HETATM    8 CL   UNL     1      -9.010   9.899  68.106  1.00  0.00    -0.119 Cl 
ENDROOT
BRANCH   6   9
HETATM    9  N   UNL     1      -7.640   7.807  70.073  1.00  0.00    -0.084 NA 
HETATM   10  C   UNL     1      -8.794   6.928  70.339  1.00  0.00    -0.152 C  
HETATM   11  C   UNL     1      -8.578   6.085  71.616  1.00  0.00    -0.131 C  
HETATM   12  N   UNL     1      -8.197   6.861  72.818  1.00  0.00    -0.108 NA 
HETATM   13  C   UNL     1      -7.133   8.560  71.240  1.00  0.00    -0.078 C  
HETATM   14  C   UNL     1      -6.977   7.629  72.468  1.00  0.00    -0.072 C  
BRANCH  12  15
HETATM   15  C   UNL     1      -9.277   7.755  73.271  1.00  0.00    -0.258 C  
BRANCH  15  16
HETATM   16  C   UNL     1     -10.624   7.505  72.566  1.00  0.00    -0.321 C  
BRANCH  16  17
HETATM   17  C   UNL     1     -11.336   8.774  72.087  1.00  0.00    -0.411 C  
BRANCH  17  18
HETATM   18  C   UNL     1     -12.844   8.622  72.206  1.00  0.00    -0.383 C  
BRANCH  18  19
HETATM   19  O   UNL     1     -13.486   9.895  72.167  1.00  0.00    -0.429 OA 
BRANCH  19  20
HETATM   20  C   UNL     1     -12.936  10.761  71.251  1.00  0.00    -0.402 A  
HETATM   21  C   UNL     1     -12.771  12.075  71.697  1.00  0.00    -0.326 A  
HETATM   22  C   UNL     1     -12.226  13.030  70.838  1.00  0.00    -0.220 A  
HETATM   23  C   UNL     1     -11.839  12.684  69.536  1.00  0.00    -0.376 A  
HETATM   24  C   UNL     1     -11.976  11.365  69.111  1.00  0.00    -0.395 A  
HETATM   25  C   UNL     1     -11.168  13.703  68.662  1.00  0.00    -0.308 C  
HETATM   26  C   UNL     1     -12.514  10.409  69.965  1.00  0.00    -0.186 A  
HETATM   27  C   UNL     1     -11.588  15.117  69.018  1.00  0.00    -0.350 C  
HETATM   28  C   UNL     1     -11.586  15.364  70.509  1.00  0.00    -0.326 C  
HETATM   29  O   UNL     1     -11.323  16.460  70.991  1.00  0.00    -0.364 OA 
HETATM   30  N   UNL     1     -12.017  14.332  71.297  1.00  0.00    -0.442 N  
HETATM   31  H   UNL     1     -12.198  14.526  72.282  1.00  0.00     0.000 HD 
ENDBRANCH  19  20
ENDBRANCH  18  19
ENDBRANCH  17  18
ENDBRANCH  16  17
ENDBRANCH  15  16
ENDBRANCH  12  15
ENDBRANCH   6   9
TORSDOF 7
ENDMDL
MODEL      241
REMARK 921   NORMALIZED FREE ENERGY PREDICTED BY IDOCK:   -3.71 KCAL/MOL
REMARK 922        TOTAL FREE ENERGY PREDICTED BY IDOCK:   -6.84 KCAL/MOL
REMARK 923 INTER-LIGAND FREE ENERGY PREDICTED BY IDOCK:   -6.71 KCAL/MOL
REMARK 924 INTRA-LIGAND FREE ENERGY PREDICTED BY IDOCK:   -0.13 KCAL/MOL
REMARK 927      BINDING AFFINITY PREDICTED BY RF-SCORE:    0.00 PKD
ROOT
HETATM    1 CL   UNL     1      -8.290   6.211  67.661  1.00  0.00    -0.112 Cl 
HETATM    2  C   UNL     1      -7.989   7.569  66.623  1.00  0.00    -0.110 A  
HETATM    3  C   UNL     1      -6.712   7.654  66.072  1.00  0.00    -0.046 A  
HETATM    4  C   UNL     1      -6.395   8.721  65.245  1.00  0.00    -0.060 A  
HETATM    5  C   UNL     1      -7.339   9.721  65.010  1.00  0.00    -0.128 A  
HETATM    6  C   UNL     1      -8.642   9.693  65.556  1.00  0.00    -0.147 A  
HETATM    7  C   UNL     1      -8.964   8.552  66.347  1.00  0.00    -0.165 A  
HETATM    8 CL   UNL     1     -10.591   8.255  66.906  1.00  0.00    -0.369 Cl 
ENDROOT
BRANCH   6   9
HETATM    9  N   UNL     1      -9.474  10.784  65.330  1.00  0.00    -0.204 NA 
HETATM   10  C   UNL     1      -9.962  11.131  63.982  1.00  0.00    -0.323 C  
HETATM   11  C   UNL     1     -11.454  11.535  64.011  1.00  0.00    -0.244 C  
HETATM   12  N   UNL     1     -11.799  12.580  65.002  1.00  0.00    -0.377 NA 
HETATM   13  C   UNL     1      -9.844  11.729  66.403  1.00  0.00    -0.214 C  
HETATM   14  C   UNL     1     -11.350  12.084  66.326  1.00  0.00    -0.357 C  
BRANCH  12  15
HETATM   15  C   UNL     1     -11.180  13.877  64.682  1.00  0.00    -0.378 C  
BRANCH  15  16
HETATM   16  C   UNL     1     -12.014  15.090  65.140  1.00  0.00    -0.135 C  
BRANCH  16  17
HETATM   17  C   UNL     1     -11.185  16.277  65.640  1.00  0.00     0.155 C  
BRANCH  17  18
HETATM   18  C   UNL     1     -10.766  16.069  67.088  1.00  0.00    -0.283 C  
BRANCH  18  19
HETATM   19  O   UNL     1     -10.898  17.279  67.832  1.00  0.00    -0.369 OA 
BRANCH  19  20
HETATM   20  C   UNL     1      -9.955  18.226  67.515  1.00  0.00    -0.335 A  
HETATM   21  C   UNL     1      -8.972  17.811  66.612  1.00  0.00    -0.283 A  
HETATM   22  C   UNL     1      -7.966  18.701  66.232  1.00  0.00    -0.252 A  
HETATM   23  C   UNL     1      -7.934  20.005  66.742  1.00  0.00    -0.349 A  
HETATM   24  C   UNL     1      -8.936  20.422  67.615  1.00  0.00    -0.364 A  
HETATM   25  C   UNL     1      -6.900  20.974  66.248  1.00  0.00    -0.136 C  
HETATM   26  C   UNL     1      -9.943  19.540  67.993  1.00  0.00    -0.513 A  
HETATM   27  C   UNL     1      -5.637  20.268  65.791  1.00  0.00    -0.200 C  
HETATM   28  C   UNL     1      -5.929  19.058  64.933  1.00  0.00    -0.283 C  
HETATM   29  O   UNL     1      -5.181  18.699  64.030  1.00  0.00    -0.166 OA 
HETATM   30  N   UNL     1      -7.011  18.302  65.296  1.00  0.00     0.036 N  
HETATM   31  H   UNL     1      -7.126  17.390  64.854  1.00  0.00     0.000 HD 
ENDBRANCH  19  20
ENDBRANCH  18  19
ENDBRANCH  17  18
ENDBRANCH  16  17
ENDBRANCH  15  16
ENDBRANCH  12  15
ENDBRANCH   6   9
TORSDOF 7
ENDMDL
MODEL      242
REMARK 921   NORMALIZED FREE ENERGY PREDICTED BY IDOCK:   -3.71 KCAL/MOL
REMARK 922        TOTAL FREE ENERGY PREDICTED BY IDOCK:   -6.83 KCAL/MOL
REMARK 923 INTER-LIGAND FREE ENERGY PREDICTED BY IDOCK:   -5.49 KCAL/MOL
REMARK 924 INTRA-LIGAND FREE ENERGY PREDICTED BY IDOCK:   -1.34 KCAL/MOL
REMARK 927      BINDING AFFINITY PREDICTED BY RF-SCORE:    0.00 PKD
ROOT
HETATM    1 CL   UNL     1      -8.803  15.522  67.489  1.00  0.00    -0.184 Cl 
HETATM    2  C   UNL     1      -7.756  14.137  67.476  1.00  0.00    -0.185 A  
HETATM    3  C   UNL     1      -6.440  14.355  67.877  1.00  0.00    -0.175 A  
HETATM    4  C   UNL     1      -5.543  13.296  67.877  1.00  0.00    -0.125 A  
HETATM    5  C   UNL     1      -5.954  12.039  67.435  1.00  0.00    -0.130 A  
HETATM    6  C   UNL     1      -7.271  11.767  67.003  1.00  0.00    -0.134 A  
HETATM    7  C   UNL     1      -8.190  12.854  67.075  1.00  0.00    -0.080 A  
HETATM    8 CL   UNL     1      -9.898  12.631  66.794  1.00  0.00    -0.230 Cl 
ENDROOT
BRANCH   6   9
HETATM    9  N   UNL     1      -7.551  10.502  66.499  1.00  0.00    -0.121 NA 
HETATM   10  C   UNL     1      -7.703   9.325  67.374  1.00  0.00    -0.095 C  
HETATM   11  C   UNL     1      -8.890   8.441  66.929  1.00  0.00    -0.142 C  
HETATM   12  N   UNL     1      -8.880   8.059  65.498  1.00  0.00    -0.113 NA 
HETATM   13  C   UNL     1      -7.615  10.227  65.048  1.00  0.00    -0.124 C  
HETATM   14  C   UNL     1      -8.823   9.317  64.715  1.00  0.00    -0.185 C  
BRANCH  12  15
HETATM   15  C   UNL     1      -7.752   7.173  65.165  1.00  0.00    -0.116 C  
BRANCH  15  16
HETATM   16  C   UNL     1      -7.870   5.763  65.778  1.00  0.00    -0.102 C  
BRANCH  16  17
HETATM   17  C   UNL     1      -9.216   5.074  65.531  1.00  0.00    -0.157 C  
BRANCH  17  18
HETATM   18  C   UNL     1      -9.741   4.445  66.812  1.00  0.00    -0.215 C  
BRANCH  18  19
HETATM   19  O   UNL     1      -8.892   4.759  67.915  1.00  0.00    -0.103 OA 
BRANCH  19  20
HETATM   20  C   UNL     1      -9.527   5.447  68.921  1.00  0.00    -0.133 A  
HETATM   21  C   UNL     1      -8.687   5.977  69.903  1.00  0.00    -0.131 A  
HETATM   22  C   UNL     1      -9.239   6.688  70.970  1.00  0.00    -0.160 A  
HETATM   23  C   UNL     1     -10.623   6.879  71.064  1.00  0.00    -0.244 A  
HETATM   24  C   UNL     1     -11.451   6.376  70.062  1.00  0.00    -0.496 A  
HETATM   25  C   UNL     1     -11.187   7.727  72.166  1.00  0.00    -0.348 C  
HETATM   26  C   UNL     1     -10.905   5.671  68.996  1.00  0.00    -0.251 A  
HETATM   27  C   UNL     1     -10.302   7.712  73.398  1.00  0.00    -0.374 C  
HETATM   28  C   UNL     1      -8.838   7.884  73.061  1.00  0.00    -0.217 C  
HETATM   29  O   UNL     1      -8.055   8.455  73.813  1.00  0.00    -0.314 OA 
HETATM   30  N   UNL     1      -8.397   7.258  71.928  1.00  0.00    -0.107 N  
HETATM   31  H   UNL     1      -7.390   7.204  71.772  1.00  0.00     0.000 HD 
ENDBRANCH  19  20
ENDBRANCH  18  19
ENDBRANCH  17  18
ENDBRANCH  16  17
ENDBRANCH  15  16
ENDBRANCH  12  15
ENDBRANCH   6   9
TORSDOF 7
ENDMDL
MODEL      243
REMARK 921   NORMALIZED FREE ENERGY PREDICTED BY IDOCK:   -3.69 KCAL/MOL
REMARK 922        TOTAL FREE ENERGY PREDICTED BY IDOCK:   -6.80 KCAL/MOL
REMARK 923 INTER-LIGAND FREE ENERGY PREDICTED BY IDOCK:   -6.34 KCAL/MOL
REMARK 924 INTRA-LIGAND FREE ENERGY PREDICTED BY IDOCK:   -0.46 KCAL/MOL
REMARK 927      BINDING AFFINITY PREDICTED BY RF-SCORE:    0.00 PKD
ROOT
HETATM    1 CL   UNL     1      -9.035   4.496  69.486  1.00  0.00    -0.130 Cl 
HETATM    2  C   UNL     1      -9.907   5.528  70.576  1.00  0.00    -0.193 A  
HETATM    3  C   UNL     1     -10.390   4.931  71.739  1.00  0.00    -0.249 A  
HETATM    4  C   UNL     1     -11.109   5.692  72.649  1.00  0.00    -0.331 A  
HETATM    5  C   UNL     1     -11.380   7.032  72.371  1.00  0.00    -0.307 A  
HETATM    6  C   UNL     1     -10.929   7.682  71.201  1.00  0.00    -0.246 A  
HETATM    7  C   UNL     1     -10.136   6.897  70.315  1.00  0.00    -0.183 A  
HETATM    8 CL   UNL     1      -9.318   7.605  68.945  1.00  0.00    -0.146 Cl 
ENDROOT
BRANCH   6   9
HETATM    9  N   UNL     1     -11.331   8.995  70.981  1.00  0.00    -0.278 NA 
HETATM   10  C   UNL     1     -10.627   9.883  70.038  1.00  0.00    -0.288 C  
HETATM   11  C   UNL     1     -11.623  10.713  69.196  1.00  0.00    -0.271 C  
HETATM   12  N   UNL     1     -12.641  11.448  69.979  1.00  0.00    -0.123 NA 
HETATM   13  C   UNL     1     -12.426   9.624  71.749  1.00  0.00    -0.402 C  
HETATM   14  C   UNL     1     -13.347  10.447  70.816  1.00  0.00    -0.066 C  
BRANCH  12  15
HETATM   15  C   UNL     1     -12.047  12.511  70.808  1.00  0.00    -0.146 C  
BRANCH  15  16
HETATM   16  C   UNL     1     -12.551  13.924  70.457  1.00  0.00    -0.382 C  
BRANCH  16  17
HETATM   17  C   UNL     1     -11.549  15.046  70.749  1.00  0.00    -0.364 C  
BRANCH  17  18
HETATM   18  C   UNL     1     -10.701  15.343  69.522  1.00  0.00    -0.267 C  
BRANCH  18  19
HETATM   19  O   UNL     1     -10.878  14.335  68.528  1.00  0.00    -0.238 OA 
BRANCH  19  20
HETATM   20  C   UNL     1      -9.706  13.728  68.144  1.00  0.00    -0.227 A  
HETATM   21  C   UNL     1      -9.827  12.804  67.102  1.00  0.00    -0.216 A  
HETATM   22  C   UNL     1      -8.693  12.131  66.645  1.00  0.00    -0.153 A  
HETATM   23  C   UNL     1      -7.437  12.374  67.216  1.00  0.00    -0.135 A  
HETATM   24  C   UNL     1      -7.320  13.322  68.231  1.00  0.00    -0.113 A  
HETATM   25  C   UNL     1      -6.217  11.711  66.647  1.00  0.00    -0.079 C  
HETATM   26  C   UNL     1      -8.446  13.998  68.686  1.00  0.00    -0.103 A  
HETATM   27  C   UNL     1      -6.550  10.382  65.995  1.00  0.00    -0.120 C  
HETATM   28  C   UNL     1      -7.779  10.459  65.118  1.00  0.00    -0.110 C  
HETATM   29  O   UNL     1      -7.907   9.774  64.109  1.00  0.00    -0.122 OA 
HETATM   30  N   UNL     1      -8.804  11.242  65.574  1.00  0.00    -0.354 N  
HETATM   31  H   UNL     1      -9.705  11.172  65.102  1.00  0.00     0.000 HD 
ENDBRANCH  19  20
ENDBRANCH  18  19
ENDBRANCH  17  18
ENDBRANCH  16  17
ENDBRANCH  15  16
ENDBRANCH  12  15
ENDBRANCH   6   9
TORSDOF 7
ENDMDL
MODEL      244
REMARK 921   NORMALIZED FREE ENERGY PREDICTED BY IDOCK:   -3.69 KCAL/MOL
REMARK 922        TOTAL FREE ENERGY PREDICTED BY IDOCK:   -6.80 KCAL/MOL
REMARK 923 INTER-LIGAND FREE ENERGY PREDICTED BY IDOCK:   -6.55 KCAL/MOL
REMARK 924 INTRA-LIGAND FREE ENERGY PREDICTED BY IDOCK:   -0.25 KCAL/MOL
REMARK 927      BINDING AFFINITY PREDICTED BY RF-SCORE:    0.00 PKD
ROOT
HETATM    1 CL   UNL     1      -6.552  20.915  64.985  1.00  0.00    -0.208 Cl 
HETATM    2  C   UNL     1      -6.518  19.406  65.842  1.00  0.00    -0.218 A  
HETATM    3  C   UNL     1      -5.328  18.684  65.773  1.00  0.00    -0.186 A  
HETATM    4  C   UNL     1      -5.233  17.462  66.421  1.00  0.00    -0.215 A  
HETATM    5  C   UNL     1      -6.340  16.947  67.097  1.00  0.00    -0.221 A  
HETATM    6  C   UNL     1      -7.574  17.629  67.185  1.00  0.00    -0.205 A  
HETATM    7  C   UNL     1      -7.624  18.913  66.567  1.00  0.00    -0.251 A  
HETATM    8 CL   UNL     1      -8.993  19.976  66.774  1.00  0.00    -0.422 Cl 
ENDROOT
BRANCH   6   9
HETATM    9  N   UNL     1      -8.638  16.986  67.806  1.00  0.00    -0.211 NA 
HETATM   10  C   UNL     1     -10.000  16.999  67.241  1.00  0.00    -0.275 C  
HETATM   11  C   UNL     1     -10.669  15.610  67.351  1.00  0.00    -0.309 C  
HETATM   12  N   UNL     1     -10.648  15.014  68.706  1.00  0.00    -0.232 NA 
HETATM   13  C   UNL     1      -8.504  16.331  69.124  1.00  0.00    -0.218 C  
HETATM   14  C   UNL     1      -9.228  14.962  69.133  1.00  0.00    -0.142 C  
BRANCH  12  15
HETATM   15  C   UNL     1     -11.464  15.777  69.665  1.00  0.00    -0.346 C  
BRANCH  15  16
HETATM   16  C   UNL     1     -11.430  15.209  71.097  1.00  0.00    -0.387 C  
BRANCH  16  17
HETATM   17  C   UNL     1     -12.647  14.357  71.472  1.00  0.00    -0.424 C  
BRANCH  17  18
HETATM   18  C   UNL     1     -12.451  12.915  71.029  1.00  0.00    -0.283 C  
BRANCH  18  19
HETATM   19  O   UNL     1     -11.163  12.736  70.444  1.00  0.00     0.366 OA 
BRANCH  19  20
HETATM   20  C   UNL     1     -10.955  11.471  69.947  1.00  0.00     0.116 A  
HETATM   21  C   UNL     1     -10.549  11.415  68.611  1.00  0.00    -0.229 A  
HETATM   22  C   UNL     1     -10.318  10.175  68.014  1.00  0.00    -0.190 A  
HETATM   23  C   UNL     1     -10.485   8.988  68.740  1.00  0.00    -0.230 A  
HETATM   24  C   UNL     1     -10.856   9.055  70.081  1.00  0.00    -0.261 A  
HETATM   25  C   UNL     1     -10.139   7.671  68.108  1.00  0.00    -0.220 C  
HETATM   26  C   UNL     1     -11.083  10.288  70.681  1.00  0.00    -0.358 A  
HETATM   27  C   UNL     1     -10.302   7.710  66.600  1.00  0.00    -0.258 C  
HETATM   28  C   UNL     1      -9.710   8.958  65.985  1.00  0.00    -0.238 C  
HETATM   29  O   UNL     1      -9.214   8.964  64.863  1.00  0.00    -0.100 OA 
HETATM   30  N   UNL     1      -9.869  10.118  66.693  1.00  0.00    -0.191 N  
HETATM   31  H   UNL     1      -9.644  10.997  66.227  1.00  0.00     0.000 HD 
ENDBRANCH  19  20
ENDBRANCH  18  19
ENDBRANCH  17  18
ENDBRANCH  16  17
ENDBRANCH  15  16
ENDBRANCH  12  15
ENDBRANCH   6   9
TORSDOF 7
ENDMDL
MODEL      245
REMARK 921   NORMALIZED FREE ENERGY PREDICTED BY IDOCK:   -3.68 KCAL/MOL
REMARK 922        TOTAL FREE ENERGY PREDICTED BY IDOCK:   -6.79 KCAL/MOL
REMARK 923 INTER-LIGAND FREE ENERGY PREDICTED BY IDOCK:   -5.99 KCAL/MOL
REMARK 924 INTRA-LIGAND FREE ENERGY PREDICTED BY IDOCK:   -0.80 KCAL/MOL
REMARK 927      BINDING AFFINITY PREDICTED BY RF-SCORE:    0.00 PKD
ROOT
HETATM    1 CL   UNL     1     -10.389   3.661  74.048  1.00  0.00    -0.219 Cl 
HETATM    2  C   UNL     1      -9.562   5.132  73.644  1.00  0.00    -0.133 A  
HETATM    3  C   UNL     1      -8.546   5.527  74.512  1.00  0.00    -0.110 A  
HETATM    4  C   UNL     1      -7.851   6.701  74.260  1.00  0.00    -0.115 A  
HETATM    5  C   UNL     1      -8.205   7.496  73.169  1.00  0.00    -0.158 A  
HETATM    6  C   UNL     1      -9.236   7.151  72.268  1.00  0.00    -0.132 A  
HETATM    7  C   UNL     1      -9.889   5.908  72.510  1.00  0.00    -0.161 A  
HETATM    8 CL   UNL     1     -11.024   5.231  71.370  1.00  0.00    -0.154 Cl 
ENDROOT
BRANCH   6   9
HETATM    9  N   UNL     1      -9.565   8.058  71.267  1.00  0.00    -0.154 NA 
HETATM   10  C   UNL     1      -8.941   8.013  69.931  1.00  0.00    -0.145 C  
HETATM   11  C   UNL     1      -9.982   8.247  68.814  1.00  0.00    -0.183 C  
HETATM   12  N   UNL     1     -10.818   9.458  68.984  1.00  0.00    -0.181 NA 
HETATM   13  C   UNL     1     -10.487   9.190  71.499  1.00  0.00    -0.352 C  
HETATM   14  C   UNL     1     -11.469   9.350  70.313  1.00  0.00    -0.180 C  
BRANCH  12  15
HETATM   15  C   UNL     1     -10.031  10.698  68.876  1.00  0.00    -0.204 C  
BRANCH  15  16
HETATM   16  C   UNL     1      -9.520  10.985  67.451  1.00  0.00    -0.173 C  
BRANCH  16  17
HETATM   17  C   UNL     1      -9.361  12.473  67.121  1.00  0.00    -0.201 C  
BRANCH  17  18
HETATM   18  C   UNL     1      -9.497  13.320  68.377  1.00  0.00    -0.172 C  
BRANCH  18  19
HETATM   19  O   UNL     1      -8.236  13.870  68.755  1.00  0.00    -0.122 OA 
BRANCH  19  20
HETATM   20  C   UNL     1      -7.962  15.079  68.161  1.00  0.00    -0.131 A  
HETATM   21  C   UNL     1      -8.980  16.031  68.251  1.00  0.00    -0.183 A  
HETATM   22  C   UNL     1      -8.799  17.289  67.674  1.00  0.00    -0.220 A  
HETATM   23  C   UNL     1      -7.607  17.607  67.010  1.00  0.00    -0.230 A  
HETATM   24  C   UNL     1      -6.584  16.663  66.955  1.00  0.00    -0.242 A  
HETATM   25  C   UNL     1      -7.395  18.995  66.480  1.00  0.00    -0.248 C  
HETATM   26  C   UNL     1      -6.758  15.411  67.532  1.00  0.00    -0.211 A  
HETATM   27  C   UNL     1      -8.707  19.669  66.125  1.00  0.00    -0.361 C  
HETATM   28  C   UNL     1      -9.762  19.481  67.191  1.00  0.00    -0.342 C  
HETATM   29  O   UNL     1     -10.617  20.328  67.424  1.00  0.00    -0.271 OA 
HETATM   30  N   UNL     1      -9.797  18.257  67.803  1.00  0.00    -0.306 N  
HETATM   31  H   UNL     1     -10.602  18.039  68.390  1.00  0.00     0.000 HD 
ENDBRANCH  19  20
ENDBRANCH  18  19
ENDBRANCH  17  18
ENDBRANCH  16  17
ENDBRANCH  15  16
ENDBRANCH  12  15
ENDBRANCH   6   9
TORSDOF 7
ENDMDL
MODEL      246
REMARK 921   NORMALIZED FREE ENERGY PREDICTED BY IDOCK:   -3.67 KCAL/MOL
REMARK 922        TOTAL FREE ENERGY PREDICTED BY IDOCK:   -6.78 KCAL/MOL
REMARK 923 INTER-LIGAND FREE ENERGY PREDICTED BY IDOCK:   -6.25 KCAL/MOL
REMARK 924 INTRA-LIGAND FREE ENERGY PREDICTED BY IDOCK:   -0.53 KCAL/MOL
REMARK 927      BINDING AFFINITY PREDICTED BY RF-SCORE:    0.00 PKD
ROOT
HETATM    1 CL   UNL     1      -9.297  20.515  66.308  1.00  0.00    -0.232 Cl 
HETATM    2  C   UNL     1      -8.729  18.889  66.522  1.00  0.00    -0.316 A  
HETATM    3  C   UNL     1      -7.445  18.617  66.054  1.00  0.00    -0.265 A  
HETATM    4  C   UNL     1      -6.932  17.334  66.178  1.00  0.00    -0.251 A  
HETATM    5  C   UNL     1      -7.719  16.321  66.727  1.00  0.00    -0.295 A  
HETATM    6  C   UNL     1      -9.031  16.539  67.202  1.00  0.00    -0.205 A  
HETATM    7  C   UNL     1      -9.511  17.879  67.124  1.00  0.00    -0.263 A  
HETATM    8 CL   UNL     1     -11.015  18.358  67.869  1.00  0.00    -0.221 Cl 
ENDROOT
BRANCH   6   9
HETATM    9  N   UNL     1      -9.760  15.442  67.648  1.00  0.00    -0.211 NA 
HETATM   10  C   UNL     1     -10.227  15.325  69.042  1.00  0.00    -0.239 C  
HETATM   11  C   UNL     1     -11.674  14.786  69.107  1.00  0.00    -0.313 C  
HETATM   12  N   UNL     1     -11.910  13.538  68.347  1.00  0.00    -0.360 NA 
HETATM   13  C   UNL     1     -10.030  14.271  66.787  1.00  0.00    -0.265 C  
HETATM   14  C   UNL     1     -11.496  13.800  66.947  1.00  0.00    -0.347 C  
BRANCH  12  15
HETATM   15  C   UNL     1     -11.176  12.393  68.913  1.00  0.00    -0.280 C  
BRANCH  15  16
HETATM   16  C   UNL     1     -11.272  11.113  68.060  1.00  0.00    -0.359 C  
BRANCH  16  17
HETATM   17  C   UNL     1      -9.991  10.273  68.030  1.00  0.00    -0.177 C  
BRANCH  17  18
HETATM   18  C   UNL     1     -10.167   9.056  67.134  1.00  0.00    -0.265 C  
BRANCH  18  19
HETATM   19  O   UNL     1      -8.910   8.436  66.870  1.00  0.00    -0.135 OA 
BRANCH  19  20
HETATM   20  C   UNL     1      -8.918   7.074  67.057  1.00  0.00    -0.125 A  
HETATM   21  C   UNL     1      -8.459   6.321  65.973  1.00  0.00    -0.143 A  
HETATM   22  C   UNL     1      -8.435   4.929  66.063  1.00  0.00    -0.117 A  
HETATM   23  C   UNL     1      -8.861   4.279  67.229  1.00  0.00    -0.121 A  
HETATM   24  C   UNL     1      -9.285   5.039  68.317  1.00  0.00    -0.147 A  
HETATM   25  C   UNL     1      -8.737   2.788  67.341  1.00  0.00    -0.139 C  
HETATM   26  C   UNL     1      -9.307   6.426  68.233  1.00  0.00    -0.109 A  
HETATM   27  C   UNL     1      -8.808   2.113  65.984  1.00  0.00    -0.123 C  
HETATM   28  C   UNL     1      -7.959   2.810  64.945  1.00  0.00    -0.082 C  
HETATM   29  O   UNL     1      -7.411   2.203  64.031  1.00  0.00    -0.056 OA 
HETATM   30  N   UNL     1      -7.933   4.177  64.999  1.00  0.00    -0.092 N  
HETATM   31  H   UNL     1      -7.522   4.679  64.211  1.00  0.00     0.000 HD 
ENDBRANCH  19  20
ENDBRANCH  18  19
ENDBRANCH  17  18
ENDBRANCH  16  17
ENDBRANCH  15  16
ENDBRANCH  12  15
ENDBRANCH   6   9
TORSDOF 7
ENDMDL
MODEL      247
REMARK 921   NORMALIZED FREE ENERGY PREDICTED BY IDOCK:   -3.66 KCAL/MOL
REMARK 922        TOTAL FREE ENERGY PREDICTED BY IDOCK:   -6.76 KCAL/MOL
REMARK 923 INTER-LIGAND FREE ENERGY PREDICTED BY IDOCK:   -6.14 KCAL/MOL
REMARK 924 INTRA-LIGAND FREE ENERGY PREDICTED BY IDOCK:   -0.62 KCAL/MOL
REMARK 927      BINDING AFFINITY PREDICTED BY RF-SCORE:    0.00 PKD
ROOT
HETATM    1 CL   UNL     1      -9.536   2.576  70.633  1.00  0.00    -0.198 Cl 
HETATM    2  C   UNL     1      -9.145   3.947  69.642  1.00  0.00    -0.122 A  
HETATM    3  C   UNL     1      -9.334   3.791  68.271  1.00  0.00    -0.225 A  
HETATM    4  C   UNL     1      -9.028   4.840  67.416  1.00  0.00    -0.115 A  
HETATM    5  C   UNL     1      -8.492   6.021  67.932  1.00  0.00    -0.115 A  
HETATM    6  C   UNL     1      -8.265   6.225  69.311  1.00  0.00    -0.114 A  
HETATM    7  C   UNL     1      -8.650   5.158  70.174  1.00  0.00    -0.108 A  
HETATM    8 CL   UNL     1      -8.645   5.336  71.910  1.00  0.00    -0.129 Cl 
ENDROOT
BRANCH   6   9
HETATM    9  N   UNL     1      -7.645   7.405  69.708  1.00  0.00    -0.093 NA 
HETATM   10  C   UNL     1      -7.948   8.702  69.074  1.00  0.00    -0.115 C  
HETATM   11  C   UNL     1      -8.064   9.828  70.125  1.00  0.00    -0.182 C  
HETATM   12  N   UNL     1      -6.919   9.932  71.058  1.00  0.00    -0.333 NA 
HETATM   13  C   UNL     1      -6.568   7.428  70.719  1.00  0.00    -0.043 C  
HETATM   14  C   UNL     1      -6.767   8.606  71.705  1.00  0.00    -0.083 C  
BRANCH  12  15
HETATM   15  C   UNL     1      -5.678  10.336  70.374  1.00  0.00    -0.078 C  
BRANCH  15  16
HETATM   16  C   UNL     1      -5.873  11.479  69.360  1.00  0.00    -0.065 C  
BRANCH  16  17
HETATM   17  C   UNL     1      -6.026  12.867  69.989  1.00  0.00    -0.139 C  
BRANCH  17  18
HETATM   18  C   UNL     1      -6.925  13.749  69.135  1.00  0.00    -0.082 C  
BRANCH  18  19
HETATM   19  O   UNL     1      -6.974  13.271  67.792  1.00  0.00    -0.120 OA 
BRANCH  19  20
HETATM   20  C   UNL     1      -8.251  13.147  67.298  1.00  0.00    -0.168 A  
HETATM   21  C   UNL     1      -8.703  14.227  66.536  1.00  0.00    -0.011 A  
HETATM   22  C   UNL     1      -9.990  14.197  65.995  1.00  0.00    -0.322 A  
HETATM   23  C   UNL     1     -10.830  13.095  66.206  1.00  0.00    -0.292 A  
HETATM   24  C   UNL     1     -10.358  12.008  66.939  1.00  0.00    -0.238 A  
HETATM   25  C   UNL     1     -12.172  13.041  65.538  1.00  0.00    -0.521 C  
HETATM   26  C   UNL     1      -9.076  12.032  67.475  1.00  0.00    -0.177 A  
HETATM   27  C   UNL     1     -12.730  14.429  65.281  1.00  0.00    -0.277 C  
HETATM   28  C   UNL     1     -11.698  15.370  64.703  1.00  0.00    -0.267 C  
HETATM   29  O   UNL     1     -11.994  16.268  63.921  1.00  0.00    -1.003 OA 
HETATM   30  N   UNL     1     -10.426  15.254  65.195  1.00  0.00    -0.406 N  
HETATM   31  H   UNL     1      -9.755  15.986  64.962  1.00  0.00     0.000 HD 
ENDBRANCH  19  20
ENDBRANCH  18  19
ENDBRANCH  17  18
ENDBRANCH  16  17
ENDBRANCH  15  16
ENDBRANCH  12  15
ENDBRANCH   6   9
TORSDOF 7
ENDMDL
MODEL      248
REMARK 921   NORMALIZED FREE ENERGY PREDICTED BY IDOCK:   -3.63 KCAL/MOL
REMARK 922        TOTAL FREE ENERGY PREDICTED BY IDOCK:   -6.72 KCAL/MOL
REMARK 923 INTER-LIGAND FREE ENERGY PREDICTED BY IDOCK:   -5.55 KCAL/MOL
REMARK 924 INTRA-LIGAND FREE ENERGY PREDICTED BY IDOCK:   -1.17 KCAL/MOL
REMARK 927      BINDING AFFINITY PREDICTED BY RF-SCORE:    0.00 PKD
ROOT
HETATM    1 CL   UNL     1      -8.396   1.508  70.988  1.00  0.00    -0.057 Cl 
HETATM    2  C   UNL     1      -8.884   2.934  70.126  1.00  0.00    -0.086 A  
HETATM    3  C   UNL     1      -8.556   2.980  68.773  1.00  0.00    -0.111 A  
HETATM    4  C   UNL     1      -8.901   4.096  68.024  1.00  0.00    -0.134 A  
HETATM    5  C   UNL     1      -9.530   5.177  68.642  1.00  0.00    -0.178 A  
HETATM    6  C   UNL     1      -9.871   5.190  70.013  1.00  0.00    -0.225 A  
HETATM    7  C   UNL     1      -9.565   4.005  70.744  1.00  0.00    -0.193 A  
HETATM    8 CL   UNL     1     -10.119   3.772  72.383  1.00  0.00    -0.234 Cl 
ENDROOT
BRANCH   6   9
HETATM    9  N   UNL     1     -10.415   6.353  70.544  1.00  0.00    -0.211 NA 
HETATM   10  C   UNL     1     -11.760   6.831  70.173  1.00  0.00    -0.313 C  
HETATM   11  C   UNL     1     -12.537   7.342  71.408  1.00  0.00    -0.388 C  
HETATM   12  N   UNL     1     -11.813   8.337  72.232  1.00  0.00    -0.365 NA 
HETATM   13  C   UNL     1      -9.648   7.246  71.439  1.00  0.00    -0.160 C  
HETATM   14  C   UNL     1     -10.525   7.717  72.626  1.00  0.00    -0.302 C  
BRANCH  12  15
HETATM   15  C   UNL     1     -11.596   9.604  71.513  1.00  0.00    -0.381 C  
BRANCH  15  16
HETATM   16  C   UNL     1     -12.795  10.038  70.647  1.00  0.00    -0.263 C  
BRANCH  16  17
HETATM   17  C   UNL     1     -13.244  11.487  70.864  1.00  0.00     0.177 C  
BRANCH  17  18
HETATM   18  C   UNL     1     -12.108  12.453  70.565  1.00  0.00    -0.275 C  
BRANCH  18  19
HETATM   19  O   UNL     1     -12.050  12.750  69.171  1.00  0.00    -0.261 OA 
BRANCH  19  20
HETATM   20  C   UNL     1     -10.867  12.380  68.578  1.00  0.00    -0.242 A  
HETATM   21  C   UNL     1     -10.952  11.293  67.703  1.00  0.00    -0.312 A  
HETATM   22  C   UNL     1      -9.802  10.839  67.056  1.00  0.00    -0.187 A  
HETATM   23  C   UNL     1      -8.566  11.462  67.271  1.00  0.00    -0.146 A  
HETATM   24  C   UNL     1      -8.496  12.565  68.118  1.00  0.00    -0.180 A  
HETATM   25  C   UNL     1      -7.361  11.018  66.493  1.00  0.00    -0.144 C  
HETATM   26  C   UNL     1      -9.640  13.024  68.761  1.00  0.00     0.083 A  
HETATM   27  C   UNL     1      -7.456   9.559  66.090  1.00  0.00    -0.100 C  
HETATM   28  C   UNL     1      -8.817   9.198  65.539  1.00  0.00    -0.191 C  
HETATM   29  O   UNL     1      -8.967   8.343  64.672  1.00  0.00     0.068 OA 
HETATM   30  N   UNL     1      -9.894   9.783  66.147  1.00  0.00    -0.244 N  
HETATM   31  H   UNL     1     -10.823   9.426  65.921  1.00  0.00     0.000 HD 
ENDBRANCH  19  20
ENDBRANCH  18  19
ENDBRANCH  17  18
ENDBRANCH  16  17
ENDBRANCH  15  16
ENDBRANCH  12  15
ENDBRANCH   6   9
TORSDOF 7
ENDMDL
MODEL      249
REMARK 921   NORMALIZED FREE ENERGY PREDICTED BY IDOCK:   -3.61 KCAL/MOL
REMARK 922        TOTAL FREE ENERGY PREDICTED BY IDOCK:   -6.70 KCAL/MOL
REMARK 923 INTER-LIGAND FREE ENERGY PREDICTED BY IDOCK:   -6.25 KCAL/MOL
REMARK 924 INTRA-LIGAND FREE ENERGY PREDICTED BY IDOCK:   -0.45 KCAL/MOL
REMARK 927      BINDING AFFINITY PREDICTED BY RF-SCORE:    0.00 PKD
ROOT
HETATM    1 CL   UNL     1     -11.533  16.323  68.469  1.00  0.00    -0.340 Cl 
HETATM    2  C   UNL     1     -10.024  15.572  68.054  1.00  0.00    -0.214 A  
HETATM    3  C   UNL     1      -8.911  16.408  68.004  1.00  0.00    -0.185 A  
HETATM    4  C   UNL     1      -7.674  15.880  67.664  1.00  0.00    -0.169 A  
HETATM    5  C   UNL     1      -7.565  14.529  67.333  1.00  0.00    -0.209 A  
HETATM    6  C   UNL     1      -8.664  13.640  67.351  1.00  0.00    -0.213 A  
HETATM    7  C   UNL     1      -9.909  14.194  67.768  1.00  0.00    -0.231 A  
HETATM    8 CL   UNL     1     -11.306  13.189  68.060  1.00  0.00    -0.306 Cl 
ENDROOT
BRANCH   6   9
HETATM    9  N   UNL     1      -8.461  12.335  66.917  1.00  0.00    -0.182 NA 
HETATM   10  C   UNL     1      -9.525  11.553  66.261  1.00  0.00    -0.217 C  
HETATM   11  C   UNL     1      -8.977  10.756  65.056  1.00  0.00    -0.194 C  
HETATM   12  N   UNL     1      -7.790   9.922  65.347  1.00  0.00    -0.126 NA 
HETATM   13  C   UNL     1      -7.201  11.605  67.171  1.00  0.00    -0.145 C  
HETATM   14  C   UNL     1      -6.756  10.825  65.910  1.00  0.00    -0.084 C  
BRANCH  12  15
HETATM   15  C   UNL     1      -8.096   8.820  66.275  1.00  0.00    -0.107 C  
BRANCH  15  16
HETATM   16  C   UNL     1      -9.409   8.083  65.949  1.00  0.00    -0.093 C  
BRANCH  16  17
HETATM   17  C   UNL     1     -10.393   7.991  67.120  1.00  0.00    -0.395 C  
BRANCH  17  18
HETATM   18  C   UNL     1      -9.765   8.536  68.394  1.00  0.00    -0.155 C  
BRANCH  18  19
HETATM   19  O   UNL     1     -10.770   8.954  69.316  1.00  0.00    -0.224 OA 
BRANCH  19  20
HETATM   20  C   UNL     1     -10.800   8.211  70.472  1.00  0.00    -0.240 A  
HETATM   21  C   UNL     1     -10.011   7.058  70.461  1.00  0.00    -0.191 A  
HETATM   22  C   UNL     1      -9.980   6.235  71.587  1.00  0.00    -0.179 A  
HETATM   23  C   UNL     1     -10.727   6.555  72.729  1.00  0.00    -0.269 A  
HETATM   24  C   UNL     1     -11.484   7.724  72.744  1.00  0.00    -0.415 A  
HETATM   25  C   UNL     1     -10.605   5.708  73.962  1.00  0.00    -0.258 C  
HETATM   26  C   UNL     1     -11.514   8.549  71.626  1.00  0.00    -0.365 A  
HETATM   27  C   UNL     1     -10.239   4.274  73.627  1.00  0.00    -0.214 C  
HETATM   28  C   UNL     1      -9.130   4.183  72.604  1.00  0.00    -0.109 C  
HETATM   29  O   UNL     1      -8.313   3.269  72.602  1.00  0.00    -0.077 OA 
HETATM   30  N   UNL     1      -9.157   5.107  71.595  1.00  0.00    -0.140 N  
HETATM   31  H   UNL     1      -8.537   4.963  70.798  1.00  0.00     0.000 HD 
ENDBRANCH  19  20
ENDBRANCH  18  19
ENDBRANCH  17  18
ENDBRANCH  16  17
ENDBRANCH  15  16
ENDBRANCH  12  15
ENDBRANCH   6   9
TORSDOF 7
ENDMDL
MODEL      250
REMARK 921   NORMALIZED FREE ENERGY PREDICTED BY IDOCK:   -3.59 KCAL/MOL
REMARK 922        TOTAL FREE ENERGY PREDICTED BY IDOCK:   -6.65 KCAL/MOL
REMARK 923 INTER-LIGAND FREE ENERGY PREDICTED BY IDOCK:   -6.21 KCAL/MOL
REMARK 924 INTRA-LIGAND FREE ENERGY PREDICTED BY IDOCK:   -0.44 KCAL/MOL
REMARK 927      BINDING AFFINITY PREDICTED BY RF-SCORE:    0.00 PKD
ROOT
HETATM    1 CL   UNL     1      -7.371  20.258  65.463  1.00  0.00    -0.270 Cl 
HETATM    2  C   UNL     1      -7.202  18.698  66.204  1.00  0.00    -0.262 A  
HETATM    3  C   UNL     1      -5.899  18.260  66.430  1.00  0.00    -0.197 A  
HETATM    4  C   UNL     1      -5.687  17.015  67.006  1.00  0.00    -0.212 A  
HETATM    5  C   UNL     1      -6.776  16.198  67.310  1.00  0.00    -0.233 A  
HETATM    6  C   UNL     1      -8.116  16.586  67.087  1.00  0.00    -0.183 A  
HETATM    7  C   UNL     1      -8.308  17.895  66.557  1.00  0.00    -0.262 A  
HETATM    8 CL   UNL     1      -9.896  18.609  66.433  1.00  0.00    -0.371 Cl 
ENDROOT
BRANCH   6   9
HETATM    9  N   UNL     1      -9.121  15.660  67.343  1.00  0.00    -0.191 NA 
HETATM   10  C   UNL     1      -9.971  15.738  68.546  1.00  0.00    -0.208 C  
HETATM   11  C   UNL     1     -11.450  15.442  68.209  1.00  0.00    -0.353 C  
HETATM   12  N   UNL     1     -11.680  14.185  67.461  1.00  0.00    -0.366 NA 
HETATM   13  C   UNL     1      -9.341  14.477  66.486  1.00  0.00    -0.284 C  
HETATM   14  C   UNL     1     -10.853  14.257  66.232  1.00  0.00    -0.310 C  
BRANCH  12  15
HETATM   15  C   UNL     1     -11.346  12.992  68.257  1.00  0.00    -0.288 C  
BRANCH  15  16
HETATM   16  C   UNL     1     -11.038  11.745  67.406  1.00  0.00    -0.338 C  
BRANCH  16  17
HETATM   17  C   UNL     1      -9.693  11.081  67.715  1.00  0.00    -0.183 C  
BRANCH  17  18
HETATM   18  C   UNL     1      -9.886   9.614  68.069  1.00  0.00    -0.150 C  
BRANCH  18  19
HETATM   19  O   UNL     1      -8.628   8.974  68.275  1.00  0.00    -0.128 OA 
BRANCH  19  20
HETATM   20  C   UNL     1      -8.731   7.735  68.862  1.00  0.00    -0.135 A  
HETATM   21  C   UNL     1      -8.801   6.658  67.974  1.00  0.00    -0.115 A  
HETATM   22  C   UNL     1      -8.912   5.360  68.474  1.00  0.00    -0.107 A  
HETATM   23  C   UNL     1      -8.951   5.126  69.855  1.00  0.00    -0.139 A  
HETATM   24  C   UNL     1      -8.846   6.202  70.733  1.00  0.00    -0.140 A  
HETATM   25  C   UNL     1      -8.975   3.717  70.373  1.00  0.00    -0.163 C  
HETATM   26  C   UNL     1      -8.730   7.496  70.240  1.00  0.00    -0.145 A  
HETATM   27  C   UNL     1      -9.626   2.765  69.386  1.00  0.00    -0.051 C  
HETATM   28  C   UNL     1      -9.145   2.982  67.970  1.00  0.00    -0.179 C  
HETATM   29  O   UNL     1      -9.052   2.064  67.161  1.00  0.00    -0.135 OA 
HETATM   30  N   UNL     1      -8.936   4.280  67.590  1.00  0.00    -0.111 N  
HETATM   31  H   UNL     1      -8.789   4.470  66.599  1.00  0.00     0.000 HD 
ENDBRANCH  19  20
ENDBRANCH  18  19
ENDBRANCH  17  18
ENDBRANCH  16  17
ENDBRANCH  15  16
ENDBRANCH  12  15
ENDBRANCH   6   9
TORSDOF 7
ENDMDL
MODEL      251
REMARK 921   NORMALIZED FREE ENERGY PREDICTED BY IDOCK:   -3.57 KCAL/MOL
REMARK 922        TOTAL FREE ENERGY PREDICTED BY IDOCK:   -6.64 KCAL/MOL
REMARK 923 INTER-LIGAND FREE ENERGY PREDICTED BY IDOCK:   -6.90 KCAL/MOL
REMARK 924 INTRA-LIGAND FREE ENERGY PREDICTED BY IDOCK:    0.27 KCAL/MOL
REMARK 927      BINDING AFFINITY PREDICTED BY RF-SCORE:    0.00 PKD
ROOT
HETATM    1 CL   UNL     1     -12.687   7.008  72.229  1.00  0.00    -0.091 Cl 
HETATM    2  C   UNL     1     -11.707   7.109  70.801  1.00  0.00    -0.323 A  
HETATM    3  C   UNL     1     -11.246   5.902  70.281  1.00  0.00    -0.317 A  
HETATM    4  C   UNL     1     -10.445   5.907  69.148  1.00  0.00    -0.338 A  
HETATM    5  C   UNL     1     -10.071   7.120  68.569  1.00  0.00    -0.177 A  
HETATM    6  C   UNL     1     -10.497   8.373  69.065  1.00  0.00    -0.201 A  
HETATM    7  C   UNL     1     -11.373   8.337  70.188  1.00  0.00    -0.060 A  
HETATM    8 CL   UNL     1     -12.163   9.777  70.780  1.00  0.00    -0.353 Cl 
ENDROOT
BRANCH   6   9
HETATM    9  N   UNL     1      -9.994   9.523  68.465  1.00  0.00    -0.162 NA 
HETATM   10  C   UNL     1     -10.874  10.567  67.910  1.00  0.00    -0.282 C  
HETATM   11  C   UNL     1     -10.361  11.982  68.261  1.00  0.00    -0.204 C  
HETATM   12  N   UNL     1      -8.941  12.231  67.924  1.00  0.00    -0.178 NA 
HETATM   13  C   UNL     1      -8.546   9.732  68.252  1.00  0.00    -0.119 C  
HETATM   14  C   UNL     1      -8.144  11.184  68.610  1.00  0.00    -0.150 C  
BRANCH  12  15
HETATM   15  C   UNL     1      -8.700  12.216  66.471  1.00  0.00    -0.114 C  
BRANCH  15  16
HETATM   16  C   UNL     1      -9.916  12.666  65.638  1.00  0.00    -0.253 C  
BRANCH  16  17
HETATM   17  C   UNL     1     -10.491  14.028  66.038  1.00  0.00    -0.307 C  
BRANCH  17  18
HETATM   18  C   UNL     1     -10.224  15.064  64.957  1.00  0.00    -0.314 C  
BRANCH  18  19
HETATM   19  O   UNL     1     -10.948  16.265  65.216  1.00  0.00    -0.325 OA 
BRANCH  19  20
HETATM   20  C   UNL     1     -10.414  17.021  66.233  1.00  0.00    -0.258 A  
HETATM   21  C   UNL     1      -9.401  17.904  65.851  1.00  0.00     0.101 A  
HETATM   22  C   UNL     1      -8.792  18.710  66.813  1.00  0.00    -0.297 A  
HETATM   23  C   UNL     1      -9.188  18.647  68.156  1.00  0.00    -0.340 A  
HETATM   24  C   UNL     1     -10.222  17.789  68.522  1.00  0.00    -0.382 A  
HETATM   25  C   UNL     1      -8.587  19.590  69.157  1.00  0.00    -0.113 C  
HETATM   26  C   UNL     1     -10.834  16.986  67.566  1.00  0.00    -0.203 A  
HETATM   27  C   UNL     1      -7.185  20.014  68.761  1.00  0.00    -0.248 C  
HETATM   28  C   UNL     1      -7.084  20.387  67.299  1.00  0.00    -0.298 C  
HETATM   29  O   UNL     1      -6.309  21.248  66.895  1.00  0.00    -0.303 OA 
HETATM   30  N   UNL     1      -7.811  19.626  66.425  1.00  0.00    -0.293 N  
HETATM   31  H   UNL     1      -7.626  19.734  65.428  1.00  0.00     0.000 HD 
ENDBRANCH  19  20
ENDBRANCH  18  19
ENDBRANCH  17  18
ENDBRANCH  16  17
ENDBRANCH  15  16
ENDBRANCH  12  15
ENDBRANCH   6   9
TORSDOF 7
ENDMDL
MODEL      252
REMARK 921   NORMALIZED FREE ENERGY PREDICTED BY IDOCK:   -3.52 KCAL/MOL
REMARK 922        TOTAL FREE ENERGY PREDICTED BY IDOCK:   -6.57 KCAL/MOL
REMARK 923 INTER-LIGAND FREE ENERGY PREDICTED BY IDOCK:   -5.74 KCAL/MOL
REMARK 924 INTRA-LIGAND FREE ENERGY PREDICTED BY IDOCK:   -0.83 KCAL/MOL
REMARK 927      BINDING AFFINITY PREDICTED BY RF-SCORE:    0.00 PKD
ROOT
HETATM    1 CL   UNL     1     -12.860  13.015  64.794  1.00  0.00    -0.398 Cl 
HETATM    2  C   UNL     1     -11.282  12.291  64.771  1.00  0.00    -0.318 A  
HETATM    3  C   UNL     1     -10.851  11.791  63.544  1.00  0.00    -0.496 A  
HETATM    4  C   UNL     1      -9.606  11.185  63.454  1.00  0.00    -0.355 A  
HETATM    5  C   UNL     1      -8.820  11.043  64.597  1.00  0.00    -0.022 A  
HETATM    6  C   UNL     1      -9.215  11.517  65.868  1.00  0.00    -0.210 A  
HETATM    7  C   UNL     1     -10.468  12.194  65.921  1.00  0.00    -0.254 A  
HETATM    8 CL   UNL     1     -10.997  13.032  67.358  1.00  0.00    -0.271 Cl 
ENDROOT
BRANCH   6   9
HETATM    9  N   UNL     1      -8.395  11.244  66.957  1.00  0.00    -0.146 NA 
HETATM   10  C   UNL     1      -8.703  10.171  67.921  1.00  0.00    -0.122 C  
HETATM   11  C   UNL     1      -7.434   9.375  68.302  1.00  0.00    -0.078 C  
HETATM   12  N   UNL     1      -6.292  10.202  68.755  1.00  0.00    -0.048 NA 
HETATM   13  C   UNL     1      -7.214  12.070  67.283  1.00  0.00    -0.150 C  
HETATM   14  C   UNL     1      -6.011  11.177  67.673  1.00  0.00    -0.049 C  
BRANCH  12  15
HETATM   15  C   UNL     1      -6.569  10.886  70.029  1.00  0.00    -0.151 C  
BRANCH  15  16
HETATM   16  C   UNL     1      -5.671  10.417  71.191  1.00  0.00    -0.017 C  
BRANCH  16  17
HETATM   17  C   UNL     1      -5.420   8.906  71.229  1.00  0.00    -0.040 C  
BRANCH  17  18
HETATM   18  C   UNL     1      -6.108   8.277  72.431  1.00  0.00    -0.061 C  
BRANCH  18  19
HETATM   19  O   UNL     1      -7.390   8.865  72.646  1.00  0.00    -0.342 OA 
BRANCH  19  20
HETATM   20  C   UNL     1      -8.395   7.944  72.825  1.00  0.00    -0.151 A  
HETATM   21  C   UNL     1      -7.969   6.643  73.105  1.00  0.00    -0.106 A  
HETATM   22  C   UNL     1      -8.915   5.636  73.297  1.00  0.00    -0.127 A  
HETATM   23  C   UNL     1     -10.286   5.916  73.216  1.00  0.00    -0.217 A  
HETATM   24  C   UNL     1     -10.702   7.222  72.969  1.00  0.00    -0.384 A  
HETATM   25  C   UNL     1     -11.287   4.839  73.519  1.00  0.00    -0.340 C  
HETATM   26  C   UNL     1      -9.763   8.230  72.782  1.00  0.00    -0.336 A  
HETATM   27  C   UNL     1     -10.738   3.458  73.217  1.00  0.00    -0.291 C  
HETATM   28  C   UNL     1      -9.329   3.268  73.731  1.00  0.00    -0.091 C  
HETATM   29  O   UNL     1      -8.914   2.182  74.121  1.00  0.00    -0.068 OA 
HETATM   30  N   UNL     1      -8.492   4.346  73.623  1.00  0.00    -0.097 N  
HETATM   31  H   UNL     1      -7.498   4.197  73.791  1.00  0.00     0.000 HD 
ENDBRANCH  19  20
ENDBRANCH  18  19
ENDBRANCH  17  18
ENDBRANCH  16  17
ENDBRANCH  15  16
ENDBRANCH  12  15
ENDBRANCH   6   9
TORSDOF 7
ENDMDL
MODEL      253
REMARK 921   NORMALIZED FREE ENERGY PREDICTED BY IDOCK:   -3.52 KCAL/MOL
REMARK 922        TOTAL FREE ENERGY PREDICTED BY IDOCK:   -6.56 KCAL/MOL
REMARK 923 INTER-LIGAND FREE ENERGY PREDICTED BY IDOCK:   -5.84 KCAL/MOL
REMARK 924 INTRA-LIGAND FREE ENERGY PREDICTED BY IDOCK:   -0.73 KCAL/MOL
REMARK 927      BINDING AFFINITY PREDICTED BY RF-SCORE:    0.00 PKD
ROOT
HETATM    1 CL   UNL     1     -10.655  17.888  67.508  1.00  0.00    -0.399 Cl 
HETATM    2  C   UNL     1      -9.695  16.551  68.060  1.00  0.00    -0.236 A  
HETATM    3  C   UNL     1      -8.486  16.871  68.673  1.00  0.00    -0.260 A  
HETATM    4  C   UNL     1      -7.659  15.853  69.125  1.00  0.00    -0.213 A  
HETATM    5  C   UNL     1      -8.025  14.521  68.923  1.00  0.00    -0.126 A  
HETATM    6  C   UNL     1      -9.231  14.142  68.293  1.00  0.00    -0.198 A  
HETATM    7  C   UNL     1     -10.093  15.206  67.898  1.00  0.00    -0.222 A  
HETATM    8 CL   UNL     1     -11.710  14.906  67.314  1.00  0.00    -0.352 Cl 
ENDROOT
BRANCH   6   9
HETATM    9  N   UNL     1      -9.455  12.789  68.063  1.00  0.00    -0.208 NA 
HETATM   10  C   UNL     1      -8.608  11.998  67.152  1.00  0.00    -0.182 C  
HETATM   11  C   UNL     1      -8.289  10.607  67.744  1.00  0.00    -0.115 C  
HETATM   12  N   UNL     1      -9.470   9.836  68.196  1.00  0.00    -0.135 NA 
HETATM   13  C   UNL     1     -10.615  12.073  68.634  1.00  0.00    -0.229 C  
HETATM   14  C   UNL     1     -10.190  10.685  69.176  1.00  0.00    -0.220 C  
BRANCH  12  15
HETATM   15  C   UNL     1     -10.347   9.452  67.078  1.00  0.00    -0.252 C  
BRANCH  15  16
HETATM   16  C   UNL     1      -9.996   8.085  66.457  1.00  0.00    -0.283 C  
BRANCH  16  17
HETATM   17  C   UNL     1     -10.817   6.912  67.000  1.00  0.00    -0.436 C  
BRANCH  17  18
HETATM   18  C   UNL     1      -9.925   5.932  67.747  1.00  0.00    -0.134 C  
BRANCH  18  19
HETATM   19  O   UNL     1      -8.846   6.613  68.383  1.00  0.00    -0.122 OA 
BRANCH  19  20
HETATM   20  C   UNL     1      -8.635   6.219  69.683  1.00  0.00    -0.133 A  
HETATM   21  C   UNL     1      -9.620   5.386  70.221  1.00  0.00    -0.236 A  
HETATM   22  C   UNL     1      -9.498   4.938  71.536  1.00  0.00    -0.154 A  
HETATM   23  C   UNL     1      -8.398   5.309  72.321  1.00  0.00    -0.122 A  
HETATM   24  C   UNL     1      -7.404   6.112  71.766  1.00  0.00    -0.093 A  
HETATM   25  C   UNL     1      -8.239   4.739  73.700  1.00  0.00    -0.106 C  
HETATM   26  C   UNL     1      -7.519   6.558  70.455  1.00  0.00    -0.094 A  
HETATM   27  C   UNL     1      -9.577   4.386  74.323  1.00  0.00    -0.134 C  
HETATM   28  C   UNL     1     -10.486   3.653  73.363  1.00  0.00    -0.179 C  
HETATM   29  O   UNL     1     -11.292   2.809  73.740  1.00  0.00    -0.216 OA 
HETATM   30  N   UNL     1     -10.457   4.069  72.060  1.00  0.00    -0.046 N  
HETATM   31  H   UNL     1     -11.182   3.722  71.432  1.00  0.00     0.000 HD 
ENDBRANCH  19  20
ENDBRANCH  18  19
ENDBRANCH  17  18
ENDBRANCH  16  17
ENDBRANCH  15  16
ENDBRANCH  12  15
ENDBRANCH   6   9
TORSDOF 7
ENDMDL
MODEL      254
REMARK 921   NORMALIZED FREE ENERGY PREDICTED BY IDOCK:   -3.50 KCAL/MOL
REMARK 922        TOTAL FREE ENERGY PREDICTED BY IDOCK:   -6.54 KCAL/MOL
REMARK 923 INTER-LIGAND FREE ENERGY PREDICTED BY IDOCK:   -6.00 KCAL/MOL
REMARK 924 INTRA-LIGAND FREE ENERGY PREDICTED BY IDOCK:   -0.54 KCAL/MOL
REMARK 927      BINDING AFFINITY PREDICTED BY RF-SCORE:    0.00 PKD
ROOT
HETATM    1 CL   UNL     1      -8.298   9.451  62.355  1.00  0.00    -0.152 Cl 
HETATM    2  C   UNL     1      -8.266   9.984  64.006  1.00  0.00    -0.156 A  
HETATM    3  C   UNL     1      -7.440   9.269  64.870  1.00  0.00    -0.107 A  
HETATM    4  C   UNL     1      -7.376   9.629  66.208  1.00  0.00    -0.094 A  
HETATM    5  C   UNL     1      -8.171  10.672  66.684  1.00  0.00    -0.134 A  
HETATM    6  C   UNL     1      -9.037  11.420  65.856  1.00  0.00    -0.198 A  
HETATM    7  C   UNL     1      -9.035  11.073  64.473  1.00  0.00    -0.055 A  
HETATM    8 CL   UNL     1      -9.873  12.039  63.285  1.00  0.00    -0.363 Cl 
ENDROOT
BRANCH   6   9
HETATM    9  N   UNL     1      -9.850  12.379  66.449  1.00  0.00    -0.235 NA 
HETATM   10  C   UNL     1      -9.354  13.725  66.792  1.00  0.00    -0.266 C  
HETATM   11  C   UNL     1     -10.388  14.815  66.433  1.00  0.00    -0.293 C  
HETATM   12  N   UNL     1     -11.749  14.584  66.969  1.00  0.00    -0.391 NA 
HETATM   13  C   UNL     1     -11.236  12.087  66.871  1.00  0.00    -0.320 C  
HETATM   14  C   UNL     1     -12.183  13.251  66.485  1.00  0.00    -0.327 C  
BRANCH  12  15
HETATM   15  C   UNL     1     -11.789  14.656  68.440  1.00  0.00    -0.295 C  
BRANCH  15  16
HETATM   16  C   UNL     1     -12.643  13.550  69.090  1.00  0.00     0.381 C  
BRANCH  16  17
HETATM   17  C   UNL     1     -12.827  13.697  70.604  1.00  0.00    -0.224 C  
BRANCH  17  18
HETATM   18  C   UNL     1     -13.477  12.454  71.190  1.00  0.00     0.528 C  
BRANCH  18  19
HETATM   19  O   UNL     1     -12.558  11.744  72.018  1.00  0.00    -0.091 OA 
BRANCH  19  20
HETATM   20  C   UNL     1     -12.121  10.562  71.468  1.00  0.00    -0.220 A  
HETATM   21  C   UNL     1     -12.178   9.453  72.316  1.00  0.00    -0.246 A  
HETATM   22  C   UNL     1     -11.751   8.209  71.850  1.00  0.00    -0.310 A  
HETATM   23  C   UNL     1     -11.269   8.060  70.543  1.00  0.00    -0.252 A  
HETATM   24  C   UNL     1     -11.247   9.164  69.694  1.00  0.00    -0.026 A  
HETATM   25  C   UNL     1     -10.904   6.697  70.032  1.00  0.00    -0.331 C  
HETATM   26  C   UNL     1     -11.676  10.405  70.152  1.00  0.00    -0.394 A  
HETATM   27  C   UNL     1     -10.460   5.775  71.153  1.00  0.00    -0.301 C  
HETATM   28  C   UNL     1     -11.368   5.851  72.359  1.00  0.00    -0.307 C  
HETATM   29  O   UNL     1     -11.576   4.884  73.084  1.00  0.00    -0.324 OA 
HETATM   30  N   UNL     1     -11.850   7.090  72.680  1.00  0.00    -0.501 N  
HETATM   31  H   UNL     1     -12.312   7.204  73.582  1.00  0.00     0.000 HD 
ENDBRANCH  19  20
ENDBRANCH  18  19
ENDBRANCH  17  18
ENDBRANCH  16  17
ENDBRANCH  15  16
ENDBRANCH  12  15
ENDBRANCH   6   9
TORSDOF 7
ENDMDL
MODEL      255
REMARK 921   NORMALIZED FREE ENERGY PREDICTED BY IDOCK:   -3.47 KCAL/MOL
REMARK 922        TOTAL FREE ENERGY PREDICTED BY IDOCK:   -6.50 KCAL/MOL
REMARK 923 INTER-LIGAND FREE ENERGY PREDICTED BY IDOCK:   -5.80 KCAL/MOL
REMARK 924 INTRA-LIGAND FREE ENERGY PREDICTED BY IDOCK:   -0.70 KCAL/MOL
REMARK 927      BINDING AFFINITY PREDICTED BY RF-SCORE:    0.00 PKD
ROOT
HETATM    1 CL   UNL     1     -12.962  13.786  70.200  1.00  0.00    -0.007 Cl 
HETATM    2  C   UNL     1     -11.909  12.444  69.883  1.00  0.00    -0.305 A  
HETATM    3  C   UNL     1     -10.995  12.608  68.844  1.00  0.00    -0.273 A  
HETATM    4  C   UNL     1     -10.131  11.571  68.524  1.00  0.00    -0.211 A  
HETATM    5  C   UNL     1     -10.215  10.361  69.214  1.00  0.00    -0.248 A  
HETATM    6  C   UNL     1     -11.133  10.135  70.264  1.00  0.00    -0.317 A  
HETATM    7  C   UNL     1     -11.963  11.239  70.617  1.00  0.00    -0.336 A  
HETATM    8 CL   UNL     1     -12.987  11.200  72.030  1.00  0.00    -0.499 Cl 
ENDROOT
BRANCH   6   9
HETATM    9  N   UNL     1     -11.192   8.864  70.824  1.00  0.00    -0.264 NA 
HETATM   10  C   UNL     1     -10.156   8.364  71.746  1.00  0.00    -0.247 C  
HETATM   11  C   UNL     1     -10.780   7.600  72.935  1.00  0.00    -0.371 C  
HETATM   12  N   UNL     1     -11.736   6.533  72.559  1.00  0.00    -0.216 NA 
HETATM   13  C   UNL     1     -12.242   7.890  70.459  1.00  0.00     0.201 C  
HETATM   14  C   UNL     1     -12.780   7.166  71.718  1.00  0.00    -0.339 C  
BRANCH  12  15
HETATM   15  C   UNL     1     -11.080   5.423  71.847  1.00  0.00    -0.108 C  
BRANCH  15  16
HETATM   16  C   UNL     1      -9.584   5.268  72.185  1.00  0.00    -0.183 C  
BRANCH  16  17
HETATM   17  C   UNL     1      -8.786   4.444  71.169  1.00  0.00    -0.153 C  
BRANCH  17  18
HETATM   18  C   UNL     1      -8.156   5.347  70.120  1.00  0.00    -0.089 C  
BRANCH  18  19
HETATM   19  O   UNL     1      -9.051   5.557  69.030  1.00  0.00    -0.112 OA 
BRANCH  19  20
HETATM   20  C   UNL     1      -8.763   4.791  67.925  1.00  0.00    -0.103 A  
HETATM   21  C   UNL     1      -9.803   4.663  67.001  1.00  0.00    -0.232 A  
HETATM   22  C   UNL     1      -9.610   3.899  65.849  1.00  0.00    -0.181 A  
HETATM   23  C   UNL     1      -8.384   3.264  65.609  1.00  0.00    -0.099 A  
HETATM   24  C   UNL     1      -7.342   3.425  66.519  1.00  0.00    -0.075 A  
HETATM   25  C   UNL     1      -8.166   2.527  64.319  1.00  0.00    -0.082 C  
HETATM   26  C   UNL     1      -7.529   4.188  67.665  1.00  0.00    -0.069 A  
HETATM   27  C   UNL     1      -9.465   1.989  63.750  1.00  0.00    -0.119 C  
HETATM   28  C   UNL     1     -10.582   3.007  63.794  1.00  0.00    -0.188 C  
HETATM   29  O   UNL     1     -11.466   3.047  62.945  1.00  0.00    -0.086 OA 
HETATM   30  N   UNL     1     -10.632   3.808  64.902  1.00  0.00    -0.484 N  
HETATM   31  H   UNL     1     -11.468   4.374  65.046  1.00  0.00     0.000 HD 
ENDBRANCH  19  20
ENDBRANCH  18  19
ENDBRANCH  17  18
ENDBRANCH  16  17
ENDBRANCH  15  16
ENDBRANCH  12  15
ENDBRANCH   6   9
TORSDOF 7
ENDMDL
MODEL      256
REMARK 921   NORMALIZED FREE ENERGY PREDICTED BY IDOCK:   -3.47 KCAL/MOL
REMARK 922        TOTAL FREE ENERGY PREDICTED BY IDOCK:   -6.49 KCAL/MOL
REMARK 923 INTER-LIGAND FREE ENERGY PREDICTED BY IDOCK:   -4.98 KCAL/MOL
REMARK 924 INTRA-LIGAND FREE ENERGY PREDICTED BY IDOCK:   -1.52 KCAL/MOL
REMARK 927      BINDING AFFINITY PREDICTED BY RF-SCORE:    0.00 PKD
ROOT
HETATM    1 CL   UNL     1      -6.922  13.751  68.046  1.00  0.00    -0.118 Cl 
HETATM    2  C   UNL     1      -7.769  12.250  68.247  1.00  0.00    -0.143 A  
HETATM    3  C   UNL     1      -9.161  12.319  68.221  1.00  0.00    -0.187 A  
HETATM    4  C   UNL     1      -9.904  11.160  68.390  1.00  0.00    -0.188 A  
HETATM    5  C   UNL     1      -9.255   9.948  68.629  1.00  0.00    -0.139 A  
HETATM    6  C   UNL     1      -7.849   9.825  68.680  1.00  0.00    -0.081 A  
HETATM    7  C   UNL     1      -7.107  11.018  68.438  1.00  0.00    -0.074 A  
HETATM    8 CL   UNL     1      -5.373  10.994  68.244  1.00  0.00    -0.040 Cl 
ENDROOT
BRANCH   6   9
HETATM    9  N   UNL     1      -7.309   8.588  69.013  1.00  0.00    -0.079 NA 
HETATM   10  C   UNL     1      -7.334   7.445  68.081  1.00  0.00    -0.100 C  
HETATM   11  C   UNL     1      -5.991   6.681  68.089  1.00  0.00    -0.024 C  
HETATM   12  N   UNL     1      -5.511   6.279  69.431  1.00  0.00    -0.012 NA 
HETATM   13  C   UNL     1      -6.763   8.300  70.355  1.00  0.00    -0.036 C  
HETATM   14  C   UNL     1      -5.433   7.514  70.250  1.00  0.00    -0.023 C  
BRANCH  12  15
HETATM   15  C   UNL     1      -6.388   5.278  70.061  1.00  0.00    -0.030 C  
BRANCH  15  16
HETATM   16  C   UNL     1      -6.293   3.880  69.419  1.00  0.00    -0.029 C  
BRANCH  16  17
HETATM   17  C   UNL     1      -7.284   3.637  68.276  1.00  0.00    -0.051 C  
BRANCH  17  18
HETATM   18  C   UNL     1      -8.525   2.919  68.783  1.00  0.00    -0.068 C  
BRANCH  18  19
HETATM   19  O   UNL     1      -9.683   3.737  68.627  1.00  0.00    -0.137 OA 
BRANCH  19  20
HETATM   20  C   UNL     1      -9.942   4.538  69.713  1.00  0.00    -0.198 A  
HETATM   21  C   UNL     1     -10.613   5.730  69.428  1.00  0.00    -0.383 A  
HETATM   22  C   UNL     1     -10.916   6.614  70.465  1.00  0.00    -0.286 A  
HETATM   23  C   UNL     1     -10.559   6.316  71.787  1.00  0.00    -0.266 A  
HETATM   24  C   UNL     1      -9.922   5.110  72.067  1.00  0.00    -0.240 A  
HETATM   25  C   UNL     1     -10.979   7.234  72.898  1.00  0.00    -0.381 C  
HETATM   26  C   UNL     1      -9.622   4.225  71.038  1.00  0.00    -0.253 A  
HETATM   27  C   UNL     1     -11.132   8.665  72.420  1.00  0.00    -0.328 C  
HETATM   28  C   UNL     1     -11.884   8.761  71.111  1.00  0.00    -0.295 C  
HETATM   29  O   UNL     1     -12.601   9.717  70.836  1.00  0.00    -0.307 OA 
HETATM   30  N   UNL     1     -11.626   7.784  70.189  1.00  0.00    -0.479 N  
HETATM   31  H   UNL     1     -11.974   7.918  69.240  1.00  0.00     0.000 HD 
ENDBRANCH  19  20
ENDBRANCH  18  19
ENDBRANCH  17  18
ENDBRANCH  16  17
ENDBRANCH  15  16
ENDBRANCH  12  15
ENDBRANCH   6   9
TORSDOF 7
ENDMDL
MODEL      257
REMARK 921   NORMALIZED FREE ENERGY PREDICTED BY IDOCK:   -3.46 KCAL/MOL
REMARK 922        TOTAL FREE ENERGY PREDICTED BY IDOCK:   -6.48 KCAL/MOL
REMARK 923 INTER-LIGAND FREE ENERGY PREDICTED BY IDOCK:   -5.43 KCAL/MOL
REMARK 924 INTRA-LIGAND FREE ENERGY PREDICTED BY IDOCK:   -1.04 KCAL/MOL
REMARK 927      BINDING AFFINITY PREDICTED BY RF-SCORE:    0.00 PKD
ROOT
HETATM    1 CL   UNL     1      -9.975  17.018  66.215  1.00  0.00    -0.311 Cl 
HETATM    2  C   UNL     1      -9.028  15.694  66.819  1.00  0.00    -0.261 A  
HETATM    3  C   UNL     1      -7.707  15.983  67.155  1.00  0.00    -0.242 A  
HETATM    4  C   UNL     1      -6.887  14.970  67.630  1.00  0.00    -0.203 A  
HETATM    5  C   UNL     1      -7.378  13.667  67.725  1.00  0.00    -0.170 A  
HETATM    6  C   UNL     1      -8.703  13.317  67.383  1.00  0.00    -0.206 A  
HETATM    7  C   UNL     1      -9.544  14.387  66.961  1.00  0.00    -0.247 A  
HETATM    8 CL   UNL     1     -11.258  14.165  66.720  1.00  0.00    -0.317 Cl 
ENDROOT
BRANCH   6   9
HETATM    9  N   UNL     1      -9.062  11.975  67.431  1.00  0.00    -0.173 NA 
HETATM   10  C   UNL     1      -8.595  11.002  66.425  1.00  0.00    -0.165 C  
HETATM   11  C   UNL     1      -8.179   9.667  67.083  1.00  0.00    -0.120 C  
HETATM   12  N   UNL     1      -9.192   9.074  67.985  1.00  0.00    -0.135 NA 
HETATM   13  C   UNL     1     -10.014  11.447  68.430  1.00  0.00    -0.204 C  
HETATM   14  C   UNL     1      -9.513  10.100  69.007  1.00  0.00    -0.190 C  
BRANCH  12  15
HETATM   15  C   UNL     1     -10.401   8.646  67.262  1.00  0.00    -0.296 C  
BRANCH  15  16
HETATM   16  C   UNL     1     -10.480   7.123  67.035  1.00  0.00    -0.392 C  
BRANCH  16  17
HETATM   17  C   UNL     1     -11.003   6.329  68.237  1.00  0.00    -0.408 C  
BRANCH  17  18
HETATM   18  C   UNL     1     -10.283   4.994  68.353  1.00  0.00    -0.072 C  
BRANCH  18  19
HETATM   19  O   UNL     1      -8.878   5.187  68.504  1.00  0.00    -0.100 OA 
BRANCH  19  20
HETATM   20  C   UNL     1      -8.524   5.736  69.713  1.00  0.00    -0.123 A  
HETATM   21  C   UNL     1      -7.706   6.867  69.638  1.00  0.00    -0.110 A  
HETATM   22  C   UNL     1      -7.289   7.493  70.814  1.00  0.00    -0.068 A  
HETATM   23  C   UNL     1      -7.684   7.003  72.066  1.00  0.00    -0.092 A  
HETATM   24  C   UNL     1      -8.528   5.896  72.130  1.00  0.00    -0.125 A  
HETATM   25  C   UNL     1      -7.303   7.746  73.312  1.00  0.00    -0.131 C  
HETATM   26  C   UNL     1      -8.950   5.272  70.962  1.00  0.00    -0.159 A  
HETATM   27  C   UNL     1      -6.010   8.521  73.134  1.00  0.00    -0.097 C  
HETATM   28  C   UNL     1      -5.965   9.278  71.826  1.00  0.00    -0.044 C  
HETATM   29  O   UNL     1      -5.375  10.347  71.708  1.00  0.00    -0.232 OA 
HETATM   30  N   UNL     1      -6.509   8.649  70.740  1.00  0.00    -0.039 N  
HETATM   31  H   UNL     1      -6.334   9.049  69.818  1.00  0.00     0.000 HD 
ENDBRANCH  19  20
ENDBRANCH  18  19
ENDBRANCH  17  18
ENDBRANCH  16  17
ENDBRANCH  15  16
ENDBRANCH  12  15
ENDBRANCH   6   9
TORSDOF 7
ENDMDL
MODEL      258
REMARK 921   NORMALIZED FREE ENERGY PREDICTED BY IDOCK:   -3.45 KCAL/MOL
REMARK 922        TOTAL FREE ENERGY PREDICTED BY IDOCK:   -6.46 KCAL/MOL
REMARK 923 INTER-LIGAND FREE ENERGY PREDICTED BY IDOCK:   -6.46 KCAL/MOL
REMARK 924 INTRA-LIGAND FREE ENERGY PREDICTED BY IDOCK:    0.00 KCAL/MOL
REMARK 927      BINDING AFFINITY PREDICTED BY RF-SCORE:    0.00 PKD
ROOT
HETATM    1 CL   UNL     1     -11.758  16.119  71.473  1.00  0.00    -0.536 Cl 
HETATM    2  C   UNL     1     -11.173  16.047  69.840  1.00  0.00    -0.361 A  
HETATM    3  C   UNL     1     -10.675  17.235  69.310  1.00  0.00    -0.051 A  
HETATM    4  C   UNL     1     -10.204  17.256  68.005  1.00  0.00    -0.332 A  
HETATM    5  C   UNL     1     -10.275  16.102  67.224  1.00  0.00    -0.277 A  
HETATM    6  C   UNL     1     -10.785  14.876  67.706  1.00  0.00    -0.271 A  
HETATM    7  C   UNL     1     -11.200  14.864  69.069  1.00  0.00    -0.264 A  
HETATM    8 CL   UNL     1     -11.642  13.383  69.880  1.00  0.00    -0.311 Cl 
ENDROOT
BRANCH   6   9
HETATM    9  N   UNL     1     -10.892  13.813  66.817  1.00  0.00    -0.283 NA 
HETATM   10  C   UNL     1     -12.086  12.949  66.768  1.00  0.00    -0.265 C  
HETATM   11  C   UNL     1     -12.495  12.635  65.311  1.00  0.00    -0.416 C  
HETATM   12  N   UNL     1     -11.406  12.107  64.458  1.00  0.00    -0.322 NA 
HETATM   13  C   UNL     1      -9.781  13.411  65.929  1.00  0.00    -0.182 C  
HETATM   14  C   UNL     1     -10.302  13.097  64.505  1.00  0.00    -0.368 C  
BRANCH  12  15
HETATM   15  C   UNL     1     -10.948  10.778  64.896  1.00  0.00     0.157 C  
BRANCH  15  16
HETATM   16  C   UNL     1      -9.419  10.595  64.824  1.00  0.00    -0.306 C  
BRANCH  16  17
HETATM   17  C   UNL     1      -8.934   9.176  65.134  1.00  0.00    -0.238 C  
BRANCH  17  18
HETATM   18  C   UNL     1      -9.380   8.746  66.523  1.00  0.00    -0.203 C  
BRANCH  18  19
HETATM   19  O   UNL     1      -8.278   8.239  67.274  1.00  0.00    -0.118 OA 
BRANCH  19  20
HETATM   20  C   UNL     1      -8.607   7.185  68.092  1.00  0.00    -0.129 A  
HETATM   21  C   UNL     1      -8.084   7.248  69.386  1.00  0.00    -0.130 A  
HETATM   22  C   UNL     1      -8.358   6.220  70.290  1.00  0.00    -0.126 A  
HETATM   23  C   UNL     1      -9.154   5.130  69.915  1.00  0.00    -0.162 A  
HETATM   24  C   UNL     1      -9.700   5.093  68.635  1.00  0.00    -0.210 A  
HETATM   25  C   UNL     1      -9.515   4.085  70.931  1.00  0.00    -0.237 C  
HETATM   26  C   UNL     1      -9.434   6.116  67.732  1.00  0.00    -0.115 A  
HETATM   27  C   UNL     1      -8.459   3.963  72.013  1.00  0.00    -0.106 C  
HETATM   28  C   UNL     1      -7.998   5.308  72.527  1.00  0.00    -0.103 C  
HETATM   29  O   UNL     1      -7.644   5.480  73.689  1.00  0.00    -0.097 OA 
HETATM   30  N   UNL     1      -7.873   6.304  71.597  1.00  0.00    -0.101 N  
HETATM   31  H   UNL     1      -7.396   7.162  71.876  1.00  0.00     0.000 HD 
ENDBRANCH  19  20
ENDBRANCH  18  19
ENDBRANCH  17  18
ENDBRANCH  16  17
ENDBRANCH  15  16
ENDBRANCH  12  15
ENDBRANCH   6   9
TORSDOF 7
ENDMDL
MODEL      259
REMARK 921   NORMALIZED FREE ENERGY PREDICTED BY IDOCK:   -3.44 KCAL/MOL
REMARK 922        TOTAL FREE ENERGY PREDICTED BY IDOCK:   -6.46 KCAL/MOL
REMARK 923 INTER-LIGAND FREE ENERGY PREDICTED BY IDOCK:   -5.47 KCAL/MOL
REMARK 924 INTRA-LIGAND FREE ENERGY PREDICTED BY IDOCK:   -0.99 KCAL/MOL
REMARK 927      BINDING AFFINITY PREDICTED BY RF-SCORE:    0.00 PKD
ROOT
HETATM    1 CL   UNL     1      -8.496  16.491  68.808  1.00  0.00    -0.239 Cl 
HETATM    2  C   UNL     1      -9.293  14.988  68.463  1.00  0.00    -0.196 A  
HETATM    3  C   UNL     1     -10.660  14.939  68.730  1.00  0.00    -0.247 A  
HETATM    4  C   UNL     1     -11.360  13.765  68.493  1.00  0.00    -0.318 A  
HETATM    5  C   UNL     1     -10.683  12.635  68.034  1.00  0.00    -0.243 A  
HETATM    6  C   UNL     1      -9.297  12.625  67.763  1.00  0.00    -0.198 A  
HETATM    7  C   UNL     1      -8.613  13.861  67.951  1.00  0.00    -0.180 A  
HETATM    8 CL   UNL     1      -6.955  14.077  67.450  1.00  0.00    -0.159 Cl 
ENDROOT
BRANCH   6   9
HETATM    9  N   UNL     1      -8.707  11.421  67.394  1.00  0.00    -0.142 NA 
HETATM   10  C   UNL     1      -9.017  10.755  66.115  1.00  0.00    -0.177 C  
HETATM   11  C   UNL     1      -7.740  10.194  65.449  1.00  0.00    -0.143 C  
HETATM   12  N   UNL     1      -6.907   9.335  66.322  1.00  0.00    -0.081 NA 
HETATM   13  C   UNL     1      -7.809  10.673  68.298  1.00  0.00    -0.113 C  
HETATM   14  C   UNL     1      -6.578  10.136  67.527  1.00  0.00    -0.068 C  
BRANCH  12  15
HETATM   15  C   UNL     1      -7.589   8.082  66.686  1.00  0.00    -0.093 C  
BRANCH  15  16
HETATM   16  C   UNL     1      -7.343   6.932  65.690  1.00  0.00    -0.079 C  
BRANCH  16  17
HETATM   17  C   UNL     1      -8.618   6.315  65.105  1.00  0.00    -0.030 C  
BRANCH  17  18
HETATM   18  C   UNL     1      -8.979   5.031  65.836  1.00  0.00    -0.141 C  
BRANCH  18  19
HETATM   19  O   UNL     1     -10.101   5.234  66.692  1.00  0.00    -0.179 OA 
BRANCH  19  20
HETATM   20  C   UNL     1      -9.911   4.764  67.970  1.00  0.00    -0.126 A  
HETATM   21  C   UNL     1     -10.336   5.621  68.989  1.00  0.00    -0.314 A  
HETATM   22  C   UNL     1     -10.179   5.235  70.321  1.00  0.00    -0.275 A  
HETATM   23  C   UNL     1      -9.605   3.999  70.647  1.00  0.00    -0.260 A  
HETATM   24  C   UNL     1      -9.216   3.137  69.624  1.00  0.00    -0.221 A  
HETATM   25  C   UNL     1      -9.534   3.564  72.081  1.00  0.00    -0.191 C  
HETATM   26  C   UNL     1      -9.373   3.515  68.296  1.00  0.00    -0.235 A  
HETATM   27  C   UNL     1      -9.460   4.748  73.027  1.00  0.00    -0.146 C  
HETATM   28  C   UNL     1     -10.451   5.834  72.673  1.00  0.00    -0.208 C  
HETATM   29  O   UNL     1     -10.972   6.548  73.524  1.00  0.00    -0.229 OA 
HETATM   30  N   UNL     1     -10.645   6.069  71.340  1.00  0.00    -0.237 N  
HETATM   31  H   UNL     1     -11.163   6.907  71.072  1.00  0.00     0.000 HD 
ENDBRANCH  19  20
ENDBRANCH  18  19
ENDBRANCH  17  18
ENDBRANCH  16  17
ENDBRANCH  15  16
ENDBRANCH  12  15
ENDBRANCH   6   9
TORSDOF 7
ENDMDL
MODEL      260
REMARK 921   NORMALIZED FREE ENERGY PREDICTED BY IDOCK:   -3.41 KCAL/MOL
REMARK 922        TOTAL FREE ENERGY PREDICTED BY IDOCK:   -6.40 KCAL/MOL
REMARK 923 INTER-LIGAND FREE ENERGY PREDICTED BY IDOCK:   -6.01 KCAL/MOL
REMARK 924 INTRA-LIGAND FREE ENERGY PREDICTED BY IDOCK:   -0.39 KCAL/MOL
REMARK 927      BINDING AFFINITY PREDICTED BY RF-SCORE:    0.00 PKD
ROOT
HETATM    1 CL   UNL     1      -9.808  19.039  67.135  1.00  0.00    -0.358 Cl 
HETATM    2  C   UNL     1     -10.164  17.489  66.440  1.00  0.00    -0.354 A  
HETATM    3  C   UNL     1     -11.023  17.487  65.343  1.00  0.00     0.194 A  
HETATM    4  C   UNL     1     -11.364  16.283  64.745  1.00  0.00    -0.214 A  
HETATM    5  C   UNL     1     -10.881  15.085  65.273  1.00  0.00    -0.399 A  
HETATM    6  C   UNL     1     -10.020  15.029  66.391  1.00  0.00    -0.279 A  
HETATM    7  C   UNL     1      -9.632  16.283  66.946  1.00  0.00    -0.232 A  
HETATM    8 CL   UNL     1      -8.404  16.398  68.182  1.00  0.00    -0.181 Cl 
ENDROOT
BRANCH   6   9
HETATM    9  N   UNL     1      -9.670  13.779  66.889  1.00  0.00    -0.257 NA 
HETATM   10  C   UNL     1      -8.265  13.388  67.108  1.00  0.00    -0.110 C  
HETATM   11  C   UNL     1      -8.093  12.629  68.443  1.00  0.00    -0.137 C  
HETATM   12  N   UNL     1      -9.013  11.484  68.633  1.00  0.00    -0.150 NA 
HETATM   13  C   UNL     1     -10.670  12.720  67.139  1.00  0.00    -0.245 C  
HETATM   14  C   UNL     1     -10.392  12.010  68.486  1.00  0.00    -0.217 C  
BRANCH  12  15
HETATM   15  C   UNL     1      -8.754  10.396  67.675  1.00  0.00    -0.118 C  
BRANCH  15  16
HETATM   16  C   UNL     1      -7.256  10.127  67.433  1.00  0.00    -0.088 C  
BRANCH  16  17
HETATM   17  C   UNL     1      -6.937   9.479  66.082  1.00  0.00    -0.091 C  
BRANCH  17  18
HETATM   18  C   UNL     1      -8.181   9.415  65.209  1.00  0.00    -0.132 C  
BRANCH  18  19
HETATM   19  O   UNL     1      -8.355   8.105  64.671  1.00  0.00    -0.148 OA 
BRANCH  19  20
HETATM   20  C   UNL     1      -8.600   7.147  65.625  1.00  0.00    -0.107 A  
HETATM   21  C   UNL     1      -9.557   7.490  66.584  1.00  0.00    -0.263 A  
HETATM   22  C   UNL     1      -9.870   6.584  67.598  1.00  0.00    -0.125 A  
HETATM   23  C   UNL     1      -9.240   5.334  67.662  1.00  0.00    -0.121 A  
HETATM   24  C   UNL     1      -8.312   4.987  66.683  1.00  0.00    -0.107 A  
HETATM   25  C   UNL     1      -9.660   4.338  68.704  1.00  0.00    -0.210 C  
HETATM   26  C   UNL     1      -8.000   5.884  65.668  1.00  0.00    -0.118 A  
HETATM   27  C   UNL     1     -10.206   5.018  69.946  1.00  0.00    -0.340 C  
HETATM   28  C   UNL     1     -11.169   6.137  69.618  1.00  0.00    -0.418 C  
HETATM   29  O   UNL     1     -12.116   6.420  70.344  1.00  0.00    -0.305 OA 
HETATM   30  N   UNL     1     -10.859   6.907  68.530  1.00  0.00    -0.381 N  
HETATM   31  H   UNL     1     -11.383   7.771  68.391  1.00  0.00     0.000 HD 
ENDBRANCH  19  20
ENDBRANCH  18  19
ENDBRANCH  17  18
ENDBRANCH  16  17
ENDBRANCH  15  16
ENDBRANCH  12  15
ENDBRANCH   6   9
TORSDOF 7
ENDMDL
MODEL      261
REMARK 921   NORMALIZED FREE ENERGY PREDICTED BY IDOCK:   -3.38 KCAL/MOL
REMARK 922        TOTAL FREE ENERGY PREDICTED BY IDOCK:   -6.37 KCAL/MOL
REMARK 923 INTER-LIGAND FREE ENERGY PREDICTED BY IDOCK:   -6.15 KCAL/MOL
REMARK 924 INTRA-LIGAND FREE ENERGY PREDICTED BY IDOCK:   -0.22 KCAL/MOL
REMARK 927      BINDING AFFINITY PREDICTED BY RF-SCORE:    0.00 PKD
ROOT
HETATM    1 CL   UNL     1      -9.462  16.215  68.590  1.00  0.00    -0.218 Cl 
HETATM    2  C   UNL     1     -10.054  15.097  67.402  1.00  0.00    -0.229 A  
HETATM    3  C   UNL     1     -11.307  15.378  66.862  1.00  0.00    -0.147 A  
HETATM    4  C   UNL     1     -11.851  14.519  65.916  1.00  0.00    -0.334 A  
HETATM    5  C   UNL     1     -11.159  13.364  65.550  1.00  0.00    -0.296 A  
HETATM    6  C   UNL     1      -9.894  13.024  66.078  1.00  0.00    -0.255 A  
HETATM    7  C   UNL     1      -9.328  13.956  66.997  1.00  0.00    -0.251 A  
HETATM    8 CL   UNL     1      -7.686  13.799  67.565  1.00  0.00    -0.181 Cl 
ENDROOT
BRANCH   6   9
HETATM    9  N   UNL     1      -9.334  11.806  65.711  1.00  0.00    -0.218 NA 
HETATM   10  C   UNL     1      -8.534  10.996  66.649  1.00  0.00    -0.153 C  
HETATM   11  C   UNL     1      -8.884   9.495  66.538  1.00  0.00    -0.139 C  
HETATM   12  N   UNL     1      -8.836   8.944  65.165  1.00  0.00    -0.190 NA 
HETATM   13  C   UNL     1      -9.414  11.284  64.331  1.00  0.00    -0.180 C  
HETATM   14  C   UNL     1      -9.746   9.771  64.335  1.00  0.00     0.021 C  
BRANCH  12  15
HETATM   15  C   UNL     1      -7.471   8.938  64.613  1.00  0.00    -0.104 C  
BRANCH  15  16
HETATM   16  C   UNL     1      -6.846   7.532  64.522  1.00  0.00    -0.051 C  
BRANCH  16  17
HETATM   17  C   UNL     1      -7.777   6.394  64.952  1.00  0.00    -0.104 C  
BRANCH  17  18
HETATM   18  C   UNL     1      -7.841   6.294  66.468  1.00  0.00    -0.104 C  
BRANCH  18  19
HETATM   19  O   UNL     1      -8.661   5.198  66.870  1.00  0.00    -0.109 OA 
BRANCH  19  20
HETATM   20  C   UNL     1      -9.335   5.418  68.047  1.00  0.00    -0.113 A  
HETATM   21  C   UNL     1      -9.769   6.730  68.250  1.00  0.00    -0.126 A  
HETATM   22  C   UNL     1     -10.459   7.054  69.419  1.00  0.00    -0.214 A  
HETATM   23  C   UNL     1     -10.723   6.077  70.388  1.00  0.00    -0.358 A  
HETATM   24  C   UNL     1     -10.317   4.764  70.163  1.00  0.00    -0.168 A  
HETATM   25  C   UNL     1     -11.548   6.425  71.593  1.00  0.00    -0.363 C  
HETATM   26  C   UNL     1      -9.634   4.436  68.997  1.00  0.00    -0.244 A  
HETATM   27  C   UNL     1     -11.424   7.893  71.957  1.00  0.00    -0.351 C  
HETATM   28  C   UNL     1     -11.529   8.799  70.752  1.00  0.00    -0.270 C  
HETATM   29  O   UNL     1     -12.017   9.922  70.817  1.00  0.00    -0.291 OA 
HETATM   30  N   UNL     1     -10.933   8.354  69.603  1.00  0.00    -0.414 N  
HETATM   31  H   UNL     1     -10.829   9.014  68.832  1.00  0.00     0.000 HD 
ENDBRANCH  19  20
ENDBRANCH  18  19
ENDBRANCH  17  18
ENDBRANCH  16  17
ENDBRANCH  15  16
ENDBRANCH  12  15
ENDBRANCH   6   9
TORSDOF 7
ENDMDL
MODEL      262
REMARK 921   NORMALIZED FREE ENERGY PREDICTED BY IDOCK:   -3.36 KCAL/MOL
REMARK 922        TOTAL FREE ENERGY PREDICTED BY IDOCK:   -6.34 KCAL/MOL
REMARK 923 INTER-LIGAND FREE ENERGY PREDICTED BY IDOCK:   -6.62 KCAL/MOL
REMARK 924 INTRA-LIGAND FREE ENERGY PREDICTED BY IDOCK:    0.29 KCAL/MOL
REMARK 927      BINDING AFFINITY PREDICTED BY RF-SCORE:    0.00 PKD
ROOT
HETATM    1 CL   UNL     1     -11.912   8.171  72.268  1.00  0.00    -0.410 Cl 
HETATM    2  C   UNL     1     -10.609   7.159  71.728  1.00  0.00    -0.206 A  
HETATM    3  C   UNL     1     -10.295   6.072  72.540  1.00  0.00    -0.222 A  
HETATM    4  C   UNL     1      -9.254   5.228  72.179  1.00  0.00    -0.156 A  
HETATM    5  C   UNL     1      -8.505   5.502  71.034  1.00  0.00    -0.125 A  
HETATM    6  C   UNL     1      -8.770   6.600  70.185  1.00  0.00    -0.141 A  
HETATM    7  C   UNL     1      -9.886   7.412  70.542  1.00  0.00    -0.180 A  
HETATM    8 CL   UNL     1     -10.482   8.666  69.484  1.00  0.00    -0.219 Cl 
ENDROOT
BRANCH   6   9
HETATM    9  N   UNL     1      -7.907   6.831  69.120  1.00  0.00    -0.109 NA 
HETATM   10  C   UNL     1      -6.625   7.539  69.290  1.00  0.00    -0.040 C  
HETATM   11  C   UNL     1      -5.494   6.857  68.487  1.00  0.00    -0.017 C  
HETATM   12  N   UNL     1      -5.800   6.620  67.058  1.00  0.00    -0.013 NA 
HETATM   13  C   UNL     1      -8.257   6.475  67.729  1.00  0.00    -0.115 C  
HETATM   14  C   UNL     1      -7.050   5.822  67.011  1.00  0.00    -0.070 C  
BRANCH  12  15
HETATM   15  C   UNL     1      -5.941   7.875  66.301  1.00  0.00    -0.041 C  
BRANCH  15  16
HETATM   16  C   UNL     1      -7.402   8.335  66.132  1.00  0.00    -0.077 C  
BRANCH  16  17
HETATM   17  C   UNL     1      -7.699   9.029  64.798  1.00  0.00    -0.109 C  
BRANCH  17  18
HETATM   18  C   UNL     1      -8.913   9.937  64.923  1.00  0.00    -0.207 C  
BRANCH  18  19
HETATM   19  O   UNL     1      -9.221  10.185  66.294  1.00  0.00    -0.150 OA 
BRANCH  19  20
HETATM   20  C   UNL     1      -9.431  11.513  66.579  1.00  0.00    -0.204 A  
HETATM   21  C   UNL     1      -9.924  12.280  65.521  1.00  0.00    -0.264 A  
HETATM   22  C   UNL     1     -10.164  13.641  65.711  1.00  0.00    -0.308 A  
HETATM   23  C   UNL     1      -9.921  14.245  66.952  1.00  0.00    -0.263 A  
HETATM   24  C   UNL     1      -9.462  13.466  68.011  1.00  0.00    -0.218 A  
HETATM   25  C   UNL     1     -10.275  15.688  67.162  1.00  0.00    -0.270 C  
HETATM   26  C   UNL     1      -9.225  12.109  67.828  1.00  0.00    -0.189 A  
HETATM   27  C   UNL     1     -10.215  16.478  65.868  1.00  0.00    -0.368 C  
HETATM   28  C   UNL     1     -10.877  15.756  64.717  1.00  0.00    -0.344 C  
HETATM   29  O   UNL     1     -11.447  16.352  63.809  1.00  0.00    -1.002 OA 
HETATM   30  N   UNL     1     -10.700  14.400  64.668  1.00  0.00    -0.585 N  
HETATM   31  H   UNL     1     -10.976  13.912  63.816  1.00  0.00     0.000 HD 
ENDBRANCH  19  20
ENDBRANCH  18  19
ENDBRANCH  17  18
ENDBRANCH  16  17
ENDBRANCH  15  16
ENDBRANCH  12  15
ENDBRANCH   6   9
TORSDOF 7
ENDMDL
MODEL      263
REMARK 921   NORMALIZED FREE ENERGY PREDICTED BY IDOCK:   -3.32 KCAL/MOL
REMARK 922        TOTAL FREE ENERGY PREDICTED BY IDOCK:   -6.29 KCAL/MOL
REMARK 923 INTER-LIGAND FREE ENERGY PREDICTED BY IDOCK:   -4.82 KCAL/MOL
REMARK 924 INTRA-LIGAND FREE ENERGY PREDICTED BY IDOCK:   -1.47 KCAL/MOL
REMARK 927      BINDING AFFINITY PREDICTED BY RF-SCORE:    0.00 PKD
ROOT
HETATM    1 CL   UNL     1     -10.423   2.536  72.729  1.00  0.00    -0.236 Cl 
HETATM    2  C   UNL     1     -10.165   3.736  71.501  1.00  0.00     0.048 A  
HETATM    3  C   UNL     1     -10.606   5.024  71.795  1.00  0.00    -0.204 A  
HETATM    4  C   UNL     1     -10.447   6.031  70.854  1.00  0.00    -0.293 A  
HETATM    5  C   UNL     1      -9.889   5.735  69.609  1.00  0.00    -0.230 A  
HETATM    6  C   UNL     1      -9.441   4.444  69.254  1.00  0.00    -0.179 A  
HETATM    7  C   UNL     1      -9.555   3.443  70.262  1.00  0.00    -0.145 A  
HETATM    8 CL   UNL     1      -8.846   1.860  70.065  1.00  0.00    -0.110 Cl 
ENDROOT
BRANCH   6   9
HETATM    9  N   UNL     1      -8.984   4.240  67.957  1.00  0.00    -0.115 NA 
HETATM   10  C   UNL     1      -7.563   4.389  67.594  1.00  0.00    -0.077 C  
HETATM   11  C   UNL     1      -7.103   3.262  66.643  1.00  0.00    -0.055 C  
HETATM   12  N   UNL     1      -7.953   3.069  65.446  1.00  0.00    -0.085 NA 
HETATM   13  C   UNL     1      -9.901   3.959  66.833  1.00  0.00    -0.068 C  
HETATM   14  C   UNL     1      -9.335   2.833  65.932  1.00  0.00    -0.024 C  
BRANCH  12  15
HETATM   15  C   UNL     1      -7.900   4.223  64.532  1.00  0.00    -0.085 C  
BRANCH  15  16
HETATM   16  C   UNL     1      -6.474   4.583  64.072  1.00  0.00    -0.038 C  
BRANCH  16  17
HETATM   17  C   UNL     1      -6.365   5.919  63.329  1.00  0.00    -0.025 C  
BRANCH  17  18
HETATM   18  C   UNL     1      -7.664   6.702  63.438  1.00  0.00    -0.109 C  
BRANCH  18  19
HETATM   19  O   UNL     1      -7.416   8.034  63.886  1.00  0.00    -0.101 OA 
BRANCH  19  20
HETATM   20  C   UNL     1      -8.246   8.436  64.905  1.00  0.00    -0.153 A  
HETATM   21  C   UNL     1      -8.758   9.730  64.782  1.00  0.00    -0.216 A  
HETATM   22  C   UNL     1      -9.607  10.231  65.770  1.00  0.00    -0.224 A  
HETATM   23  C   UNL     1      -9.953   9.450  66.880  1.00  0.00    -0.293 A  
HETATM   24  C   UNL     1      -9.465   8.149  66.978  1.00  0.00    -0.226 A  
HETATM   25  C   UNL     1     -10.941   9.973  67.882  1.00  0.00    -0.311 C  
HETATM   26  C   UNL     1      -8.624   7.644  65.994  1.00  0.00    -0.165 A  
HETATM   27  C   UNL     1     -10.927  11.488  67.949  1.00  0.00    -0.287 C  
HETATM   28  C   UNL     1     -10.913  12.129  66.580  1.00  0.00    -0.282 C  
HETATM   29  O   UNL     1     -11.453  13.207  66.355  1.00  0.00    -0.308 OA 
HETATM   30  N   UNL     1     -10.155  11.507  65.626  1.00  0.00    -0.226 N  
HETATM   31  H   UNL     1      -9.981  12.007  64.754  1.00  0.00     0.000 HD 
ENDBRANCH  19  20
ENDBRANCH  18  19
ENDBRANCH  17  18
ENDBRANCH  16  17
ENDBRANCH  15  16
ENDBRANCH  12  15
ENDBRANCH   6   9
TORSDOF 7
ENDMDL
MODEL      264
REMARK 921   NORMALIZED FREE ENERGY PREDICTED BY IDOCK:   -3.31 KCAL/MOL
REMARK 922        TOTAL FREE ENERGY PREDICTED BY IDOCK:   -6.26 KCAL/MOL
REMARK 923 INTER-LIGAND FREE ENERGY PREDICTED BY IDOCK:   -5.23 KCAL/MOL
REMARK 924 INTRA-LIGAND FREE ENERGY PREDICTED BY IDOCK:   -1.03 KCAL/MOL
REMARK 927      BINDING AFFINITY PREDICTED BY RF-SCORE:    0.00 PKD
ROOT
HETATM    1 CL   UNL     1      -8.123   3.006  65.584  1.00  0.00    -0.086 Cl 
HETATM    2  C   UNL     1      -7.847   3.683  67.158  1.00  0.00    -0.080 A  
HETATM    3  C   UNL     1      -6.599   3.438  67.725  1.00  0.00    -0.038 A  
HETATM    4  C   UNL     1      -6.313   3.936  68.988  1.00  0.00    -0.029 A  
HETATM    5  C   UNL     1      -7.291   4.637  69.694  1.00  0.00    -0.051 A  
HETATM    6  C   UNL     1      -8.577   4.901  69.173  1.00  0.00    -0.080 A  
HETATM    7  C   UNL     1      -8.823   4.436  67.848  1.00  0.00    -0.109 A  
HETATM    8 CL   UNL     1     -10.272   4.871  66.978  1.00  0.00    -0.240 Cl 
ENDROOT
BRANCH   6   9
HETATM    9  N   UNL     1      -9.504   5.531  69.996  1.00  0.00    -0.153 NA 
HETATM   10  C   UNL     1     -10.570   4.785  70.691  1.00  0.00     0.116 C  
HETATM   11  C   UNL     1     -10.749   5.282  72.143  1.00  0.00    -0.209 C  
HETATM   12  N   UNL     1     -10.927   6.745  72.285  1.00  0.00    -0.235 NA 
HETATM   13  C   UNL     1      -9.550   7.000  70.152  1.00  0.00    -0.164 C  
HETATM   14  C   UNL     1      -9.756   7.387  71.638  1.00  0.00    -0.154 C  
BRANCH  12  15
HETATM   15  C   UNL     1     -12.188   7.215  71.688  1.00  0.00    -0.350 C  
BRANCH  15  16
HETATM   16  C   UNL     1     -12.760   8.477  72.362  1.00  0.00    -0.394 C  
BRANCH  16  17
HETATM   17  C   UNL     1     -13.126   9.605  71.392  1.00  0.00    -0.471 C  
BRANCH  17  18
HETATM   18  C   UNL     1     -12.038   9.786  70.344  1.00  0.00    -0.106 C  
BRANCH  18  19
HETATM   19  O   UNL     1     -12.413  10.780  69.392  1.00  0.00    -0.333 OA 
BRANCH  19  20
HETATM   20  C   UNL     1     -11.365  11.567  68.976  1.00  0.00    -0.276 A  
HETATM   21  C   UNL     1     -10.335  10.890  68.319  1.00  0.00    -0.194 A  
HETATM   22  C   UNL     1      -9.225  11.602  67.864  1.00  0.00    -0.171 A  
HETATM   23  C   UNL     1      -9.134  12.987  68.055  1.00  0.00    -0.210 A  
HETATM   24  C   UNL     1     -10.181  13.659  68.681  1.00  0.00    -0.199 A  
HETATM   25  C   UNL     1      -7.977  13.747  67.474  1.00  0.00    -0.190 C  
HETATM   26  C   UNL     1     -11.291  12.954  69.132  1.00  0.00    -0.329 A  
HETATM   27  C   UNL     1      -6.739  12.879  67.348  1.00  0.00    -0.131 C  
HETATM   28  C   UNL     1      -7.043  11.517  66.768  1.00  0.00    -0.112 C  
HETATM   29  O   UNL     1      -6.240  10.908  66.069  1.00  0.00    -0.132 OA 
HETATM   30  N   UNL     1      -8.216  10.934  67.166  1.00  0.00    -0.123 N  
HETATM   31  H   UNL     1      -8.362   9.951  66.939  1.00  0.00     0.000 HD 
ENDBRANCH  19  20
ENDBRANCH  18  19
ENDBRANCH  17  18
ENDBRANCH  16  17
ENDBRANCH  15  16
ENDBRANCH  12  15
ENDBRANCH   6   9
TORSDOF 7
ENDMDL
MODEL      265
REMARK 921   NORMALIZED FREE ENERGY PREDICTED BY IDOCK:   -3.30 KCAL/MOL
REMARK 922        TOTAL FREE ENERGY PREDICTED BY IDOCK:   -6.25 KCAL/MOL
REMARK 923 INTER-LIGAND FREE ENERGY PREDICTED BY IDOCK:   -6.02 KCAL/MOL
REMARK 924 INTRA-LIGAND FREE ENERGY PREDICTED BY IDOCK:   -0.23 KCAL/MOL
REMARK 927      BINDING AFFINITY PREDICTED BY RF-SCORE:    0.00 PKD
ROOT
HETATM    1 CL   UNL     1      -7.044   2.461  65.580  1.00  0.00    -0.055 Cl 
HETATM    2  C   UNL     1      -6.734   3.971  66.378  1.00  0.00    -0.053 A  
HETATM    3  C   UNL     1      -5.498   4.093  67.009  1.00  0.00    -0.013 A  
HETATM    4  C   UNL     1      -5.187   5.267  67.680  1.00  0.00    -0.004 A  
HETATM    5  C   UNL     1      -6.129   6.293  67.754  1.00  0.00    -0.020 A  
HETATM    6  C   UNL     1      -7.402   6.215  67.147  1.00  0.00    -0.076 A  
HETATM    7  C   UNL     1      -7.671   5.026  66.408  1.00  0.00    -0.092 A  
HETATM    8 CL   UNL     1      -9.099   4.867  65.417  1.00  0.00    -0.154 Cl 
ENDROOT
BRANCH   6   9
HETATM    9  N   UNL     1      -8.297   7.258  67.358  1.00  0.00    -0.119 NA 
HETATM   10  C   UNL     1      -9.030   7.899  66.251  1.00  0.00    -0.171 C  
HETATM   11  C   UNL     1     -10.505   8.161  66.630  1.00  0.00    -0.134 C  
HETATM   12  N   UNL     1     -10.702   8.888  67.905  1.00  0.00    -0.174 NA 
HETATM   13  C   UNL     1      -8.500   7.865  68.690  1.00  0.00    -0.128 C  
HETATM   14  C   UNL     1     -10.007   8.107  68.958  1.00  0.00    -0.189 C  
BRANCH  12  15
HETATM   15  C   UNL     1     -10.194  10.269  67.845  1.00  0.00    -0.183 C  
BRANCH  15  16
HETATM   16  C   UNL     1     -10.580  11.124  69.068  1.00  0.00    -0.251 C  
BRANCH  16  17
HETATM   17  C   UNL     1     -11.427  12.358  68.738  1.00  0.00    -0.350 C  
BRANCH  17  18
HETATM   18  C   UNL     1     -11.021  12.946  67.395  1.00  0.00    -0.260 C  
BRANCH  18  19
HETATM   19  O   UNL     1      -9.765  13.615  67.495  1.00  0.00    -0.218 OA 
BRANCH  19  20
HETATM   20  C   UNL     1      -9.877  14.972  67.679  1.00  0.00    -0.220 A  
HETATM   21  C   UNL     1      -9.061  15.755  66.858  1.00  0.00    -0.259 A  
HETATM   22  C   UNL     1      -9.099  17.145  66.974  1.00  0.00    -0.230 A  
HETATM   23  C   UNL     1      -9.949  17.763  67.901  1.00  0.00    -0.322 A  
HETATM   24  C   UNL     1     -10.784  16.977  68.691  1.00  0.00    -0.333 A  
HETATM   25  C   UNL     1     -10.044  19.260  67.944  1.00  0.00    -0.492 C  
HETATM   26  C   UNL     1     -10.753  15.592  68.576  1.00  0.00    -0.259 A  
HETATM   27  C   UNL     1      -8.759  19.921  67.480  1.00  0.00    -0.401 C  
HETATM   28  C   UNL     1      -8.206  19.290  66.222  1.00  0.00    -0.318 C  
HETATM   29  O   UNL     1      -7.586  19.936  65.383  1.00  0.00    -0.366 OA 
HETATM   30  N   UNL     1      -8.318  17.930  66.124  1.00  0.00    -0.181 N  
HETATM   31  H   UNL     1      -7.799  17.460  65.382  1.00  0.00     0.000 HD 
ENDBRANCH  19  20
ENDBRANCH  18  19
ENDBRANCH  17  18
ENDBRANCH  16  17
ENDBRANCH  15  16
ENDBRANCH  12  15
ENDBRANCH   6   9
TORSDOF 7
ENDMDL
MODEL      266
REMARK 921   NORMALIZED FREE ENERGY PREDICTED BY IDOCK:   -3.30 KCAL/MOL
REMARK 922        TOTAL FREE ENERGY PREDICTED BY IDOCK:   -6.25 KCAL/MOL
REMARK 923 INTER-LIGAND FREE ENERGY PREDICTED BY IDOCK:   -5.45 KCAL/MOL
REMARK 924 INTRA-LIGAND FREE ENERGY PREDICTED BY IDOCK:   -0.80 KCAL/MOL
REMARK 927      BINDING AFFINITY PREDICTED BY RF-SCORE:    0.00 PKD
ROOT
HETATM    1 CL   UNL     1      -8.047   3.129  66.521  1.00  0.00    -0.084 Cl 
HETATM    2  C   UNL     1      -7.960   4.408  67.691  1.00  0.00    -0.092 A  
HETATM    3  C   UNL     1      -7.471   4.061  68.949  1.00  0.00    -0.055 A  
HETATM    4  C   UNL     1      -7.388   5.029  69.939  1.00  0.00    -0.059 A  
HETATM    5  C   UNL     1      -7.834   6.326  69.681  1.00  0.00    -0.107 A  
HETATM    6  C   UNL     1      -8.352   6.726  68.429  1.00  0.00    -0.123 A  
HETATM    7  C   UNL     1      -8.366   5.731  67.410  1.00  0.00    -0.104 A  
HETATM    8 CL   UNL     1      -8.762   6.119  65.755  1.00  0.00    -0.157 Cl 
ENDROOT
BRANCH   6   9
HETATM    9  N   UNL     1      -8.851   8.018  68.307  1.00  0.00    -0.133 NA 
HETATM   10  C   UNL     1      -7.968   9.198  68.253  1.00  0.00    -0.103 C  
HETATM   11  C   UNL     1      -8.442  10.209  67.185  1.00  0.00    -0.125 C  
HETATM   12  N   UNL     1      -9.867  10.600  67.286  1.00  0.00    -0.172 NA 
HETATM   13  C   UNL     1     -10.300   8.310  68.324  1.00  0.00    -0.198 C  
HETATM   14  C   UNL     1     -10.662   9.349  67.234  1.00  0.00    -0.188 C  
BRANCH  12  15
HETATM   15  C   UNL     1     -10.151  11.360  68.515  1.00  0.00    -0.206 C  
BRANCH  15  16
HETATM   16  C   UNL     1     -11.415  12.237  68.422  1.00  0.00    -0.356 C  
BRANCH  16  17
HETATM   17  C   UNL     1     -11.435  13.199  67.230  1.00  0.00    -0.375 C  
BRANCH  17  18
HETATM   18  C   UNL     1     -10.198  14.084  67.233  1.00  0.00    -0.260 C  
BRANCH  18  19
HETATM   19  O   UNL     1     -10.196  14.947  68.369  1.00  0.00    -0.221 OA 
BRANCH  19  20
HETATM   20  C   UNL     1      -9.106  15.782  68.424  1.00  0.00    -0.188 A  
HETATM   21  C   UNL     1      -9.008  16.706  67.379  1.00  0.00    -0.204 A  
HETATM   22  C   UNL     1      -7.932  17.593  67.344  1.00  0.00    -0.206 A  
HETATM   23  C   UNL     1      -6.952  17.572  68.345  1.00  0.00    -0.211 A  
HETATM   24  C   UNL     1      -7.076  16.671  69.401  1.00  0.00    -0.162 A  
HETATM   25  C   UNL     1      -5.856  18.597  68.340  1.00  0.00    -0.199 C  
HETATM   26  C   UNL     1      -8.148  15.788  69.443  1.00  0.00    -0.209 A  
HETATM   27  C   UNL     1      -5.548  19.086  66.937  1.00  0.00    -0.156 C  
HETATM   28  C   UNL     1      -6.798  19.392  66.143  1.00  0.00    -0.231 C  
HETATM   29  O   UNL     1      -6.834  20.277  65.295  1.00  0.00    -0.298 OA 
HETATM   30  N   UNL     1      -7.858  18.546  66.326  1.00  0.00    -0.268 N  
HETATM   31  H   UNL     1      -8.643  18.617  65.679  1.00  0.00     0.000 HD 
ENDBRANCH  19  20
ENDBRANCH  18  19
ENDBRANCH  17  18
ENDBRANCH  16  17
ENDBRANCH  15  16
ENDBRANCH  12  15
ENDBRANCH   6   9
TORSDOF 7
ENDMDL
MODEL      267
REMARK 921   NORMALIZED FREE ENERGY PREDICTED BY IDOCK:   -3.28 KCAL/MOL
REMARK 922        TOTAL FREE ENERGY PREDICTED BY IDOCK:   -6.22 KCAL/MOL
REMARK 923 INTER-LIGAND FREE ENERGY PREDICTED BY IDOCK:   -4.50 KCAL/MOL
REMARK 924 INTRA-LIGAND FREE ENERGY PREDICTED BY IDOCK:   -1.72 KCAL/MOL
REMARK 927      BINDING AFFINITY PREDICTED BY RF-SCORE:    0.00 PKD
ROOT
HETATM    1 CL   UNL     1     -10.235   2.622  72.290  1.00  0.00    -0.227 Cl 
HETATM    2  C   UNL     1      -9.658   4.041  71.474  1.00  0.00    -0.167 A  
HETATM    3  C   UNL     1      -9.566   5.200  72.242  1.00  0.00    -0.182 A  
HETATM    4  C   UNL     1      -9.127   6.377  71.653  1.00  0.00    -0.144 A  
HETATM    5  C   UNL     1      -8.826   6.399  70.290  1.00  0.00    -0.151 A  
HETATM    6  C   UNL     1      -8.917   5.258  69.463  1.00  0.00    -0.103 A  
HETATM    7  C   UNL     1      -9.306   4.048  70.106  1.00  0.00    -0.170 A  
HETATM    8 CL   UNL     1      -9.250   2.512  69.280  1.00  0.00    -0.189 Cl 
ENDROOT
BRANCH   6   9
HETATM    9  N   UNL     1      -8.679   5.412  68.102  1.00  0.00    -0.106 NA 
HETATM   10  C   UNL     1      -7.326   5.641  67.563  1.00  0.00    -0.077 C  
HETATM   11  C   UNL     1      -7.081   4.812  66.282  1.00  0.00    -0.075 C  
HETATM   12  N   UNL     1      -8.117   4.963  65.234  1.00  0.00    -0.111 NA 
HETATM   13  C   UNL     1      -9.774   5.459  67.110  1.00  0.00    -0.146 C  
HETATM   14  C   UNL     1      -9.417   4.617  65.860  1.00  0.00    -0.172 C  
BRANCH  12  15
HETATM   15  C   UNL     1      -8.144   6.322  64.668  1.00  0.00    -0.115 C  
BRANCH  15  16
HETATM   16  C   UNL     1      -6.793   6.775  64.081  1.00  0.00    -0.050 C  
BRANCH  16  17
HETATM   17  C   UNL     1      -6.850   8.089  63.296  1.00  0.00    -0.084 C  
BRANCH  17  18
HETATM   18  C   UNL     1      -8.272   8.628  63.253  1.00  0.00    -0.162 C  
BRANCH  18  19
HETATM   19  O   UNL     1      -8.348   9.905  63.884  1.00  0.00    -0.148 OA 
BRANCH  19  20
HETATM   20  C   UNL     1      -8.645   9.841  65.224  1.00  0.00    -0.153 A  
HETATM   21  C   UNL     1      -7.669  10.361  66.078  1.00  0.00    -0.136 A  
HETATM   22  C   UNL     1      -7.876  10.335  67.457  1.00  0.00    -0.102 A  
HETATM   23  C   UNL     1      -9.053   9.798  67.995  1.00  0.00    -0.127 A  
HETATM   24  C   UNL     1     -10.036   9.312  67.136  1.00  0.00    -0.299 A  
HETATM   25  C   UNL     1      -9.297   9.866  69.474  1.00  0.00    -0.236 C  
HETATM   26  C   UNL     1      -9.836   9.340  65.760  1.00  0.00    -0.302 A  
HETATM   27  C   UNL     1      -7.999   9.882  70.260  1.00  0.00    -0.135 C  
HETATM   28  C   UNL     1      -6.980  10.832  69.674  1.00  0.00    -0.134 C  
HETATM   29  O   UNL     1      -6.167  11.432  70.370  1.00  0.00    -0.231 OA 
HETATM   30  N   UNL     1      -6.922  10.896  68.309  1.00  0.00    -0.068 N  
HETATM   31  H   UNL     1      -6.132  11.383  67.886  1.00  0.00     0.000 HD 
ENDBRANCH  19  20
ENDBRANCH  18  19
ENDBRANCH  17  18
ENDBRANCH  16  17
ENDBRANCH  15  16
ENDBRANCH  12  15
ENDBRANCH   6   9
TORSDOF 7
ENDMDL
MODEL      268
REMARK 921   NORMALIZED FREE ENERGY PREDICTED BY IDOCK:   -3.27 KCAL/MOL
REMARK 922        TOTAL FREE ENERGY PREDICTED BY IDOCK:   -6.21 KCAL/MOL
REMARK 923 INTER-LIGAND FREE ENERGY PREDICTED BY IDOCK:   -4.92 KCAL/MOL
REMARK 924 INTRA-LIGAND FREE ENERGY PREDICTED BY IDOCK:   -1.29 KCAL/MOL
REMARK 927      BINDING AFFINITY PREDICTED BY RF-SCORE:    0.00 PKD
ROOT
HETATM    1 CL   UNL     1     -12.635  13.511  69.348  1.00  0.00     0.024 Cl 
HETATM    2  C   UNL     1     -11.441  12.252  69.295  1.00  0.00    -0.292 A  
HETATM    3  C   UNL     1     -10.439  12.392  68.337  1.00  0.00    -0.245 A  
HETATM    4  C   UNL     1      -9.459  11.416  68.227  1.00  0.00    -0.187 A  
HETATM    5  C   UNL     1      -9.511  10.286  69.043  1.00  0.00    -0.206 A  
HETATM    6  C   UNL     1     -10.513  10.087  70.019  1.00  0.00    -0.287 A  
HETATM    7  C   UNL     1     -11.469  11.135  70.158  1.00  0.00    -0.272 A  
HETATM    8 CL   UNL     1     -12.631  11.149  71.460  1.00  0.00    -0.458 Cl 
ENDROOT
BRANCH   6   9
HETATM    9  N   UNL     1     -10.521   8.884  70.717  1.00  0.00    -0.212 NA 
HETATM   10  C   UNL     1     -10.523   8.832  72.190  1.00  0.00    -0.314 C  
HETATM   11  C   UNL     1     -11.495   7.752  72.715  1.00  0.00    -0.359 C  
HETATM   12  N   UNL     1     -11.312   6.407  72.123  1.00  0.00    -0.276 NA 
HETATM   13  C   UNL     1     -10.428   7.576  70.035  1.00  0.00    -0.228 C  
HETATM   14  C   UNL     1     -11.425   6.564  70.652  1.00  0.00    -0.374 C  
BRANCH  12  15
HETATM   15  C   UNL     1     -10.021   5.804  72.496  1.00  0.00    -0.170 C  
BRANCH  15  16
HETATM   16  C   UNL     1      -9.423   6.376  73.797  1.00  0.00    -0.171 C  
BRANCH  16  17
HETATM   17  C   UNL     1      -7.940   6.055  74.009  1.00  0.00    -0.103 C  
BRANCH  17  18
HETATM   18  C   UNL     1      -7.072   6.883  73.074  1.00  0.00    -0.074 C  
BRANCH  18  19
HETATM   19  O   UNL     1      -7.276   6.494  71.717  1.00  0.00    -0.083 OA 
BRANCH  19  20
HETATM   20  C   UNL     1      -6.828   7.421  70.805  1.00  0.00    -0.048 A  
HETATM   21  C   UNL     1      -6.634   8.709  71.311  1.00  0.00    -0.069 A  
HETATM   22  C   UNL     1      -6.186   9.721  70.461  1.00  0.00    -0.085 A  
HETATM   23  C   UNL     1      -5.925   9.458  69.110  1.00  0.00    -0.041 A  
HETATM   24  C   UNL     1      -6.088   8.164  68.622  1.00  0.00    -0.044 A  
HETATM   25  C   UNL     1      -5.353  10.537  68.236  1.00  0.00    -0.033 C  
HETATM   26  C   UNL     1      -6.530   7.151  69.466  1.00  0.00    -0.040 A  
HETATM   27  C   UNL     1      -5.753  11.921  68.715  1.00  0.00    -0.050 C  
HETATM   28  C   UNL     1      -5.607  12.081  70.211  1.00  0.00    -0.147 C  
HETATM   29  O   UNL     1      -5.310  13.152  70.729  1.00  0.00    -0.129 OA 
HETATM   30  N   UNL     1      -5.948  10.998  70.974  1.00  0.00     0.053 N  
HETATM   31  H   UNL     1      -6.034  11.131  71.982  1.00  0.00     0.000 HD 
ENDBRANCH  19  20
ENDBRANCH  18  19
ENDBRANCH  17  18
ENDBRANCH  16  17
ENDBRANCH  15  16
ENDBRANCH  12  15
ENDBRANCH   6   9
TORSDOF 7
ENDMDL
MODEL      269
REMARK 921   NORMALIZED FREE ENERGY PREDICTED BY IDOCK:   -3.26 KCAL/MOL
REMARK 922        TOTAL FREE ENERGY PREDICTED BY IDOCK:   -6.20 KCAL/MOL
REMARK 923 INTER-LIGAND FREE ENERGY PREDICTED BY IDOCK:   -5.76 KCAL/MOL
REMARK 924 INTRA-LIGAND FREE ENERGY PREDICTED BY IDOCK:   -0.44 KCAL/MOL
REMARK 927      BINDING AFFINITY PREDICTED BY RF-SCORE:    0.00 PKD
ROOT
HETATM    1 CL   UNL     1     -12.345  12.778  69.216  1.00  0.00    -0.062 Cl 
HETATM    2  C   UNL     1     -11.117  11.575  69.455  1.00  0.00    -0.226 A  
HETATM    3  C   UNL     1      -9.961  11.713  68.689  1.00  0.00    -0.192 A  
HETATM    4  C   UNL     1      -8.943  10.780  68.816  1.00  0.00    -0.171 A  
HETATM    5  C   UNL     1      -9.103   9.691  69.673  1.00  0.00    -0.224 A  
HETATM    6  C   UNL     1     -10.260   9.494  70.461  1.00  0.00    -0.287 A  
HETATM    7  C   UNL     1     -11.262  10.502  70.361  1.00  0.00    -0.298 A  
HETATM    8 CL   UNL     1     -12.644  10.528  71.427  1.00  0.00    -0.510 Cl 
ENDROOT
BRANCH   6   9
HETATM    9  N   UNL     1     -10.353   8.329  71.213  1.00  0.00    -0.199 NA 
HETATM   10  C   UNL     1      -9.689   8.186  72.522  1.00  0.00    -0.287 C  
HETATM   11  C   UNL     1     -10.610   7.485  73.547  1.00  0.00    -0.292 C  
HETATM   12  N   UNL     1     -11.191   6.203  73.088  1.00  0.00    -0.181 NA 
HETATM   13  C   UNL     1     -11.037   7.119  70.712  1.00  0.00    -0.269 C  
HETATM   14  C   UNL     1     -11.911   6.484  71.822  1.00  0.00    -0.344 C  
BRANCH  12  15
HETATM   15  C   UNL     1     -10.167   5.162  72.898  1.00  0.00    -0.180 C  
BRANCH  15  16
HETATM   16  C   UNL     1      -8.755   5.594  73.340  1.00  0.00    -0.117 C  
BRANCH  16  17
HETATM   17  C   UNL     1      -7.793   4.434  73.616  1.00  0.00    -0.086 C  
BRANCH  17  18
HETATM   18  C   UNL     1      -7.174   3.930  72.321  1.00  0.00    -0.052 C  
BRANCH  18  19
HETATM   19  O   UNL     1      -7.916   2.828  71.800  1.00  0.00    -0.055 OA 
BRANCH  19  20
HETATM   20  C   UNL     1      -8.426   3.053  70.544  1.00  0.00    -0.057 A  
HETATM   21  C   UNL     1      -8.439   4.389  70.135  1.00  0.00    -0.091 A  
HETATM   22  C   UNL     1      -8.944   4.719  68.876  1.00  0.00    -0.108 A  
HETATM   23  C   UNL     1      -9.433   3.725  68.018  1.00  0.00    -0.221 A  
HETATM   24  C   UNL     1      -9.385   2.392  68.420  1.00  0.00    -0.262 A  
HETATM   25  C   UNL     1      -9.882   4.090  66.633  1.00  0.00    -0.169 C  
HETATM   26  C   UNL     1      -8.879   2.059  69.671  1.00  0.00    -0.131 A  
HETATM   27  C   UNL     1     -10.384   5.520  66.562  1.00  0.00    -0.309 C  
HETATM   28  C   UNL     1      -9.474   6.490  67.281  1.00  0.00    -0.125 C  
HETATM   29  O   UNL     1      -9.327   7.650  66.909  1.00  0.00    -0.145 OA 
HETATM   30  N   UNL     1      -8.915   6.048  68.449  1.00  0.00    -0.115 N  
HETATM   31  H   UNL     1      -8.447   6.731  69.044  1.00  0.00     0.000 HD 
ENDBRANCH  19  20
ENDBRANCH  18  19
ENDBRANCH  17  18
ENDBRANCH  16  17
ENDBRANCH  15  16
ENDBRANCH  12  15
ENDBRANCH   6   9
TORSDOF 7
ENDMDL
MODEL      270
REMARK 921   NORMALIZED FREE ENERGY PREDICTED BY IDOCK:   -3.25 KCAL/MOL
REMARK 922        TOTAL FREE ENERGY PREDICTED BY IDOCK:   -6.18 KCAL/MOL
REMARK 923 INTER-LIGAND FREE ENERGY PREDICTED BY IDOCK:   -5.58 KCAL/MOL
REMARK 924 INTRA-LIGAND FREE ENERGY PREDICTED BY IDOCK:   -0.61 KCAL/MOL
REMARK 927      BINDING AFFINITY PREDICTED BY RF-SCORE:    0.00 PKD
ROOT
HETATM    1 CL   UNL     1     -10.066  20.147  69.543  1.00  0.00    -0.161 Cl 
HETATM    2  C   UNL     1     -10.168  19.085  68.174  1.00  0.00    -0.396 A  
HETATM    3  C   UNL     1     -10.412  19.687  66.942  1.00  0.00    -0.606 A  
HETATM    4  C   UNL     1     -10.521  18.898  65.806  1.00  0.00    -0.347 A  
HETATM    5  C   UNL     1     -10.429  17.510  65.914  1.00  0.00    -0.251 A  
HETATM    6  C   UNL     1     -10.198  16.848  67.140  1.00  0.00    -0.297 A  
HETATM    7  C   UNL     1     -10.024  17.684  68.281  1.00  0.00    -0.339 A  
HETATM    8 CL   UNL     1      -9.512  17.040  69.820  1.00  0.00     0.490 Cl 
ENDROOT
BRANCH   6   9
HETATM    9  N   UNL     1     -10.214  15.457  67.149  1.00  0.00    -0.247 NA 
HETATM   10  C   UNL     1      -9.543  14.659  66.106  1.00  0.00    -0.307 C  
HETATM   11  C   UNL     1      -8.796  13.451  66.715  1.00  0.00    -0.132 C  
HETATM   12  N   UNL     1      -9.612  12.600  67.611  1.00  0.00    -0.183 NA 
HETATM   13  C   UNL     1     -10.985  14.683  68.144  1.00  0.00    -0.261 C  
HETATM   14  C   UNL     1     -10.156  13.486  68.670  1.00  0.00    -0.166 C  
BRANCH  12  15
HETATM   15  C   UNL     1     -10.694  11.907  66.891  1.00  0.00    -0.246 C  
BRANCH  15  16
HETATM   16  C   UNL     1     -10.905  10.449  67.345  1.00  0.00    -0.344 C  
BRANCH  16  17
HETATM   17  C   UNL     1     -11.778  10.293  68.594  1.00  0.00     0.019 C  
BRANCH  17  18
HETATM   18  C   UNL     1     -10.959   9.757  69.759  1.00  0.00    -0.256 C  
BRANCH  18  19
HETATM   19  O   UNL     1     -11.267   8.387  70.006  1.00  0.00    -0.206 OA 
BRANCH  19  20
HETATM   20  C   UNL     1     -10.157   7.585  70.121  1.00  0.00    -0.195 A  
HETATM   21  C   UNL     1     -10.385   6.329  70.691  1.00  0.00    -0.254 A  
HETATM   22  C   UNL     1      -9.319   5.444  70.855  1.00  0.00    -0.156 A  
HETATM   23  C   UNL     1      -8.025   5.799  70.451  1.00  0.00    -0.105 A  
HETATM   24  C   UNL     1      -7.813   7.040  69.854  1.00  0.00    -0.114 A  
HETATM   25  C   UNL     1      -6.911   4.798  70.549  1.00  0.00    -0.037 C  
HETATM   26  C   UNL     1      -8.873   7.923  69.684  1.00  0.00    -0.138 A  
HETATM   27  C   UNL     1      -7.150   3.796  71.664  1.00  0.00    -0.038 C  
HETATM   28  C   UNL     1      -8.567   3.270  71.676  1.00  0.00    -0.076 C  
HETATM   29  O   UNL     1      -8.840   2.131  72.039  1.00  0.00    -0.067 OA 
HETATM   30  N   UNL     1      -9.553   4.172  71.381  1.00  0.00    -0.157 N  
HETATM   31  H   UNL     1     -10.519   3.898  71.556  1.00  0.00     0.000 HD 
ENDBRANCH  19  20
ENDBRANCH  18  19
ENDBRANCH  17  18
ENDBRANCH  16  17
ENDBRANCH  15  16
ENDBRANCH  12  15
ENDBRANCH   6   9
TORSDOF 7
ENDMDL
MODEL      271
REMARK 921   NORMALIZED FREE ENERGY PREDICTED BY IDOCK:   -3.22 KCAL/MOL
REMARK 922        TOTAL FREE ENERGY PREDICTED BY IDOCK:   -6.14 KCAL/MOL
REMARK 923 INTER-LIGAND FREE ENERGY PREDICTED BY IDOCK:   -5.06 KCAL/MOL
REMARK 924 INTRA-LIGAND FREE ENERGY PREDICTED BY IDOCK:   -1.08 KCAL/MOL
REMARK 927      BINDING AFFINITY PREDICTED BY RF-SCORE:    0.00 PKD
ROOT
HETATM    1 CL   UNL     1     -11.898  15.077  67.024  1.00  0.00    -0.216 Cl 
HETATM    2  C   UNL     1     -11.414  13.574  67.743  1.00  0.00    -0.315 A  
HETATM    3  C   UNL     1     -11.878  13.329  69.034  1.00  0.00    -0.365 A  
HETATM    4  C   UNL     1     -11.519  12.154  69.677  1.00  0.00    -0.308 A  
HETATM    5  C   UNL     1     -10.661  11.252  69.046  1.00  0.00    -0.257 A  
HETATM    6  C   UNL     1     -10.149  11.458  67.746  1.00  0.00    -0.181 A  
HETATM    7  C   UNL     1     -10.586  12.640  67.081  1.00  0.00    -0.236 A  
HETATM    8 CL   UNL     1     -10.228  12.931  65.398  1.00  0.00    -0.300 Cl 
ENDROOT
BRANCH   6   9
HETATM    9  N   UNL     1      -9.232  10.539  67.247  1.00  0.00    -0.143 NA 
HETATM   10  C   UNL     1      -9.563   9.112  67.082  1.00  0.00    -0.164 C  
HETATM   11  C   UNL     1      -9.019   8.558  65.745  1.00  0.00    -0.182 C  
HETATM   12  N   UNL     1      -7.582   8.815  65.503  1.00  0.00    -0.085 NA 
HETATM   13  C   UNL     1      -7.833  10.906  66.942  1.00  0.00    -0.135 C  
HETATM   14  C   UNL     1      -7.383  10.283  65.598  1.00  0.00    -0.149 C  
BRANCH  12  15
HETATM   15  C   UNL     1      -6.718   8.099  66.456  1.00  0.00    -0.063 C  
BRANCH  15  16
HETATM   16  C   UNL     1      -6.489   6.619  66.093  1.00  0.00    -0.043 C  
BRANCH  16  17
HETATM   17  C   UNL     1      -6.493   5.663  67.290  1.00  0.00    -0.044 C  
BRANCH  17  18
HETATM   18  C   UNL     1      -5.657   6.225  68.430  1.00  0.00    -0.008 C  
BRANCH  18  19
HETATM   19  O   UNL     1      -5.878   5.489  69.631  1.00  0.00    -0.015 OA 
BRANCH  19  20
HETATM   20  C   UNL     1      -6.784   6.079  70.480  1.00  0.00    -0.053 A  
HETATM   21  C   UNL     1      -7.875   5.281  70.834  1.00  0.00    -0.098 A  
HETATM   22  C   UNL     1      -8.854   5.793  71.688  1.00  0.00    -0.136 A  
HETATM   23  C   UNL     1      -8.751   7.096  72.195  1.00  0.00    -0.132 A  
HETATM   24  C   UNL     1      -7.643   7.872  71.863  1.00  0.00    -0.094 A  
HETATM   25  C   UNL     1      -9.763   7.593  73.185  1.00  0.00    -0.327 C  
HETATM   26  C   UNL     1      -6.664   7.364  71.017  1.00  0.00    -0.043 A  
HETATM   27  C   UNL     1     -11.108   6.913  73.007  1.00  0.00    -0.267 C  
HETATM   28  C   UNL     1     -10.981   5.417  72.827  1.00  0.00    -0.277 C  
HETATM   29  O   UNL     1     -11.836   4.634  73.227  1.00  0.00    -0.249 OA 
HETATM   30  N   UNL     1      -9.920   4.982  72.079  1.00  0.00    -0.177 N  
HETATM   31  H   UNL     1      -9.908   4.004  71.790  1.00  0.00     0.000 HD 
ENDBRANCH  19  20
ENDBRANCH  18  19
ENDBRANCH  17  18
ENDBRANCH  16  17
ENDBRANCH  15  16
ENDBRANCH  12  15
ENDBRANCH   6   9
TORSDOF 7
ENDMDL
MODEL      272
REMARK 921   NORMALIZED FREE ENERGY PREDICTED BY IDOCK:   -3.21 KCAL/MOL
REMARK 922        TOTAL FREE ENERGY PREDICTED BY IDOCK:   -6.13 KCAL/MOL
REMARK 923 INTER-LIGAND FREE ENERGY PREDICTED BY IDOCK:   -5.80 KCAL/MOL
REMARK 924 INTRA-LIGAND FREE ENERGY PREDICTED BY IDOCK:   -0.33 KCAL/MOL
REMARK 927      BINDING AFFINITY PREDICTED BY RF-SCORE:    0.00 PKD
ROOT
HETATM    1 CL   UNL     1      -9.620   3.731  72.955  1.00  0.00    -0.148 Cl 
HETATM    2  C   UNL     1      -8.704   5.077  72.353  1.00  0.00    -0.124 A  
HETATM    3  C   UNL     1      -7.581   5.440  73.093  1.00  0.00    -0.096 A  
HETATM    4  C   UNL     1      -6.809   6.516  72.679  1.00  0.00    -0.065 A  
HETATM    5  C   UNL     1      -7.189   7.250  71.554  1.00  0.00    -0.072 A  
HETATM    6  C   UNL     1      -8.326   6.935  70.778  1.00  0.00    -0.127 A  
HETATM    7  C   UNL     1      -9.064   5.785  71.185  1.00  0.00    -0.146 A  
HETATM    8 CL   UNL     1     -10.356   5.133  70.210  1.00  0.00    -0.345 Cl 
ENDROOT
BRANCH   6   9
HETATM    9  N   UNL     1      -8.663   7.785  69.730  1.00  0.00    -0.138 NA 
HETATM   10  C   UNL     1      -7.703   8.142  68.670  1.00  0.00    -0.112 C  
HETATM   11  C   UNL     1      -8.372   8.129  67.277  1.00  0.00    -0.121 C  
HETATM   12  N   UNL     1      -9.616   8.926  67.175  1.00  0.00    -0.162 NA 
HETATM   13  C   UNL     1      -9.971   8.470  69.660  1.00  0.00    -0.192 C  
HETATM   14  C   UNL     1     -10.539   8.419  68.220  1.00  0.00    -0.109 C  
BRANCH  12  15
HETATM   15  C   UNL     1      -9.369  10.369  67.337  1.00  0.00    -0.145 C  
BRANCH  15  16
HETATM   16  C   UNL     1      -9.488  11.168  66.025  1.00  0.00    -0.234 C  
BRANCH  16  17
HETATM   17  C   UNL     1      -9.866  12.641  66.211  1.00  0.00    -0.266 C  
BRANCH  17  18
HETATM   18  C   UNL     1     -11.303  12.772  66.692  1.00  0.00    -0.316 C  
BRANCH  18  19
HETATM   19  O   UNL     1     -11.346  13.011  68.098  1.00  0.00    -0.258 OA 
BRANCH  19  20
HETATM   20  C   UNL     1     -11.012  14.297  68.448  1.00  0.00    -0.253 A  
HETATM   21  C   UNL     1     -11.138  15.245  67.428  1.00  0.00    -0.326 A  
HETATM   22  C   UNL     1     -10.817  16.578  67.685  1.00  0.00    -0.269 A  
HETATM   23  C   UNL     1     -10.374  16.977  68.953  1.00  0.00    -0.337 A  
HETATM   24  C   UNL     1     -10.283  16.033  69.972  1.00  0.00    -0.130 A  
HETATM   25  C   UNL     1     -10.125  18.431  69.233  1.00  0.00    -0.045 C  
HETATM   26  C   UNL     1     -10.606  14.704  69.723  1.00  0.00    -0.071 A  
HETATM   27  C   UNL     1      -9.732  19.188  67.979  1.00  0.00    -0.414 C  
HETATM   28  C   UNL     1     -10.608  18.843  66.796  1.00  0.00    -0.405 C  
HETATM   29  O   UNL     1     -10.875  19.658  65.919  1.00  0.00    -0.446 OA 
HETATM   30  N   UNL     1     -10.987  17.534  66.681  1.00  0.00     0.070 N  
HETATM   31  H   UNL     1     -11.420  17.237  65.807  1.00  0.00     0.000 HD 
ENDBRANCH  19  20
ENDBRANCH  18  19
ENDBRANCH  17  18
ENDBRANCH  16  17
ENDBRANCH  15  16
ENDBRANCH  12  15
ENDBRANCH   6   9
TORSDOF 7
ENDMDL
MODEL      273
REMARK 921   NORMALIZED FREE ENERGY PREDICTED BY IDOCK:   -3.19 KCAL/MOL
REMARK 922        TOTAL FREE ENERGY PREDICTED BY IDOCK:   -6.10 KCAL/MOL
REMARK 923 INTER-LIGAND FREE ENERGY PREDICTED BY IDOCK:   -5.85 KCAL/MOL
REMARK 924 INTRA-LIGAND FREE ENERGY PREDICTED BY IDOCK:   -0.25 KCAL/MOL
REMARK 927      BINDING AFFINITY PREDICTED BY RF-SCORE:    0.00 PKD
ROOT
HETATM    1 CL   UNL     1     -12.891  11.856  63.452  1.00  0.00    -0.588 Cl 
HETATM    2  C   UNL     1     -11.921  12.965  64.369  1.00  0.00    -0.395 A  
HETATM    3  C   UNL     1     -12.140  14.320  64.130  1.00  0.00    -0.423 A  
HETATM    4  C   UNL     1     -11.390  15.264  64.816  1.00  0.00    -0.396 A  
HETATM    5  C   UNL     1     -10.396  14.849  65.703  1.00  0.00    -0.370 A  
HETATM    6  C   UNL     1     -10.122  13.489  65.970  1.00  0.00    -0.310 A  
HETATM    7  C   UNL     1     -10.951  12.541  65.303  1.00  0.00    -0.293 A  
HETATM    8 CL   UNL     1     -10.893  10.840  65.692  1.00  0.00    -0.140 Cl 
ENDROOT
BRANCH   6   9
HETATM    9  N   UNL     1      -9.051  13.186  66.803  1.00  0.00    -0.231 NA 
HETATM   10  C   UNL     1      -8.422  11.852  66.818  1.00  0.00    -0.167 C  
HETATM   11  C   UNL     1      -6.882  11.956  66.885  1.00  0.00    -0.075 C  
HETATM   12  N   UNL     1      -6.361  12.815  67.973  1.00  0.00    -0.085 NA 
HETATM   13  C   UNL     1      -8.533  14.143  67.803  1.00  0.00    -0.178 C  
HETATM   14  C   UNL     1      -6.984  14.151  67.804  1.00  0.00    -0.177 C  
BRANCH  12  15
HETATM   15  C   UNL     1      -6.647  12.260  69.307  1.00  0.00    -0.099 C  
BRANCH  15  16
HETATM   16  C   UNL     1      -7.000  10.760  69.291  1.00  0.00    -0.102 C  
BRANCH  16  17
HETATM   17  C   UNL     1      -5.811   9.825  69.531  1.00  0.00    -0.033 C  
BRANCH  17  18
HETATM   18  C   UNL     1      -6.041   8.480  68.860  1.00  0.00    -0.044 C  
BRANCH  18  19
HETATM   19  O   UNL     1      -6.528   8.654  67.530  1.00  0.00    -0.056 OA 
BRANCH  19  20
HETATM   20  C   UNL     1      -7.583   7.830  67.218  1.00  0.00    -0.104 A  
HETATM   21  C   UNL     1      -7.234   6.603  66.650  1.00  0.00    -0.073 A  
HETATM   22  C   UNL     1      -8.236   5.700  66.293  1.00  0.00    -0.108 A  
HETATM   23  C   UNL     1      -9.587   6.009  66.502  1.00  0.00    -0.182 A  
HETATM   24  C   UNL     1      -9.924   7.221  67.101  1.00  0.00    -0.279 A  
HETATM   25  C   UNL     1     -10.643   4.986  66.200  1.00  0.00    -0.321 C  
HETATM   26  C   UNL     1      -8.929   8.121  67.462  1.00  0.00    -0.143 A  
HETATM   27  C   UNL     1     -10.206   4.033  65.103  1.00  0.00    -0.172 C  
HETATM   28  C   UNL     1      -8.790   3.541  65.293  1.00  0.00    -0.124 C  
HETATM   29  O   UNL     1      -8.431   2.423  64.938  1.00  0.00    -0.087 OA 
HETATM   30  N   UNL     1      -7.887   4.454  65.767  1.00  0.00    -0.094 N  
HETATM   31  H   UNL     1      -6.898   4.210  65.734  1.00  0.00     0.000 HD 
ENDBRANCH  19  20
ENDBRANCH  18  19
ENDBRANCH  17  18
ENDBRANCH  16  17
ENDBRANCH  15  16
ENDBRANCH  12  15
ENDBRANCH   6   9
TORSDOF 7
ENDMDL
MODEL      274
REMARK 921   NORMALIZED FREE ENERGY PREDICTED BY IDOCK:   -3.14 KCAL/MOL
REMARK 922        TOTAL FREE ENERGY PREDICTED BY IDOCK:   -6.03 KCAL/MOL
REMARK 923 INTER-LIGAND FREE ENERGY PREDICTED BY IDOCK:   -6.21 KCAL/MOL
REMARK 924 INTRA-LIGAND FREE ENERGY PREDICTED BY IDOCK:    0.18 KCAL/MOL
REMARK 927      BINDING AFFINITY PREDICTED BY RF-SCORE:    0.00 PKD
ROOT
HETATM    1 CL   UNL     1     -10.818   2.730  74.348  1.00  0.00    -0.165 Cl 
HETATM    2  C   UNL     1      -9.837   3.503  73.143  1.00  0.00    -0.128 A  
HETATM    3  C   UNL     1      -8.672   2.834  72.774  1.00  0.00    -0.082 A  
HETATM    4  C   UNL     1      -7.831   3.400  71.827  1.00  0.00    -0.058 A  
HETATM    5  C   UNL     1      -8.135   4.651  71.288  1.00  0.00    -0.096 A  
HETATM    6  C   UNL     1      -9.294   5.379  71.639  1.00  0.00    -0.147 A  
HETATM    7  C   UNL     1     -10.175   4.746  72.563  1.00  0.00    -0.190 A  
HETATM    8 CL   UNL     1     -11.749   5.405  72.927  1.00  0.00    -0.312 Cl 
ENDROOT
BRANCH   6   9
HETATM    9  N   UNL     1      -9.455   6.654  71.109  1.00  0.00    -0.164 NA 
HETATM   10  C   UNL     1     -10.340   6.920  69.960  1.00  0.00    -0.200 C  
HETATM   11  C   UNL     1     -11.158   8.215  70.167  1.00  0.00    -0.187 C  
HETATM   12  N   UNL     1     -10.357   9.408  70.524  1.00  0.00    -0.259 NA 
HETATM   13  C   UNL     1      -8.676   7.813  71.592  1.00  0.00    -0.118 C  
HETATM   14  C   UNL     1      -9.583   9.060  71.741  1.00  0.00    -0.208 C  
BRANCH  12  15
HETATM   15  C   UNL     1      -9.465   9.830  69.430  1.00  0.00    -0.201 C  
BRANCH  15  16
HETATM   16  C   UNL     1      -7.980   9.897  69.833  1.00  0.00    -0.193 C  
BRANCH  16  17
HETATM   17  C   UNL     1      -7.330  11.271  69.639  1.00  0.00     0.096 C  
BRANCH  17  18
HETATM   18  C   UNL     1      -6.514  11.303  68.356  1.00  0.00    -0.057 C  
BRANCH  18  19
HETATM   19  O   UNL     1      -7.326  10.973  67.230  1.00  0.00    -0.096 OA 
BRANCH  19  20
HETATM   20  C   UNL     1      -8.198  11.973  66.869  1.00  0.00    -0.146 A  
HETATM   21  C   UNL     1      -9.196  11.595  65.967  1.00  0.00    -0.218 A  
HETATM   22  C   UNL     1     -10.127  12.541  65.535  1.00  0.00    -0.265 A  
HETATM   23  C   UNL     1     -10.073  13.862  65.999  1.00  0.00    -0.324 A  
HETATM   24  C   UNL     1      -9.096  14.222  66.924  1.00  0.00    -0.268 A  
HETATM   25  C   UNL     1     -11.139  14.839  65.596  1.00  0.00    -0.342 C  
HETATM   26  C   UNL     1      -8.169  13.281  67.360  1.00  0.00    -0.185 A  
HETATM   27  C   UNL     1     -11.738  14.494  64.245  1.00  0.00    -0.312 C  
HETATM   28  C   UNL     1     -12.051  13.021  64.109  1.00  0.00    -0.427 C  
HETATM   29  O   UNL     1     -12.992  12.610  63.438  1.00  0.00    -0.649 OA 
HETATM   30  N   UNL     1     -11.152  12.155  64.669  1.00  0.00    -0.306 N  
HETATM   31  H   UNL     1     -11.237  11.165  64.441  1.00  0.00     0.000 HD 
ENDBRANCH  19  20
ENDBRANCH  18  19
ENDBRANCH  17  18
ENDBRANCH  16  17
ENDBRANCH  15  16
ENDBRANCH  12  15
ENDBRANCH   6   9
TORSDOF 7
ENDMDL
MODEL      275
REMARK 921   NORMALIZED FREE ENERGY PREDICTED BY IDOCK:   -3.11 KCAL/MOL
REMARK 922        TOTAL FREE ENERGY PREDICTED BY IDOCK:   -5.98 KCAL/MOL
REMARK 923 INTER-LIGAND FREE ENERGY PREDICTED BY IDOCK:   -5.39 KCAL/MOL
REMARK 924 INTRA-LIGAND FREE ENERGY PREDICTED BY IDOCK:   -0.60 KCAL/MOL
REMARK 927      BINDING AFFINITY PREDICTED BY RF-SCORE:    0.00 PKD
ROOT
HETATM    1 CL   UNL     1      -9.382  19.438  68.466  1.00  0.00    -0.427 Cl 
HETATM    2  C   UNL     1      -9.848  18.288  67.252  1.00  0.00    -0.321 A  
HETATM    3  C   UNL     1     -10.191  18.810  66.007  1.00  0.00    -0.413 A  
HETATM    4  C   UNL     1     -10.587  17.951  64.992  1.00  0.00     0.863 A  
HETATM    5  C   UNL     1     -10.682  16.581  65.241  1.00  0.00    -0.269 A  
HETATM    6  C   UNL     1     -10.362  16.001  66.489  1.00  0.00    -0.299 A  
HETATM    7  C   UNL     1      -9.894  16.897  67.493  1.00  0.00    -0.260 A  
HETATM    8 CL   UNL     1      -9.247  16.318  69.008  1.00  0.00    -0.251 Cl 
ENDROOT
BRANCH   6   9
HETATM    9  N   UNL     1     -10.577  14.638  66.655  1.00  0.00    -0.284 NA 
HETATM   10  C   UNL     1      -9.469  13.691  66.876  1.00  0.00    -0.262 C  
HETATM   11  C   UNL     1      -9.825  12.652  67.964  1.00  0.00    -0.218 C  
HETATM   12  N   UNL     1     -11.110  11.947  67.756  1.00  0.00    -0.223 NA 
HETATM   13  C   UNL     1     -11.917  14.028  66.521  1.00  0.00    -0.444 C  
HETATM   14  C   UNL     1     -12.160  12.988  67.643  1.00  0.00    -0.209 C  
BRANCH  12  15
HETATM   15  C   UNL     1     -11.087  11.083  66.563  1.00  0.00    -0.106 C  
BRANCH  15  16
HETATM   16  C   UNL     1      -9.773  10.295  66.395  1.00  0.00    -0.252 C  
BRANCH  16  17
HETATM   17  C   UNL     1      -9.911   8.782  66.594  1.00  0.00    -0.355 C  
BRANCH  17  18
HETATM   18  C   UNL     1      -9.713   8.411  68.056  1.00  0.00    -0.158 C  
BRANCH  18  19
HETATM   19  O   UNL     1      -9.384   7.029  68.187  1.00  0.00    -0.127 OA 
BRANCH  19  20
HETATM   20  C   UNL     1      -8.862   6.703  69.416  1.00  0.00    -0.134 A  
HETATM   21  C   UNL     1      -8.225   7.748  70.091  1.00  0.00    -0.123 A  
HETATM   22  C   UNL     1      -7.658   7.513  71.344  1.00  0.00    -0.081 A  
HETATM   23  C   UNL     1      -7.724   6.244  71.934  1.00  0.00    -0.097 A  
HETATM   24  C   UNL     1      -8.390   5.216  71.270  1.00  0.00    -0.118 A  
HETATM   25  C   UNL     1      -7.192   6.037  73.322  1.00  0.00    -0.085 C  
HETATM   26  C   UNL     1      -8.961   5.447  70.023  1.00  0.00    -0.152 A  
HETATM   27  C   UNL     1      -6.071   7.007  73.646  1.00  0.00    -0.062 C  
HETATM   28  C   UNL     1      -6.390   8.423  73.222  1.00  0.00    -0.103 C  
HETATM   29  O   UNL     1      -5.976   9.400  73.838  1.00  0.00    -0.321 OA 
HETATM   30  N   UNL     1      -7.061   8.567  72.039  1.00  0.00    -0.095 N  
HETATM   31  H   UNL     1      -7.131   9.503  71.639  1.00  0.00     0.000 HD 
ENDBRANCH  19  20
ENDBRANCH  18  19
ENDBRANCH  17  18
ENDBRANCH  16  17
ENDBRANCH  15  16
ENDBRANCH  12  15
ENDBRANCH   6   9
TORSDOF 7
ENDMDL
MODEL      276
REMARK 921   NORMALIZED FREE ENERGY PREDICTED BY IDOCK:   -3.06 KCAL/MOL
REMARK 922        TOTAL FREE ENERGY PREDICTED BY IDOCK:   -5.92 KCAL/MOL
REMARK 923 INTER-LIGAND FREE ENERGY PREDICTED BY IDOCK:   -4.86 KCAL/MOL
REMARK 924 INTRA-LIGAND FREE ENERGY PREDICTED BY IDOCK:   -1.05 KCAL/MOL
REMARK 927      BINDING AFFINITY PREDICTED BY RF-SCORE:    0.00 PKD
ROOT
HETATM    1 CL   UNL     1     -10.306  15.250  65.473  1.00  0.00    -0.372 Cl 
HETATM    2  C   UNL     1     -10.469  13.989  66.654  1.00  0.00    -0.272 A  
HETATM    3  C   UNL     1     -10.977  14.368  67.895  1.00  0.00    -0.272 A  
HETATM    4  C   UNL     1     -11.121  13.415  68.893  1.00  0.00    -0.307 A  
HETATM    5  C   UNL     1     -10.715  12.101  68.661  1.00  0.00    -0.261 A  
HETATM    6  C   UNL     1     -10.179  11.667  67.428  1.00  0.00    -0.203 A  
HETATM    7  C   UNL     1     -10.104  12.649  66.398  1.00  0.00    -0.253 A  
HETATM    8 CL   UNL     1      -9.679  12.227  64.759  1.00  0.00    -0.100 Cl 
ENDROOT
BRANCH   6   9
HETATM    9  N   UNL     1      -9.724  10.357  67.333  1.00  0.00    -0.161 NA 
HETATM   10  C   UNL     1     -10.647   9.207  67.284  1.00  0.00    -0.233 C  
HETATM   11  C   UNL     1     -10.193   8.164  66.239  1.00  0.00     0.124 C  
HETATM   12  N   UNL     1      -8.784   7.725  66.368  1.00  0.00    -0.143 NA 
HETATM   13  C   UNL     1      -8.287  10.015  67.376  1.00  0.00    -0.118 C  
HETATM   14  C   UNL     1      -7.945   8.947  66.308  1.00  0.00    -0.103 C  
BRANCH  12  15
HETATM   15  C   UNL     1      -8.544   6.975  67.612  1.00  0.00    -0.122 C  
BRANCH  15  16
HETATM   16  C   UNL     1      -8.172   5.497  67.382  1.00  0.00    -0.101 C  
BRANCH  16  17
HETATM   17  C   UNL     1      -9.358   4.529  67.437  1.00  0.00    -0.168 C  
BRANCH  17  18
HETATM   18  C   UNL     1      -9.275   3.647  68.674  1.00  0.00    -0.160 C  
BRANCH  18  19
HETATM   19  O   UNL     1     -10.046   4.197  69.740  1.00  0.00    -0.137 OA 
BRANCH  19  20
HETATM   20  C   UNL     1      -9.339   4.348  70.909  1.00  0.00    -0.150 A  
HETATM   21  C   UNL     1      -9.040   5.667  71.259  1.00  0.00    -0.156 A  
HETATM   22  C   UNL     1      -8.320   5.923  72.427  1.00  0.00    -0.117 A  
HETATM   23  C   UNL     1      -7.899   4.873  73.253  1.00  0.00    -0.097 A  
HETATM   24  C   UNL     1      -8.231   3.563  72.915  1.00  0.00    -0.081 A  
HETATM   25  C   UNL     1      -7.210   5.175  74.552  1.00  0.00    -0.082 C  
HETATM   26  C   UNL     1      -8.952   3.304  71.755  1.00  0.00    -0.148 A  
HETATM   27  C   UNL     1      -6.462   6.495  74.500  1.00  0.00    -0.081 C  
HETATM   28  C   UNL     1      -7.280   7.599  73.867  1.00  0.00    -0.113 C  
HETATM   29  O   UNL     1      -7.171   8.772  74.208  1.00  0.00    -0.372 OA 
HETATM   30  N   UNL     1      -8.060   7.243  72.801  1.00  0.00    -0.104 N  
HETATM   31  H   UNL     1      -8.478   7.989  72.245  1.00  0.00     0.000 HD 
ENDBRANCH  19  20
ENDBRANCH  18  19
ENDBRANCH  17  18
ENDBRANCH  16  17
ENDBRANCH  15  16
ENDBRANCH  12  15
ENDBRANCH   6   9
TORSDOF 7
ENDMDL
MODEL      277
REMARK 921   NORMALIZED FREE ENERGY PREDICTED BY IDOCK:   -3.02 KCAL/MOL
REMARK 922        TOTAL FREE ENERGY PREDICTED BY IDOCK:   -5.86 KCAL/MOL
REMARK 923 INTER-LIGAND FREE ENERGY PREDICTED BY IDOCK:   -5.94 KCAL/MOL
REMARK 924 INTRA-LIGAND FREE ENERGY PREDICTED BY IDOCK:    0.07 KCAL/MOL
REMARK 927      BINDING AFFINITY PREDICTED BY RF-SCORE:    0.00 PKD
ROOT
HETATM    1 CL   UNL     1     -10.973   5.362  66.511  1.00  0.00    -0.228 Cl 
HETATM    2  C   UNL     1     -10.467   6.193  67.949  1.00  0.00    -0.229 A  
HETATM    3  C   UNL     1     -11.352   6.159  69.025  1.00  0.00    -0.257 A  
HETATM    4  C   UNL     1     -11.020   6.814  70.202  1.00  0.00    -0.340 A  
HETATM    5  C   UNL     1      -9.829   7.537  70.282  1.00  0.00    -0.183 A  
HETATM    6  C   UNL     1      -8.905   7.618  69.217  1.00  0.00    -0.136 A  
HETATM    7  C   UNL     1      -9.238   6.881  68.042  1.00  0.00    -0.121 A  
HETATM    8 CL   UNL     1      -8.105   6.694  66.727  1.00  0.00    -0.111 Cl 
ENDROOT
BRANCH   6   9
HETATM    9  N   UNL     1      -7.793   8.437  69.371  1.00  0.00    -0.101 NA 
HETATM   10  C   UNL     1      -6.753   8.166  70.381  1.00  0.00    -0.037 C  
HETATM   11  C   UNL     1      -5.337   8.395  69.807  1.00  0.00    -0.029 C  
HETATM   12  N   UNL     1      -5.133   9.709  69.155  1.00  0.00    -0.036 NA 
HETATM   13  C   UNL     1      -7.624   9.691  68.608  1.00  0.00    -0.080 C  
HETATM   14  C   UNL     1      -6.168   9.832  68.100  1.00  0.00    -0.055 C  
BRANCH  12  15
HETATM   15  C   UNL     1      -5.213  10.825  70.113  1.00  0.00    -0.052 C  
BRANCH  15  16
HETATM   16  C   UNL     1      -6.294  11.865  69.761  1.00  0.00    -0.118 C  
BRANCH  16  17
HETATM   17  C   UNL     1      -5.773  13.298  69.616  1.00  0.00    -0.107 C  
BRANCH  17  18
HETATM   18  C   UNL     1      -6.788  14.170  68.893  1.00  0.00    -0.106 C  
BRANCH  18  19
HETATM   19  O   UNL     1      -7.729  14.721  69.812  1.00  0.00    -0.090 OA 
BRANCH  19  20
HETATM   20  C   UNL     1      -8.481  15.743  69.284  1.00  0.00    -0.258 A  
HETATM   21  C   UNL     1      -7.803  16.587  68.401  1.00  0.00    -0.187 A  
HETATM   22  C   UNL     1      -8.481  17.659  67.817  1.00  0.00    -0.227 A  
HETATM   23  C   UNL     1      -9.832  17.893  68.103  1.00  0.00    -0.334 A  
HETATM   24  C   UNL     1     -10.509  17.027  68.958  1.00  0.00    -0.337 A  
HETATM   25  C   UNL     1     -10.566  18.992  67.391  1.00  0.00    -0.559 C  
HETATM   26  C   UNL     1      -9.840  15.956  69.539  1.00  0.00    -0.268 A  
HETATM   27  C   UNL     1      -9.634  20.116  66.977  1.00  0.00    -0.558 C  
HETATM   28  C   UNL     1      -8.357  19.607  66.349  1.00  0.00    -0.353 C  
HETATM   29  O   UNL     1      -7.766  20.227  65.471  1.00  0.00    -0.211 OA 
HETATM   30  N   UNL     1      -7.818  18.476  66.899  1.00  0.00    -0.227 N  
HETATM   31  H   UNL     1      -6.872  18.213  66.621  1.00  0.00     0.000 HD 
ENDBRANCH  19  20
ENDBRANCH  18  19
ENDBRANCH  17  18
ENDBRANCH  16  17
ENDBRANCH  15  16
ENDBRANCH  12  15
ENDBRANCH   6   9
TORSDOF 7
ENDMDL
MODEL      278
REMARK 921   NORMALIZED FREE ENERGY PREDICTED BY IDOCK:   -2.99 KCAL/MOL
REMARK 922        TOTAL FREE ENERGY PREDICTED BY IDOCK:   -5.82 KCAL/MOL
REMARK 923 INTER-LIGAND FREE ENERGY PREDICTED BY IDOCK:   -4.72 KCAL/MOL
REMARK 924 INTRA-LIGAND FREE ENERGY PREDICTED BY IDOCK:   -1.09 KCAL/MOL
REMARK 927      BINDING AFFINITY PREDICTED BY RF-SCORE:    0.00 PKD
ROOT
HETATM    1 CL   UNL     1     -11.435  15.029  65.876  1.00  0.00    -0.281 Cl 
HETATM    2  C   UNL     1     -10.852  13.395  65.829  1.00  0.00    -0.275 A  
HETATM    3  C   UNL     1     -11.114  12.680  64.662  1.00  0.00    -0.348 A  
HETATM    4  C   UNL     1     -10.691  11.363  64.560  1.00  0.00    -0.391 A  
HETATM    5  C   UNL     1     -10.050  10.754  65.639  1.00  0.00    -0.327 A  
HETATM    6  C   UNL     1      -9.774  11.428  66.850  1.00  0.00    -0.192 A  
HETATM    7  C   UNL     1     -10.159  12.799  66.905  1.00  0.00    -0.232 A  
HETATM    8 CL   UNL     1      -9.692  13.829  68.235  1.00  0.00    -0.228 Cl 
ENDROOT
BRANCH   6   9
HETATM    9  N   UNL     1      -9.210  10.702  67.893  1.00  0.00    -0.147 NA 
HETATM   10  C   UNL     1      -7.752  10.640  68.108  1.00  0.00    -0.101 C  
HETATM   11  C   UNL     1      -7.398  10.763  69.607  1.00  0.00    -0.103 C  
HETATM   12  N   UNL     1      -8.120   9.826  70.497  1.00  0.00    -0.249 NA 
HETATM   13  C   UNL     1     -10.021   9.860  68.797  1.00  0.00    -0.173 C  
HETATM   14  C   UNL     1      -9.569  10.041  70.267  1.00  0.00    -0.017 C  
BRANCH  12  15
HETATM   15  C   UNL     1      -7.745   8.423  70.252  1.00  0.00    -0.080 C  
BRANCH  15  16
HETATM   16  C   UNL     1      -8.352   7.433  71.265  1.00  0.00    -0.110 C  
BRANCH  16  17
HETATM   17  C   UNL     1      -8.499   6.000  70.743  1.00  0.00    -0.130 C  
BRANCH  17  18
HETATM   18  C   UNL     1      -8.772   5.999  69.246  1.00  0.00    -0.117 C  
BRANCH  18  19
HETATM   19  O   UNL     1      -7.702   5.377  68.537  1.00  0.00    -0.082 OA 
BRANCH  19  20
HETATM   20  C   UNL     1      -7.785   5.527  67.173  1.00  0.00    -0.100 A  
HETATM   21  C   UNL     1      -8.797   4.791  66.552  1.00  0.00    -0.111 A  
HETATM   22  C   UNL     1      -8.958   4.873  65.169  1.00  0.00    -0.152 A  
HETATM   23  C   UNL     1      -8.118   5.687  64.397  1.00  0.00    -0.128 A  
HETATM   24  C   UNL     1      -7.133   6.443  65.028  1.00  0.00    -0.060 A  
HETATM   25  C   UNL     1      -8.367   5.834  62.924  1.00  0.00    -0.049 C  
HETATM   26  C   UNL     1      -6.972   6.368  66.407  1.00  0.00    -0.067 A  
HETATM   27  C   UNL     1      -9.038   4.604  62.341  1.00  0.00    -0.124 C  
HETATM   28  C   UNL     1     -10.179   4.106  63.198  1.00  0.00    -0.064 C  
HETATM   29  O   UNL     1     -11.170   3.563  62.719  1.00  0.00    -0.019 OA 
HETATM   30  N   UNL     1      -9.998   4.174  64.552  1.00  0.00    -0.267 N  
HETATM   31  H   UNL     1     -10.664   3.684  65.149  1.00  0.00     0.000 HD 
ENDBRANCH  19  20
ENDBRANCH  18  19
ENDBRANCH  17  18
ENDBRANCH  16  17
ENDBRANCH  15  16
ENDBRANCH  12  15
ENDBRANCH   6   9
TORSDOF 7
ENDMDL
MODEL      279
REMARK 921   NORMALIZED FREE ENERGY PREDICTED BY IDOCK:   -2.99 KCAL/MOL
REMARK 922        TOTAL FREE ENERGY PREDICTED BY IDOCK:   -5.81 KCAL/MOL
REMARK 923 INTER-LIGAND FREE ENERGY PREDICTED BY IDOCK:   -5.48 KCAL/MOL
REMARK 924 INTRA-LIGAND FREE ENERGY PREDICTED BY IDOCK:   -0.33 KCAL/MOL
REMARK 927      BINDING AFFINITY PREDICTED BY RF-SCORE:    0.00 PKD
ROOT
HETATM    1 CL   UNL     1     -10.963  16.152  71.274  1.00  0.00    -0.010 Cl 
HETATM    2  C   UNL     1     -10.739  16.221  69.555  1.00  0.00    -0.323 A  
HETATM    3  C   UNL     1     -10.520  17.484  69.010  1.00  0.00    -0.250 A  
HETATM    4  C   UNL     1     -10.347  17.617  67.640  1.00  0.00    -0.368 A  
HETATM    5  C   UNL     1     -10.440  16.494  66.818  1.00  0.00    -0.269 A  
HETATM    6  C   UNL     1     -10.677  15.193  67.315  1.00  0.00    -0.305 A  
HETATM    7  C   UNL     1     -10.784  15.074  68.731  1.00  0.00    -0.241 A  
HETATM    8 CL   UNL     1     -10.852  13.518  69.518  1.00  0.00    -0.028 Cl 
ENDROOT
BRANCH   6   9
HETATM    9  N   UNL     1     -10.839  14.159  66.400  1.00  0.00    -0.301 NA 
HETATM   10  C   UNL     1     -11.823  13.079  66.604  1.00  0.00    -0.393 C  
HETATM   11  C   UNL     1     -12.564  12.738  65.291  1.00  0.00    -0.393 C  
HETATM   12  N   UNL     1     -11.685  12.462  64.132  1.00  0.00    -0.369 NA 
HETATM   13  C   UNL     1      -9.971  14.011  65.213  1.00  0.00    -0.252 C  
HETATM   14  C   UNL     1     -10.809  13.647  63.963  1.00  0.00     0.001 C  
BRANCH  12  15
HETATM   15  C   UNL     1     -10.891  11.235  64.314  1.00  0.00    -0.328 C  
BRANCH  15  16
HETATM   16  C   UNL     1      -9.484  11.310  63.689  1.00  0.00    -0.244 C  
BRANCH  16  17
HETATM   17  C   UNL     1      -8.422  10.478  64.415  1.00  0.00    -0.130 C  
BRANCH  17  18
HETATM   18  C   UNL     1      -8.311  10.900  65.872  1.00  0.00    -0.149 C  
BRANCH  18  19
HETATM   19  O   UNL     1      -7.077  10.457  66.435  1.00  0.00    -0.104 OA 
BRANCH  19  20
HETATM   20  C   UNL     1      -7.233   9.619  67.513  1.00  0.00    -0.090 A  
HETATM   21  C   UNL     1      -6.624  10.048  68.695  1.00  0.00    -0.049 A  
HETATM   22  C   UNL     1      -6.721   9.262  69.844  1.00  0.00    -0.050 A  
HETATM   23  C   UNL     1      -7.425   8.051  69.825  1.00  0.00    -0.089 A  
HETATM   24  C   UNL     1      -8.058   7.647  68.652  1.00  0.00    -0.127 A  
HETATM   25  C   UNL     1      -7.598   7.268  71.094  1.00  0.00    -0.080 C  
HETATM   26  C   UNL     1      -7.968   8.429  67.506  1.00  0.00    -0.106 A  
HETATM   27  C   UNL     1      -6.457   7.510  72.066  1.00  0.00    -0.042 C  
HETATM   28  C   UNL     1      -6.103   8.975  72.189  1.00  0.00    -0.033 C  
HETATM   29  O   UNL     1      -5.683   9.461  73.233  1.00  0.00    -0.277 OA 
HETATM   30  N   UNL     1      -6.152   9.711  71.037  1.00  0.00    -0.079 N  
HETATM   31  H   UNL     1      -5.748  10.648  71.051  1.00  0.00     0.000 HD 
ENDBRANCH  19  20
ENDBRANCH  18  19
ENDBRANCH  17  18
ENDBRANCH  16  17
ENDBRANCH  15  16
ENDBRANCH  12  15
ENDBRANCH   6   9
TORSDOF 7
ENDMDL
MODEL      280
REMARK 921   NORMALIZED FREE ENERGY PREDICTED BY IDOCK:   -2.99 KCAL/MOL
REMARK 922        TOTAL FREE ENERGY PREDICTED BY IDOCK:   -5.81 KCAL/MOL
REMARK 923 INTER-LIGAND FREE ENERGY PREDICTED BY IDOCK:   -4.84 KCAL/MOL
REMARK 924 INTRA-LIGAND FREE ENERGY PREDICTED BY IDOCK:   -0.97 KCAL/MOL
REMARK 927      BINDING AFFINITY PREDICTED BY RF-SCORE:    0.00 PKD
ROOT
HETATM    1 CL   UNL     1      -7.158  14.230  69.128  1.00  0.00    -0.120 Cl 
HETATM    2  C   UNL     1      -6.560  12.604  69.237  1.00  0.00    -0.092 A  
HETATM    3  C   UNL     1      -5.742  12.320  70.328  1.00  0.00    -0.167 A  
HETATM    4  C   UNL     1      -5.215  11.044  70.472  1.00  0.00    -0.094 A  
HETATM    5  C   UNL     1      -5.472  10.075  69.502  1.00  0.00    -0.038 A  
HETATM    6  C   UNL     1      -6.281  10.315  68.369  1.00  0.00    -0.047 A  
HETATM    7  C   UNL     1      -6.864  11.612  68.280  1.00  0.00    -0.067 A  
HETATM    8 CL   UNL     1      -8.061  11.998  67.069  1.00  0.00    -0.168 Cl 
ENDROOT
BRANCH   6   9
HETATM    9  N   UNL     1      -6.399   9.306  67.420  1.00  0.00    -0.062 NA 
HETATM   10  C   UNL     1      -7.278   8.139  67.620  1.00  0.00    -0.092 C  
HETATM   11  C   UNL     1      -8.049   7.786  66.328  1.00  0.00    -0.114 C  
HETATM   12  N   UNL     1      -7.205   7.631  65.121  1.00  0.00    -0.066 NA 
HETATM   13  C   UNL     1      -5.579   9.279  66.191  1.00  0.00    -0.048 C  
HETATM   14  C   UNL     1      -6.441   8.893  64.964  1.00  0.00    -0.065 C  
BRANCH  12  15
HETATM   15  C   UNL     1      -6.304   6.471  65.216  1.00  0.00    -0.034 C  
BRANCH  15  16
HETATM   16  C   UNL     1      -6.993   5.191  65.728  1.00  0.00    -0.066 C  
BRANCH  16  17
HETATM   17  C   UNL     1      -8.216   4.759  64.913  1.00  0.00    -0.120 C  
BRANCH  17  18
HETATM   18  C   UNL     1      -9.267   4.129  65.814  1.00  0.00    -0.148 C  
BRANCH  18  19
HETATM   19  O   UNL     1      -8.848   4.156  67.177  1.00  0.00    -0.108 OA 
BRANCH  19  20
HETATM   20  C   UNL     1      -9.680   4.882  67.995  1.00  0.00    -0.151 A  
HETATM   21  C   UNL     1      -9.541   4.629  69.363  1.00  0.00    -0.257 A  
HETATM   22  C   UNL     1     -10.346   5.314  70.274  1.00  0.00    -0.280 A  
HETATM   23  C   UNL     1     -11.288   6.253  69.833  1.00  0.00    -0.504 A  
HETATM   24  C   UNL     1     -11.396   6.524  68.471  1.00  0.00    -0.179 A  
HETATM   25  C   UNL     1     -12.076   7.047  70.834  1.00  0.00    -0.403 C  
HETATM   26  C   UNL     1     -10.593   5.848  67.560  1.00  0.00    -0.347 A  
HETATM   27  C   UNL     1     -12.258   6.289  72.136  1.00  0.00    -0.255 C  
HETATM   28  C   UNL     1     -10.980   5.637  72.611  1.00  0.00    -0.270 C  
HETATM   29  O   UNL     1     -10.720   5.493  73.801  1.00  0.00    -0.270 OA 
HETATM   30  N   UNL     1     -10.177   5.096  71.643  1.00  0.00    -0.206 N  
HETATM   31  H   UNL     1      -9.408   4.497  71.940  1.00  0.00     0.000 HD 
ENDBRANCH  19  20
ENDBRANCH  18  19
ENDBRANCH  17  18
ENDBRANCH  16  17
ENDBRANCH  15  16
ENDBRANCH  12  15
ENDBRANCH   6   9
TORSDOF 7
ENDMDL
MODEL      281
REMARK 921   NORMALIZED FREE ENERGY PREDICTED BY IDOCK:   -2.96 KCAL/MOL
REMARK 922        TOTAL FREE ENERGY PREDICTED BY IDOCK:   -5.78 KCAL/MOL
REMARK 923 INTER-LIGAND FREE ENERGY PREDICTED BY IDOCK:   -5.58 KCAL/MOL
REMARK 924 INTRA-LIGAND FREE ENERGY PREDICTED BY IDOCK:   -0.19 KCAL/MOL
REMARK 927      BINDING AFFINITY PREDICTED BY RF-SCORE:    0.00 PKD
ROOT
HETATM    1 CL   UNL     1      -7.052   7.650  73.645  1.00  0.00    -0.101 Cl 
HETATM    2  C   UNL     1      -6.556   7.142  72.061  1.00  0.00    -0.055 A  
HETATM    3  C   UNL     1      -5.610   6.121  72.009  1.00  0.00    -0.031 A  
HETATM    4  C   UNL     1      -5.155   5.674  70.777  1.00  0.00    -0.009 A  
HETATM    5  C   UNL     1      -5.615   6.280  69.607  1.00  0.00    -0.013 A  
HETATM    6  C   UNL     1      -6.561   7.329  69.604  1.00  0.00    -0.040 A  
HETATM    7  C   UNL     1      -7.061   7.724  70.878  1.00  0.00    -0.053 A  
HETATM    8 CL   UNL     1      -8.391   8.844  71.033  1.00  0.00    -0.212 Cl 
ENDROOT
BRANCH   6   9
HETATM    9  N   UNL     1      -6.882   7.920  68.387  1.00  0.00    -0.069 NA 
HETATM   10  C   UNL     1      -7.229   9.350  68.278  1.00  0.00    -0.077 C  
HETATM   11  C   UNL     1      -6.566   9.997  67.041  1.00  0.00    -0.070 C  
HETATM   12  N   UNL     1      -6.795   9.282  65.765  1.00  0.00    -0.083 NA 
HETATM   13  C   UNL     1      -6.998   7.141  67.137  1.00  0.00    -0.078 C  
HETATM   14  C   UNL     1      -6.324   7.889  65.960  1.00  0.00    -0.045 C  
BRANCH  12  15
HETATM   15  C   UNL     1      -8.208   9.313  65.353  1.00  0.00    -0.127 C  
BRANCH  15  16
HETATM   16  C   UNL     1      -8.962  10.574  65.820  1.00  0.00    -0.199 C  
BRANCH  16  17
HETATM   17  C   UNL     1     -10.486  10.483  65.700  1.00  0.00    -0.213 C  
BRANCH  17  18
HETATM   18  C   UNL     1     -11.135  11.807  66.074  1.00  0.00    -0.312 C  
BRANCH  18  19
HETATM   19  O   UNL     1     -10.518  12.887  65.378  1.00  0.00    -0.282 OA 
BRANCH  19  20
HETATM   20  C   UNL     1     -10.371  14.022  66.140  1.00  0.00    -0.297 A  
HETATM   21  C   UNL     1     -10.561  15.227  65.458  1.00  0.00    -0.390 A  
HETATM   22  C   UNL     1     -10.427  16.434  66.146  1.00  0.00    -0.314 A  
HETATM   23  C   UNL     1     -10.109  16.450  67.510  1.00  0.00    -0.261 A  
HETATM   24  C   UNL     1      -9.955  15.244  68.189  1.00  0.00    -0.221 A  
HETATM   25  C   UNL     1     -10.064  17.755  68.251  1.00  0.00    -0.371 C  
HETATM   26  C   UNL     1     -10.091  14.039  67.510  1.00  0.00    -0.237 A  
HETATM   27  C   UNL     1      -9.702  18.910  67.336  1.00  0.00    -0.357 C  
HETATM   28  C   UNL     1     -10.460  18.873  66.029  1.00  0.00    -0.446 C  
HETATM   29  O   UNL     1     -10.782  19.894  65.429  1.00  0.00    -0.421 OA 
HETATM   30  N   UNL     1     -10.662  17.637  65.477  1.00  0.00    -0.198 N  
HETATM   31  H   UNL     1     -11.006  17.592  64.518  1.00  0.00     0.000 HD 
ENDBRANCH  19  20
ENDBRANCH  18  19
ENDBRANCH  17  18
ENDBRANCH  16  17
ENDBRANCH  15  16
ENDBRANCH  12  15
ENDBRANCH   6   9
TORSDOF 7
ENDMDL
MODEL      282
REMARK 921   NORMALIZED FREE ENERGY PREDICTED BY IDOCK:   -2.92 KCAL/MOL
REMARK 922        TOTAL FREE ENERGY PREDICTED BY IDOCK:   -5.71 KCAL/MOL
REMARK 923 INTER-LIGAND FREE ENERGY PREDICTED BY IDOCK:   -5.68 KCAL/MOL
REMARK 924 INTRA-LIGAND FREE ENERGY PREDICTED BY IDOCK:   -0.03 KCAL/MOL
REMARK 927      BINDING AFFINITY PREDICTED BY RF-SCORE:    0.00 PKD
ROOT
HETATM    1 CL   UNL     1      -9.462  16.215  68.590  1.00  0.00    -0.218 Cl 
HETATM    2  C   UNL     1     -10.054  15.097  67.402  1.00  0.00    -0.229 A  
HETATM    3  C   UNL     1     -11.307  15.378  66.862  1.00  0.00    -0.147 A  
HETATM    4  C   UNL     1     -11.851  14.519  65.916  1.00  0.00    -0.334 A  
HETATM    5  C   UNL     1     -11.159  13.364  65.550  1.00  0.00    -0.296 A  
HETATM    6  C   UNL     1      -9.894  13.024  66.078  1.00  0.00    -0.255 A  
HETATM    7  C   UNL     1      -9.328  13.956  66.997  1.00  0.00    -0.251 A  
HETATM    8 CL   UNL     1      -7.686  13.799  67.565  1.00  0.00    -0.181 Cl 
ENDROOT
BRANCH   6   9
HETATM    9  N   UNL     1      -9.334  11.806  65.711  1.00  0.00    -0.218 NA 
HETATM   10  C   UNL     1      -8.534  10.996  66.649  1.00  0.00    -0.153 C  
HETATM   11  C   UNL     1      -8.884   9.495  66.538  1.00  0.00    -0.139 C  
HETATM   12  N   UNL     1      -8.836   8.944  65.165  1.00  0.00    -0.190 NA 
HETATM   13  C   UNL     1      -9.414  11.284  64.331  1.00  0.00    -0.180 C  
HETATM   14  C   UNL     1      -9.746   9.771  64.335  1.00  0.00     0.021 C  
BRANCH  12  15
HETATM   15  C   UNL     1      -7.471   8.938  64.613  1.00  0.00    -0.104 C  
BRANCH  15  16
HETATM   16  C   UNL     1      -6.846   7.532  64.522  1.00  0.00    -0.051 C  
BRANCH  16  17
HETATM   17  C   UNL     1      -7.777   6.394  64.952  1.00  0.00    -0.104 C  
BRANCH  17  18
HETATM   18  C   UNL     1      -7.841   6.294  66.468  1.00  0.00    -0.104 C  
BRANCH  18  19
HETATM   19  O   UNL     1      -8.661   5.198  66.870  1.00  0.00    -0.109 OA 
BRANCH  19  20
HETATM   20  C   UNL     1      -9.335   5.418  68.047  1.00  0.00    -0.113 A  
HETATM   21  C   UNL     1      -8.641   5.064  69.207  1.00  0.00    -0.096 A  
HETATM   22  C   UNL     1      -9.244   5.243  70.452  1.00  0.00    -0.148 A  
HETATM   23  C   UNL     1     -10.536   5.778  70.552  1.00  0.00    -0.331 A  
HETATM   24  C   UNL     1     -11.207   6.160  69.393  1.00  0.00    -0.466 A  
HETATM   25  C   UNL     1     -11.128   6.052  71.903  1.00  0.00    -0.331 C  
HETATM   26  C   UNL     1     -10.608   5.987  68.150  1.00  0.00    -0.328 A  
HETATM   27  C   UNL     1     -10.570   5.120  72.963  1.00  0.00    -0.278 C  
HETATM   28  C   UNL     1      -9.067   4.976  72.873  1.00  0.00    -0.121 C  
HETATM   29  O   UNL     1      -8.366   4.793  73.863  1.00  0.00    -0.104 OA 
HETATM   30  N   UNL     1      -8.534   4.933  71.614  1.00  0.00    -0.120 N  
HETATM   31  H   UNL     1      -7.557   4.657  71.517  1.00  0.00     0.000 HD 
ENDBRANCH  19  20
ENDBRANCH  18  19
ENDBRANCH  17  18
ENDBRANCH  16  17
ENDBRANCH  15  16
ENDBRANCH  12  15
ENDBRANCH   6   9
TORSDOF 7
ENDMDL
MODEL      283
REMARK 921   NORMALIZED FREE ENERGY PREDICTED BY IDOCK:   -2.86 KCAL/MOL
REMARK 922        TOTAL FREE ENERGY PREDICTED BY IDOCK:   -5.64 KCAL/MOL
REMARK 923 INTER-LIGAND FREE ENERGY PREDICTED BY IDOCK:   -5.79 KCAL/MOL
REMARK 924 INTRA-LIGAND FREE ENERGY PREDICTED BY IDOCK:    0.15 KCAL/MOL
REMARK 927      BINDING AFFINITY PREDICTED BY RF-SCORE:    0.00 PKD
ROOT
HETATM    1 CL   UNL     1     -11.784  15.581  64.349  1.00  0.00    -0.332 Cl 
HETATM    2  C   UNL     1     -11.289  13.924  64.495  1.00  0.00    -0.372 A  
HETATM    3  C   UNL     1     -11.863  13.027  63.597  1.00  0.00    -0.580 A  
HETATM    4  C   UNL     1     -11.525  11.683  63.664  1.00  0.00    -0.458 A  
HETATM    5  C   UNL     1     -10.652  11.237  64.656  1.00  0.00    -0.392 A  
HETATM    6  C   UNL     1     -10.054  12.100  65.601  1.00  0.00    -0.248 A  
HETATM    7  C   UNL     1     -10.366  13.484  65.469  1.00  0.00    -0.300 A  
HETATM    8 CL   UNL     1      -9.542  14.703  66.408  1.00  0.00    -0.305 Cl 
ENDROOT
BRANCH   6   9
HETATM    9  N   UNL     1      -9.269  11.538  66.602  1.00  0.00    -0.181 NA 
HETATM   10  C   UNL     1      -7.797  11.508  66.520  1.00  0.00    -0.071 C  
HETATM   11  C   UNL     1      -7.150  11.854  67.880  1.00  0.00    -0.093 C  
HETATM   12  N   UNL     1      -7.648  11.061  69.027  1.00  0.00    -0.132 NA 
HETATM   13  C   UNL     1      -9.855  10.842  67.767  1.00  0.00    -0.175 C  
HETATM   14  C   UNL     1      -9.120  11.241  69.070  1.00  0.00     0.029 C  
BRANCH  12  15
HETATM   15  C   UNL     1      -7.289   9.637  68.919  1.00  0.00    -0.073 C  
BRANCH  15  16
HETATM   16  C   UNL     1      -7.796   8.780  70.094  1.00  0.00    -0.094 C  
BRANCH  16  17
HETATM   17  C   UNL     1      -8.205   7.354  69.710  1.00  0.00    -0.129 C  
BRANCH  17  18
HETATM   18  C   UNL     1      -9.474   7.365  68.871  1.00  0.00    -0.144 C  
BRANCH  18  19
HETATM   19  O   UNL     1     -10.206   6.153  69.045  1.00  0.00    -0.163 OA 
BRANCH  19  20
HETATM   20  C   UNL     1     -10.220   5.699  70.342  1.00  0.00    -0.235 A  
HETATM   21  C   UNL     1      -9.018   5.146  70.793  1.00  0.00    -0.162 A  
HETATM   22  C   UNL     1      -8.935   4.652  72.095  1.00  0.00    -0.126 A  
HETATM   23  C   UNL     1     -10.040   4.708  72.955  1.00  0.00    -0.207 A  
HETATM   24  C   UNL     1     -11.223   5.292  72.508  1.00  0.00    -0.272 A  
HETATM   25  C   UNL     1      -9.901   4.258  74.380  1.00  0.00    -0.173 C  
HETATM   26  C   UNL     1     -11.310   5.789  71.213  1.00  0.00    -0.154 A  
HETATM   27  C   UNL     1      -8.826   3.198  74.535  1.00  0.00    -0.087 C  
HETATM   28  C   UNL     1      -7.561   3.542  73.782  1.00  0.00    -0.062 C  
HETATM   29  O   UNL     1      -6.450   3.205  74.179  1.00  0.00    -0.026 OA 
HETATM   30  N   UNL     1      -7.722   4.141  72.563  1.00  0.00    -0.073 N  
HETATM   31  H   UNL     1      -6.905   4.220  71.957  1.00  0.00     0.000 HD 
ENDBRANCH  19  20
ENDBRANCH  18  19
ENDBRANCH  17  18
ENDBRANCH  16  17
ENDBRANCH  15  16
ENDBRANCH  12  15
ENDBRANCH   6   9
TORSDOF 7
ENDMDL
MODEL      284
REMARK 921   NORMALIZED FREE ENERGY PREDICTED BY IDOCK:   -2.86 KCAL/MOL
REMARK 922        TOTAL FREE ENERGY PREDICTED BY IDOCK:   -5.63 KCAL/MOL
REMARK 923 INTER-LIGAND FREE ENERGY PREDICTED BY IDOCK:   -5.59 KCAL/MOL
REMARK 924 INTRA-LIGAND FREE ENERGY PREDICTED BY IDOCK:   -0.03 KCAL/MOL
REMARK 927      BINDING AFFINITY PREDICTED BY RF-SCORE:    0.00 PKD
ROOT
HETATM    1 CL   UNL     1     -12.669  11.989  63.642  1.00  0.00    -0.611 Cl 
HETATM    2  C   UNL     1     -11.732  13.164  64.511  1.00  0.00    -0.371 A  
HETATM    3  C   UNL     1     -12.000  14.501  64.225  1.00  0.00    -0.419 A  
HETATM    4  C   UNL     1     -11.278  15.494  64.871  1.00  0.00    -0.396 A  
HETATM    5  C   UNL     1     -10.265  15.146  65.764  1.00  0.00    -0.365 A  
HETATM    6  C   UNL     1      -9.942  13.807  66.078  1.00  0.00    -0.306 A  
HETATM    7  C   UNL     1     -10.741  12.807  65.452  1.00  0.00    -0.284 A  
HETATM    8 CL   UNL     1     -10.622  11.125  65.901  1.00  0.00    -0.311 Cl 
ENDROOT
BRANCH   6   9
HETATM    9  N   UNL     1      -8.855  13.571  66.913  1.00  0.00    -0.214 NA 
HETATM   10  C   UNL     1      -8.349  12.211  67.175  1.00  0.00    -0.183 C  
HETATM   11  C   UNL     1      -6.804  12.172  67.159  1.00  0.00    -0.119 C  
HETATM   12  N   UNL     1      -6.146  13.175  68.027  1.00  0.00    -0.103 NA 
HETATM   13  C   UNL     1      -8.196  14.652  67.674  1.00  0.00    -0.171 C  
HETATM   14  C   UNL     1      -6.655  14.505  67.612  1.00  0.00    -0.153 C  
BRANCH  12  15
HETATM   15  C   UNL     1      -6.401  12.930  69.456  1.00  0.00    -0.103 C  
BRANCH  15  16
HETATM   16  C   UNL     1      -6.520  11.436  69.817  1.00  0.00    -0.133 C  
BRANCH  16  17
HETATM   17  C   UNL     1      -5.214  10.791  70.291  1.00  0.00    -0.057 C  
BRANCH  17  18
HETATM   18  C   UNL     1      -5.171   9.319  69.911  1.00  0.00    -0.033 C  
BRANCH  18  19
HETATM   19  O   UNL     1      -6.249   8.991  69.036  1.00  0.00    -0.043 OA 
BRANCH  19  20
HETATM   20  C   UNL     1      -7.066   7.996  69.518  1.00  0.00    -0.058 A  
HETATM   21  C   UNL     1      -6.821   6.721  69.001  1.00  0.00    -0.069 A  
HETATM   22  C   UNL     1      -7.603   5.645  69.424  1.00  0.00    -0.083 A  
HETATM   23  C   UNL     1      -8.626   5.830  70.364  1.00  0.00    -0.133 A  
HETATM   24  C   UNL     1      -8.841   7.098  70.899  1.00  0.00    -0.150 A  
HETATM   25  C   UNL     1      -9.391   4.644  70.877  1.00  0.00    -0.214 C  
HETATM   26  C   UNL     1      -8.062   8.171  70.484  1.00  0.00    -0.104 A  
HETATM   27  C   UNL     1      -9.441   3.521  69.857  1.00  0.00    -0.254 C  
HETATM   28  C   UNL     1      -8.096   3.263  69.216  1.00  0.00    -0.052 C  
HETATM   29  O   UNL     1      -7.749   2.144  68.850  1.00  0.00    -0.046 OA 
HETATM   30  N   UNL     1      -7.330   4.363  68.944  1.00  0.00    -0.055 N  
HETATM   31  H   UNL     1      -6.508   4.239  68.353  1.00  0.00     0.000 HD 
ENDBRANCH  19  20
ENDBRANCH  18  19
ENDBRANCH  17  18
ENDBRANCH  16  17
ENDBRANCH  15  16
ENDBRANCH  12  15
ENDBRANCH   6   9
TORSDOF 7
ENDMDL
MODEL      285
REMARK 921   NORMALIZED FREE ENERGY PREDICTED BY IDOCK:   -2.75 KCAL/MOL
REMARK 922        TOTAL FREE ENERGY PREDICTED BY IDOCK:   -5.48 KCAL/MOL
REMARK 923 INTER-LIGAND FREE ENERGY PREDICTED BY IDOCK:   -3.88 KCAL/MOL
REMARK 924 INTRA-LIGAND FREE ENERGY PREDICTED BY IDOCK:   -1.60 KCAL/MOL
REMARK 927      BINDING AFFINITY PREDICTED BY RF-SCORE:    0.00 PKD
ROOT
HETATM    1 CL   UNL     1      -7.148  11.554  66.957  1.00  0.00    -0.139 Cl 
HETATM    2  C   UNL     1      -8.297  10.263  67.120  1.00  0.00    -0.122 A  
HETATM    3  C   UNL     1      -9.615  10.637  67.373  1.00  0.00    -0.180 A  
HETATM    4  C   UNL     1     -10.584   9.657  67.529  1.00  0.00    -0.339 A  
HETATM    5  C   UNL     1     -10.224   8.310  67.477  1.00  0.00    -0.309 A  
HETATM    6  C   UNL     1      -8.901   7.876  67.240  1.00  0.00    -0.127 A  
HETATM    7  C   UNL     1      -7.936   8.901  67.016  1.00  0.00    -0.102 A  
HETATM    8 CL   UNL     1      -6.313   8.533  66.490  1.00  0.00    -0.057 Cl 
ENDROOT
BRANCH   6   9
HETATM    9  N   UNL     1      -8.636   6.513  67.296  1.00  0.00    -0.112 NA 
HETATM   10  C   UNL     1      -9.366   5.537  66.466  1.00  0.00    -0.147 C  
HETATM   11  C   UNL     1      -8.412   4.470  65.881  1.00  0.00    -0.114 C  
HETATM   12  N   UNL     1      -7.544   3.798  66.875  1.00  0.00    -0.079 NA 
HETATM   13  C   UNL     1      -7.678   5.934  68.262  1.00  0.00    -0.101 C  
HETATM   14  C   UNL     1      -6.791   4.864  67.581  1.00  0.00    -0.060 C  
BRANCH  12  15
HETATM   15  C   UNL     1      -8.314   2.974  67.822  1.00  0.00    -0.081 C  
BRANCH  15  16
HETATM   16  C   UNL     1      -7.438   2.228  68.847  1.00  0.00    -0.043 C  
BRANCH  16  17
HETATM   17  C   UNL     1      -8.224   1.484  69.932  1.00  0.00    -0.063 C  
BRANCH  17  18
HETATM   18  C   UNL     1      -7.586   1.694  71.297  1.00  0.00    -0.032 C  
BRANCH  18  19
HETATM   19  O   UNL     1      -8.411   2.517  72.120  1.00  0.00    -0.064 OA 
BRANCH  19  20
HETATM   20  C   UNL     1      -8.047   3.843  72.113  1.00  0.00    -0.084 A  
HETATM   21  C   UNL     1      -9.104   4.751  72.006  1.00  0.00    -0.152 A  
HETATM   22  C   UNL     1      -8.835   6.120  71.985  1.00  0.00    -0.139 A  
HETATM   23  C   UNL     1      -7.519   6.593  72.073  1.00  0.00    -0.094 A  
HETATM   24  C   UNL     1      -6.475   5.682  72.213  1.00  0.00    -0.053 A  
HETATM   25  C   UNL     1      -7.260   8.070  72.145  1.00  0.00    -0.094 C  
HETATM   26  C   UNL     1      -6.738   4.318  72.239  1.00  0.00    -0.041 A  
HETATM   27  C   UNL     1      -8.346   8.867  71.448  1.00  0.00    -0.195 C  
HETATM   28  C   UNL     1      -9.735   8.383  71.797  1.00  0.00    -0.237 C  
HETATM   29  O   UNL     1     -10.698   9.140  71.854  1.00  0.00    -0.357 OA 
HETATM   30  N   UNL     1      -9.893   7.030  71.925  1.00  0.00    -0.164 N  
HETATM   31  H   UNL     1     -10.843   6.662  71.980  1.00  0.00     0.000 HD 
ENDBRANCH  19  20
ENDBRANCH  18  19
ENDBRANCH  17  18
ENDBRANCH  16  17
ENDBRANCH  15  16
ENDBRANCH  12  15
ENDBRANCH   6   9
TORSDOF 7
ENDMDL
MODEL      286
REMARK 921   NORMALIZED FREE ENERGY PREDICTED BY IDOCK:   -2.63 KCAL/MOL
REMARK 922        TOTAL FREE ENERGY PREDICTED BY IDOCK:   -5.30 KCAL/MOL
REMARK 923 INTER-LIGAND FREE ENERGY PREDICTED BY IDOCK:   -3.83 KCAL/MOL
REMARK 924 INTRA-LIGAND FREE ENERGY PREDICTED BY IDOCK:   -1.48 KCAL/MOL
REMARK 927      BINDING AFFINITY PREDICTED BY RF-SCORE:    0.00 PKD
ROOT
HETATM    1 CL   UNL     1      -5.214   9.630  72.129  1.00  0.00    -0.077 Cl 
HETATM    2  C   UNL     1      -6.281   9.392  70.782  1.00  0.00    -0.072 A  
HETATM    3  C   UNL     1      -6.909  10.531  70.282  1.00  0.00    -0.097 A  
HETATM    4  C   UNL     1      -7.788  10.414  69.215  1.00  0.00    -0.147 A  
HETATM    5  C   UNL     1      -8.068   9.155  68.683  1.00  0.00    -0.102 A  
HETATM    6  C   UNL     1      -7.472   7.967  69.161  1.00  0.00    -0.093 A  
HETATM    7  C   UNL     1      -6.523   8.122  70.213  1.00  0.00    -0.036 A  
HETATM    8 CL   UNL     1      -5.538   6.790  70.762  1.00  0.00    -0.023 Cl 
ENDROOT
BRANCH   6   9
HETATM    9  N   UNL     1      -7.889   6.757  68.618  1.00  0.00    -0.116 NA 
HETATM   10  C   UNL     1      -9.292   6.510  68.238  1.00  0.00    -0.118 C  
HETATM   11  C   UNL     1      -9.387   5.766  66.887  1.00  0.00    -0.127 C  
HETATM   12  N   UNL     1      -8.574   4.532  66.796  1.00  0.00    -0.105 NA 
HETATM   13  C   UNL     1      -6.980   5.600  68.477  1.00  0.00    -0.064 C  
HETATM   14  C   UNL     1      -7.174   4.915  67.102  1.00  0.00    -0.077 C  
BRANCH  12  15
HETATM   15  C   UNL     1      -9.050   3.481  67.710  1.00  0.00    -0.159 C  
BRANCH  15  16
HETATM   16  C   UNL     1      -7.919   2.760  68.468  1.00  0.00    -0.061 C  
BRANCH  16  17
HETATM   17  C   UNL     1      -8.360   2.071  69.763  1.00  0.00    -0.074 C  
BRANCH  17  18
HETATM   18  C   UNL     1      -7.424   2.429  70.908  1.00  0.00    -0.033 C  
BRANCH  18  19
HETATM   19  O   UNL     1      -8.162   2.701  72.098  1.00  0.00    -0.054 OA 
BRANCH  19  20
HETATM   20  C   UNL     1      -8.301   4.042  72.364  1.00  0.00    -0.099 A  
HETATM   21  C   UNL     1      -9.380   4.667  71.731  1.00  0.00    -0.190 A  
HETATM   22  C   UNL     1      -9.602   6.029  71.935  1.00  0.00    -0.150 A  
HETATM   23  C   UNL     1      -8.759   6.776  72.769  1.00  0.00    -0.131 A  
HETATM   24  C   UNL     1      -7.707   6.138  73.423  1.00  0.00    -0.099 A  
HETATM   25  C   UNL     1      -9.071   8.217  73.049  1.00  0.00    -0.344 C  
HETATM   26  C   UNL     1      -7.484   4.780  73.227  1.00  0.00    -0.087 A  
HETATM   27  C   UNL     1      -9.832   8.861  71.905  1.00  0.00    -0.364 C  
HETATM   28  C   UNL     1     -10.955   7.989  71.392  1.00  0.00    -0.234 C  
HETATM   29  O   UNL     1     -11.994   8.457  70.939  1.00  0.00    -0.270 OA 
HETATM   30  N   UNL     1     -10.705   6.644  71.340  1.00  0.00    -0.225 N  
HETATM   31  H   UNL     1     -11.366   6.055  70.835  1.00  0.00     0.000 HD 
ENDBRANCH  19  20
ENDBRANCH  18  19
ENDBRANCH  17  18
ENDBRANCH  16  17
ENDBRANCH  15  16
ENDBRANCH  12  15
ENDBRANCH   6   9
TORSDOF 7
ENDMDL
MODEL      287
REMARK 921   NORMALIZED FREE ENERGY PREDICTED BY IDOCK:   -2.62 KCAL/MOL
REMARK 922        TOTAL FREE ENERGY PREDICTED BY IDOCK:   -5.30 KCAL/MOL
REMARK 923 INTER-LIGAND FREE ENERGY PREDICTED BY IDOCK:   -6.28 KCAL/MOL
REMARK 924 INTRA-LIGAND FREE ENERGY PREDICTED BY IDOCK:    0.98 KCAL/MOL
REMARK 927      BINDING AFFINITY PREDICTED BY RF-SCORE:    0.00 PKD
ROOT
HETATM    1 CL   UNL     1     -11.292  16.110  71.352  1.00  0.00    -0.394 Cl 
HETATM    2  C   UNL     1     -10.911  16.194  69.661  1.00  0.00    -0.338 A  
HETATM    3  C   UNL     1     -10.405  17.409  69.202  1.00  0.00    -0.271 A  
HETATM    4  C   UNL     1     -10.092  17.554  67.858  1.00  0.00    -0.330 A  
HETATM    5  C   UNL     1     -10.328  16.501  66.974  1.00  0.00    -0.301 A  
HETATM    6  C   UNL     1     -10.853  15.255  67.382  1.00  0.00    -0.304 A  
HETATM    7  C   UNL     1     -11.104  15.109  68.778  1.00  0.00    -0.267 A  
HETATM    8 CL   UNL     1     -11.539  13.569  69.474  1.00  0.00    -0.350 Cl 
ENDROOT
BRANCH   6   9
HETATM    9  N   UNL     1     -11.132  14.307  66.405  1.00  0.00    -0.319 NA 
HETATM   10  C   UNL     1     -12.336  13.457  66.457  1.00  0.00    -0.295 C  
HETATM   11  C   UNL     1     -12.990  13.321  65.064  1.00  0.00    -0.157 C  
HETATM   12  N   UNL     1     -12.072  12.897  63.983  1.00  0.00    -0.426 NA 
HETATM   13  C   UNL     1     -10.194  14.011  65.302  1.00  0.00    -0.360 C  
HETATM   14  C   UNL     1     -10.954  13.871  63.959  1.00  0.00     0.122 C  
BRANCH  12  15
HETATM   15  C   UNL     1     -11.577  11.524  64.178  1.00  0.00    -0.165 C  
BRANCH  15  16
HETATM   16  C   UNL     1     -10.039  11.414  64.178  1.00  0.00    -0.358 C  
BRANCH  16  17
HETATM   17  C   UNL     1      -9.500  10.057  64.642  1.00  0.00    -0.367 C  
BRANCH  17  18
HETATM   18  C   UNL     1      -9.953   9.755  66.062  1.00  0.00    -0.272 C  
BRANCH  18  19
HETATM   19  O   UNL     1      -8.896   9.165  66.816  1.00  0.00    -0.124 OA 
BRANCH  19  20
HETATM   20  C   UNL     1      -8.423   7.993  66.277  1.00  0.00    -0.133 A  
HETATM   21  C   UNL     1      -8.651   6.848  67.045  1.00  0.00    -0.121 A  
HETATM   22  C   UNL     1      -8.203   5.610  66.584  1.00  0.00    -0.105 A  
HETATM   23  C   UNL     1      -7.531   5.501  65.359  1.00  0.00    -0.074 A  
HETATM   24  C   UNL     1      -7.338   6.642  64.584  1.00  0.00    -0.085 A  
HETATM   25  C   UNL     1      -7.142   4.149  64.838  1.00  0.00    -0.062 C  
HETATM   26  C   UNL     1      -7.786   7.878  65.037  1.00  0.00    -0.120 A  
HETATM   27  C   UNL     1      -6.910   3.156  65.962  1.00  0.00    -0.052 C  
HETATM   28  C   UNL     1      -7.990   3.216  67.019  1.00  0.00    -0.079 C  
HETATM   29  O   UNL     1      -8.343   2.226  67.651  1.00  0.00    -0.064 OA 
HETATM   30  N   UNL     1      -8.470   4.459  67.328  1.00  0.00    -0.104 N  
HETATM   31  H   UNL     1      -9.061   4.551  68.155  1.00  0.00     0.000 HD 
ENDBRANCH  19  20
ENDBRANCH  18  19
ENDBRANCH  17  18
ENDBRANCH  16  17
ENDBRANCH  15  16
ENDBRANCH  12  15
ENDBRANCH   6   9
TORSDOF 7
ENDMDL
MODEL      288
REMARK 921   NORMALIZED FREE ENERGY PREDICTED BY IDOCK:   -2.55 KCAL/MOL
REMARK 922        TOTAL FREE ENERGY PREDICTED BY IDOCK:   -5.19 KCAL/MOL
REMARK 923 INTER-LIGAND FREE ENERGY PREDICTED BY IDOCK:   -4.53 KCAL/MOL
REMARK 924 INTRA-LIGAND FREE ENERGY PREDICTED BY IDOCK:   -0.66 KCAL/MOL
REMARK 927      BINDING AFFINITY PREDICTED BY RF-SCORE:    0.00 PKD
ROOT
HETATM    1 CL   UNL     1     -13.040  13.188  65.166  1.00  0.00    -0.214 Cl 
HETATM    2  C   UNL     1     -11.517  12.365  65.037  1.00  0.00    -0.332 A  
HETATM    3  C   UNL     1     -11.213  11.820  63.791  1.00  0.00    -0.518 A  
HETATM    4  C   UNL     1     -10.019  11.136  63.618  1.00  0.00    -0.411 A  
HETATM    5  C   UNL     1      -9.157  10.961  64.702  1.00  0.00    -0.189 A  
HETATM    6  C   UNL     1      -9.423  11.479  65.989  1.00  0.00    -0.229 A  
HETATM    7  C   UNL     1     -10.624  12.235  66.123  1.00  0.00    -0.249 A  
HETATM    8 CL   UNL     1     -10.987  13.126  67.579  1.00  0.00    -0.272 Cl 
ENDROOT
BRANCH   6   9
HETATM    9  N   UNL     1      -8.540  11.170  67.017  1.00  0.00    -0.143 NA 
HETATM   10  C   UNL     1      -8.823  10.111  68.003  1.00  0.00    -0.125 C  
HETATM   11  C   UNL     1      -7.565   9.263  68.296  1.00  0.00    -0.083 C  
HETATM   12  N   UNL     1      -6.361  10.040  68.664  1.00  0.00    -0.048 NA 
HETATM   13  C   UNL     1      -7.305  11.947  67.256  1.00  0.00    -0.146 C  
HETATM   14  C   UNL     1      -6.116  11.004  67.563  1.00  0.00    -0.050 C  
BRANCH  12  15
HETATM   15  C   UNL     1      -6.517  10.735  69.953  1.00  0.00    -0.135 C  
BRANCH  15  16
HETATM   16  C   UNL     1      -5.695  10.109  71.097  1.00  0.00    -0.054 C  
BRANCH  16  17
HETATM   17  C   UNL     1      -5.210   8.682  70.824  1.00  0.00    -0.027 C  
BRANCH  17  18
HETATM   18  C   UNL     1      -5.488   7.782  72.018  1.00  0.00    -0.036 C  
BRANCH  18  19
HETATM   19  O   UNL     1      -6.874   7.798  72.353  1.00  0.00    -0.060 OA 
BRANCH  19  20
HETATM   20  C   UNL     1      -7.620   6.878  71.656  1.00  0.00    -0.090 A  
HETATM   21  C   UNL     1      -6.898   6.073  70.771  1.00  0.00    -0.062 A  
HETATM   22  C   UNL     1      -7.569   5.112  70.013  1.00  0.00    -0.064 A  
HETATM   23  C   UNL     1      -8.955   4.943  70.133  1.00  0.00    -0.146 A  
HETATM   24  C   UNL     1      -9.661   5.727  71.043  1.00  0.00    -0.203 A  
HETATM   25  C   UNL     1      -9.641   3.841  69.380  1.00  0.00    -0.219 C  
HETATM   26  C   UNL     1      -8.997   6.683  71.803  1.00  0.00    -0.140 A  
HETATM   27  C   UNL     1      -8.905   3.490  68.100  1.00  0.00    -0.153 C  
HETATM   28  C   UNL     1      -7.412   3.374  68.304  1.00  0.00    -0.053 C  
HETATM   29  O   UNL     1      -6.720   2.595  67.656  1.00  0.00    -0.039 OA 
HETATM   30  N   UNL     1      -6.843   4.276  69.162  1.00  0.00    -0.045 N  
HETATM   31  H   UNL     1      -5.825   4.341  69.182  1.00  0.00     0.000 HD 
ENDBRANCH  19  20
ENDBRANCH  18  19
ENDBRANCH  17  18
ENDBRANCH  16  17
ENDBRANCH  15  16
ENDBRANCH  12  15
ENDBRANCH   6   9
TORSDOF 7
ENDMDL
MODEL      289
REMARK 921   NORMALIZED FREE ENERGY PREDICTED BY IDOCK:   -2.44 KCAL/MOL
REMARK 922        TOTAL FREE ENERGY PREDICTED BY IDOCK:   -5.04 KCAL/MOL
REMARK 923 INTER-LIGAND FREE ENERGY PREDICTED BY IDOCK:   -4.01 KCAL/MOL
REMARK 924 INTRA-LIGAND FREE ENERGY PREDICTED BY IDOCK:   -1.02 KCAL/MOL
REMARK 927      BINDING AFFINITY PREDICTED BY RF-SCORE:    0.00 PKD
ROOT
HETATM    1 CL   UNL     1      -7.461  11.223  69.597  1.00  0.00     0.059 Cl 
HETATM    2  C   UNL     1      -8.363  10.619  68.243  1.00  0.00    -0.122 A  
HETATM    3  C   UNL     1      -9.452  11.386  67.835  1.00  0.00    -0.174 A  
HETATM    4  C   UNL     1     -10.228  10.956  66.768  1.00  0.00    -0.277 A  
HETATM    5  C   UNL     1      -9.939   9.742  66.145  1.00  0.00    -0.338 A  
HETATM    6  C   UNL     1      -8.858   8.918  66.529  1.00  0.00    -0.136 A  
HETATM    7  C   UNL     1      -8.036   9.413  67.583  1.00  0.00    -0.106 A  
HETATM    8 CL   UNL     1      -6.540   8.631  68.024  1.00  0.00    -0.057 Cl 
ENDROOT
BRANCH   6   9
HETATM    9  N   UNL     1      -8.713   7.686  65.900  1.00  0.00    -0.162 NA 
HETATM   10  C   UNL     1      -8.350   7.571  64.475  1.00  0.00     0.049 C  
HETATM   11  C   UNL     1      -7.312   6.450  64.248  1.00  0.00    -0.075 C  
HETATM   12  N   UNL     1      -7.676   5.136  64.825  1.00  0.00    -0.082 NA 
HETATM   13  C   UNL     1      -9.011   6.411  66.585  1.00  0.00    -0.140 C  
HETATM   14  C   UNL     1      -7.924   5.353  66.271  1.00  0.00    -0.105 C  
BRANCH  12  15
HETATM   15  C   UNL     1      -8.852   4.543  64.166  1.00  0.00    -0.148 C  
BRANCH  15  16
HETATM   16  C   UNL     1      -9.539   3.443  64.997  1.00  0.00    -0.141 C  
BRANCH  16  17
HETATM   17  C   UNL     1      -8.647   2.238  65.316  1.00  0.00    -0.112 C  
BRANCH  17  18
HETATM   18  C   UNL     1      -8.983   1.668  66.686  1.00  0.00    -0.097 C  
BRANCH  18  19
HETATM   19  O   UNL     1      -7.840   1.696  67.540  1.00  0.00    -0.058 OA 
BRANCH  19  20
HETATM   20  C   UNL     1      -7.991   2.515  68.634  1.00  0.00    -0.053 A  
HETATM   21  C   UNL     1      -9.124   3.333  68.615  1.00  0.00    -0.206 A  
HETATM   22  C   UNL     1      -9.360   4.204  69.679  1.00  0.00    -0.171 A  
HETATM   23  C   UNL     1      -8.478   4.264  70.766  1.00  0.00    -0.100 A  
HETATM   24  C   UNL     1      -7.370   3.420  70.793  1.00  0.00    -0.037 A  
HETATM   25  C   UNL     1      -8.802   5.137  71.943  1.00  0.00    -0.143 C  
HETATM   26  C   UNL     1      -7.132   2.548  69.737  1.00  0.00    -0.033 A  
HETATM   27  C   UNL     1      -9.654   6.327  71.545  1.00  0.00    -0.168 C  
HETATM   28  C   UNL     1     -10.790   5.944  70.624  1.00  0.00    -0.292 C  
HETATM   29  O   UNL     1     -11.868   6.529  70.635  1.00  0.00    -0.384 OA 
HETATM   30  N   UNL     1     -10.516   4.988  69.684  1.00  0.00    -0.202 N  
HETATM   31  H   UNL     1     -11.197   4.840  68.940  1.00  0.00     0.000 HD 
ENDBRANCH  19  20
ENDBRANCH  18  19
ENDBRANCH  17  18
ENDBRANCH  16  17
ENDBRANCH  15  16
ENDBRANCH  12  15
ENDBRANCH   6   9
TORSDOF 7
ENDMDL
MODEL      290
REMARK 921   NORMALIZED FREE ENERGY PREDICTED BY IDOCK:   -2.42 KCAL/MOL
REMARK 922        TOTAL FREE ENERGY PREDICTED BY IDOCK:   -5.01 KCAL/MOL
REMARK 923 INTER-LIGAND FREE ENERGY PREDICTED BY IDOCK:   -5.37 KCAL/MOL
REMARK 924 INTRA-LIGAND FREE ENERGY PREDICTED BY IDOCK:    0.35 KCAL/MOL
REMARK 927      BINDING AFFINITY PREDICTED BY RF-SCORE:    0.00 PKD
ROOT
HETATM    1 CL   UNL     1     -10.891   7.527  70.632  1.00  0.00    -0.243 Cl 
HETATM    2  C   UNL     1     -10.640   8.358  69.129  1.00  0.00    -0.163 A  
HETATM    3  C   UNL     1     -10.103   7.603  68.088  1.00  0.00    -0.220 A  
HETATM    4  C   UNL     1      -9.861   8.206  66.862  1.00  0.00    -0.316 A  
HETATM    5  C   UNL     1     -10.114   9.568  66.697  1.00  0.00    -0.321 A  
HETATM    6  C   UNL     1     -10.642  10.383  67.723  1.00  0.00    -0.250 A  
HETATM    7  C   UNL     1     -10.944   9.726  68.951  1.00  0.00    -0.150 A  
HETATM    8 CL   UNL     1     -11.805  10.535  70.236  1.00  0.00    -0.386 Cl 
ENDROOT
BRANCH   6   9
HETATM    9  N   UNL     1     -10.771  11.745  67.480  1.00  0.00    -0.213 NA 
HETATM   10  C   UNL     1     -11.713  12.277  66.477  1.00  0.00    -0.352 C  
HETATM   11  C   UNL     1     -12.449  13.529  67.004  1.00  0.00    -0.055 C  
HETATM   12  N   UNL     1     -11.568  14.592  67.540  1.00  0.00    -0.365 NA 
HETATM   13  C   UNL     1      -9.906  12.749  68.134  1.00  0.00    -0.226 C  
HETATM   14  C   UNL     1     -10.738  13.969  68.601  1.00  0.00    -0.259 C  
BRANCH  12  15
HETATM   15  C   UNL     1     -10.727  15.200  66.495  1.00  0.00    -0.310 C  
BRANCH  15  16
HETATM   16  C   UNL     1      -9.298  14.627  66.439  1.00  0.00    -0.313 C  
BRANCH  16  17
HETATM   17  C   UNL     1      -8.269  15.406  67.266  1.00  0.00    -0.222 C  
BRANCH  17  18
HETATM   18  C   UNL     1      -6.922  14.702  67.251  1.00  0.00     0.053 C  
BRANCH  18  19
HETATM   19  O   UNL     1      -6.741  13.928  68.435  1.00  0.00    -0.082 OA 
BRANCH  19  20
HETATM   20  C   UNL     1      -6.609  12.580  68.198  1.00  0.00    -0.077 A  
HETATM   21  C   UNL     1      -6.696  12.200  66.856  1.00  0.00     0.002 A  
HETATM   22  C   UNL     1      -6.580  10.852  66.515  1.00  0.00    -0.127 A  
HETATM   23  C   UNL     1      -6.374   9.878  67.501  1.00  0.00    -0.063 A  
HETATM   24  C   UNL     1      -6.255  10.270  68.833  1.00  0.00    -0.047 A  
HETATM   25  C   UNL     1      -6.157   8.447  67.104  1.00  0.00    -0.055 C  
HETATM   26  C   UNL     1      -6.366  11.612  69.177  1.00  0.00    -0.084 A  
HETATM   27  C   UNL     1      -6.842   8.116  65.791  1.00  0.00    -0.063 C  
HETATM   28  C   UNL     1      -6.617   9.177  64.738  1.00  0.00    -0.074 C  
HETATM   29  O   UNL     1      -6.550   8.910  63.543  1.00  0.00    -0.089 OA 
HETATM   30  N   UNL     1      -6.620  10.475  65.171  1.00  0.00    -0.295 N  
HETATM   31  H   UNL     1      -6.652  11.213  64.468  1.00  0.00     0.000 HD 
ENDBRANCH  19  20
ENDBRANCH  18  19
ENDBRANCH  17  18
ENDBRANCH  16  17
ENDBRANCH  15  16
ENDBRANCH  12  15
ENDBRANCH   6   9
TORSDOF 7
ENDMDL
MODEL      291
REMARK 921   NORMALIZED FREE ENERGY PREDICTED BY IDOCK:   -2.27 KCAL/MOL
REMARK 922        TOTAL FREE ENERGY PREDICTED BY IDOCK:   -4.80 KCAL/MOL
REMARK 923 INTER-LIGAND FREE ENERGY PREDICTED BY IDOCK:   -3.51 KCAL/MOL
REMARK 924 INTRA-LIGAND FREE ENERGY PREDICTED BY IDOCK:   -1.29 KCAL/MOL
REMARK 927      BINDING AFFINITY PREDICTED BY RF-SCORE:    0.00 PKD
ROOT
HETATM    1 CL   UNL     1      -7.464  11.275  69.426  1.00  0.00    -0.043 Cl 
HETATM    2  C   UNL     1      -8.360  10.785  68.022  1.00  0.00    -0.120 A  
HETATM    3  C   UNL     1      -9.577  11.430  67.811  1.00  0.00    -0.177 A  
HETATM    4  C   UNL     1     -10.354  11.079  66.717  1.00  0.00    -0.284 A  
HETATM    5  C   UNL     1      -9.934  10.055  65.867  1.00  0.00    -0.339 A  
HETATM    6  C   UNL     1      -8.718   9.358  66.044  1.00  0.00    -0.150 A  
HETATM    7  C   UNL     1      -7.906   9.783  67.136  1.00  0.00    -0.099 A  
HETATM    8 CL   UNL     1      -6.283   9.183  67.360  1.00  0.00    -0.057 Cl 
ENDROOT
BRANCH   6   9
HETATM    9  N   UNL     1      -8.438   8.297  65.192  1.00  0.00    -0.167 NA 
HETATM   10  C   UNL     1      -8.135   8.498  63.762  1.00  0.00    -0.154 C  
HETATM   11  C   UNL     1      -6.965   7.599  63.302  1.00  0.00    -0.068 C  
HETATM   12  N   UNL     1      -7.115   6.163  63.630  1.00  0.00    -0.046 NA 
HETATM   13  C   UNL     1      -8.522   6.888  65.631  1.00  0.00    -0.136 C  
HETATM   14  C   UNL     1      -7.317   6.074  65.097  1.00  0.00    -0.073 C  
BRANCH  12  15
HETATM   15  C   UNL     1      -8.231   5.538  62.901  1.00  0.00    -0.107 C  
BRANCH  15  16
HETATM   16  C   UNL     1      -8.668   4.180  63.483  1.00  0.00    -0.113 C  
BRANCH  16  17
HETATM   17  C   UNL     1      -7.550   3.136  63.569  1.00  0.00    -0.063 C  
BRANCH  17  18
HETATM   18  C   UNL     1      -7.795   2.178  64.725  1.00  0.00    -0.073 C  
BRANCH  18  19
HETATM   19  O   UNL     1      -7.015   2.545  65.861  1.00  0.00    -0.049 OA 
BRANCH  19  20
HETATM   20  C   UNL     1      -7.756   3.075  66.890  1.00  0.00    -0.075 A  
HETATM   21  C   UNL     1      -7.014   3.655  67.923  1.00  0.00    -0.051 A  
HETATM   22  C   UNL     1      -7.677   4.215  69.016  1.00  0.00    -0.054 A  
HETATM   23  C   UNL     1      -9.076   4.207  69.086  1.00  0.00    -0.191 A  
HETATM   24  C   UNL     1      -9.809   3.657  68.037  1.00  0.00     0.019 A  
HETATM   25  C   UNL     1      -9.770   4.898  70.223  1.00  0.00    -0.287 C  
HETATM   26  C   UNL     1      -9.153   3.102  66.944  1.00  0.00    -0.191 A  
HETATM   27  C   UNL     1      -8.911   4.929  71.474  1.00  0.00    -0.160 C  
HETATM   28  C   UNL     1      -7.481   5.323  71.184  1.00  0.00    -0.084 C  
HETATM   29  O   UNL     1      -6.798   5.948  71.987  1.00  0.00    -0.071 OA 
HETATM   30  N   UNL     1      -6.938   4.835  70.026  1.00  0.00    -0.047 N  
HETATM   31  H   UNL     1      -5.932   4.930  69.893  1.00  0.00     0.000 HD 
ENDBRANCH  19  20
ENDBRANCH  18  19
ENDBRANCH  17  18
ENDBRANCH  16  17
ENDBRANCH  15  16
ENDBRANCH  12  15
ENDBRANCH   6   9
TORSDOF 7
ENDMDL
MODEL      292
REMARK 921   NORMALIZED FREE ENERGY PREDICTED BY IDOCK:   -2.23 KCAL/MOL
REMARK 922        TOTAL FREE ENERGY PREDICTED BY IDOCK:   -4.74 KCAL/MOL
REMARK 923 INTER-LIGAND FREE ENERGY PREDICTED BY IDOCK:   -3.88 KCAL/MOL
REMARK 924 INTRA-LIGAND FREE ENERGY PREDICTED BY IDOCK:   -0.86 KCAL/MOL
REMARK 927      BINDING AFFINITY PREDICTED BY RF-SCORE:    0.00 PKD
ROOT
HETATM    1 CL   UNL     1      -7.072   7.723  73.612  1.00  0.00    -0.114 Cl 
HETATM    2  C   UNL     1      -6.551   7.486  71.973  1.00  0.00    -0.050 A  
HETATM    3  C   UNL     1      -5.599   6.490  71.766  1.00  0.00    -0.032 A  
HETATM    4  C   UNL     1      -5.125   6.254  70.484  1.00  0.00    -0.013 A  
HETATM    5  C   UNL     1      -5.571   7.045  69.424  1.00  0.00    -0.015 A  
HETATM    6  C   UNL     1      -6.523   8.077  69.581  1.00  0.00    -0.037 A  
HETATM    7  C   UNL     1      -7.043   8.255  70.896  1.00  0.00    -0.053 A  
HETATM    8 CL   UNL     1      -8.381   9.329  71.215  1.00  0.00    -0.086 Cl 
ENDROOT
BRANCH   6   9
HETATM    9  N   UNL     1      -6.830   8.862  68.475  1.00  0.00    -0.063 NA 
HETATM   10  C   UNL     1      -7.408  10.212  68.607  1.00  0.00    -0.082 C  
HETATM   11  C   UNL     1      -6.758  11.203  67.615  1.00  0.00    -0.071 C  
HETATM   12  N   UNL     1      -6.743  10.753  66.205  1.00  0.00    -0.131 NA 
HETATM   13  C   UNL     1      -6.695   8.362  67.091  1.00  0.00    -0.063 C  
HETATM   14  C   UNL     1      -6.057   9.438  66.178  1.00  0.00    -0.059 C  
BRANCH  12  15
HETATM   15  C   UNL     1      -8.097  10.659  65.634  1.00  0.00    -0.146 C  
BRANCH  15  16
HETATM   16  C   UNL     1      -9.022  11.823  66.039  1.00  0.00    -0.108 C  
BRANCH  16  17
HETATM   17  C   UNL     1     -10.499  11.609  65.696  1.00  0.00    -0.314 C  
BRANCH  17  18
HETATM   18  C   UNL     1     -10.998  10.291  66.268  1.00  0.00     0.201 C  
BRANCH  18  19
HETATM   19  O   UNL     1     -10.671  10.183  67.652  1.00  0.00    -0.246 OA 
BRANCH  19  20
HETATM   20  C   UNL     1     -10.527   8.886  68.085  1.00  0.00    -0.202 A  
HETATM   21  C   UNL     1     -10.966   8.641  69.389  1.00  0.00    -0.034 A  
HETATM   22  C   UNL     1     -10.856   7.355  69.921  1.00  0.00    -0.246 A  
HETATM   23  C   UNL     1     -10.316   6.309  69.161  1.00  0.00    -0.262 A  
HETATM   24  C   UNL     1      -9.912   6.555  67.851  1.00  0.00    -0.148 A  
HETATM   25  C   UNL     1     -10.295   4.915  69.718  1.00  0.00    -0.203 C  
HETATM   26  C   UNL     1     -10.024   7.833  67.315  1.00  0.00    -0.277 A  
HETATM   27  C   UNL     1     -10.227   4.915  71.233  1.00  0.00    -0.248 C  
HETATM   28  C   UNL     1     -11.186   5.903  71.857  1.00  0.00    -0.264 C  
HETATM   29  O   UNL     1     -11.719   5.704  72.943  1.00  0.00    -0.250 OA 
HETATM   30  N   UNL     1     -11.336   7.098  71.206  1.00  0.00    -0.259 N  
HETATM   31  H   UNL     1     -11.830   7.847  71.691  1.00  0.00     0.000 HD 
ENDBRANCH  19  20
ENDBRANCH  18  19
ENDBRANCH  17  18
ENDBRANCH  16  17
ENDBRANCH  15  16
ENDBRANCH  12  15
ENDBRANCH   6   9
TORSDOF 7
ENDMDL
MODEL      293
REMARK 921   NORMALIZED FREE ENERGY PREDICTED BY IDOCK:   -2.22 KCAL/MOL
REMARK 922        TOTAL FREE ENERGY PREDICTED BY IDOCK:   -4.73 KCAL/MOL
REMARK 923 INTER-LIGAND FREE ENERGY PREDICTED BY IDOCK:   -3.93 KCAL/MOL
REMARK 924 INTRA-LIGAND FREE ENERGY PREDICTED BY IDOCK:   -0.80 KCAL/MOL
REMARK 927      BINDING AFFINITY PREDICTED BY RF-SCORE:    0.00 PKD
ROOT
HETATM    1 CL   UNL     1      -5.949   7.054  73.235  1.00  0.00    -0.056 Cl 
HETATM    2  C   UNL     1      -6.650   7.549  71.727  1.00  0.00    -0.042 A  
HETATM    3  C   UNL     1      -7.495   8.657  71.772  1.00  0.00    -0.114 A  
HETATM    4  C   UNL     1      -8.103   9.100  70.607  1.00  0.00    -0.198 A  
HETATM    5  C   UNL     1      -7.899   8.408  69.412  1.00  0.00    -0.103 A  
HETATM    6  C   UNL     1      -7.066   7.272  69.313  1.00  0.00    -0.079 A  
HETATM    7  C   UNL     1      -6.401   6.877  70.510  1.00  0.00    -0.042 A  
HETATM    8 CL   UNL     1      -5.172   5.638  70.509  1.00  0.00    -0.008 Cl 
ENDROOT
BRANCH   6   9
HETATM    9  N   UNL     1      -7.004   6.606  68.094  1.00  0.00    -0.074 NA 
HETATM   10  C   UNL     1      -6.979   7.327  66.808  1.00  0.00    -0.074 C  
HETATM   11  C   UNL     1      -5.961   6.698  65.830  1.00  0.00    -0.030 C  
HETATM   12  N   UNL     1      -6.105   5.237  65.633  1.00  0.00    -0.032 NA 
HETATM   13  C   UNL     1      -7.061   5.133  67.996  1.00  0.00    -0.063 C  
HETATM   14  C   UNL     1      -6.020   4.611  66.975  1.00  0.00    -0.027 C  
BRANCH  12  15
HETATM   15  C   UNL     1      -7.368   4.887  64.961  1.00  0.00    -0.071 C  
BRANCH  15  16
HETATM   16  C   UNL     1      -8.416   4.260  65.901  1.00  0.00    -0.113 C  
BRANCH  16  17
HETATM   17  C   UNL     1      -9.819   4.862  65.778  1.00  0.00    -0.186 C  
BRANCH  17  18
HETATM   18  C   UNL     1      -9.976   6.055  66.708  1.00  0.00    -0.174 C  
BRANCH  18  19
HETATM   19  O   UNL     1     -11.156   5.928  67.500  1.00  0.00    -0.245 OA 
BRANCH  19  20
HETATM   20  C   UNL     1     -10.925   6.020  68.852  1.00  0.00    -0.325 A  
HETATM   21  C   UNL     1      -9.980   5.123  69.358  1.00  0.00    -0.292 A  
HETATM   22  C   UNL     1      -9.681   5.135  70.720  1.00  0.00    -0.190 A  
HETATM   23  C   UNL     1     -10.313   6.039  71.585  1.00  0.00    -0.260 A  
HETATM   24  C   UNL     1     -11.228   6.952  71.066  1.00  0.00    -0.323 A  
HETATM   25  C   UNL     1      -9.907   6.099  73.028  1.00  0.00    -0.173 C  
HETATM   26  C   UNL     1     -11.526   6.947  69.709  1.00  0.00    -0.247 A  
HETATM   27  C   UNL     1      -9.377   4.766  73.522  1.00  0.00    -0.130 C  
HETATM   28  C   UNL     1      -8.409   4.132  72.548  1.00  0.00    -0.100 C  
HETATM   29  O   UNL     1      -7.471   3.433  72.918  1.00  0.00    -0.055 OA 
HETATM   30  N   UNL     1      -8.704   4.270  71.220  1.00  0.00    -0.100 N  
HETATM   31  H   UNL     1      -8.178   3.707  70.552  1.00  0.00     0.000 HD 
ENDBRANCH  19  20
ENDBRANCH  18  19
ENDBRANCH  17  18
ENDBRANCH  16  17
ENDBRANCH  15  16
ENDBRANCH  12  15
ENDBRANCH   6   9
TORSDOF 7
ENDMDL
MODEL      294
REMARK 921   NORMALIZED FREE ENERGY PREDICTED BY IDOCK:   -2.20 KCAL/MOL
REMARK 922        TOTAL FREE ENERGY PREDICTED BY IDOCK:   -4.71 KCAL/MOL
REMARK 923 INTER-LIGAND FREE ENERGY PREDICTED BY IDOCK:   -4.98 KCAL/MOL
REMARK 924 INTRA-LIGAND FREE ENERGY PREDICTED BY IDOCK:    0.27 KCAL/MOL
REMARK 927      BINDING AFFINITY PREDICTED BY RF-SCORE:    0.00 PKD
ROOT
HETATM    1 CL   UNL     1      -6.219  15.547  69.250  1.00  0.00    -0.117 Cl 
HETATM    2  C   UNL     1      -7.591  14.541  68.908  1.00  0.00    -0.138 A  
HETATM    3  C   UNL     1      -8.821  14.990  69.386  1.00  0.00    -0.115 A  
HETATM    4  C   UNL     1      -9.959  14.229  69.163  1.00  0.00    -0.033 A  
HETATM    5  C   UNL     1      -9.855  13.003  68.505  1.00  0.00    -0.153 A  
HETATM    6  C   UNL     1      -8.633  12.493  68.015  1.00  0.00    -0.185 A  
HETATM    7  C   UNL     1      -7.490  13.325  68.198  1.00  0.00    -0.128 A  
HETATM    8 CL   UNL     1      -5.955  12.948  67.458  1.00  0.00    -0.148 Cl 
ENDROOT
BRANCH   6   9
HETATM    9  N   UNL     1      -8.628  11.221  67.454  1.00  0.00    -0.134 NA 
HETATM   10  C   UNL     1      -7.403  10.609  66.908  1.00  0.00    -0.114 C  
HETATM   11  C   UNL     1      -7.293   9.119  67.303  1.00  0.00    -0.087 C  
HETATM   12  N   UNL     1      -8.491   8.303  66.999  1.00  0.00    -0.121 NA 
HETATM   13  C   UNL     1      -9.866  10.434  67.273  1.00  0.00    -0.178 C  
HETATM   14  C   UNL     1      -9.640   8.956  67.674  1.00  0.00    -0.148 C  
BRANCH  12  15
HETATM   15  C   UNL     1      -8.726   8.176  65.551  1.00  0.00    -0.120 C  
BRANCH  15  16
HETATM   16  C   UNL     1      -9.544   9.336  64.952  1.00  0.00     0.069 C  
BRANCH  16  17
HETATM   17  C   UNL     1      -8.922   9.976  63.707  1.00  0.00    -0.274 C  
BRANCH  17  18
HETATM   18  C   UNL     1      -9.399  11.411  63.544  1.00  0.00    -0.173 C  
BRANCH  18  19
HETATM   19  O   UNL     1     -10.789  11.519  63.842  1.00  0.00    -0.351 OA 
BRANCH  19  20
HETATM   20  C   UNL     1     -11.104  12.611  64.615  1.00  0.00    -0.313 A  
HETATM   21  C   UNL     1     -10.140  13.623  64.638  1.00  0.00    -0.228 A  
HETATM   22  C   UNL     1     -10.365  14.770  65.400  1.00  0.00    -0.386 A  
HETATM   23  C   UNL     1     -11.546  14.920  66.137  1.00  0.00    -0.228 A  
HETATM   24  C   UNL     1     -12.517  13.922  66.082  1.00  0.00    -0.478 A  
HETATM   25  C   UNL     1     -11.810  16.202  66.873  1.00  0.00     0.979 C  
HETATM   26  C   UNL     1     -12.299  12.779  65.321  1.00  0.00    -0.546 A  
HETATM   27  C   UNL     1     -10.522  16.890  67.286  1.00  0.00    -0.301 C  
HETATM   28  C   UNL     1      -9.499  16.919  66.174  1.00  0.00    -0.245 C  
HETATM   29  O   UNL     1      -8.697  17.838  66.045  1.00  0.00    -0.495 OA 
HETATM   30  N   UNL     1      -9.423  15.802  65.387  1.00  0.00    -0.090 N  
HETATM   31  H   UNL     1      -8.630  15.717  64.752  1.00  0.00     0.000 HD 
ENDBRANCH  19  20
ENDBRANCH  18  19
ENDBRANCH  17  18
ENDBRANCH  16  17
ENDBRANCH  15  16
ENDBRANCH  12  15
ENDBRANCH   6   9
TORSDOF 7
ENDMDL
MODEL      295
REMARK 921   NORMALIZED FREE ENERGY PREDICTED BY IDOCK:   -2.18 KCAL/MOL
REMARK 922        TOTAL FREE ENERGY PREDICTED BY IDOCK:   -4.67 KCAL/MOL
REMARK 923 INTER-LIGAND FREE ENERGY PREDICTED BY IDOCK:   -5.25 KCAL/MOL
REMARK 924 INTRA-LIGAND FREE ENERGY PREDICTED BY IDOCK:    0.57 KCAL/MOL
REMARK 927      BINDING AFFINITY PREDICTED BY RF-SCORE:    0.00 PKD
ROOT
HETATM    1 CL   UNL     1      -7.305  20.990  64.657  1.00  0.00     0.468 Cl 
HETATM    2  C   UNL     1      -6.972  19.453  65.392  1.00  0.00    -0.188 A  
HETATM    3  C   UNL     1      -5.630  19.090  65.482  1.00  0.00    -0.207 A  
HETATM    4  C   UNL     1      -5.289  17.869  66.045  1.00  0.00    -0.232 A  
HETATM    5  C   UNL     1      -6.293  16.999  66.473  1.00  0.00    -0.219 A  
HETATM    6  C   UNL     1      -7.668  17.311  66.391  1.00  0.00    -0.311 A  
HETATM    7  C   UNL     1      -7.988  18.598  65.871  1.00  0.00    -0.009 A  
HETATM    8 CL   UNL     1      -9.617  19.223  65.910  1.00  0.00    -0.205 Cl 
ENDROOT
BRANCH   6   9
HETATM    9  N   UNL     1      -8.587  16.336  66.764  1.00  0.00    -0.211 NA 
HETATM   10  C   UNL     1      -9.876  16.166  66.069  1.00  0.00    -0.347 C  
HETATM   11  C   UNL     1     -10.204  14.672  65.847  1.00  0.00    -0.326 C  
HETATM   12  N   UNL     1     -10.125  13.829  67.061  1.00  0.00    -0.252 NA 
HETATM   13  C   UNL     1      -8.383  15.470  67.944  1.00  0.00    -0.143 C  
HETATM   14  C   UNL     1      -8.762  14.004  67.620  1.00  0.00    -0.189 C  
BRANCH  12  15
HETATM   15  C   UNL     1     -11.156  14.181  68.053  1.00  0.00    -0.267 C  
BRANCH  15  16
HETATM   16  C   UNL     1     -11.113  13.312  69.325  1.00  0.00    -0.208 C  
BRANCH  16  17
HETATM   17  C   UNL     1     -11.271  11.809  69.073  1.00  0.00    -0.324 C  
BRANCH  17  18
HETATM   18  C   UNL     1     -11.207  11.504  67.584  1.00  0.00    -0.281 C  
BRANCH  18  19
HETATM   19  O   UNL     1     -11.485  10.126  67.337  1.00  0.00    -0.212 OA 
BRANCH  19  20
HETATM   20  C   UNL     1     -10.356   9.353  67.205  1.00  0.00    -0.258 A  
HETATM   21  C   UNL     1     -10.193   8.364  68.179  1.00  0.00    -0.253 A  
HETATM   22  C   UNL     1      -9.075   7.531  68.133  1.00  0.00    -0.128 A  
HETATM   23  C   UNL     1      -8.118   7.671  67.120  1.00  0.00    -0.118 A  
HETATM   24  C   UNL     1      -8.306   8.637  66.133  1.00  0.00    -0.127 A  
HETATM   25  C   UNL     1      -6.974   6.704  67.034  1.00  0.00    -0.071 C  
HETATM   26  C   UNL     1      -9.421   9.466  66.172  1.00  0.00    -0.287 A  
HETATM   27  C   UNL     1      -6.614   6.134  68.393  1.00  0.00    -0.058 C  
HETATM   28  C   UNL     1      -7.831   5.711  69.184  1.00  0.00    -0.089 C  
HETATM   29  O   UNL     1      -7.807   4.768  69.968  1.00  0.00    -0.063 OA 
HETATM   30  N   UNL     1      -8.934   6.514  69.079  1.00  0.00    -0.130 N  
HETATM   31  H   UNL     1      -9.701   6.359  69.733  1.00  0.00     0.000 HD 
ENDBRANCH  19  20
ENDBRANCH  18  19
ENDBRANCH  17  18
ENDBRANCH  16  17
ENDBRANCH  15  16
ENDBRANCH  12  15
ENDBRANCH   6   9
TORSDOF 7
ENDMDL
MODEL      296
REMARK 921   NORMALIZED FREE ENERGY PREDICTED BY IDOCK:   -2.10 KCAL/MOL
REMARK 922        TOTAL FREE ENERGY PREDICTED BY IDOCK:   -4.56 KCAL/MOL
REMARK 923 INTER-LIGAND FREE ENERGY PREDICTED BY IDOCK:   -4.41 KCAL/MOL
REMARK 924 INTRA-LIGAND FREE ENERGY PREDICTED BY IDOCK:   -0.15 KCAL/MOL
REMARK 927      BINDING AFFINITY PREDICTED BY RF-SCORE:    0.00 PKD
ROOT
HETATM    1 CL   UNL     1     -12.572  12.559  64.027  1.00  0.00    -0.496 Cl 
HETATM    2  C   UNL     1     -11.383  13.249  65.086  1.00  0.00    -0.297 A  
HETATM    3  C   UNL     1     -11.268  14.637  65.065  1.00  0.00    -0.388 A  
HETATM    4  C   UNL     1     -10.327  15.257  65.874  1.00  0.00    -0.346 A  
HETATM    5  C   UNL     1      -9.477  14.484  66.666  1.00  0.00    -0.301 A  
HETATM    6  C   UNL     1      -9.541  13.074  66.714  1.00  0.00    -0.248 A  
HETATM    7  C   UNL     1     -10.559  12.466  65.924  1.00  0.00    -0.258 A  
HETATM    8 CL   UNL     1     -10.916  10.761  66.043  1.00  0.00    -0.095 Cl 
ENDROOT
BRANCH   6   9
HETATM    9  N   UNL     1      -8.588  12.398  67.469  1.00  0.00    -0.167 NA 
HETATM   10  C   UNL     1      -8.827  11.044  68.003  1.00  0.00    -0.138 C  
HETATM   11  C   UNL     1      -7.579  10.147  67.843  1.00  0.00    -0.089 C  
HETATM   12  N   UNL     1      -6.323  10.727  68.371  1.00  0.00    -0.053 NA 
HETATM   13  C   UNL     1      -7.313  13.025  67.875  1.00  0.00    -0.128 C  
HETATM   14  C   UNL     1      -6.135  12.035  67.697  1.00  0.00    -0.093 C  
BRANCH  12  15
HETATM   15  C   UNL     1      -6.351  10.881  69.835  1.00  0.00    -0.132 C  
BRANCH  15  16
HETATM   16  C   UNL     1      -6.684   9.579  70.589  1.00  0.00    -0.110 C  
BRANCH  16  17
HETATM   17  C   UNL     1      -5.622   8.482  70.461  1.00  0.00    -0.027 C  
BRANCH  17  18
HETATM   18  C   UNL     1      -6.273   7.112  70.358  1.00  0.00    -0.034 C  
BRANCH  18  19
HETATM   19  O   UNL     1      -7.662   7.233  70.056  1.00  0.00    -0.092 OA 
BRANCH  19  20
HETATM   20  C   UNL     1      -8.000   6.747  68.815  1.00  0.00    -0.119 A  
HETATM   21  C   UNL     1      -7.145   7.120  67.775  1.00  0.00    -0.085 A  
HETATM   22  C   UNL     1      -7.408   6.681  66.477  1.00  0.00    -0.074 A  
HETATM   23  C   UNL     1      -8.517   5.868  66.207  1.00  0.00    -0.128 A  
HETATM   24  C   UNL     1      -9.345   5.473  67.255  1.00  0.00    -0.114 A  
HETATM   25  C   UNL     1      -8.727   5.329  64.822  1.00  0.00    -0.109 C  
HETATM   26  C   UNL     1      -9.084   5.904  68.550  1.00  0.00    -0.111 A  
HETATM   27  C   UNL     1      -8.135   6.243  63.765  1.00  0.00    -0.050 C  
HETATM   28  C   UNL     1      -6.747   6.722  64.126  1.00  0.00    -0.045 C  
HETATM   29  O   UNL     1      -5.891   6.949  63.278  1.00  0.00    -0.035 OA 
HETATM   30  N   UNL     1      -6.529   7.015  65.445  1.00  0.00    -0.046 N  
HETATM   31  H   UNL     1      -5.670   7.507  65.689  1.00  0.00     0.000 HD 
ENDBRANCH  19  20
ENDBRANCH  18  19
ENDBRANCH  17  18
ENDBRANCH  16  17
ENDBRANCH  15  16
ENDBRANCH  12  15
ENDBRANCH   6   9
TORSDOF 7
ENDMDL
MODEL      297
REMARK 921   NORMALIZED FREE ENERGY PREDICTED BY IDOCK:   -2.09 KCAL/MOL
REMARK 922        TOTAL FREE ENERGY PREDICTED BY IDOCK:   -4.55 KCAL/MOL
REMARK 923 INTER-LIGAND FREE ENERGY PREDICTED BY IDOCK:   -3.32 KCAL/MOL
REMARK 924 INTRA-LIGAND FREE ENERGY PREDICTED BY IDOCK:   -1.23 KCAL/MOL
REMARK 927      BINDING AFFINITY PREDICTED BY RF-SCORE:    0.00 PKD
ROOT
HETATM    1 CL   UNL     1      -7.443  13.923  67.965  1.00  0.00    -0.118 Cl 
HETATM    2  C   UNL     1      -8.322  12.430  68.071  1.00  0.00    -0.170 A  
HETATM    3  C   UNL     1      -9.526  12.372  67.372  1.00  0.00    -0.186 A  
HETATM    4  C   UNL     1     -10.290  11.215  67.424  1.00  0.00    -0.231 A  
HETATM    5  C   UNL     1      -9.869  10.141  68.209  1.00  0.00    -0.162 A  
HETATM    6  C   UNL     1      -8.666  10.153  68.950  1.00  0.00    -0.149 A  
HETATM    7  C   UNL     1      -7.868  11.327  68.827  1.00  0.00    -0.139 A  
HETATM    8 CL   UNL     1      -6.257  11.413  69.493  1.00  0.00    -0.090 Cl 
ENDROOT
BRANCH   6   9
HETATM    9  N   UNL     1      -8.387   9.065  69.769  1.00  0.00    -0.121 NA 
HETATM   10  C   UNL     1      -7.558   7.934  69.314  1.00  0.00    -0.097 C  
HETATM   11  C   UNL     1      -6.575   7.477  70.416  1.00  0.00    -0.042 C  
HETATM   12  N   UNL     1      -7.197   7.202  71.731  1.00  0.00    -0.075 NA 
HETATM   13  C   UNL     1      -8.982   8.916  71.114  1.00  0.00    -0.241 C  
HETATM   14  C   UNL     1      -7.921   8.433  72.133  1.00  0.00    -0.128 C  
BRANCH  12  15
HETATM   15  C   UNL     1      -8.104   6.042  71.689  1.00  0.00    -0.118 C  
BRANCH  15  16
HETATM   16  C   UNL     1      -8.565   5.565  73.080  1.00  0.00    -0.121 C  
BRANCH  16  17
HETATM   17  C   UNL     1      -7.515   4.764  73.856  1.00  0.00    -0.086 C  
BRANCH  17  18
HETATM   18  C   UNL     1      -7.988   3.336  74.084  1.00  0.00    -0.070 C  
BRANCH  18  19
HETATM   19  O   UNL     1      -7.297   2.431  73.226  1.00  0.00    -0.038 OA 
BRANCH  19  20
HETATM   20  C   UNL     1      -7.844   2.337  71.969  1.00  0.00    -0.048 A  
HETATM   21  C   UNL     1      -6.940   2.488  70.913  1.00  0.00    -0.033 A  
HETATM   22  C   UNL     1      -7.401   2.414  69.598  1.00  0.00    -0.043 A  
HETATM   23  C   UNL     1      -8.757   2.187  69.325  1.00  0.00    -0.125 A  
HETATM   24  C   UNL     1      -9.644   2.004  70.383  1.00  0.00    -0.108 A  
HETATM   25  C   UNL     1      -9.215   2.017  67.906  1.00  0.00    -0.228 C  
HETATM   26  C   UNL     1      -9.189   2.072  71.695  1.00  0.00    -0.162 A  
HETATM   27  C   UNL     1      -8.322   2.763  66.932  1.00  0.00    -0.094 C  
HETATM   28  C   UNL     1      -6.852   2.561  67.222  1.00  0.00    -0.040 C  
HETATM   29  O   UNL     1      -6.005   2.550  66.336  1.00  0.00    -0.022 OA 
HETATM   30  N   UNL     1      -6.493   2.519  68.542  1.00  0.00    -0.029 N  
HETATM   31  H   UNL     1      -5.500   2.566  68.769  1.00  0.00     0.000 HD 
ENDBRANCH  19  20
ENDBRANCH  18  19
ENDBRANCH  17  18
ENDBRANCH  16  17
ENDBRANCH  15  16
ENDBRANCH  12  15
ENDBRANCH   6   9
TORSDOF 7
ENDMDL
MODEL      298
REMARK 921   NORMALIZED FREE ENERGY PREDICTED BY IDOCK:   -2.08 KCAL/MOL
REMARK 922        TOTAL FREE ENERGY PREDICTED BY IDOCK:   -4.53 KCAL/MOL
REMARK 923 INTER-LIGAND FREE ENERGY PREDICTED BY IDOCK:   -4.31 KCAL/MOL
REMARK 924 INTRA-LIGAND FREE ENERGY PREDICTED BY IDOCK:   -0.22 KCAL/MOL
REMARK 927      BINDING AFFINITY PREDICTED BY RF-SCORE:    0.00 PKD
ROOT
HETATM    1 CL   UNL     1     -12.105  11.652  63.404  1.00  0.00    -0.457 Cl 
HETATM    2  C   UNL     1     -10.478  11.077  63.586  1.00  0.00    -0.322 A  
HETATM    3  C   UNL     1      -9.957  10.350  62.517  1.00  0.00     0.162 A  
HETATM    4  C   UNL     1      -8.668   9.846  62.599  1.00  0.00    -0.219 A  
HETATM    5  C   UNL     1      -7.923  10.032  63.764  1.00  0.00    -0.153 A  
HETATM    6  C   UNL     1      -8.408  10.746  64.882  1.00  0.00    -0.018 A  
HETATM    7  C   UNL     1      -9.709  11.310  64.747  1.00  0.00    -0.256 A  
HETATM    8 CL   UNL     1     -10.362  12.404  65.941  1.00  0.00    -0.273 Cl 
ENDROOT
BRANCH   6   9
HETATM    9  N   UNL     1      -7.617  10.795  66.025  1.00  0.00    -0.148 NA 
HETATM   10  C   UNL     1      -6.201  10.384  66.017  1.00  0.00    -0.110 C  
HETATM   11  C   UNL     1      -5.326  11.361  66.834  1.00  0.00    -0.104 C  
HETATM   12  N   UNL     1      -5.808  11.628  68.209  1.00  0.00    -0.045 NA 
HETATM   13  C   UNL     1      -8.164  11.165  67.347  1.00  0.00    -0.132 C  
HETATM   14  C   UNL     1      -7.201  12.124  68.089  1.00  0.00    -0.096 C  
BRANCH  12  15
HETATM   15  C   UNL     1      -5.741  10.433  69.066  1.00  0.00    -0.041 C  
BRANCH  15  16
HETATM   16  C   UNL     1      -5.139  10.703  70.459  1.00  0.00    -0.063 C  
BRANCH  16  17
HETATM   17  C   UNL     1      -5.812  11.842  71.232  1.00  0.00     0.458 C  
BRANCH  17  18
HETATM   18  C   UNL     1      -5.228  13.186  70.825  1.00  0.00    -0.144 C  
BRANCH  18  19
HETATM   19  O   UNL     1      -6.132  14.245  71.136  1.00  0.00    -0.208 OA 
BRANCH  19  20
HETATM   20  C   UNL     1      -6.311  15.136  70.104  1.00  0.00    -0.130 A  
HETATM   21  C   UNL     1      -7.626  15.567  69.910  1.00  0.00     0.044 A  
HETATM   22  C   UNL     1      -7.910  16.469  68.883  1.00  0.00    -0.240 A  
HETATM   23  C   UNL     1      -6.891  16.948  68.049  1.00  0.00    -0.155 A  
HETATM   24  C   UNL     1      -5.578  16.540  68.271  1.00  0.00    -0.118 A  
HETATM   25  C   UNL     1      -7.203  17.989  67.013  1.00  0.00    -0.219 C  
HETATM   26  C   UNL     1      -5.290  15.645  69.296  1.00  0.00    -0.101 A  
HETATM   27  C   UNL     1      -8.642  17.901  66.541  1.00  0.00    -0.279 C  
HETATM   28  C   UNL     1      -9.617  17.738  67.684  1.00  0.00    -0.266 C  
HETATM   29  O   UNL     1     -10.753  18.200  67.647  1.00  0.00    -0.416 OA 
HETATM   30  N   UNL     1      -9.215  16.936  68.717  1.00  0.00    -0.266 N  
HETATM   31  H   UNL     1      -9.912  16.662  69.409  1.00  0.00     0.000 HD 
ENDBRANCH  19  20
ENDBRANCH  18  19
ENDBRANCH  17  18
ENDBRANCH  16  17
ENDBRANCH  15  16
ENDBRANCH  12  15
ENDBRANCH   6   9
TORSDOF 7
ENDMDL
MODEL      299
REMARK 921   NORMALIZED FREE ENERGY PREDICTED BY IDOCK:   -1.87 KCAL/MOL
REMARK 922        TOTAL FREE ENERGY PREDICTED BY IDOCK:   -4.24 KCAL/MOL
REMARK 923 INTER-LIGAND FREE ENERGY PREDICTED BY IDOCK:   -3.93 KCAL/MOL
REMARK 924 INTRA-LIGAND FREE ENERGY PREDICTED BY IDOCK:   -0.31 KCAL/MOL
REMARK 927      BINDING AFFINITY PREDICTED BY RF-SCORE:    0.00 PKD
ROOT
HETATM    1 CL   UNL     1      -6.113  10.591  62.562  1.00  0.00    -0.141 Cl 
HETATM    2  C   UNL     1      -7.590  10.456  63.464  1.00  0.00    -0.046 A  
HETATM    3  C   UNL     1      -8.747  10.892  62.821  1.00  0.00    -0.276 A  
HETATM    4  C   UNL     1      -9.963  10.829  63.487  1.00  0.00    -0.403 A  
HETATM    5  C   UNL     1     -10.008  10.372  64.805  1.00  0.00    -0.409 A  
HETATM    6  C   UNL     1      -8.864   9.934  65.508  1.00  0.00    -0.159 A  
HETATM    7  C   UNL     1      -7.639   9.946  64.780  1.00  0.00    -0.139 A  
HETATM    8 CL   UNL     1      -6.183   9.230  65.424  1.00  0.00    -0.063 Cl 
ENDROOT
BRANCH   6   9
HETATM    9  N   UNL     1      -9.009   9.583  66.846  1.00  0.00    -0.130 NA 
HETATM   10  C   UNL     1      -8.526  10.447  67.939  1.00  0.00    -0.114 C  
HETATM   11  C   UNL     1      -9.547  10.513  69.097  1.00  0.00    -0.199 C  
HETATM   12  N   UNL     1     -10.002   9.197  69.603  1.00  0.00    -0.183 NA 
HETATM   13  C   UNL     1      -9.563   8.278  67.264  1.00  0.00    -0.166 C  
HETATM   14  C   UNL     1     -10.552   8.455  68.442  1.00  0.00    -0.105 C  
BRANCH  12  15
HETATM   15  C   UNL     1      -8.916   8.442  70.251  1.00  0.00    -0.147 C  
BRANCH  15  16
HETATM   16  C   UNL     1      -9.018   6.918  70.052  1.00  0.00    -0.142 C  
BRANCH  16  17
HETATM   17  C   UNL     1      -7.730   6.254  69.554  1.00  0.00    -0.099 C  
BRANCH  17  18
HETATM   18  C   UNL     1      -7.189   5.283  70.592  1.00  0.00    -0.068 C  
BRANCH  18  19
HETATM   19  O   UNL     1      -6.920   4.012  70.004  1.00  0.00    -0.040 OA 
BRANCH  19  20
HETATM   20  C   UNL     1      -7.663   3.759  68.876  1.00  0.00    -0.053 A  
HETATM   21  C   UNL     1      -7.087   4.183  67.675  1.00  0.00    -0.063 A  
HETATM   22  C   UNL     1      -7.768   3.976  66.475  1.00  0.00    -0.089 A  
HETATM   23  C   UNL     1      -9.018   3.344  66.460  1.00  0.00    -0.158 A  
HETATM   24  C   UNL     1      -9.569   2.894  67.658  1.00  0.00    -0.057 A  
HETATM   25  C   UNL     1      -9.689   3.047  65.151  1.00  0.00     0.024 C  
HETATM   26  C   UNL     1      -8.893   3.094  68.855  1.00  0.00    -0.167 A  
HETATM   27  C   UNL     1      -9.284   4.035  64.073  1.00  0.00    -0.146 C  
HETATM   28  C   UNL     1      -7.795   4.293  64.053  1.00  0.00    -0.085 C  
HETATM   29  O   UNL     1      -7.187   4.546  63.019  1.00  0.00    -0.043 OA 
HETATM   30  N   UNL     1      -7.173   4.358  65.271  1.00  0.00    -0.067 N  
HETATM   31  H   UNL     1      -6.216   4.708  65.300  1.00  0.00     0.000 HD 
ENDBRANCH  19  20
ENDBRANCH  18  19
ENDBRANCH  17  18
ENDBRANCH  16  17
ENDBRANCH  15  16
ENDBRANCH  12  15
ENDBRANCH   6   9
TORSDOF 7
ENDMDL
MODEL      300
REMARK 921   NORMALIZED FREE ENERGY PREDICTED BY IDOCK:   -1.86 KCAL/MOL
REMARK 922        TOTAL FREE ENERGY PREDICTED BY IDOCK:   -4.22 KCAL/MOL
REMARK 923 INTER-LIGAND FREE ENERGY PREDICTED BY IDOCK:   -3.87 KCAL/MOL
REMARK 924 INTRA-LIGAND FREE ENERGY PREDICTED BY IDOCK:   -0.35 KCAL/MOL
REMARK 927      BINDING AFFINITY PREDICTED BY RF-SCORE:    0.00 PKD
ROOT
HETATM    1 CL   UNL     1      -7.353   7.947  64.582  1.00  0.00    -0.079 Cl 
HETATM    2  C   UNL     1      -8.379   9.309  64.254  1.00  0.00    -0.177 A  
HETATM    3  C   UNL     1      -8.722   9.516  62.920  1.00  0.00    -0.233 A  
HETATM    4  C   UNL     1      -9.526  10.594  62.581  1.00  0.00    -0.332 A  
HETATM    5  C   UNL     1      -9.946  11.483  63.571  1.00  0.00    -0.429 A  
HETATM    6  C   UNL     1      -9.615  11.329  64.935  1.00  0.00    -0.232 A  
HETATM    7  C   UNL     1      -8.843  10.178  65.266  1.00  0.00    -0.178 A  
HETATM    8 CL   UNL     1      -8.540   9.722  66.923  1.00  0.00    -0.124 Cl 
ENDROOT
BRANCH   6   9
HETATM    9  N   UNL     1     -10.011  12.322  65.824  1.00  0.00    -0.252 NA 
HETATM   10  C   UNL     1     -10.284  12.038  67.246  1.00  0.00    -0.204 C  
HETATM   11  C   UNL     1      -9.699  13.138  68.161  1.00  0.00    -0.228 C  
HETATM   12  N   UNL     1     -10.084  14.521  67.799  1.00  0.00    -0.224 NA 
HETATM   13  C   UNL     1     -10.285  13.707  65.389  1.00  0.00    -0.313 C  
HETATM   14  C   UNL     1      -9.678  14.725  66.387  1.00  0.00    -0.291 C  
BRANCH  12  15
HETATM   15  C   UNL     1     -11.525  14.765  67.979  1.00  0.00    -0.331 C  
BRANCH  15  16
HETATM   16  C   UNL     1     -12.221  13.727  68.881  1.00  0.00    -0.235 C  
BRANCH  16  17
HETATM   17  C   UNL     1     -12.394  14.166  70.338  1.00  0.00    -0.428 C  
BRANCH  17  18
HETATM   18  C   UNL     1     -12.421  12.960  71.264  1.00  0.00    -0.200 C  
BRANCH  18  19
HETATM   19  O   UNL     1     -12.427  11.746  70.514  1.00  0.00    -0.293 OA 
BRANCH  19  20
HETATM   20  C   UNL     1     -11.673  10.746  71.080  1.00  0.00    -0.144 A  
HETATM   21  C   UNL     1     -10.321  10.744  70.723  1.00  0.00     1.457 A  
HETATM   22  C   UNL     1      -9.475   9.763  71.242  1.00  0.00     0.754 A  
HETATM   23  C   UNL     1      -9.964   8.785  72.118  1.00  0.00    -0.359 A  
HETATM   24  C   UNL     1     -11.304   8.815  72.495  1.00  0.00    -0.152 A  
HETATM   25  C   UNL     1      -9.018   7.798  72.738  1.00  0.00    -0.236 C  
HETATM   26  C   UNL     1     -12.150   9.793  71.984  1.00  0.00    -0.197 A  
HETATM   27  C   UNL     1      -7.810   7.543  71.855  1.00  0.00    -0.094 C  
HETATM   28  C   UNL     1      -7.223   8.818  71.294  1.00  0.00    -0.095 C  
HETATM   29  O   UNL     1      -6.023   8.945  71.073  1.00  0.00    -0.036 OA 
HETATM   30  N   UNL     1      -8.115   9.787  70.923  1.00  0.00     0.017 N  
HETATM   31  H   UNL     1      -7.766  10.576  70.379  1.00  0.00     0.000 HD 
ENDBRANCH  19  20
ENDBRANCH  18  19
ENDBRANCH  17  18
ENDBRANCH  16  17
ENDBRANCH  15  16
ENDBRANCH  12  15
ENDBRANCH   6   9
TORSDOF 7
ENDMDL
MODEL      301
REMARK 921   NORMALIZED FREE ENERGY PREDICTED BY IDOCK:   -1.83 KCAL/MOL
REMARK 922        TOTAL FREE ENERGY PREDICTED BY IDOCK:   -4.18 KCAL/MOL
REMARK 923 INTER-LIGAND FREE ENERGY PREDICTED BY IDOCK:   -5.00 KCAL/MOL
REMARK 924 INTRA-LIGAND FREE ENERGY PREDICTED BY IDOCK:    0.83 KCAL/MOL
REMARK 927      BINDING AFFINITY PREDICTED BY RF-SCORE:    0.00 PKD
ROOT
HETATM    1 CL   UNL     1      -9.466   4.733  72.192  1.00  0.00    -0.170 Cl 
HETATM    2  C   UNL     1      -8.190   5.909  72.234  1.00  0.00    -0.111 A  
HETATM    3  C   UNL     1      -7.248   5.762  73.251  1.00  0.00    -0.086 A  
HETATM    4  C   UNL     1      -6.208   6.674  73.356  1.00  0.00    -0.063 A  
HETATM    5  C   UNL     1      -6.141   7.753  72.473  1.00  0.00    -0.041 A  
HETATM    6  C   UNL     1      -7.077   7.958  71.435  1.00  0.00    -0.060 A  
HETATM    7  C   UNL     1      -8.097   6.971  71.308  1.00  0.00    -0.108 A  
HETATM    8 CL   UNL     1      -9.192   6.955  69.949  1.00  0.00    -0.148 Cl 
ENDROOT
BRANCH   6   9
HETATM    9  N   UNL     1      -6.967   9.114  70.670  1.00  0.00    -0.078 NA 
HETATM   10  C   UNL     1      -5.687   9.826  70.504  1.00  0.00    -0.057 C  
HETATM   11  C   UNL     1      -5.483  10.287  69.043  1.00  0.00    -0.038 C  
HETATM   12  N   UNL     1      -6.611  11.055  68.469  1.00  0.00    -0.057 NA 
HETATM   13  C   UNL     1      -8.141   9.765  70.051  1.00  0.00    -0.189 C  
HETATM   14  C   UNL     1      -7.822  10.208  68.602  1.00  0.00    -0.097 C  
BRANCH  12  15
HETATM   15  C   UNL     1      -6.797  12.356  69.133  1.00  0.00    -0.069 C  
BRANCH  15  16
HETATM   16  C   UNL     1      -5.475  13.058  69.499  1.00  0.00    -0.083 C  
BRANCH  16  17
HETATM   17  C   UNL     1      -5.325  14.470  68.924  1.00  0.00    -0.088 C  
BRANCH  17  18
HETATM   18  C   UNL     1      -5.892  14.540  67.515  1.00  0.00     0.136 C  
BRANCH  18  19
HETATM   19  O   UNL     1      -7.279  14.208  67.510  1.00  0.00    -0.172 OA 
BRANCH  19  20
HETATM   20  C   UNL     1      -8.093  15.249  67.132  1.00  0.00    -0.216 A  
HETATM   21  C   UNL     1      -7.632  16.522  67.478  1.00  0.00    -0.170 A  
HETATM   22  C   UNL     1      -8.392  17.643  67.143  1.00  0.00    -0.218 A  
HETATM   23  C   UNL     1      -9.609  17.506  66.461  1.00  0.00    -0.295 A  
HETATM   24  C   UNL     1     -10.044  16.236  66.090  1.00  0.00    -0.362 A  
HETATM   25  C   UNL     1     -10.363  18.729  66.026  1.00  0.00    -0.467 C  
HETATM   26  C   UNL     1      -9.288  15.117  66.418  1.00  0.00    -0.332 A  
HETATM   27  C   UNL     1     -10.090  19.913  66.936  1.00  0.00    -0.579 C  
HETATM   28  C   UNL     1      -8.621  20.072  67.254  1.00  0.00    -0.335 C  
HETATM   29  O   UNL     1      -8.107  21.170  67.444  1.00  0.00    -0.204 OA 
HETATM   30  N   UNL     1      -7.911  18.918  67.447  1.00  0.00    -0.245 N  
HETATM   31  H   UNL     1      -6.972  18.994  67.837  1.00  0.00     0.000 HD 
ENDBRANCH  19  20
ENDBRANCH  18  19
ENDBRANCH  17  18
ENDBRANCH  16  17
ENDBRANCH  15  16
ENDBRANCH  12  15
ENDBRANCH   6   9
TORSDOF 7
ENDMDL
MODEL      302
REMARK 921   NORMALIZED FREE ENERGY PREDICTED BY IDOCK:   -1.80 KCAL/MOL
REMARK 922        TOTAL FREE ENERGY PREDICTED BY IDOCK:   -4.14 KCAL/MOL
REMARK 923 INTER-LIGAND FREE ENERGY PREDICTED BY IDOCK:   -4.23 KCAL/MOL
REMARK 924 INTRA-LIGAND FREE ENERGY PREDICTED BY IDOCK:    0.08 KCAL/MOL
REMARK 927      BINDING AFFINITY PREDICTED BY RF-SCORE:    0.00 PKD
ROOT
HETATM    1 CL   UNL     1     -12.994  14.735  72.102  1.00  0.00    -0.386 Cl 
HETATM    2  C   UNL     1     -12.793  13.089  71.589  1.00  0.00    -0.277 A  
HETATM    3  C   UNL     1     -13.577  12.139  72.241  1.00  0.00    -0.226 A  
HETATM    4  C   UNL     1     -13.459  10.801  71.893  1.00  0.00    -0.327 A  
HETATM    5  C   UNL     1     -12.526  10.415  70.930  1.00  0.00    -0.478 A  
HETATM    6  C   UNL     1     -11.696  11.334  70.251  1.00  0.00    -0.324 A  
HETATM    7  C   UNL     1     -11.884  12.708  70.578  1.00  0.00    -0.052 A  
HETATM    8 CL   UNL     1     -11.102  13.981  69.675  1.00  0.00    -0.206 Cl 
ENDROOT
BRANCH   6   9
HETATM    9  N   UNL     1     -10.740  10.833  69.374  1.00  0.00    -0.227 NA 
HETATM   10  C   UNL     1      -9.294  10.964  69.632  1.00  0.00     0.380 C  
HETATM   11  C   UNL     1      -8.540   9.659  69.291  1.00  0.00    -0.153 C  
HETATM   12  N   UNL     1      -8.805   9.122  67.937  1.00  0.00    -0.128 NA 
HETATM   13  C   UNL     1     -11.101  10.224  68.077  1.00  0.00    -0.274 C  
HETATM   14  C   UNL     1     -10.273   8.940  67.824  1.00  0.00    -0.228 C  
BRANCH  12  15
HETATM   15  C   UNL     1      -8.295  10.007  66.875  1.00  0.00    -0.125 C  
BRANCH  15  16
HETATM   16  C   UNL     1      -8.817   9.652  65.469  1.00  0.00    -0.204 C  
BRANCH  16  17
HETATM   17  C   UNL     1      -9.357   8.224  65.335  1.00  0.00     0.206 C  
BRANCH  17  18
HETATM   18  C   UNL     1      -8.258   7.273  64.886  1.00  0.00    -0.073 C  
BRANCH  18  19
HETATM   19  O   UNL     1      -8.675   5.916  65.025  1.00  0.00    -0.114 OA 
BRANCH  19  20
HETATM   20  C   UNL     1      -8.780   5.504  66.332  1.00  0.00    -0.123 A  
HETATM   21  C   UNL     1      -7.588   5.067  66.917  1.00  0.00    -0.088 A  
HETATM   22  C   UNL     1      -7.594   4.623  68.240  1.00  0.00    -0.076 A  
HETATM   23  C   UNL     1      -8.779   4.614  68.988  1.00  0.00    -0.108 A  
HETATM   24  C   UNL     1      -9.955   5.084  68.408  1.00  0.00    -0.202 A  
HETATM   25  C   UNL     1      -8.745   4.223  70.436  1.00  0.00    -0.118 C  
HETATM   26  C   UNL     1      -9.953   5.531  67.091  1.00  0.00    -0.193 A  
HETATM   27  C   UNL     1      -7.610   3.261  70.734  1.00  0.00    -0.040 C  
HETATM   28  C   UNL     1      -6.308   3.684  70.092  1.00  0.00    -0.028 C  
HETATM   29  O   UNL     1      -5.219   3.454  70.607  1.00  0.00    -0.003 OA 
HETATM   30  N   UNL     1      -6.396   4.229  68.840  1.00  0.00    -0.032 N  
HETATM   31  H   UNL     1      -5.533   4.356  68.312  1.00  0.00     0.000 HD 
ENDBRANCH  19  20
ENDBRANCH  18  19
ENDBRANCH  17  18
ENDBRANCH  16  17
ENDBRANCH  15  16
ENDBRANCH  12  15
ENDBRANCH   6   9
TORSDOF 7
ENDMDL
MODEL      303
REMARK 921   NORMALIZED FREE ENERGY PREDICTED BY IDOCK:   -1.77 KCAL/MOL
REMARK 922        TOTAL FREE ENERGY PREDICTED BY IDOCK:   -4.10 KCAL/MOL
REMARK 923 INTER-LIGAND FREE ENERGY PREDICTED BY IDOCK:   -4.89 KCAL/MOL
REMARK 924 INTRA-LIGAND FREE ENERGY PREDICTED BY IDOCK:    0.79 KCAL/MOL
REMARK 927      BINDING AFFINITY PREDICTED BY RF-SCORE:    0.00 PKD
ROOT
HETATM    1 CL   UNL     1     -11.918  14.055  65.192  1.00  0.00    -0.370 Cl 
HETATM    2  C   UNL     1     -11.512  13.344  66.723  1.00  0.00    -0.343 A  
HETATM    3  C   UNL     1     -12.227  13.806  67.826  1.00  0.00    -0.208 A  
HETATM    4  C   UNL     1     -11.945  13.294  69.085  1.00  0.00    -0.343 A  
HETATM    5  C   UNL     1     -10.922  12.358  69.239  1.00  0.00    -0.145 A  
HETATM    6  C   UNL     1     -10.157  11.868  68.158  1.00  0.00    -0.198 A  
HETATM    7  C   UNL     1     -10.510  12.360  66.868  1.00  0.00    -0.224 A  
HETATM    8 CL   UNL     1      -9.819  11.692  65.411  1.00  0.00    -0.260 Cl 
ENDROOT
BRANCH   6   9
HETATM    9  N   UNL     1      -9.104  11.004  68.435  1.00  0.00    -0.155 NA 
HETATM   10  C   UNL     1      -7.829  11.059  67.696  1.00  0.00    -0.114 C  
HETATM   11  C   UNL     1      -6.620  10.901  68.646  1.00  0.00    -0.057 C  
HETATM   12  N   UNL     1      -6.680   9.723  69.541  1.00  0.00    -0.049 NA 
HETATM   13  C   UNL     1      -9.221   9.907  69.418  1.00  0.00    -0.214 C  
HETATM   14  C   UNL     1      -7.951   9.822  70.300  1.00  0.00    -0.162 C  
BRANCH  12  15
HETATM   15  C   UNL     1      -6.601   8.454  68.799  1.00  0.00    -0.054 C  
BRANCH  15  16
HETATM   16  C   UNL     1      -6.755   8.617  67.274  1.00  0.00    -0.063 C  
BRANCH  16  17
HETATM   17  C   UNL     1      -6.542   7.329  66.473  1.00  0.00    -0.056 C  
BRANCH  17  18
HETATM   18  C   UNL     1      -7.798   6.472  66.489  1.00  0.00    -0.104 C  
BRANCH  18  19
HETATM   19  O   UNL     1      -8.624   6.805  67.603  1.00  0.00    -0.121 OA 
BRANCH  19  20
HETATM   20  C   UNL     1      -8.633   5.846  68.588  1.00  0.00    -0.110 A  
HETATM   21  C   UNL     1      -9.542   6.067  69.626  1.00  0.00    -0.177 A  
HETATM   22  C   UNL     1      -9.621   5.151  70.677  1.00  0.00    -0.180 A  
HETATM   23  C   UNL     1      -8.804   4.014  70.699  1.00  0.00    -0.132 A  
HETATM   24  C   UNL     1      -7.925   3.784  69.642  1.00  0.00    -0.055 A  
HETATM   25  C   UNL     1      -8.972   2.994  71.788  1.00  0.00    -0.142 C  
HETATM   26  C   UNL     1      -7.846   4.691  68.592  1.00  0.00    -0.079 A  
HETATM   27  C   UNL     1      -9.503   3.617  73.066  1.00  0.00    -0.144 C  
HETATM   28  C   UNL     1     -10.651   4.568  72.813  1.00  0.00    -0.195 C  
HETATM   29  O   UNL     1     -11.561   4.724  73.620  1.00  0.00    -0.205 OA 
HETATM   30  N   UNL     1     -10.560   5.346  71.692  1.00  0.00    -0.230 N  
HETATM   31  H   UNL     1     -11.220   6.117  71.590  1.00  0.00     0.000 HD 
ENDBRANCH  19  20
ENDBRANCH  18  19
ENDBRANCH  17  18
ENDBRANCH  16  17
ENDBRANCH  15  16
ENDBRANCH  12  15
ENDBRANCH   6   9
TORSDOF 7
ENDMDL
MODEL      304
REMARK 921   NORMALIZED FREE ENERGY PREDICTED BY IDOCK:   -1.76 KCAL/MOL
REMARK 922        TOTAL FREE ENERGY PREDICTED BY IDOCK:   -4.08 KCAL/MOL
REMARK 923 INTER-LIGAND FREE ENERGY PREDICTED BY IDOCK:   -3.80 KCAL/MOL
REMARK 924 INTRA-LIGAND FREE ENERGY PREDICTED BY IDOCK:   -0.28 KCAL/MOL
REMARK 927      BINDING AFFINITY PREDICTED BY RF-SCORE:    0.00 PKD
ROOT
HETATM    1 CL   UNL     1     -12.740  11.897  63.453  1.00  0.00    -0.655 Cl 
HETATM    2  C   UNL     1     -11.145  11.522  64.028  1.00  0.00    -0.365 A  
HETATM    3  C   UNL     1     -10.454  10.534  63.331  1.00  0.00     0.274 A  
HETATM    4  C   UNL     1      -9.180  10.171  63.743  1.00  0.00    -0.321 A  
HETATM    5  C   UNL     1      -8.623  10.767  64.876  1.00  0.00    -0.097 A  
HETATM    6  C   UNL     1      -9.286  11.762  65.627  1.00  0.00    -0.100 A  
HETATM    7  C   UNL     1     -10.565  12.164  65.144  1.00  0.00    -0.286 A  
HETATM    8 CL   UNL     1     -11.413  13.530  65.822  1.00  0.00    -0.321 Cl 
ENDROOT
BRANCH   6   9
HETATM    9  N   UNL     1      -8.676  12.224  66.789  1.00  0.00    -0.196 NA 
HETATM   10  C   UNL     1      -7.219  12.140  66.996  1.00  0.00    -0.067 C  
HETATM   11  C   UNL     1      -6.665  13.435  67.632  1.00  0.00    -0.167 C  
HETATM   12  N   UNL     1      -7.365  13.877  68.859  1.00  0.00    -0.107 NA 
HETATM   13  C   UNL     1      -9.453  12.739  67.936  1.00  0.00    -0.208 C  
HETATM   14  C   UNL     1      -8.800  14.020  68.510  1.00  0.00    -0.160 C  
BRANCH  12  15
HETATM   15  C   UNL     1      -7.181  12.935  69.976  1.00  0.00     1.125 C  
BRANCH  15  16
HETATM   16  C   UNL     1      -5.841  13.109  70.718  1.00  0.00    -0.111 C  
BRANCH  16  17
HETATM   17  C   UNL     1      -5.646  14.485  71.362  1.00  0.00    -0.132 C  
BRANCH  17  18
HETATM   18  C   UNL     1      -5.281  15.523  70.313  1.00  0.00    -0.129 C  
BRANCH  18  19
HETATM   19  O   UNL     1      -5.659  16.831  70.740  1.00  0.00    -0.135 OA 
BRANCH  19  20
HETATM   20  C   UNL     1      -6.204  17.601  69.740  1.00  0.00    -0.178 A  
HETATM   21  C   UNL     1      -5.582  17.488  68.494  1.00  0.00    -0.156 A  
HETATM   22  C   UNL     1      -6.060  18.235  67.417  1.00  0.00    -0.170 A  
HETATM   23  C   UNL     1      -7.158  19.092  67.570  1.00  0.00    -0.226 A  
HETATM   24  C   UNL     1      -7.793  19.172  68.807  1.00  0.00    -0.383 A  
HETATM   25  C   UNL     1      -7.715  19.813  66.377  1.00  0.00    -0.318 C  
HETATM   26  C   UNL     1      -7.323  18.427  69.882  1.00  0.00     0.725 A  
HETATM   27  C   UNL     1      -6.653  20.062  65.323  1.00  0.00    -0.330 C  
HETATM   28  C   UNL     1      -5.794  18.845  65.067  1.00  0.00    -0.266 C  
HETATM   29  O   UNL     1      -5.314  18.601  63.965  1.00  0.00    -0.173 OA 
HETATM   30  N   UNL     1      -5.469  18.089  66.160  1.00  0.00    -0.170 N  
HETATM   31  H   UNL     1      -4.750  17.373  66.050  1.00  0.00     0.000 HD 
ENDBRANCH  19  20
ENDBRANCH  18  19
ENDBRANCH  17  18
ENDBRANCH  16  17
ENDBRANCH  15  16
ENDBRANCH  12  15
ENDBRANCH   6   9
TORSDOF 7
ENDMDL
MODEL      305
REMARK 921   NORMALIZED FREE ENERGY PREDICTED BY IDOCK:   -1.54 KCAL/MOL
REMARK 922        TOTAL FREE ENERGY PREDICTED BY IDOCK:   -3.77 KCAL/MOL
REMARK 923 INTER-LIGAND FREE ENERGY PREDICTED BY IDOCK:   -5.40 KCAL/MOL
REMARK 924 INTRA-LIGAND FREE ENERGY PREDICTED BY IDOCK:    1.63 KCAL/MOL
REMARK 927      BINDING AFFINITY PREDICTED BY RF-SCORE:    0.00 PKD
ROOT
HETATM    1 CL   UNL     1     -13.001  14.732  72.102  1.00  0.00    -0.386 Cl 
HETATM    2  C   UNL     1     -12.844  13.086  71.575  1.00  0.00    -0.290 A  
HETATM    3  C   UNL     1     -13.613  12.144  72.254  1.00  0.00    -0.226 A  
HETATM    4  C   UNL     1     -13.527  10.806  71.897  1.00  0.00    -0.327 A  
HETATM    5  C   UNL     1     -12.641  10.412  70.894  1.00  0.00    -0.478 A  
HETATM    6  C   UNL     1     -11.827  11.323  70.185  1.00  0.00    -0.364 A  
HETATM    7  C   UNL     1     -11.983  12.698  70.525  1.00  0.00    -0.192 A  
HETATM    8 CL   UNL     1     -11.222  13.964  69.596  1.00  0.00    -0.240 Cl 
ENDROOT
BRANCH   6   9
HETATM    9  N   UNL     1     -10.915  10.814  69.268  1.00  0.00    -0.224 NA 
HETATM   10  C   UNL     1      -9.458  10.944  69.455  1.00  0.00     0.063 C  
HETATM   11  C   UNL     1      -8.723   9.635  69.088  1.00  0.00    -0.151 C  
HETATM   12  N   UNL     1      -9.053   9.088  67.752  1.00  0.00    -0.134 NA 
HETATM   13  C   UNL     1     -11.338  10.196  67.993  1.00  0.00    -0.078 C  
HETATM   14  C   UNL     1     -10.525   8.909  67.711  1.00  0.00    -0.239 C  
BRANCH  12  15
HETATM   15  C   UNL     1      -8.593   9.964  66.661  1.00  0.00    -0.125 C  
BRANCH  15  16
HETATM   16  C   UNL     1      -9.168   9.588  65.281  1.00  0.00    -0.307 C  
BRANCH  16  17
HETATM   17  C   UNL     1      -9.660  10.779  64.453  1.00  0.00    -0.330 C  
BRANCH  17  18
HETATM   18  C   UNL     1     -11.142  11.025  64.693  1.00  0.00     0.030 C  
BRANCH  18  19
HETATM   19  O   UNL     1     -11.543  12.279  64.144  1.00  0.00    -0.338 OA 
BRANCH  19  20
HETATM   20  C   UNL     1     -11.061  13.363  64.838  1.00  0.00    -0.335 A  
HETATM   21  C   UNL     1     -11.825  13.753  65.941  1.00  0.00    -0.405 A  
HETATM   22  C   UNL     1     -11.420  14.847  66.706  1.00  0.00    -0.301 A  
HETATM   23  C   UNL     1     -10.254  15.555  66.383  1.00  0.00    -0.300 A  
HETATM   24  C   UNL     1      -9.481  15.139  65.302  1.00  0.00     0.167 A  
HETATM   25  C   UNL     1      -9.786  16.668  67.274  1.00  0.00    -0.245 C  
HETATM   26  C   UNL     1      -9.878  14.046  64.540  1.00  0.00     0.563 A  
HETATM   27  C   UNL     1     -10.940  17.328  68.007  1.00  0.00    -0.194 C  
HETATM   28  C   UNL     1     -11.905  16.322  68.592  1.00  0.00     0.024 C  
HETATM   29  O   UNL     1     -12.521  16.532  69.631  1.00  0.00     0.407 OA 
HETATM   30  N   UNL     1     -12.157  15.209  67.835  1.00  0.00    -0.448 N  
HETATM   31  H   UNL     1     -12.931  14.607  68.114  1.00  0.00     0.000 HD 
ENDBRANCH  19  20
ENDBRANCH  18  19
ENDBRANCH  17  18
ENDBRANCH  16  17
ENDBRANCH  15  16
ENDBRANCH  12  15
ENDBRANCH   6   9
TORSDOF 7
ENDMDL
MODEL      306
REMARK 921   NORMALIZED FREE ENERGY PREDICTED BY IDOCK:   -1.28 KCAL/MOL
REMARK 922        TOTAL FREE ENERGY PREDICTED BY IDOCK:   -3.40 KCAL/MOL
REMARK 923 INTER-LIGAND FREE ENERGY PREDICTED BY IDOCK:   -3.67 KCAL/MOL
REMARK 924 INTRA-LIGAND FREE ENERGY PREDICTED BY IDOCK:    0.27 KCAL/MOL
REMARK 927      BINDING AFFINITY PREDICTED BY RF-SCORE:    0.00 PKD
ROOT
HETATM    1 CL   UNL     1      -5.886   2.692  64.460  1.00  0.00    -0.013 Cl 
HETATM    2  C   UNL     1      -6.051   3.819  65.770  1.00  0.00    -0.027 A  
HETATM    3  C   UNL     1      -5.156   3.673  66.827  1.00  0.00    -0.008 A  
HETATM    4  C   UNL     1      -5.239   4.529  67.915  1.00  0.00    -0.011 A  
HETATM    5  C   UNL     1      -6.242   5.498  67.961  1.00  0.00    -0.037 A  
HETATM    6  C   UNL     1      -7.184   5.679  66.924  1.00  0.00    -0.078 A  
HETATM    7  C   UNL     1      -7.036   4.831  65.788  1.00  0.00    -0.067 A  
HETATM    8 CL   UNL     1      -7.971   5.074  64.335  1.00  0.00    -0.097 Cl 
ENDROOT
BRANCH   6   9
HETATM    9  N   UNL     1      -8.196   6.614  67.111  1.00  0.00    -0.113 NA 
HETATM   10  C   UNL     1      -8.977   7.160  65.985  1.00  0.00    -0.111 C  
HETATM   11  C   UNL     1     -10.479   7.254  66.336  1.00  0.00     0.242 C  
HETATM   12  N   UNL     1     -10.781   7.961  67.601  1.00  0.00    -0.191 NA 
HETATM   13  C   UNL     1      -8.493   7.201  68.434  1.00  0.00    -0.124 C  
HETATM   14  C   UNL     1     -10.022   7.271  68.673  1.00  0.00    -0.166 C  
BRANCH  12  15
HETATM   15  C   UNL     1     -10.435   9.391  67.539  1.00  0.00    -0.280 C  
BRANCH  15  16
HETATM   16  C   UNL     1     -11.660  10.325  67.532  1.00  0.00     0.521 C  
BRANCH  16  17
HETATM   17  C   UNL     1     -11.525  11.556  68.434  1.00  0.00    -0.364 C  
BRANCH  17  18
HETATM   18  C   UNL     1     -10.269  11.463  69.287  1.00  0.00     0.021 C  
BRANCH  18  19
HETATM   19  O   UNL     1      -9.112  11.799  68.522  1.00  0.00    -0.190 OA 
BRANCH  19  20
HETATM   20  C   UNL     1      -9.227  12.991  67.847  1.00  0.00    -0.208 A  
HETATM   21  C   UNL     1      -9.320  14.128  68.654  1.00  0.00    -0.152 A  
HETATM   22  C   UNL     1      -9.445  15.385  68.061  1.00  0.00    -0.201 A  
HETATM   23  C   UNL     1      -9.474  15.519  66.666  1.00  0.00    -0.281 A  
HETATM   24  C   UNL     1      -9.346  14.384  65.869  1.00  0.00    -0.100 A  
HETATM   25  C   UNL     1      -9.513  16.886  66.048  1.00  0.00    -0.227 C  
HETATM   26  C   UNL     1      -9.217  13.130  66.455  1.00  0.00    -0.185 A  
HETATM   27  C   UNL     1     -10.185  17.897  66.958  1.00  0.00    -0.359 C  
HETATM   28  C   UNL     1      -9.714  17.789  68.391  1.00  0.00    -0.333 C  
HETATM   29  O   UNL     1      -9.642  18.764  69.132  1.00  0.00    -0.277 OA 
HETATM   30  N   UNL     1      -9.492  16.525  68.865  1.00  0.00    -0.254 N  
HETATM   31  H   UNL     1      -9.351  16.409  69.868  1.00  0.00     0.000 HD 
ENDBRANCH  19  20
ENDBRANCH  18  19
ENDBRANCH  17  18
ENDBRANCH  16  17
ENDBRANCH  15  16
ENDBRANCH  12  15
ENDBRANCH   6   9
TORSDOF 7
ENDMDL
MODEL      307
REMARK 921   NORMALIZED FREE ENERGY PREDICTED BY IDOCK:   -1.11 KCAL/MOL
REMARK 922        TOTAL FREE ENERGY PREDICTED BY IDOCK:   -3.17 KCAL/MOL
REMARK 923 INTER-LIGAND FREE ENERGY PREDICTED BY IDOCK:   -5.64 KCAL/MOL
REMARK 924 INTRA-LIGAND FREE ENERGY PREDICTED BY IDOCK:    2.47 KCAL/MOL
REMARK 927      BINDING AFFINITY PREDICTED BY RF-SCORE:    0.00 PKD
ROOT
HETATM    1 CL   UNL     1      -6.636  18.570  65.351  1.00  0.00    -0.300 Cl 
HETATM    2  C   UNL     1      -6.536  17.158  66.356  1.00  0.00    -0.216 A  
HETATM    3  C   UNL     1      -5.317  16.939  66.994  1.00  0.00    -0.185 A  
HETATM    4  C   UNL     1      -5.160  15.821  67.800  1.00  0.00    -0.127 A  
HETATM    5  C   UNL     1      -6.206  14.906  67.929  1.00  0.00    -0.175 A  
HETATM    6  C   UNL     1      -7.456  15.072  67.292  1.00  0.00    -0.181 A  
HETATM    7  C   UNL     1      -7.614  16.261  66.523  1.00  0.00    -0.183 A  
HETATM    8 CL   UNL     1      -9.161  16.724  65.860  1.00  0.00    -0.210 Cl 
ENDROOT
BRANCH   6   9
HETATM    9  N   UNL     1      -8.397  14.055  67.416  1.00  0.00    -0.186 NA 
HETATM   10  C   UNL     1      -9.420  13.803  66.384  1.00  0.00    -0.243 C  
HETATM   11  C   UNL     1      -9.598  12.290  66.126  1.00  0.00    -0.240 C  
HETATM   12  N   UNL     1      -9.836  11.474  67.339  1.00  0.00    -0.185 NA 
HETATM   13  C   UNL     1      -8.503  13.223  68.632  1.00  0.00     0.017 C  
HETATM   14  C   UNL     1      -8.703  11.733  68.261  1.00  0.00    -0.167 C  
BRANCH  12  15
HETATM   15  C   UNL     1     -11.125  11.787  67.978  1.00  0.00    -0.242 C  
BRANCH  15  16
HETATM   16  C   UNL     1     -11.065  11.798  69.518  1.00  0.00    -0.199 C  
BRANCH  16  17
HETATM   17  C   UNL     1     -10.989  10.409  70.160  1.00  0.00    -0.365 C  
BRANCH  17  18
HETATM   18  C   UNL     1     -10.171   9.461  69.295  1.00  0.00    -0.202 C  
BRANCH  18  19
HETATM   19  O   UNL     1     -10.847   8.216  69.131  1.00  0.00    -0.149 OA 
BRANCH  19  20
HETATM   20  C   UNL     1     -10.972   7.499  70.297  1.00  0.00    -0.250 A  
HETATM   21  C   UNL     1     -10.657   6.141  70.199  1.00  0.00    -0.321 A  
HETATM   22  C   UNL     1     -10.758   5.328  71.328  1.00  0.00    -0.128 A  
HETATM   23  C   UNL     1     -11.167   5.858  72.559  1.00  0.00    -0.341 A  
HETATM   24  C   UNL     1     -11.446   7.220  72.656  1.00  0.00    -0.304 A  
HETATM   25  C   UNL     1     -11.178   4.987  73.781  1.00  0.00    -0.127 C  
HETATM   26  C   UNL     1     -11.342   8.034  71.534  1.00  0.00    -0.299 A  
HETATM   27  C   UNL     1     -11.400   3.528  73.431  1.00  0.00    -0.203 C  
HETATM   28  C   UNL     1     -10.558   3.078  72.259  1.00  0.00     0.159 C  
HETATM   29  O   UNL     1     -10.131   1.933  72.160  1.00  0.00    -0.144 OA 
HETATM   30  N   UNL     1     -10.400   3.980  71.242  1.00  0.00     0.060 N  
HETATM   31  H   UNL     1      -9.996   3.648  70.367  1.00  0.00     0.000 HD 
ENDBRANCH  19  20
ENDBRANCH  18  19
ENDBRANCH  17  18
ENDBRANCH  16  17
ENDBRANCH  15  16
ENDBRANCH  12  15
ENDBRANCH   6   9
TORSDOF 7
ENDMDL
MODEL      308
REMARK 921   NORMALIZED FREE ENERGY PREDICTED BY IDOCK:   -1.04 KCAL/MOL
REMARK 922        TOTAL FREE ENERGY PREDICTED BY IDOCK:   -3.07 KCAL/MOL
REMARK 923 INTER-LIGAND FREE ENERGY PREDICTED BY IDOCK:   -3.21 KCAL/MOL
REMARK 924 INTRA-LIGAND FREE ENERGY PREDICTED BY IDOCK:    0.14 KCAL/MOL
REMARK 927      BINDING AFFINITY PREDICTED BY RF-SCORE:    0.00 PKD
ROOT
HETATM    1 CL   UNL     1     -11.788   7.931  70.433  1.00  0.00    -0.034 Cl 
HETATM    2  C   UNL     1     -11.338   8.731  68.960  1.00  0.00     0.507 A  
HETATM    3  C   UNL     1     -10.866   7.915  67.934  1.00  0.00    -0.063 A  
HETATM    4  C   UNL     1     -10.473   8.487  66.733  1.00  0.00    -0.308 A  
HETATM    5  C   UNL     1     -10.513   9.873  66.579  1.00  0.00    -0.213 A  
HETATM    6  C   UNL     1     -10.968  10.747  67.592  1.00  0.00    -0.306 A  
HETATM    7  C   UNL     1     -11.427  10.130  68.791  1.00  0.00    -0.047 A  
HETATM    8 CL   UNL     1     -12.225  11.045  70.045  1.00  0.00    -0.404 Cl 
ENDROOT
BRANCH   6   9
HETATM    9  N   UNL     1     -10.882  12.116  67.366  1.00  0.00    -0.236 NA 
HETATM   10  C   UNL     1     -11.988  12.883  66.763  1.00  0.00    -0.350 C  
HETATM   11  C   UNL     1     -12.192  14.236  67.480  1.00  0.00    -0.202 C  
HETATM   12  N   UNL     1     -10.970  15.061  67.617  1.00  0.00    -0.295 NA 
HETATM   13  C   UNL     1      -9.643  12.882  67.620  1.00  0.00    -0.196 C  
HETATM   14  C   UNL     1      -9.963  14.227  68.318  1.00  0.00    -0.239 C  
BRANCH  12  15
HETATM   15  C   UNL     1     -10.462  15.526  66.315  1.00  0.00    -0.307 C  
BRANCH  15  16
HETATM   16  C   UNL     1      -8.927  15.655  66.260  1.00  0.00    -0.377 C  
BRANCH  16  17
HETATM   17  C   UNL     1      -8.421  16.947  65.611  1.00  0.00     0.540 C  
BRANCH  17  18
HETATM   18  C   UNL     1      -6.934  17.133  65.870  1.00  0.00     0.121 C  
BRANCH  18  19
HETATM   19  O   UNL     1      -6.672  17.225  67.269  1.00  0.00    -0.141 OA 
BRANCH  19  20
HETATM   20  C   UNL     1      -6.442  16.009  67.868  1.00  0.00    -0.143 A  
HETATM   21  C   UNL     1      -6.353  16.038  69.262  1.00  0.00    -0.158 A  
HETATM   22  C   UNL     1      -6.116  14.854  69.961  1.00  0.00    -0.148 A  
HETATM   23  C   UNL     1      -5.970  13.637  69.281  1.00  0.00    -0.090 A  
HETATM   24  C   UNL     1      -6.094  13.612  67.893  1.00  0.00    -0.154 A  
HETATM   25  C   UNL     1      -5.811  12.362  70.057  1.00  0.00    -0.151 C  
HETATM   26  C   UNL     1      -6.335  14.789  67.193  1.00  0.00     0.550 A  
HETATM   27  C   UNL     1      -5.160  12.602  71.406  1.00  0.00    -0.146 C  
HETATM   28  C   UNL     1      -5.747  13.792  72.129  1.00  0.00     0.016 C  
HETATM   29  O   UNL     1      -5.826  13.843  73.352  1.00  0.00    -0.461 OA 
HETATM   30  N   UNL     1      -6.073  14.873  71.356  1.00  0.00     0.222 N  
HETATM   31  H   UNL     1      -6.298  15.749  71.829  1.00  0.00     0.000 HD 
ENDBRANCH  19  20
ENDBRANCH  18  19
ENDBRANCH  17  18
ENDBRANCH  16  17
ENDBRANCH  15  16
ENDBRANCH  12  15
ENDBRANCH   6   9
TORSDOF 7
ENDMDL
MODEL      309
REMARK 921   NORMALIZED FREE ENERGY PREDICTED BY IDOCK:   -0.45 KCAL/MOL
REMARK 922        TOTAL FREE ENERGY PREDICTED BY IDOCK:   -2.24 KCAL/MOL
REMARK 923 INTER-LIGAND FREE ENERGY PREDICTED BY IDOCK:   -5.09 KCAL/MOL
REMARK 924 INTRA-LIGAND FREE ENERGY PREDICTED BY IDOCK:    2.85 KCAL/MOL
REMARK 927      BINDING AFFINITY PREDICTED BY RF-SCORE:    0.00 PKD
ROOT
HETATM    1 CL   UNL     1      -5.941   2.794  64.495  1.00  0.00    -0.017 Cl 
HETATM    2  C   UNL     1      -6.132   3.786  65.907  1.00  0.00    -0.028 A  
HETATM    3  C   UNL     1      -5.273   3.517  66.971  1.00  0.00    -0.012 A  
HETATM    4  C   UNL     1      -5.378   4.261  68.137  1.00  0.00    -0.012 A  
HETATM    5  C   UNL     1      -6.369   5.237  68.250  1.00  0.00    -0.035 A  
HETATM    6  C   UNL     1      -7.275   5.539  67.209  1.00  0.00    -0.075 A  
HETATM    7  C   UNL     1      -7.103   4.807  65.998  1.00  0.00    -0.075 A  
HETATM    8 CL   UNL     1      -7.987   5.213  64.549  1.00  0.00    -0.100 Cl 
ENDROOT
BRANCH   6   9
HETATM    9  N   UNL     1      -8.278   6.467  67.459  1.00  0.00    -0.120 NA 
HETATM   10  C   UNL     1      -9.421   6.653  66.545  1.00  0.00    -0.152 C  
HETATM   11  C   UNL     1     -10.746   6.813  67.325  1.00  0.00    -0.353 C  
HETATM   12  N   UNL     1     -10.724   7.846  68.386  1.00  0.00    -0.088 NA 
HETATM   13  C   UNL     1      -8.221   7.403  68.602  1.00  0.00    -0.125 C  
HETATM   14  C   UNL     1      -9.602   7.507  69.295  1.00  0.00    -0.158 C  
BRANCH  12  15
HETATM   15  C   UNL     1     -10.573   9.205  67.839  1.00  0.00    -0.214 C  
BRANCH  15  16
HETATM   16  C   UNL     1      -9.369   9.975  68.416  1.00  0.00    -0.139 C  
BRANCH  16  17
HETATM   17  C   UNL     1      -8.525  10.710  67.369  1.00  0.00    -0.122 C  
BRANCH  17  18
HETATM   18  C   UNL     1      -8.868  10.230  65.967  1.00  0.00    -0.149 C  
BRANCH  18  19
HETATM   19  O   UNL     1     -10.189  10.627  65.605  1.00  0.00    -0.255 OA 
BRANCH  19  20
HETATM   20  C   UNL     1     -10.591  11.804  66.192  1.00  0.00    -0.260 A  
HETATM   21  C   UNL     1      -9.677  12.857  66.101  1.00  0.00    -0.250 A  
HETATM   22  C   UNL     1      -9.991  14.091  66.671  1.00  0.00    -0.278 A  
HETATM   23  C   UNL     1     -11.213  14.286  67.329  1.00  0.00    -0.330 A  
HETATM   24  C   UNL     1     -12.132  13.241  67.385  1.00  0.00    -0.327 A  
HETATM   25  C   UNL     1     -11.571  15.647  67.851  1.00  0.00    -0.195 C  
HETATM   26  C   UNL     1     -11.825  12.011  66.815  1.00  0.00    -0.244 A  
HETATM   27  C   UNL     1     -10.338  16.456  68.208  1.00  0.00    -0.279 C  
HETATM   28  C   UNL     1      -9.264  16.374  67.147  1.00  0.00    -0.213 C  
HETATM   29  O   UNL     1      -8.501  17.305  66.913  1.00  0.00    -0.207 OA 
HETATM   30  N   UNL     1      -9.099  15.158  66.542  1.00  0.00    -0.278 N  
HETATM   31  H   UNL     1      -8.273  15.022  65.959  1.00  0.00     0.000 HD 
ENDBRANCH  19  20
ENDBRANCH  18  19
ENDBRANCH  17  18
ENDBRANCH  16  17
ENDBRANCH  15  16
ENDBRANCH  12  15
ENDBRANCH   6   9
TORSDOF 7
ENDMDL
MODEL      310
REMARK 921   NORMALIZED FREE ENERGY PREDICTED BY IDOCK:    0.29 KCAL/MOL
REMARK 922        TOTAL FREE ENERGY PREDICTED BY IDOCK:   -1.19 KCAL/MOL
REMARK 923 INTER-LIGAND FREE ENERGY PREDICTED BY IDOCK:   -2.73 KCAL/MOL
REMARK 924 INTRA-LIGAND FREE ENERGY PREDICTED BY IDOCK:    1.55 KCAL/MOL
REMARK 927      BINDING AFFINITY PREDICTED BY RF-SCORE:    0.00 PKD
ROOT
HETATM    1 CL   UNL     1      -6.329  18.423  65.147  1.00  0.00    -0.233 Cl 
HETATM    2  C   UNL     1      -6.278  17.201  66.378  1.00  0.00    -0.167 A  
HETATM    3  C   UNL     1      -5.242  17.300  67.304  1.00  0.00    -0.160 A  
HETATM    4  C   UNL     1      -5.130  16.348  68.307  1.00  0.00    -0.107 A  
HETATM    5  C   UNL     1      -6.026  15.280  68.352  1.00  0.00    -0.107 A  
HETATM    6  C   UNL     1      -7.084  15.122  67.430  1.00  0.00    -0.187 A  
HETATM    7  C   UNL     1      -7.217  16.148  66.449  1.00  0.00     0.280 A  
HETATM    8 CL   UNL     1      -8.597  16.223  65.382  1.00  0.00     0.955 Cl 
ENDROOT
BRANCH   6   9
HETATM    9  N   UNL     1      -7.863  13.974  67.512  1.00  0.00    -0.174 NA 
HETATM   10  C   UNL     1      -8.580  13.427  66.345  1.00  0.00     0.358 C  
HETATM   11  C   UNL     1      -8.465  11.887  66.284  1.00  0.00     0.031 C  
HETATM   12  N   UNL     1      -8.841  11.184  67.532  1.00  0.00    -0.138 NA 
HETATM   13  C   UNL     1      -8.111  13.278  68.792  1.00  0.00     0.063 C  
HETATM   14  C   UNL     1      -7.995  11.744  68.614  1.00  0.00    -0.116 C  
BRANCH  12  15
HETATM   15  C   UNL     1     -10.272  11.330  67.846  1.00  0.00    -0.181 C  
BRANCH  15  16
HETATM   16  C   UNL     1     -10.545  11.790  69.291  1.00  0.00    -0.052 C  
BRANCH  16  17
HETATM   17  C   UNL     1     -11.268  13.136  69.403  1.00  0.00    -0.210 C  
BRANCH  17  18
HETATM   18  C   UNL     1     -12.276  13.301  68.275  1.00  0.00    -0.059 C  
BRANCH  18  19
HETATM   19  O   UNL     1     -11.698  14.008  67.179  1.00  0.00    -0.349 OA 
BRANCH  19  20
HETATM   20  C   UNL     1     -11.251  15.265  67.509  1.00  0.00    -0.317 A  
HETATM   21  C   UNL     1     -11.326  16.213  66.485  1.00  0.00     0.360 A  
HETATM   22  C   UNL     1     -10.891  17.517  66.721  1.00  0.00     0.009 A  
HETATM   23  C   UNL     1     -10.384  17.888  67.974  1.00  0.00    -0.394 A  
HETATM   24  C   UNL     1     -10.345  16.946  69.000  1.00  0.00    -0.333 A  
HETATM   25  C   UNL     1     -10.011  19.318  68.235  1.00  0.00    -0.497 C  
HETATM   26  C   UNL     1     -10.782  15.646  68.770  1.00  0.00    -0.250 A  
HETATM   27  C   UNL     1      -9.589  20.031  66.965  1.00  0.00    -0.542 C  
HETATM   28  C   UNL     1     -10.520  19.751  65.807  1.00  0.00    -0.445 C  
HETATM   29  O   UNL     1     -10.742  20.580  64.930  1.00  0.00     0.256 OA 
HETATM   30  N   UNL     1     -11.007  18.476  65.713  1.00  0.00    -0.026 N  
HETATM   31  H   UNL     1     -11.486  18.210  64.853  1.00  0.00     0.000 HD 
ENDBRANCH  19  20
ENDBRANCH  18  19
ENDBRANCH  17  18
ENDBRANCH  16  17
ENDBRANCH  15  16
ENDBRANCH  12  15
ENDBRANCH   6   9
TORSDOF 7
ENDMDL
MODEL      311
REMARK 921   NORMALIZED FREE ENERGY PREDICTED BY IDOCK:    0.44 KCAL/MOL
REMARK 922        TOTAL FREE ENERGY PREDICTED BY IDOCK:   -0.99 KCAL/MOL
REMARK 923 INTER-LIGAND FREE ENERGY PREDICTED BY IDOCK:   -1.55 KCAL/MOL
REMARK 924 INTRA-LIGAND FREE ENERGY PREDICTED BY IDOCK:    0.57 KCAL/MOL
REMARK 927      BINDING AFFINITY PREDICTED BY RF-SCORE:    0.00 PKD
ROOT
HETATM    1 CL   UNL     1      -9.132   7.350  65.089  1.00  0.00     0.337 Cl 
HETATM    2  C   UNL     1      -9.514   6.527  66.568  1.00  0.00    -0.154 A  
HETATM    3  C   UNL     1     -10.684   5.771  66.569  1.00  0.00    -0.274 A  
HETATM    4  C   UNL     1     -11.061   5.097  67.722  1.00  0.00     0.954 A  
HETATM    5  C   UNL     1     -10.290   5.219  68.879  1.00  0.00    -0.228 A  
HETATM    6  C   UNL     1      -9.105   5.984  68.937  1.00  0.00    -0.121 A  
HETATM    7  C   UNL     1      -8.704   6.612  67.722  1.00  0.00    -0.116 A  
HETATM    8 CL   UNL     1      -7.157   7.403  67.566  1.00  0.00    -0.086 Cl 
ENDROOT
BRANCH   6   9
HETATM    9  N   UNL     1      -8.462   6.109  70.164  1.00  0.00    -0.131 NA 
HETATM   10  C   UNL     1      -8.788   5.242  71.312  1.00  0.00    -0.136 C  
HETATM   11  C   UNL     1      -7.511   4.788  72.054  1.00  0.00    -0.082 C  
HETATM   12  N   UNL     1      -6.592   5.882  72.442  1.00  0.00    -0.065 NA 
HETATM   13  C   UNL     1      -7.483   7.182  70.436  1.00  0.00    -0.084 C  
HETATM   14  C   UNL     1      -6.258   6.624  71.202  1.00  0.00    -0.040 C  
BRANCH  12  15
HETATM   15  C   UNL     1      -7.182   6.774  73.454  1.00  0.00    -0.075 C  
BRANCH  15  16
HETATM   16  C   UNL     1      -7.297   8.241  72.995  1.00  0.00    -0.146 C  
BRANCH  16  17
HETATM   17  C   UNL     1      -6.224   9.172  73.569  1.00  0.00     0.171 C  
BRANCH  17  18
HETATM   18  C   UNL     1      -5.402   9.798  72.453  1.00  0.00     0.031 C  
BRANCH  18  19
HETATM   19  O   UNL     1      -6.130   9.797  71.226  1.00  0.00    -0.175 OA 
BRANCH  19  20
HETATM   20  C   UNL     1      -6.271  11.046  70.669  1.00  0.00     0.035 A  
HETATM   21  C   UNL     1      -7.229  11.142  69.657  1.00  0.00    -0.016 A  
HETATM   22  C   UNL     1      -7.441  12.369  69.025  1.00  0.00     0.075 A  
HETATM   23  C   UNL     1      -6.708  13.503  69.397  1.00  0.00    -0.051 A  
HETATM   24  C   UNL     1      -5.778  13.405  70.430  1.00  0.00    -0.164 A  
HETATM   25  C   UNL     1      -7.018  14.831  68.772  1.00  0.00    -0.103 C  
HETATM   26  C   UNL     1      -5.566  12.187  71.065  1.00  0.00    -0.037 A  
HETATM   27  C   UNL     1      -7.589  14.677  67.374  1.00  0.00    -0.218 C  
HETATM   28  C   UNL     1      -8.649  13.602  67.297  1.00  0.00    -0.214 C  
HETATM   29  O   UNL     1      -9.599  13.673  66.524  1.00  0.00    -0.276 OA 
HETATM   30  N   UNL     1      -8.431  12.478  68.045  1.00  0.00    -0.165 N  
HETATM   31  H   UNL     1      -9.028  11.668  67.877  1.00  0.00     0.000 HD 
ENDBRANCH  19  20
ENDBRANCH  18  19
ENDBRANCH  17  18
ENDBRANCH  16  17
ENDBRANCH  15  16
ENDBRANCH  12  15
ENDBRANCH   6   9
TORSDOF 7
ENDMDL
MODEL      312
REMARK 921   NORMALIZED FREE ENERGY PREDICTED BY IDOCK:    1.17 KCAL/MOL
REMARK 922        TOTAL FREE ENERGY PREDICTED BY IDOCK:    0.04 KCAL/MOL
REMARK 923 INTER-LIGAND FREE ENERGY PREDICTED BY IDOCK:   -1.18 KCAL/MOL
REMARK 924 INTRA-LIGAND FREE ENERGY PREDICTED BY IDOCK:    1.22 KCAL/MOL
REMARK 927      BINDING AFFINITY PREDICTED BY RF-SCORE:    0.00 PKD
ROOT
HETATM    1 CL   UNL     1      -9.709   7.102  65.950  1.00  0.00     0.179 Cl 
HETATM    2  C   UNL     1      -9.816   6.629  67.617  1.00  0.00    -0.126 A  
HETATM    3  C   UNL     1     -10.989   5.983  68.001  1.00  0.00    -0.340 A  
HETATM    4  C   UNL     1     -11.150   5.590  69.322  1.00  0.00     0.115 A  
HETATM    5  C   UNL     1     -10.160   5.885  70.259  1.00  0.00    -0.260 A  
HETATM    6  C   UNL     1      -8.960   6.552  69.927  1.00  0.00    -0.143 A  
HETATM    7  C   UNL     1      -8.789   6.885  68.552  1.00  0.00    -0.124 A  
HETATM    8 CL   UNL     1      -7.276   7.506  67.941  1.00  0.00    -0.088 Cl 
ENDROOT
BRANCH   6   9
HETATM    9  N   UNL     1      -8.080   6.874  70.955  1.00  0.00    -0.112 NA 
HETATM   10  C   UNL     1      -8.139   6.216  72.273  1.00  0.00    -0.109 C  
HETATM   11  C   UNL     1      -6.725   5.879  72.797  1.00  0.00    -0.073 C  
HETATM   12  N   UNL     1      -5.773   7.014  72.797  1.00  0.00    -0.041 NA 
HETATM   13  C   UNL     1      -7.093   7.968  70.834  1.00  0.00    -0.049 C  
HETATM   14  C   UNL     1      -5.722   7.534  71.409  1.00  0.00    -0.035 C  
BRANCH  12  15
HETATM   15  C   UNL     1      -6.163   8.069  73.748  1.00  0.00    -0.090 C  
BRANCH  15  16
HETATM   16  C   UNL     1      -6.410   9.438  73.085  1.00  0.00     0.499 C  
BRANCH  16  17
HETATM   17  C   UNL     1      -5.137  10.165  72.638  1.00  0.00     0.041 C  
BRANCH  17  18
HETATM   18  C   UNL     1      -5.241  10.582  71.179  1.00  0.00    -0.091 C  
BRANCH  18  19
HETATM   19  O   UNL     1      -6.544  11.082  70.886  1.00  0.00    -0.175 OA 
BRANCH  19  20
HETATM   20  C   UNL     1      -6.788  11.230  69.541  1.00  0.00    -0.115 A  
HETATM   21  C   UNL     1      -8.131  11.140  69.166  1.00  0.00    -0.030 A  
HETATM   22  C   UNL     1      -8.479  11.271  67.821  1.00  0.00    -0.126 A  
HETATM   23  C   UNL     1      -7.499  11.496  66.845  1.00  0.00    -0.145 A  
HETATM   24  C   UNL     1      -6.166  11.618  67.233  1.00  0.00    -0.115 A  
HETATM   25  C   UNL     1      -7.904  11.729  65.419  1.00  0.00     1.201 C  
HETATM   26  C   UNL     1      -5.815  11.493  68.572  1.00  0.00    -0.045 A  
HETATM   27  C   UNL     1      -9.214  11.040  65.085  1.00  0.00    -0.227 C  
HETATM   28  C   UNL     1     -10.264  11.244  66.153  1.00  0.00    -0.245 C  
HETATM   29  O   UNL     1     -11.461  11.308  65.892  1.00  0.00    -0.127 OA 
HETATM   30  N   UNL     1      -9.825  11.228  67.449  1.00  0.00    -0.180 N  
HETATM   31  H   UNL     1     -10.524  11.181  68.190  1.00  0.00     0.000 HD 
ENDBRANCH  19  20
ENDBRANCH  18  19
ENDBRANCH  17  18
ENDBRANCH  16  17
ENDBRANCH  15  16
ENDBRANCH  12  15
ENDBRANCH   6   9
TORSDOF 7
ENDMDL
MODEL      313
REMARK 921   NORMALIZED FREE ENERGY PREDICTED BY IDOCK:    1.32 KCAL/MOL
REMARK 922        TOTAL FREE ENERGY PREDICTED BY IDOCK:    0.26 KCAL/MOL
REMARK 923 INTER-LIGAND FREE ENERGY PREDICTED BY IDOCK:   -1.96 KCAL/MOL
REMARK 924 INTRA-LIGAND FREE ENERGY PREDICTED BY IDOCK:    2.21 KCAL/MOL
REMARK 927      BINDING AFFINITY PREDICTED BY RF-SCORE:    0.00 PKD
ROOT
HETATM    1 CL   UNL     1      -7.505  16.077  70.623  1.00  0.00     1.718 Cl 
HETATM    2  C   UNL     1      -7.058  14.967  69.366  1.00  0.00    -0.175 A  
HETATM    3  C   UNL     1      -5.701  14.900  69.055  1.00  0.00    -0.096 A  
HETATM    4  C   UNL     1      -5.272  14.046  68.050  1.00  0.00    -0.098 A  
HETATM    5  C   UNL     1      -6.205  13.298  67.331  1.00  0.00    -0.007 A  
HETATM    6  C   UNL     1      -7.593  13.339  67.593  1.00  0.00    -0.170 A  
HETATM    7  C   UNL     1      -8.000  14.174  68.674  1.00  0.00    -0.132 A  
HETATM    8 CL   UNL     1      -9.641  14.166  69.270  1.00  0.00     0.138 Cl 
ENDROOT
BRANCH   6   9
HETATM    9  N   UNL     1      -8.442  12.622  66.759  1.00  0.00    -0.110 NA 
HETATM   10  C   UNL     1      -9.716  13.180  66.268  1.00  0.00    -0.265 C  
HETATM   11  C   UNL     1      -9.939  12.847  64.776  1.00  0.00    -0.129 C  
HETATM   12  N   UNL     1      -9.803  11.414  64.429  1.00  0.00    -0.251 NA 
HETATM   13  C   UNL     1      -8.179  11.216  66.386  1.00  0.00    -0.164 C  
HETATM   14  C   UNL     1      -8.456  10.987  64.880  1.00  0.00     0.112 C  
BRANCH  12  15
HETATM   15  C   UNL     1     -10.856  10.589  65.044  1.00  0.00     0.259 C  
BRANCH  15  16
HETATM   16  C   UNL     1     -10.821  10.587  66.584  1.00  0.00    -0.166 C  
BRANCH  16  17
HETATM   17  C   UNL     1     -11.094   9.221  67.223  1.00  0.00     0.219 C  
BRANCH  17  18
HETATM   18  C   UNL     1     -10.278   9.051  68.496  1.00  0.00    -0.200 C  
BRANCH  18  19
HETATM   19  O   UNL     1     -10.744   7.933  69.250  1.00  0.00    -0.211 OA 
BRANCH  19  20
HETATM   20  C   UNL     1     -10.339   6.721  68.745  1.00  0.00    -0.196 A  
HETATM   21  C   UNL     1     -10.145   6.685  67.362  1.00  0.00    -0.211 A  
HETATM   22  C   UNL     1      -9.739   5.497  66.755  1.00  0.00    -0.155 A  
HETATM   23  C   UNL     1      -9.519   4.341  67.516  1.00  0.00    -0.216 A  
HETATM   24  C   UNL     1      -9.682   4.394  68.899  1.00  0.00    -0.211 A  
HETATM   25  C   UNL     1      -8.991   3.101  66.857  1.00  0.00    -0.177 C  
HETATM   26  C   UNL     1     -10.083   5.578  69.509  1.00  0.00    -0.305 A  
HETATM   27  C   UNL     1      -9.392   3.025  65.395  1.00  0.00    -0.114 C  
HETATM   28  C   UNL     1      -9.198   4.339  64.673  1.00  0.00    -0.156 C  
HETATM   29  O   UNL     1      -8.898   4.396  63.485  1.00  0.00    -0.123 OA 
HETATM   30  N   UNL     1      -9.500   5.472  65.379  1.00  0.00    -0.365 N  
HETATM   31  H   UNL     1      -9.554   6.353  64.869  1.00  0.00     0.000 HD 
ENDBRANCH  19  20
ENDBRANCH  18  19
ENDBRANCH  17  18
ENDBRANCH  16  17
ENDBRANCH  15  16
ENDBRANCH  12  15
ENDBRANCH   6   9
TORSDOF 7
ENDMDL
MODEL      314
REMARK 921   NORMALIZED FREE ENERGY PREDICTED BY IDOCK:    1.91 KCAL/MOL
REMARK 922        TOTAL FREE ENERGY PREDICTED BY IDOCK:    1.08 KCAL/MOL
REMARK 923 INTER-LIGAND FREE ENERGY PREDICTED BY IDOCK:   -0.91 KCAL/MOL
REMARK 924 INTRA-LIGAND FREE ENERGY PREDICTED BY IDOCK:    1.99 KCAL/MOL
REMARK 927      BINDING AFFINITY PREDICTED BY RF-SCORE:    0.00 PKD
ROOT
HETATM    1 CL   UNL     1      -6.892  12.760  69.477  1.00  0.00     0.029 Cl 
HETATM    2  C   UNL     1      -6.976  11.033  69.626  1.00  0.00    -0.110 A  
HETATM    3  C   UNL     1      -7.219  10.535  70.905  1.00  0.00     1.176 A  
HETATM    4  C   UNL     1      -7.284   9.163  71.102  1.00  0.00    -0.091 A  
HETATM    5  C   UNL     1      -7.063   8.297  70.030  1.00  0.00    -0.043 A  
HETATM    6  C   UNL     1      -6.798   8.748  68.718  1.00  0.00    -0.062 A  
HETATM    7  C   UNL     1      -6.802  10.161  68.529  1.00  0.00    -0.058 A  
HETATM    8 CL   UNL     1      -6.715  10.873  66.938  1.00  0.00    -0.097 Cl 
ENDROOT
BRANCH   6   9
HETATM    9  N   UNL     1      -6.504   7.801  67.744  1.00  0.00    -0.050 NA 
HETATM   10  C   UNL     1      -6.395   8.152  66.316  1.00  0.00    -0.046 C  
HETATM   11  C   UNL     1      -5.195   7.442  65.651  1.00  0.00    -0.028 C  
HETATM   12  N   UNL     1      -5.146   5.976  65.856  1.00  0.00    -0.012 NA 
HETATM   13  C   UNL     1      -6.381   6.361  68.055  1.00  0.00    -0.036 C  
HETATM   14  C   UNL     1      -5.165   5.744  67.321  1.00  0.00    -0.005 C  
BRANCH  12  15
HETATM   15  C   UNL     1      -6.264   5.282  65.194  1.00  0.00    -0.034 C  
BRANCH  15  16
HETATM   16  C   UNL     1      -7.052   6.173  64.214  1.00  0.00    -0.053 C  
BRANCH  16  17
HETATM   17  C   UNL     1      -6.235   7.311  63.592  1.00  0.00    -0.045 C  
BRANCH  17  18
HETATM   18  C   UNL     1      -6.916   7.840  62.340  1.00  0.00    -0.081 C  
BRANCH  18  19
HETATM   19  O   UNL     1      -8.318   7.998  62.554  1.00  0.00    -0.165 OA 
BRANCH  19  20
HETATM   20  C   UNL     1      -8.646   9.157  63.216  1.00  0.00    -0.175 A  
HETATM   21  C   UNL     1      -9.449   8.989  64.348  1.00  0.00     0.582 A  
HETATM   22  C   UNL     1      -9.841  10.107  65.085  1.00  0.00    -0.325 A  
HETATM   23  C   UNL     1      -9.435  11.394  64.705  1.00  0.00    -0.176 A  
HETATM   24  C   UNL     1      -8.607  11.548  63.596  1.00  0.00     0.559 A  
HETATM   25  C   UNL     1      -9.788  12.572  65.565  1.00  0.00    -0.197 C  
HETATM   26  C   UNL     1      -8.210  10.437  62.861  1.00  0.00    -0.162 A  
HETATM   27  C   UNL     1     -11.072  12.340  66.341  1.00  0.00    -0.345 C  
HETATM   28  C   UNL     1     -11.124  10.969  66.976  1.00  0.00    -0.244 C  
HETATM   29  O   UNL     1     -11.700  10.761  68.039  1.00  0.00    -0.528 OA 
HETATM   30  N   UNL     1     -10.605   9.938  66.241  1.00  0.00    -0.087 N  
HETATM   31  H   UNL     1     -10.787   8.986  66.559  1.00  0.00     0.000 HD 
ENDBRANCH  19  20
ENDBRANCH  18  19
ENDBRANCH  17  18
ENDBRANCH  16  17
ENDBRANCH  15  16
ENDBRANCH  12  15
ENDBRANCH   6   9
TORSDOF 7
ENDMDL
MODEL      315
REMARK 921   NORMALIZED FREE ENERGY PREDICTED BY IDOCK:    1.99 KCAL/MOL
REMARK 922        TOTAL FREE ENERGY PREDICTED BY IDOCK:    1.21 KCAL/MOL
REMARK 923 INTER-LIGAND FREE ENERGY PREDICTED BY IDOCK:    1.06 KCAL/MOL
REMARK 924 INTRA-LIGAND FREE ENERGY PREDICTED BY IDOCK:    0.15 KCAL/MOL
REMARK 927      BINDING AFFINITY PREDICTED BY RF-SCORE:    0.00 PKD
ROOT
HETATM    1 CL   UNL     1      -7.655  16.163  71.113  1.00  0.00     3.685 Cl 
HETATM    2  C   UNL     1      -7.114  15.062  69.886  1.00  0.00    -0.121 A  
HETATM    3  C   UNL     1      -5.769  15.146  69.531  1.00  0.00    -0.102 A  
HETATM    4  C   UNL     1      -5.270  14.306  68.546  1.00  0.00    -0.099 A  
HETATM    5  C   UNL     1      -6.126  13.419  67.891  1.00  0.00    -0.146 A  
HETATM    6  C   UNL     1      -7.499  13.304  68.201  1.00  0.00    -0.128 A  
HETATM    7  C   UNL     1      -7.972  14.131  69.262  1.00  0.00     0.187 A  
HETATM    8 CL   UNL     1      -9.581  13.950  69.916  1.00  0.00     1.237 Cl 
ENDROOT
BRANCH   6   9
HETATM    9  N   UNL     1      -8.279  12.453  67.427  1.00  0.00    -0.171 NA 
HETATM   10  C   UNL     1      -9.664  12.788  67.045  1.00  0.00    -0.224 C  
HETATM   11  C   UNL     1      -9.945  12.421  65.570  1.00  0.00    -0.243 C  
HETATM   12  N   UNL     1      -9.599  11.031  65.196  1.00  0.00    -0.225 NA 
HETATM   13  C   UNL     1      -7.815  11.111  67.018  1.00  0.00    -0.142 C  
HETATM   14  C   UNL     1      -8.168  10.837  65.535  1.00  0.00    -0.104 C  
BRANCH  12  15
HETATM   15  C   UNL     1     -10.447  10.041  65.882  1.00  0.00    -0.045 C  
BRANCH  15  16
HETATM   16  C   UNL     1     -11.465  10.666  66.855  1.00  0.00     0.325 C  
BRANCH  16  17
HETATM   17  C   UNL     1     -11.622   9.912  68.180  1.00  0.00     0.403 C  
BRANCH  17  18
HETATM   18  C   UNL     1     -11.904  10.880  69.319  1.00  0.00    -0.324 C  
BRANCH  18  19
HETATM   19  O   UNL     1     -12.656  10.242  70.350  1.00  0.00    -0.278 OA 
BRANCH  19  20
HETATM   20  C   UNL     1     -11.930   9.326  71.073  1.00  0.00    -0.300 A  
HETATM   21  C   UNL     1     -10.551   9.549  71.106  1.00  0.00    -0.388 A  
HETATM   22  C   UNL     1      -9.729   8.668  71.810  1.00  0.00    -0.291 A  
HETATM   23  C   UNL     1     -10.271   7.567  72.487  1.00  0.00    -0.283 A  
HETATM   24  C   UNL     1     -11.650   7.372  72.477  1.00  0.00    -0.319 A  
HETATM   25  C   UNL     1      -9.380   6.688  73.316  1.00  0.00    -0.150 C  
HETATM   26  C   UNL     1     -12.473   8.249  71.781  1.00  0.00    -0.367 A  
HETATM   27  C   UNL     1      -7.955   6.679  72.796  1.00  0.00    -0.101 C  
HETATM   28  C   UNL     1      -7.452   8.064  72.458  1.00  0.00    -0.111 C  
HETATM   29  O   UNL     1      -6.274   8.382  72.582  1.00  0.00    -0.069 OA 
HETATM   30  N   UNL     1      -8.356   8.915  71.882  1.00  0.00    -0.048 N  
HETATM   31  H   UNL     1      -8.005   9.784  71.480  1.00  0.00     0.000 HD 
ENDBRANCH  19  20
ENDBRANCH  18  19
ENDBRANCH  17  18
ENDBRANCH  16  17
ENDBRANCH  15  16
ENDBRANCH  12  15
ENDBRANCH   6   9
TORSDOF 7
ENDMDL
MODEL      316
REMARK 921   NORMALIZED FREE ENERGY PREDICTED BY IDOCK:    2.26 KCAL/MOL
REMARK 922        TOTAL FREE ENERGY PREDICTED BY IDOCK:    1.58 KCAL/MOL
REMARK 923 INTER-LIGAND FREE ENERGY PREDICTED BY IDOCK:    2.17 KCAL/MOL
REMARK 924 INTRA-LIGAND FREE ENERGY PREDICTED BY IDOCK:   -0.59 KCAL/MOL
REMARK 927      BINDING AFFINITY PREDICTED BY RF-SCORE:    0.00 PKD
ROOT
HETATM    1 CL   UNL     1      -8.790  10.448  71.946  1.00  0.00     5.303 Cl 
HETATM    2  C   UNL     1      -9.438   9.266  70.853  1.00  0.00    -0.261 A  
HETATM    3  C   UNL     1     -10.477   8.476  71.343  1.00  0.00    -0.305 A  
HETATM    4  C   UNL     1     -11.034   7.500  70.530  1.00  0.00    -0.266 A  
HETATM    5  C   UNL     1     -10.520   7.288  69.250  1.00  0.00    -0.221 A  
HETATM    6  C   UNL     1      -9.459   8.048  68.710  1.00  0.00    -0.147 A  
HETATM    7  C   UNL     1      -8.949   9.088  69.540  1.00  0.00    -0.147 A  
HETATM    8 CL   UNL     1      -7.798  10.256  68.943  1.00  0.00    -0.097 Cl 
ENDROOT
BRANCH   6   9
HETATM    9  N   UNL     1      -8.967   7.695  67.459  1.00  0.00    -0.126 NA 
HETATM   10  C   UNL     1      -9.316   8.445  66.238  1.00  0.00    -0.219 C  
HETATM   11  C   UNL     1      -8.082   8.646  65.329  1.00  0.00    -0.136 C  
HETATM   12  N   UNL     1      -7.332   7.410  65.012  1.00  0.00    -0.074 NA 
HETATM   13  C   UNL     1      -8.142   6.486  67.248  1.00  0.00    -0.113 C  
HETATM   14  C   UNL     1      -6.951   6.793  66.307  1.00  0.00    -0.062 C  
BRANCH  12  15
HETATM   15  C   UNL     1      -8.118   6.475  64.188  1.00  0.00    -0.042 C  
BRANCH  15  16
HETATM   16  C   UNL     1      -7.738   4.997  64.396  1.00  0.00    -0.085 C  
BRANCH  16  17
HETATM   17  C   UNL     1      -6.420   4.581  63.736  1.00  0.00    -0.030 C  
BRANCH  17  18
HETATM   18  C   UNL     1      -5.804   3.395  64.463  1.00  0.00    -0.018 C  
BRANCH  18  19
HETATM   19  O   UNL     1      -5.517   3.727  65.820  1.00  0.00    -0.012 OA 
BRANCH  19  20
HETATM   20  C   UNL     1      -6.419   3.206  66.717  1.00  0.00    -0.036 A  
HETATM   21  C   UNL     1      -6.379   3.765  67.997  1.00  0.00    -0.037 A  
HETATM   22  C   UNL     1      -7.252   3.298  68.980  1.00  0.00    -0.049 A  
HETATM   23  C   UNL     1      -8.171   2.279  68.696  1.00  0.00    -0.074 A  
HETATM   24  C   UNL     1      -8.228   1.751  67.408  1.00  0.00    -0.072 A  
HETATM   25  C   UNL     1      -9.165   1.859  69.739  1.00  0.00    -0.168 C  
HETATM   26  C   UNL     1      -7.363   2.216  66.425  1.00  0.00    -0.061 A  
HETATM   27  C   UNL     1      -8.639   2.086  71.144  1.00  0.00    -0.095 C  
HETATM   28  C   UNL     1      -7.985   3.440  71.305  1.00  0.00    -0.059 C  
HETATM   29  O   UNL     1      -8.015   4.059  72.363  1.00  0.00    -0.079 OA 
HETATM   30  N   UNL     1      -7.244   3.888  70.246  1.00  0.00    -0.041 N  
HETATM   31  H   UNL     1      -6.649   4.703  70.390  1.00  0.00     0.000 HD 
ENDBRANCH  19  20
ENDBRANCH  18  19
ENDBRANCH  17  18
ENDBRANCH  16  17
ENDBRANCH  15  16
ENDBRANCH  12  15
ENDBRANCH   6   9
TORSDOF 7
ENDMDL
MODEL      317
REMARK 921   NORMALIZED FREE ENERGY PREDICTED BY IDOCK:    3.65 KCAL/MOL
REMARK 922        TOTAL FREE ENERGY PREDICTED BY IDOCK:    3.54 KCAL/MOL
REMARK 923 INTER-LIGAND FREE ENERGY PREDICTED BY IDOCK:    2.86 KCAL/MOL
REMARK 924 INTRA-LIGAND FREE ENERGY PREDICTED BY IDOCK:    0.68 KCAL/MOL
REMARK 927      BINDING AFFINITY PREDICTED BY RF-SCORE:    0.00 PKD
ROOT
HETATM    1 CL   UNL     1      -5.932   8.862  64.194  1.00  0.00    -0.070 Cl 
HETATM    2  C   UNL     1      -6.120   9.981  65.508  1.00  0.00    -0.089 A  
HETATM    3  C   UNL     1      -5.308   9.769  66.620  1.00  0.00    -0.045 A  
HETATM    4  C   UNL     1      -5.415  10.616  67.714  1.00  0.00    -0.043 A  
HETATM    5  C   UNL     1      -6.362  11.640  67.708  1.00  0.00    -0.067 A  
HETATM    6  C   UNL     1      -7.220  11.889  66.614  1.00  0.00     0.076 A  
HETATM    7  C   UNL     1      -7.045  11.048  65.477  1.00  0.00     0.225 A  
HETATM    8 CL   UNL     1      -7.864  11.363  63.969  1.00  0.00     1.050 Cl 
ENDROOT
BRANCH   6   9
HETATM    9  N   UNL     1      -8.187  12.879  66.748  1.00  0.00     0.009 NA 
HETATM   10  C   UNL     1      -7.857  14.314  66.671  1.00  0.00     0.706 C  
HETATM   11  C   UNL     1      -8.908  15.090  65.846  1.00  0.00     0.344 C  
HETATM   12  N   UNL     1     -10.312  14.877  66.265  1.00  0.00    -0.283 NA 
HETATM   13  C   UNL     1      -9.594  12.568  67.078  1.00  0.00    -0.216 C  
HETATM   14  C   UNL     1     -10.560  13.415  66.213  1.00  0.00    -0.291 C  
BRANCH  12  15
HETATM   15  C   UNL     1     -10.581  15.415  67.609  1.00  0.00    -0.280 C  
BRANCH  15  16
HETATM   16  C   UNL     1      -9.442  16.291  68.165  1.00  0.00    -0.215 C  
BRANCH  16  17
HETATM   17  C   UNL     1      -9.120  16.051  69.643  1.00  0.00     0.037 C  
BRANCH  17  18
HETATM   18  C   UNL     1      -7.616  16.063  69.875  1.00  0.00     0.382 C  
BRANCH  18  19
HETATM   19  O   UNL     1      -7.200  17.307  70.435  1.00  0.00     1.442 OA 
BRANCH  19  20
HETATM   20  C   UNL     1      -6.729  18.200  69.502  1.00  0.00    -0.096 A  
HETATM   21  C   UNL     1      -7.479  18.286  68.326  1.00  0.00    -0.288 A  
HETATM   22  C   UNL     1      -7.077  19.161  67.316  1.00  0.00    -0.210 A  
HETATM   23  C   UNL     1      -5.934  19.957  67.471  1.00  0.00    -0.201 A  
HETATM   24  C   UNL     1      -5.212  19.890  68.661  1.00  0.00    -0.211 A  
HETATM   25  C   UNL     1      -5.574  20.960  66.414  1.00  0.00    -0.252 C  
HETATM   26  C   UNL     1      -5.611  19.023  69.671  1.00  0.00    -0.232 A  
HETATM   27  C   UNL     1      -6.068  20.536  65.043  1.00  0.00    -0.295 C  
HETATM   28  C   UNL     1      -7.493  20.030  65.072  1.00  0.00     0.347 C  
HETATM   29  O   UNL     1      -8.260  20.180  64.127  1.00  0.00     1.930 OA 
HETATM   30  N   UNL     1      -7.850  19.281  66.160  1.00  0.00    -0.304 N  
HETATM   31  H   UNL     1      -8.737  18.779  66.124  1.00  0.00     0.000 HD 
ENDBRANCH  19  20
ENDBRANCH  18  19
ENDBRANCH  17  18
ENDBRANCH  16  17
ENDBRANCH  15  16
ENDBRANCH  12  15
ENDBRANCH   6   9
TORSDOF 7
ENDMDL
MODEL      318
REMARK 921   NORMALIZED FREE ENERGY PREDICTED BY IDOCK:    3.68 KCAL/MOL
REMARK 922        TOTAL FREE ENERGY PREDICTED BY IDOCK:    3.58 KCAL/MOL
REMARK 923 INTER-LIGAND FREE ENERGY PREDICTED BY IDOCK:    0.10 KCAL/MOL
REMARK 924 INTRA-LIGAND FREE ENERGY PREDICTED BY IDOCK:    3.48 KCAL/MOL
REMARK 927      BINDING AFFINITY PREDICTED BY RF-SCORE:    0.00 PKD
ROOT
HETATM    1 CL   UNL     1      -6.310  11.420  62.939  1.00  0.00     0.742 Cl 
HETATM    2  C   UNL     1      -7.818  10.829  63.564  1.00  0.00     0.191 A  
HETATM    3  C   UNL     1      -8.775  10.461  62.621  1.00  0.00    -0.236 A  
HETATM    4  C   UNL     1     -10.009   9.993  63.048  1.00  0.00     0.480 A  
HETATM    5  C   UNL     1     -10.296   9.938  64.413  1.00  0.00     0.854 A  
HETATM    6  C   UNL     1      -9.368  10.313  65.410  1.00  0.00    -0.207 A  
HETATM    7  C   UNL     1      -8.085  10.727  64.947  1.00  0.00     0.066 A  
HETATM    8 CL   UNL     1      -6.760  11.007  66.049  1.00  0.00    -0.075 Cl 
ENDROOT
BRANCH   6   9
HETATM    9  N   UNL     1      -9.787  10.304  66.735  1.00  0.00    -0.189 NA 
HETATM   10  C   UNL     1     -10.006  11.547  67.498  1.00  0.00    -0.190 C  
HETATM   11  C   UNL     1     -11.290  11.465  68.354  1.00  0.00    -0.281 C  
HETATM   12  N   UNL     1     -11.384  10.269  69.223  1.00  0.00    -0.219 NA 
HETATM   13  C   UNL     1      -9.946   9.051  67.504  1.00  0.00    -0.207 C  
HETATM   14  C   UNL     1     -11.248   9.084  68.342  1.00  0.00     0.386 C  
BRANCH  12  15
HETATM   15  C   UNL     1     -10.361  10.267  70.281  1.00  0.00    -0.090 C  
BRANCH  15  16
HETATM   16  C   UNL     1      -9.194   9.297  70.011  1.00  0.00    -0.231 C  
BRANCH  16  17
HETATM   17  C   UNL     1      -8.125   9.841  69.058  1.00  0.00    -0.101 C  
BRANCH  17  18
HETATM   18  C   UNL     1      -7.012  10.529  69.833  1.00  0.00    -0.150 C  
BRANCH  18  19
HETATM   19  O   UNL     1      -5.893   9.659  69.993  1.00  0.00    -0.038 OA 
BRANCH  19  20
HETATM   20  C   UNL     1      -6.151   8.358  69.632  1.00  0.00    -0.032 A  
HETATM   21  C   UNL     1      -5.839   8.033  68.309  1.00  0.00    -0.037 A  
HETATM   22  C   UNL     1      -6.071   6.738  67.846  1.00  0.00    -0.032 A  
HETATM   23  C   UNL     1      -6.609   5.759  68.692  1.00  0.00    -0.048 A  
HETATM   24  C   UNL     1      -6.885   6.082  70.019  1.00  0.00    -0.057 A  
HETATM   25  C   UNL     1      -6.761   4.349  68.202  1.00  0.00    -0.047 C  
HETATM   26  C   UNL     1      -6.652   7.370  70.486  1.00  0.00    -0.043 A  
HETATM   27  C   UNL     1      -6.956   4.293  66.698  1.00  0.00    -0.059 C  
HETATM   28  C   UNL     1      -5.994   5.192  65.956  1.00  0.00    -0.022 C  
HETATM   29  O   UNL     1      -5.567   4.916  64.839  1.00  0.00    -0.013 OA 
HETATM   30  N   UNL     1      -5.717   6.400  66.538  1.00  0.00    -0.013 N  
HETATM   31  H   UNL     1      -5.221   7.096  65.982  1.00  0.00     0.000 HD 
ENDBRANCH  19  20
ENDBRANCH  18  19
ENDBRANCH  17  18
ENDBRANCH  16  17
ENDBRANCH  15  16
ENDBRANCH  12  15
ENDBRANCH   6   9
TORSDOF 7
ENDMDL
MODEL      319
REMARK 921   NORMALIZED FREE ENERGY PREDICTED BY IDOCK:    3.74 KCAL/MOL
REMARK 922        TOTAL FREE ENERGY PREDICTED BY IDOCK:    3.66 KCAL/MOL
REMARK 923 INTER-LIGAND FREE ENERGY PREDICTED BY IDOCK:    2.10 KCAL/MOL
REMARK 924 INTRA-LIGAND FREE ENERGY PREDICTED BY IDOCK:    1.57 KCAL/MOL
REMARK 927      BINDING AFFINITY PREDICTED BY RF-SCORE:    0.00 PKD
ROOT
HETATM    1 CL   UNL     1      -5.371   7.039  74.364  1.00  0.00    -0.050 Cl 
HETATM    2  C   UNL     1      -6.203   7.921  73.121  1.00  0.00    -0.069 A  
HETATM    3  C   UNL     1      -6.899   9.056  73.531  1.00  0.00     0.310 A  
HETATM    4  C   UNL     1      -7.599   9.802  72.594  1.00  0.00     2.643 A  
HETATM    5  C   UNL     1      -7.637   9.384  71.263  1.00  0.00     0.128 A  
HETATM    6  C   UNL     1      -6.963   8.234  70.798  1.00  0.00    -0.043 A  
HETATM    7  C   UNL     1      -6.197   7.523  71.767  1.00  0.00    -0.039 A  
HETATM    8 CL   UNL     1      -5.131   6.217  71.313  1.00  0.00    -0.017 Cl 
ENDROOT
BRANCH   6   9
HETATM    9  N   UNL     1      -7.141   7.859  69.471  1.00  0.00    -0.058 NA 
HETATM   10  C   UNL     1      -7.507   8.831  68.424  1.00  0.00    -0.091 C  
HETATM   11  C   UNL     1      -6.707   8.588  67.124  1.00  0.00    -0.063 C  
HETATM   12  N   UNL     1      -6.751   7.198  66.616  1.00  0.00    -0.058 NA 
HETATM   13  C   UNL     1      -7.074   6.449  69.033  1.00  0.00    -0.081 C  
HETATM   14  C   UNL     1      -6.273   6.322  67.714  1.00  0.00    -0.032 C  
BRANCH  12  15
HETATM   15  C   UNL     1      -8.100   6.808  66.173  1.00  0.00    -0.115 C  
BRANCH  15  16
HETATM   16  C   UNL     1      -8.919   6.076  67.253  1.00  0.00    -0.109 C  
BRANCH  16  17
HETATM   17  C   UNL     1     -10.250   6.749  67.606  1.00  0.00    -0.225 C  
BRANCH  17  18
HETATM   18  C   UNL     1     -10.159   7.446  68.955  1.00  0.00    -0.186 C  
BRANCH  18  19
HETATM   19  O   UNL     1     -11.455   7.610  69.528  1.00  0.00     0.096 OA 
BRANCH  19  20
HETATM   20  C   UNL     1     -11.677   6.811  70.624  1.00  0.00    -0.386 A  
HETATM   21  C   UNL     1     -10.633   5.940  70.949  1.00  0.00    -0.319 A  
HETATM   22  C   UNL     1     -10.766   5.084  72.042  1.00  0.00    -0.135 A  
HETATM   23  C   UNL     1     -11.932   5.090  72.820  1.00  0.00     0.012 A  
HETATM   24  C   UNL     1     -12.954   5.985  72.510  1.00  0.00     0.482 A  
HETATM   25  C   UNL     1     -12.016   4.230  74.047  1.00  0.00     1.423 C  
HETATM   26  C   UNL     1     -12.824   6.843  71.424  1.00  0.00    -0.365 A  
HETATM   27  C   UNL     1     -11.147   2.992  73.928  1.00  0.00    -0.237 C  
HETATM   28  C   UNL     1      -9.771   3.301  73.383  1.00  0.00    -0.105 C  
HETATM   29  O   UNL     1      -8.776   2.666  73.716  1.00  0.00    -0.071 OA 
HETATM   30  N   UNL     1      -9.706   4.246  72.395  1.00  0.00    -0.145 N  
HETATM   31  H   UNL     1      -8.828   4.345  71.885  1.00  0.00     0.000 HD 
ENDBRANCH  19  20
ENDBRANCH  18  19
ENDBRANCH  17  18
ENDBRANCH  16  17
ENDBRANCH  15  16
ENDBRANCH  12  15
ENDBRANCH   6   9
TORSDOF 7
ENDMDL
MODEL      320
REMARK 921   NORMALIZED FREE ENERGY PREDICTED BY IDOCK:    3.74 KCAL/MOL
REMARK 922        TOTAL FREE ENERGY PREDICTED BY IDOCK:    3.67 KCAL/MOL
REMARK 923 INTER-LIGAND FREE ENERGY PREDICTED BY IDOCK:   -2.13 KCAL/MOL
REMARK 924 INTRA-LIGAND FREE ENERGY PREDICTED BY IDOCK:    5.80 KCAL/MOL
REMARK 927      BINDING AFFINITY PREDICTED BY RF-SCORE:    0.00 PKD
ROOT
HETATM    1 CL   UNL     1      -9.669   4.311  68.038  1.00  0.00    -0.196 Cl 
HETATM    2  C   UNL     1      -8.440   5.317  68.740  1.00  0.00    -0.092 A  
HETATM    3  C   UNL     1      -7.620   4.716  69.692  1.00  0.00    -0.058 A  
HETATM    4  C   UNL     1      -6.626   5.464  70.306  1.00  0.00    -0.039 A  
HETATM    5  C   UNL     1      -6.487   6.818  69.998  1.00  0.00    -0.040 A  
HETATM    6  C   UNL     1      -7.302   7.480  69.053  1.00  0.00    -0.087 A  
HETATM    7  C   UNL     1      -8.271   6.674  68.388  1.00  0.00    -0.115 A  
HETATM    8 CL   UNL     1      -9.199   7.282  67.041  1.00  0.00    -0.157 Cl 
ENDROOT
BRANCH   6   9
HETATM    9  N   UNL     1      -7.136   8.851  68.888  1.00  0.00    -0.065 NA 
HETATM   10  C   UNL     1      -5.966   9.570  69.424  1.00  0.00    -0.033 C  
HETATM   11  C   UNL     1      -5.427  10.604  68.409  1.00  0.00    -0.040 C  
HETATM   12  N   UNL     1      -6.442  11.540  67.874  1.00  0.00    -0.054 NA 
HETATM   13  C   UNL     1      -8.167   9.699  68.254  1.00  0.00    -0.106 C  
HETATM   14  C   UNL     1      -7.520  10.712  67.278  1.00  0.00    -0.099 C  
BRANCH  12  15
HETATM   15  C   UNL     1      -6.974  12.439  68.911  1.00  0.00    -0.091 C  
BRANCH  15  16
HETATM   16  C   UNL     1      -6.973  11.824  70.324  1.00  0.00     0.981 C  
BRANCH  16  17
HETATM   17  C   UNL     1      -5.837  12.312  71.228  1.00  0.00     0.476 C  
BRANCH  17  18
HETATM   18  C   UNL     1      -5.686  13.823  71.135  1.00  0.00    -0.212 C  
BRANCH  18  19
HETATM   19  O   UNL     1      -5.408  14.222  69.795  1.00  0.00    -0.092 OA 
BRANCH  19  20
HETATM   20  C   UNL     1      -6.476  14.814  69.163  1.00  0.00    -0.109 A  
HETATM   21  C   UNL     1      -7.635  14.931  69.936  1.00  0.00     0.062 A  
HETATM   22  C   UNL     1      -8.775  15.513  69.381  1.00  0.00    -0.258 A  
HETATM   23  C   UNL     1      -8.769  15.985  68.061  1.00  0.00    -0.171 A  
HETATM   24  C   UNL     1      -7.600  15.895  67.310  1.00  0.00    -0.236 A  
HETATM   25  C   UNL     1      -9.975  16.693  67.516  1.00  0.00    -0.264 C  
HETATM   26  C   UNL     1      -6.460  15.320  67.860  1.00  0.00    -0.172 A  
HETATM   27  C   UNL     1     -11.254  16.229  68.189  1.00  0.00    -0.298 C  
HETATM   28  C   UNL     1     -11.117  16.136  69.691  1.00  0.00    -0.344 C  
HETATM   29  O   UNL     1     -12.056  16.352  70.450  1.00  0.00     0.043 OA 
HETATM   30  N   UNL     1      -9.919  15.673  70.165  1.00  0.00    -0.264 N  
HETATM   31  H   UNL     1      -9.859  15.429  71.154  1.00  0.00     0.000 HD 
ENDBRANCH  19  20
ENDBRANCH  18  19
ENDBRANCH  17  18
ENDBRANCH  16  17
ENDBRANCH  15  16
ENDBRANCH  12  15
ENDBRANCH   6   9
TORSDOF 7
ENDMDL
MODEL      321
REMARK 921   NORMALIZED FREE ENERGY PREDICTED BY IDOCK:    3.74 KCAL/MOL
REMARK 922        TOTAL FREE ENERGY PREDICTED BY IDOCK:    3.67 KCAL/MOL
REMARK 923 INTER-LIGAND FREE ENERGY PREDICTED BY IDOCK:   -2.45 KCAL/MOL
REMARK 924 INTRA-LIGAND FREE ENERGY PREDICTED BY IDOCK:    6.13 KCAL/MOL
REMARK 927      BINDING AFFINITY PREDICTED BY RF-SCORE:    0.00 PKD
ROOT
HETATM    1 CL   UNL     1     -11.692  13.951  65.665  1.00  0.00    -0.344 Cl 
HETATM    2  C   UNL     1     -11.381  12.900  67.011  1.00  0.00    -0.309 A  
HETATM    3  C   UNL     1     -12.351  12.873  68.010  1.00  0.00     0.212 A  
HETATM    4  C   UNL     1     -12.162  12.067  69.123  1.00  0.00    -0.106 A  
HETATM    5  C   UNL     1     -10.986  11.329  69.253  1.00  0.00    -0.297 A  
HETATM    6  C   UNL     1      -9.963  11.333  68.278  1.00  0.00    -0.195 A  
HETATM    7  C   UNL     1     -10.211  12.116  67.114  1.00  0.00    -0.210 A  
HETATM    8 CL   UNL     1      -9.156  12.052  65.725  1.00  0.00    -0.069 Cl 
ENDROOT
BRANCH   6   9
HETATM    9  N   UNL     1      -8.794  10.631  68.549  1.00  0.00    -0.141 NA 
HETATM   10  C   UNL     1      -7.490  11.305  68.691  1.00  0.00    -0.118 C  
HETATM   11  C   UNL     1      -6.681  10.723  69.873  1.00  0.00    -0.156 C  
HETATM   12  N   UNL     1      -6.534   9.250  69.863  1.00  0.00    -0.042 NA 
HETATM   13  C   UNL     1      -8.756   9.155  68.614  1.00  0.00    -0.129 C  
HETATM   14  C   UNL     1      -7.903   8.680  69.816  1.00  0.00    -0.093 C  
BRANCH  12  15
HETATM   15  C   UNL     1      -5.722   8.777  68.729  1.00  0.00    -0.041 C  
BRANCH  15  16
HETATM   16  C   UNL     1      -5.458   9.859  67.664  1.00  0.00    -0.035 C  
BRANCH  16  17
HETATM   17  C   UNL     1      -5.421   9.336  66.224  1.00  0.00    -0.044 C  
BRANCH  17  18
HETATM   18  C   UNL     1      -6.447   8.230  66.027  1.00  0.00    -0.049 C  
BRANCH  18  19
HETATM   19  O   UNL     1      -7.125   7.945  67.249  1.00  0.00    -0.079 OA 
BRANCH  19  20
HETATM   20  C   UNL     1      -6.940   6.658  67.694  1.00  0.00    -0.083 A  
HETATM   21  C   UNL     1      -8.094   5.871  67.738  1.00  0.00    -0.105 A  
HETATM   22  C   UNL     1      -8.009   4.551  68.182  1.00  0.00    -0.080 A  
HETATM   23  C   UNL     1      -6.780   4.006  68.580  1.00  0.00    -0.046 A  
HETATM   24  C   UNL     1      -5.630   4.787  68.500  1.00  0.00    -0.016 A  
HETATM   25  C   UNL     1      -6.695   2.557  68.963  1.00  0.00    -0.033 C  
HETATM   26  C   UNL     1      -5.709   6.102  68.054  1.00  0.00    -0.009 A  
HETATM   27  C   UNL     1      -8.009   2.043  69.518  1.00  0.00    -0.053 C  
HETATM   28  C   UNL     1      -9.198   2.479  68.692  1.00  0.00    -0.180 C  
HETATM   29  O   UNL     1     -10.203   1.786  68.572  1.00  0.00     0.523 OA 
HETATM   30  N   UNL     1      -9.152   3.749  68.184  1.00  0.00    -0.130 N  
HETATM   31  H   UNL     1     -10.006   4.133  67.780  1.00  0.00     0.000 HD 
ENDBRANCH  19  20
ENDBRANCH  18  19
ENDBRANCH  17  18
ENDBRANCH  16  17
ENDBRANCH  15  16
ENDBRANCH  12  15
ENDBRANCH   6   9
TORSDOF 7
ENDMDL
MODEL      322
REMARK 921   NORMALIZED FREE ENERGY PREDICTED BY IDOCK:    3.81 KCAL/MOL
REMARK 922        TOTAL FREE ENERGY PREDICTED BY IDOCK:    3.76 KCAL/MOL
REMARK 923 INTER-LIGAND FREE ENERGY PREDICTED BY IDOCK:    1.88 KCAL/MOL
REMARK 924 INTRA-LIGAND FREE ENERGY PREDICTED BY IDOCK:    1.88 KCAL/MOL
REMARK 927      BINDING AFFINITY PREDICTED BY RF-SCORE:    0.00 PKD
ROOT
HETATM    1 CL   UNL     1     -12.124  14.303  63.277  1.00  0.00     0.363 Cl 
HETATM    2  C   UNL     1     -10.758  14.604  64.306  1.00  0.00     0.333 A  
HETATM    3  C   UNL     1      -9.831  13.569  64.418  1.00  0.00     0.361 A  
HETATM    4  C   UNL     1      -8.722  13.733  65.235  1.00  0.00     2.422 A  
HETATM    5  C   UNL     1      -8.568  14.910  65.969  1.00  0.00     0.551 A  
HETATM    6  C   UNL     1      -9.485  15.983  65.904  1.00  0.00    -0.316 A  
HETATM    7  C   UNL     1     -10.581  15.816  65.007  1.00  0.00    -0.371 A  
HETATM    8 CL   UNL     1     -11.674  17.127  64.643  1.00  0.00     1.050 Cl 
ENDROOT
BRANCH   6   9
HETATM    9  N   UNL     1      -9.284  17.072  66.744  1.00  0.00    -0.242 NA 
HETATM   10  C   UNL     1      -8.355  18.165  66.401  1.00  0.00    -0.245 C  
HETATM   11  C   UNL     1      -8.957  19.546  66.748  1.00  0.00    -0.335 C  
HETATM   12  N   UNL     1      -9.462  19.675  68.133  1.00  0.00    -0.347 NA 
HETATM   13  C   UNL     1      -9.906  17.164  68.081  1.00  0.00    -0.281 C  
HETATM   14  C   UNL     1     -10.453  18.590  68.334  1.00  0.00    -0.233 C  
BRANCH  12  15
HETATM   15  C   UNL     1      -8.381  19.600  69.131  1.00  0.00    -0.035 C  
BRANCH  15  16
HETATM   16  C   UNL     1      -7.026  19.162  68.543  1.00  0.00    -0.318 C  
BRANCH  16  17
HETATM   17  C   UNL     1      -6.005  18.692  69.584  1.00  0.00    -0.268 C  
BRANCH  17  18
HETATM   18  C   UNL     1      -5.968  17.173  69.654  1.00  0.00    -0.239 C  
BRANCH  18  19
HETATM   19  O   UNL     1      -7.251  16.651  69.995  1.00  0.00     0.358 OA 
BRANCH  19  20
HETATM   20  C   UNL     1      -7.397  15.316  69.704  1.00  0.00    -0.188 A  
HETATM   21  C   UNL     1      -6.575  14.453  70.433  1.00  0.00    -0.029 A  
HETATM   22  C   UNL     1      -6.646  13.078  70.204  1.00  0.00     0.296 A  
HETATM   23  C   UNL     1      -7.535  12.555  69.256  1.00  0.00     0.290 A  
HETATM   24  C   UNL     1      -8.375  13.419  68.558  1.00  0.00    -0.085 A  
HETATM   25  C   UNL     1      -7.663  11.068  69.094  1.00  0.00    -0.102 C  
HETATM   26  C   UNL     1      -8.311  14.789  68.786  1.00  0.00    -0.168 A  
HETATM   27  C   UNL     1      -6.379  10.348  69.463  1.00  0.00    -0.059 C  
HETATM   28  C   UNL     1      -5.777  10.862  70.751  1.00  0.00    -0.097 C  
HETATM   29  O   UNL     1      -5.148  10.138  71.515  1.00  0.00    -0.072 OA 
HETATM   30  N   UNL     1      -5.857  12.211  70.964  1.00  0.00    -0.110 N  
HETATM   31  H   UNL     1      -5.308  12.609  71.725  1.00  0.00     0.000 HD 
ENDBRANCH  19  20
ENDBRANCH  18  19
ENDBRANCH  17  18
ENDBRANCH  16  17
ENDBRANCH  15  16
ENDBRANCH  12  15
ENDBRANCH   6   9
TORSDOF 7
ENDMDL
MODEL      323
REMARK 921   NORMALIZED FREE ENERGY PREDICTED BY IDOCK:    3.89 KCAL/MOL
REMARK 922        TOTAL FREE ENERGY PREDICTED BY IDOCK:    3.88 KCAL/MOL
REMARK 923 INTER-LIGAND FREE ENERGY PREDICTED BY IDOCK:   -1.87 KCAL/MOL
REMARK 924 INTRA-LIGAND FREE ENERGY PREDICTED BY IDOCK:    5.75 KCAL/MOL
REMARK 927      BINDING AFFINITY PREDICTED BY RF-SCORE:    0.00 PKD
ROOT
HETATM    1 CL   UNL     1      -6.430  11.333  62.785  1.00  0.00     0.431 Cl 
HETATM    2  C   UNL     1      -8.014  11.041  63.432  1.00  0.00     0.379 A  
HETATM    3  C   UNL     1      -8.976  10.591  62.531  1.00  0.00    -0.303 A  
HETATM    4  C   UNL     1     -10.268  10.350  62.975  1.00  0.00     0.282 A  
HETATM    5  C   UNL     1     -10.603  10.604  64.305  1.00  0.00    -0.082 A  
HETATM    6  C   UNL     1      -9.671  11.075  65.257  1.00  0.00    -0.239 A  
HETATM    7  C   UNL     1      -8.335  11.250  64.792  1.00  0.00     0.473 A  
HETATM    8 CL   UNL     1      -7.023  11.609  65.886  1.00  0.00     0.492 Cl 
ENDROOT
BRANCH   6   9
HETATM    9  N   UNL     1     -10.131  11.379  66.533  1.00  0.00    -0.209 NA 
HETATM   10  C   UNL     1     -11.254  10.653  67.155  1.00  0.00    -0.100 C  
HETATM   11  C   UNL     1     -10.971  10.344  68.642  1.00  0.00    -0.243 C  
HETATM   12  N   UNL     1     -10.560  11.512  69.455  1.00  0.00    -0.020 NA 
HETATM   13  C   UNL     1      -9.596  12.512  67.316  1.00  0.00    -0.205 C  
HETATM   14  C   UNL     1      -9.371  12.102  68.792  1.00  0.00     0.083 C  
BRANCH  12  15
HETATM   15  C   UNL     1     -11.640  12.503  69.593  1.00  0.00    -0.253 C  
BRANCH  15  16
HETATM   16  C   UNL     1     -11.335  13.850  68.909  1.00  0.00    -0.319 C  
BRANCH  16  17
HETATM   17  C   UNL     1     -11.191  13.771  67.386  1.00  0.00    -0.330 C  
BRANCH  17  18
HETATM   18  C   UNL     1     -12.424  14.336  66.699  1.00  0.00    -0.157 C  
BRANCH  18  19
HETATM   19  O   UNL     1     -12.229  15.705  66.353  1.00  0.00     0.724 OA 
BRANCH  19  20
HETATM   20  C   UNL     1     -11.142  16.279  66.969  1.00  0.00     0.017 A  
HETATM   21  C   UNL     1      -9.946  16.215  66.249  1.00  0.00    -0.336 A  
HETATM   22  C   UNL     1      -8.785  16.766  66.795  1.00  0.00    -0.230 A  
HETATM   23  C   UNL     1      -8.808  17.384  68.052  1.00  0.00    -0.252 A  
HETATM   24  C   UNL     1     -10.011  17.474  68.747  1.00  0.00    -0.342 A  
HETATM   25  C   UNL     1      -7.571  18.053  68.577  1.00  0.00    -0.296 C  
HETATM   26  C   UNL     1     -11.171  16.931  68.206  1.00  0.00    -0.105 A  
HETATM   27  C   UNL     1      -6.308  17.415  68.027  1.00  0.00    -0.157 C  
HETATM   28  C   UNL     1      -6.389  17.162  66.539  1.00  0.00    -0.218 C  
HETATM   29  O   UNL     1      -5.403  17.215  65.811  1.00  0.00    -0.228 OA 
HETATM   30  N   UNL     1      -7.599  16.743  66.058  1.00  0.00    -0.129 N  
HETATM   31  H   UNL     1      -7.638  16.393  65.100  1.00  0.00     0.000 HD 
ENDBRANCH  19  20
ENDBRANCH  18  19
ENDBRANCH  17  18
ENDBRANCH  16  17
ENDBRANCH  15  16
ENDBRANCH  12  15
ENDBRANCH   6   9
TORSDOF 7
ENDMDL
MODEL      324
REMARK 921   NORMALIZED FREE ENERGY PREDICTED BY IDOCK:    7.77 KCAL/MOL
REMARK 922        TOTAL FREE ENERGY PREDICTED BY IDOCK:    9.35 KCAL/MOL
REMARK 923 INTER-LIGAND FREE ENERGY PREDICTED BY IDOCK:    6.61 KCAL/MOL
REMARK 924 INTRA-LIGAND FREE ENERGY PREDICTED BY IDOCK:    2.74 KCAL/MOL
REMARK 927      BINDING AFFINITY PREDICTED BY RF-SCORE:    0.00 PKD
ROOT
HETATM    1 CL   UNL     1     -10.476   7.481  69.496  1.00  0.00    -0.223 Cl 
HETATM    2  C   UNL     1     -11.111   9.091  69.367  1.00  0.00     0.018 A  
HETATM    3  C   UNL     1     -12.222   9.381  70.157  1.00  0.00     0.288 A  
HETATM    4  C   UNL     1     -12.792  10.644  70.095  1.00  0.00    -0.146 A  
HETATM    5  C   UNL     1     -12.279  11.595  69.212  1.00  0.00    -0.228 A  
HETATM    6  C   UNL     1     -11.166  11.348  68.378  1.00  0.00    -0.263 A  
HETATM    7  C   UNL     1     -10.557  10.066  68.509  1.00  0.00    -0.215 A  
HETATM    8 CL   UNL     1      -9.048   9.683  67.720  1.00  0.00    -0.129 Cl 
ENDROOT
BRANCH   6   9
HETATM    9  N   UNL     1     -10.791  12.334  67.472  1.00  0.00    -0.227 NA 
HETATM   10  C   UNL     1     -11.377  12.421  66.122  1.00  0.00    -0.352 C  
HETATM   11  C   UNL     1     -11.691  13.885  65.737  1.00  0.00    -0.359 C  
HETATM   12  N   UNL     1     -10.563  14.829  65.903  1.00  0.00    -0.300 NA 
HETATM   13  C   UNL     1      -9.711  13.301  67.759  1.00  0.00    -0.217 C  
HETATM   14  C   UNL     1     -10.119  14.727  67.315  1.00  0.00    -0.236 C  
BRANCH  12  15
HETATM   15  C   UNL     1      -9.455  14.544  64.975  1.00  0.00     0.701 C  
BRANCH  15  16
HETATM   16  C   UNL     1      -9.163  13.041  64.803  1.00  0.00     1.029 C  
BRANCH  16  17
HETATM   17  C   UNL     1      -8.230  12.450  65.864  1.00  0.00     0.973 C  
BRANCH  17  18
HETATM   18  C   UNL     1      -6.980  11.870  65.217  1.00  0.00     2.652 C  
BRANCH  18  19
HETATM   19  O   UNL     1      -5.814  12.560  65.661  1.00  0.00     2.497 OA 
BRANCH  19  20
HETATM   20  C   UNL     1      -5.822  12.846  67.006  1.00  0.00     0.452 A  
HETATM   21  C   UNL     1      -6.026  14.191  67.328  1.00  0.00     0.504 A  
HETATM   22  C   UNL     1      -6.044  14.582  68.668  1.00  0.00    -0.084 A  
HETATM   23  C   UNL     1      -5.865  13.641  69.691  1.00  0.00    -0.108 A  
HETATM   24  C   UNL     1      -5.696  12.298  69.362  1.00  0.00    -0.084 A  
HETATM   25  C   UNL     1      -5.984  14.067  71.125  1.00  0.00    -0.160 C  
HETATM   26  C   UNL     1      -5.682  11.904  68.029  1.00  0.00    -0.048 A  
HETATM   27  C   UNL     1      -5.613  15.527  71.312  1.00  0.00     0.180 C  
HETATM   28  C   UNL     1      -6.233  16.421  70.263  1.00  0.00     0.094 C  
HETATM   29  O   UNL     1      -6.562  17.578  70.500  1.00  0.00     0.727 OA 
HETATM   30  N   UNL     1      -6.294  15.917  68.993  1.00  0.00    -0.126 N  
HETATM   31  H   UNL     1      -6.536  16.555  68.236  1.00  0.00     0.000 HD 
ENDBRANCH  19  20
ENDBRANCH  18  19
ENDBRANCH  17  18
ENDBRANCH  16  17
ENDBRANCH  15  16
ENDBRANCH  12  15
ENDBRANCH   6   9
TORSDOF 7
ENDMDL
MODEL      325
REMARK 921   NORMALIZED FREE ENERGY PREDICTED BY IDOCK:    8.77 KCAL/MOL
REMARK 922        TOTAL FREE ENERGY PREDICTED BY IDOCK:   10.75 KCAL/MOL
REMARK 923 INTER-LIGAND FREE ENERGY PREDICTED BY IDOCK:    9.31 KCAL/MOL
REMARK 924 INTRA-LIGAND FREE ENERGY PREDICTED BY IDOCK:    1.44 KCAL/MOL
REMARK 927      BINDING AFFINITY PREDICTED BY RF-SCORE:    0.00 PKD
ROOT
HETATM    1 CL   UNL     1     -12.395   7.884  70.190  1.00  0.00     0.581 Cl 
HETATM    2  C   UNL     1     -11.731   8.640  68.776  1.00  0.00     1.549 A  
HETATM    3  C   UNL     1     -11.427   7.796  67.710  1.00  0.00     1.063 A  
HETATM    4  C   UNL     1     -10.878   8.329  66.553  1.00  0.00     0.594 A  
HETATM    5  C   UNL     1     -10.595   9.694  66.485  1.00  0.00    -0.142 A  
HETATM    6  C   UNL     1     -10.868  10.591  67.541  1.00  0.00    -0.301 A  
HETATM    7  C   UNL     1     -11.493  10.029  68.693  1.00  0.00     0.033 A  
HETATM    8 CL   UNL     1     -12.097  11.032  69.987  1.00  0.00    -0.408 Cl 
ENDROOT
BRANCH   6   9
HETATM    9  N   UNL     1     -10.465  11.914  67.402  1.00  0.00    -0.213 NA 
HETATM   10  C   UNL     1     -11.327  12.936  66.781  1.00  0.00    -0.322 C  
HETATM   11  C   UNL     1     -11.276  14.268  67.563  1.00  0.00    -0.307 C  
HETATM   12  N   UNL     1      -9.914  14.788  67.819  1.00  0.00    -0.222 NA 
HETATM   13  C   UNL     1      -9.108  12.368  67.773  1.00  0.00    -0.193 C  
HETATM   14  C   UNL     1      -9.170  13.719  68.529  1.00  0.00    -0.138 C  
BRANCH  12  15
HETATM   15  C   UNL     1      -9.225  15.184  66.579  1.00  0.00    -0.287 C  
BRANCH  15  16
HETATM   16  C   UNL     1      -7.704  14.935  66.610  1.00  0.00     0.477 C  
BRANCH  16  17
HETATM   17  C   UNL     1      -6.870  16.022  65.925  1.00  0.00     2.701 C  
BRANCH  17  18
HETATM   18  C   UNL     1      -5.391  15.840  66.234  1.00  0.00     2.491 C  
BRANCH  18  19
HETATM   19  O   UNL     1      -5.136  16.038  67.623  1.00  0.00    -0.118 OA 
BRANCH  19  20
HETATM   20  C   UNL     1      -5.797  17.119  68.155  1.00  0.00    -0.124 A  
HETATM   21  C   UNL     1      -5.365  17.518  69.423  1.00  0.00    -0.181 A  
HETATM   22  C   UNL     1      -5.979  18.603  70.050  1.00  0.00    -0.201 A  
HETATM   23  C   UNL     1      -7.019  19.299  69.421  1.00  0.00    -0.300 A  
HETATM   24  C   UNL     1      -7.421  18.916  68.143  1.00  0.00    -0.297 A  
HETATM   25  C   UNL     1      -7.601  20.520  70.071  1.00  0.00     1.260 C  
HETATM   26  C   UNL     1      -6.810  17.839  67.513  1.00  0.00    -0.189 A  
HETATM   27  C   UNL     1      -7.480  20.466  71.582  1.00  0.00     1.599 C  
HETATM   28  C   UNL     1      -6.111  20.015  72.038  1.00  0.00    -0.035 C  
HETATM   29  O   UNL     1      -5.601  20.418  73.078  1.00  0.00     1.192 OA 
HETATM   30  N   UNL     1      -5.517  19.031  71.296  1.00  0.00    -0.247 N  
HETATM   31  H   UNL     1      -4.684  18.582  71.677  1.00  0.00     0.000 HD 
ENDBRANCH  19  20
ENDBRANCH  18  19
ENDBRANCH  17  18
ENDBRANCH  16  17
ENDBRANCH  15  16
ENDBRANCH  12  15
ENDBRANCH   6   9
TORSDOF 7
ENDMDL
MODEL      326
REMARK 921   NORMALIZED FREE ENERGY PREDICTED BY IDOCK:    9.87 KCAL/MOL
REMARK 922        TOTAL FREE ENERGY PREDICTED BY IDOCK:   12.31 KCAL/MOL
REMARK 923 INTER-LIGAND FREE ENERGY PREDICTED BY IDOCK:   12.95 KCAL/MOL
REMARK 924 INTRA-LIGAND FREE ENERGY PREDICTED BY IDOCK:   -0.63 KCAL/MOL
REMARK 927      BINDING AFFINITY PREDICTED BY RF-SCORE:    0.00 PKD
ROOT
HETATM    1 CL   UNL     1      -5.969   8.906  74.061  1.00  0.00    -0.125 Cl 
HETATM    2  C   UNL     1      -6.067   9.032  72.332  1.00  0.00     0.003 A  
HETATM    3  C   UNL     1      -5.273   8.150  71.603  1.00  0.00    -0.034 A  
HETATM    4  C   UNL     1      -5.289   8.204  70.217  1.00  0.00    -0.022 A  
HETATM    5  C   UNL     1      -6.063   9.168  69.569  1.00  0.00    -0.036 A  
HETATM    6  C   UNL     1      -6.874  10.096  70.260  1.00  0.00    -0.148 A  
HETATM    7  C   UNL     1      -6.891   9.976  71.680  1.00  0.00     1.039 A  
HETATM    8 CL   UNL     1      -8.005  10.892  72.663  1.00  0.00    10.436 Cl 
ENDROOT
BRANCH   6   9
HETATM    9  N   UNL     1      -7.535  11.070  69.521  1.00  0.00    -0.080 NA 
HETATM   10  C   UNL     1      -8.091  12.285  70.144  1.00  0.00     3.302 C  
HETATM   11  C   UNL     1      -7.814  13.538  69.283  1.00  0.00     0.410 C  
HETATM   12  N   UNL     1      -8.218  13.420  67.864  1.00  0.00    -0.148 NA 
HETATM   13  C   UNL     1      -7.815  10.911  68.078  1.00  0.00    -0.107 C  
HETATM   14  C   UNL     1      -7.528  12.227  67.315  1.00  0.00    -0.147 C  
BRANCH  12  15
HETATM   15  C   UNL     1      -9.678  13.310  67.706  1.00  0.00    -0.217 C  
BRANCH  15  16
HETATM   16  C   UNL     1     -10.476  14.005  68.826  1.00  0.00    -0.238 C  
BRANCH  16  17
HETATM   17  C   UNL     1     -11.996  13.852  68.711  1.00  0.00    -0.393 C  
BRANCH  17  18
HETATM   18  C   UNL     1     -12.393  12.384  68.745  1.00  0.00     0.297 C  
BRANCH  18  19
HETATM   19  O   UNL     1     -11.698  11.695  69.782  1.00  0.00    -0.306 OA 
BRANCH  19  20
HETATM   20  C   UNL     1     -11.576  10.344  69.560  1.00  0.00    -0.219 A  
HETATM   21  C   UNL     1     -11.802   9.534  70.676  1.00  0.00    -0.301 A  
HETATM   22  C   UNL     1     -11.696   8.148  70.552  1.00  0.00    -0.063 A  
HETATM   23  C   UNL     1     -11.369   7.561  69.322  1.00  0.00     0.253 A  
HETATM   24  C   UNL     1     -11.179   8.375  68.208  1.00  0.00     0.547 A  
HETATM   25  C   UNL     1     -11.354   6.066  69.189  1.00  0.00    -0.196 C  
HETATM   26  C   UNL     1     -11.289   9.756  68.325  1.00  0.00     0.034 A  
HETATM   27  C   UNL     1     -11.028   5.386  70.505  1.00  0.00    -0.101 C  
HETATM   28  C   UNL     1     -11.793   5.977  71.668  1.00  0.00    -0.076 C  
HETATM   29  O   UNL     1     -12.145   5.304  72.631  1.00  0.00    -0.125 OA 
HETATM   30  N   UNL     1     -11.966   7.334  71.655  1.00  0.00    -0.292 N  
HETATM   31  H   UNL     1     -12.314   7.780  72.503  1.00  0.00     0.000 HD 
ENDBRANCH  19  20
ENDBRANCH  18  19
ENDBRANCH  17  18
ENDBRANCH  16  17
ENDBRANCH  15  16
ENDBRANCH  12  15
ENDBRANCH   6   9
TORSDOF 7
ENDMDL
MODEL      327
REMARK 921   NORMALIZED FREE ENERGY PREDICTED BY IDOCK:   16.26 KCAL/MOL
REMARK 922        TOTAL FREE ENERGY PREDICTED BY IDOCK:   21.32 KCAL/MOL
REMARK 923 INTER-LIGAND FREE ENERGY PREDICTED BY IDOCK:    1.51 KCAL/MOL
REMARK 924 INTRA-LIGAND FREE ENERGY PREDICTED BY IDOCK:   19.81 KCAL/MOL
REMARK 927      BINDING AFFINITY PREDICTED BY RF-SCORE:    0.00 PKD
ROOT
HETATM    1 CL   UNL     1      -5.718  13.199  68.480  1.00  0.00    -0.073 Cl 
HETATM    2  C   UNL     1      -6.584  11.711  68.260  1.00  0.00    -0.059 A  
HETATM    3  C   UNL     1      -7.436  11.649  67.160  1.00  0.00    -0.146 A  
HETATM    4  C   UNL     1      -8.172  10.496  66.930  1.00  0.00    -0.123 A  
HETATM    5  C   UNL     1      -8.087   9.430  67.825  1.00  0.00    -0.107 A  
HETATM    6  C   UNL     1      -7.252   9.445  68.965  1.00  0.00    -0.071 A  
HETATM    7  C   UNL     1      -6.457  10.615  69.141  1.00  0.00    -0.056 A  
HETATM    8 CL   UNL     1      -5.215  10.702  70.365  1.00  0.00    -0.057 Cl 
ENDROOT
BRANCH   6   9
HETATM    9  N   UNL     1      -7.311   8.365  69.838  1.00  0.00    -0.059 NA 
HETATM   10  C   UNL     1      -6.915   7.005  69.431  1.00  0.00    -0.066 C  
HETATM   11  C   UNL     1      -6.093   6.303  70.535  1.00  0.00    -0.034 C  
HETATM   12  N   UNL     1      -6.717   6.309  71.877  1.00  0.00    -0.062 NA 
HETATM   13  C   UNL     1      -7.868   8.483  71.202  1.00  0.00    -0.116 C  
HETATM   14  C   UNL     1      -6.983   7.727  72.223  1.00  0.00    -0.070 C  
BRANCH  12  15
HETATM   15  C   UNL     1      -7.954   5.510  71.921  1.00  0.00    -0.114 C  
BRANCH  15  16
HETATM   16  C   UNL     1      -7.982   4.475  73.063  1.00  0.00    -0.095 C  
BRANCH  16  17
HETATM   17  C   UNL     1      -6.990   3.320  72.898  1.00  0.00    -0.043 C  
BRANCH  17  18
HETATM   18  C   UNL     1      -7.716   2.037  72.523  1.00  0.00    -0.044 C  
BRANCH  18  19
HETATM   19  O   UNL     1      -8.125   2.067  71.157  1.00  0.00    -0.046 OA 
BRANCH  19  20
HETATM   20  C   UNL     1      -9.053   3.043  70.881  1.00  0.00    -0.114 A  
HETATM   21  C   UNL     1      -8.547   4.190  70.264  1.00  0.00    -0.104 A  
HETATM   22  C   UNL     1      -9.411   5.240  69.950  1.00  0.00    -0.155 A  
HETATM   23  C   UNL     1     -10.779   5.154  70.242  1.00  0.00    -0.121 A  
HETATM   24  C   UNL     1     -11.280   3.992  70.826  1.00  0.00     3.264 A  
HETATM   25  C   UNL     1     -11.706   6.252  69.809  1.00  0.00    -0.157 C  
HETATM   26  C   UNL     1     -10.424   2.943  71.137  1.00  0.00     0.957 A  
HETATM   27  C   UNL     1     -10.993   7.590  69.725  1.00  0.00    -0.195 C  
HETATM   28  C   UNL     1      -9.654   7.490  69.031  1.00  0.00    -0.153 C  
HETATM   29  O   UNL     1      -9.194   8.407  68.359  1.00  0.00    -0.136 OA 
HETATM   30  N   UNL     1      -8.916   6.368  69.292  1.00  0.00    -0.133 N  
HETATM   31  H   UNL     1      -7.943   6.354  68.988  1.00  0.00     0.000 HD 
ENDBRANCH  19  20
ENDBRANCH  18  19
ENDBRANCH  17  18
ENDBRANCH  16  17
ENDBRANCH  15  16
ENDBRANCH  12  15
ENDBRANCH   6   9
TORSDOF 7
ENDMDL
MODEL      328
REMARK 921   NORMALIZED FREE ENERGY PREDICTED BY IDOCK:   19.33 KCAL/MOL
REMARK 922        TOTAL FREE ENERGY PREDICTED BY IDOCK:   25.64 KCAL/MOL
REMARK 923 INTER-LIGAND FREE ENERGY PREDICTED BY IDOCK:   26.26 KCAL/MOL
REMARK 924 INTRA-LIGAND FREE ENERGY PREDICTED BY IDOCK:   -0.62 KCAL/MOL
REMARK 927      BINDING AFFINITY PREDICTED BY RF-SCORE:    0.00 PKD
ROOT
HETATM    1 CL   UNL     1      -5.333   9.847  73.839  1.00  0.00     0.013 Cl 
HETATM    2  C   UNL     1      -5.746  10.285  72.211  1.00  0.00     0.512 A  
HETATM    3  C   UNL     1      -5.131   9.551  71.199  1.00  0.00    -0.042 A  
HETATM    4  C   UNL     1      -5.402   9.856  69.873  1.00  0.00    -0.037 A  
HETATM    5  C   UNL     1      -6.249  10.921  69.566  1.00  0.00    -0.073 A  
HETATM    6  C   UNL     1      -6.885  11.708  70.551  1.00  0.00     1.235 A  
HETATM    7  C   UNL     1      -6.643  11.332  71.905  1.00  0.00     3.669 A  
HETATM    8 CL   UNL     1      -7.524  12.054  73.228  1.00  0.00    13.421 Cl 
ENDROOT
BRANCH   6   9
HETATM    9  N   UNL     1      -7.639  12.800  70.136  1.00  0.00     1.706 NA 
HETATM   10  C   UNL     1      -8.023  13.884  71.058  1.00  0.00     4.587 C  
HETATM   11  C   UNL     1      -7.868  15.271  70.393  1.00  0.00     0.887 C  
HETATM   12  N   UNL     1      -8.537  15.411  69.080  1.00  0.00    -0.210 NA 
HETATM   13  C   UNL     1      -8.192  12.902  68.769  1.00  0.00     0.116 C  
HETATM   14  C   UNL     1      -8.006  14.334  68.208  1.00  0.00    -0.140 C  
BRANCH  12  15
HETATM   15  C   UNL     1     -10.003  15.333  69.189  1.00  0.00    -0.238 C  
BRANCH  15  16
HETATM   16  C   UNL     1     -10.551  15.830  70.541  1.00  0.00    -0.174 C  
BRANCH  16  17
HETATM   17  C   UNL     1     -12.073  15.735  70.684  1.00  0.00    -0.424 C  
BRANCH  17  18
HETATM   18  C   UNL     1     -12.536  14.292  70.555  1.00  0.00    -0.353 C  
BRANCH  18  19
HETATM   19  O   UNL     1     -11.714  13.425  71.334  1.00  0.00     0.459 OA 
BRANCH  19  20
HETATM   20  C   UNL     1     -11.724  12.120  70.902  1.00  0.00     0.632 A  
HETATM   21  C   UNL     1     -11.810  11.158  71.911  1.00  0.00     1.474 A  
HETATM   22  C   UNL     1     -11.821   9.804  71.572  1.00  0.00    -0.399 A  
HETATM   23  C   UNL     1     -11.751   9.401  70.232  1.00  0.00    -0.127 A  
HETATM   24  C   UNL     1     -11.701  10.368  69.230  1.00  0.00    -0.212 A  
HETATM   25  C   UNL     1     -11.860   7.945  69.884  1.00  0.00     0.491 C  
HETATM   26  C   UNL     1     -11.694  11.717  69.563  1.00  0.00    -0.408 A  
HETATM   27  C   UNL     1     -11.360   7.057  71.008  1.00  0.00    -0.325 C  
HETATM   28  C   UNL     1     -11.872   7.494  72.362  1.00  0.00    -0.261 C  
HETATM   29  O   UNL     1     -12.098   6.696  73.265  1.00  0.00     0.729 OA 
HETATM   30  N   UNL     1     -11.952   8.843  72.576  1.00  0.00    -0.249 N  
HETATM   31  H   UNL     1     -12.118   9.167  73.529  1.00  0.00     0.000 HD 
ENDBRANCH  19  20
ENDBRANCH  18  19
ENDBRANCH  17  18
ENDBRANCH  16  17
ENDBRANCH  15  16
ENDBRANCH  12  15
ENDBRANCH   6   9
TORSDOF 7
ENDMDL
MODEL      329
REMARK 921   NORMALIZED FREE ENERGY PREDICTED BY IDOCK:   20.40 KCAL/MOL
REMARK 922        TOTAL FREE ENERGY PREDICTED BY IDOCK:   27.15 KCAL/MOL
REMARK 923 INTER-LIGAND FREE ENERGY PREDICTED BY IDOCK:   26.54 KCAL/MOL
REMARK 924 INTRA-LIGAND FREE ENERGY PREDICTED BY IDOCK:    0.61 KCAL/MOL
REMARK 927      BINDING AFFINITY PREDICTED BY RF-SCORE:    0.00 PKD
ROOT
HETATM    1 CL   UNL     1      -5.335   9.847  73.841  1.00  0.00     0.013 Cl 
HETATM    2  C   UNL     1      -5.749  10.289  72.215  1.00  0.00     0.512 A  
HETATM    3  C   UNL     1      -5.141   9.552  71.201  1.00  0.00    -0.042 A  
HETATM    4  C   UNL     1      -5.413   9.860  69.876  1.00  0.00    -0.037 A  
HETATM    5  C   UNL     1      -6.256  10.929  69.572  1.00  0.00    -0.073 A  
HETATM    6  C   UNL     1      -6.886  11.718  70.560  1.00  0.00     1.332 A  
HETATM    7  C   UNL     1      -6.643  11.340  71.912  1.00  0.00     3.669 A  
HETATM    8 CL   UNL     1      -7.516  12.065  73.238  1.00  0.00    13.421 Cl 
ENDROOT
BRANCH   6   9
HETATM    9  N   UNL     1      -7.636  12.814  70.147  1.00  0.00     1.706 NA 
HETATM   10  C   UNL     1      -8.007  13.903  71.070  1.00  0.00     4.587 C  
HETATM   11  C   UNL     1      -7.847  15.287  70.401  1.00  0.00     0.887 C  
HETATM   12  N   UNL     1      -8.524  15.429  69.092  1.00  0.00    -0.225 NA 
HETATM   13  C   UNL     1      -8.198  12.918  68.784  1.00  0.00     0.116 C  
HETATM   14  C   UNL     1      -8.006  14.347  68.219  1.00  0.00    -0.140 C  
BRANCH  12  15
HETATM   15  C   UNL     1      -9.990  15.361  69.212  1.00  0.00    -0.256 C  
BRANCH  15  16
HETATM   16  C   UNL     1     -10.526  15.871  70.563  1.00  0.00     0.012 C  
BRANCH  16  17
HETATM   17  C   UNL     1     -12.048  15.782  70.718  1.00  0.00    -0.448 C  
BRANCH  17  18
HETATM   18  C   UNL     1     -12.515  14.338  70.613  1.00  0.00    -0.358 C  
BRANCH  18  19
HETATM   19  O   UNL     1     -11.530  13.448  71.136  1.00  0.00     0.675 OA 
BRANCH  19  20
HETATM   20  C   UNL     1     -11.628  12.168  70.644  1.00  0.00     0.480 A  
HETATM   21  C   UNL     1     -10.531  11.731  69.897  1.00  0.00     0.834 A  
HETATM   22  C   UNL     1     -10.538  10.448  69.350  1.00  0.00    -0.239 A  
HETATM   23  C   UNL     1     -11.631   9.592  69.545  1.00  0.00     0.092 A  
HETATM   24  C   UNL     1     -12.705  10.024  70.319  1.00  0.00    -0.021 A  
HETATM   25  C   UNL     1     -11.578   8.184  69.029  1.00  0.00     1.049 C  
HETATM   26  C   UNL     1     -12.700  11.300  70.870  1.00  0.00    -0.412 A  
HETATM   27  C   UNL     1     -10.680   8.063  67.811  1.00  0.00    -0.174 C  
HETATM   28  C   UNL     1      -9.369   8.795  67.983  1.00  0.00    -0.142 C  
HETATM   29  O   UNL     1      -8.328   8.405  67.466  1.00  0.00    -0.126 OA 
HETATM   30  N   UNL     1      -9.423   9.993  68.643  1.00  0.00    -0.151 N  
HETATM   31  H   UNL     1      -8.598  10.591  68.616  1.00  0.00     0.000 HD 
ENDBRANCH  19  20
ENDBRANCH  18  19
ENDBRANCH  17  18
ENDBRANCH  16  17
ENDBRANCH  15  16
ENDBRANCH  12  15
ENDBRANCH   6   9
TORSDOF 7
ENDMDL
MODEL      330
REMARK 921   NORMALIZED FREE ENERGY PREDICTED BY IDOCK:   21.04 KCAL/MOL
REMARK 922        TOTAL FREE ENERGY PREDICTED BY IDOCK:   28.05 KCAL/MOL
REMARK 923 INTER-LIGAND FREE ENERGY PREDICTED BY IDOCK:    2.68 KCAL/MOL
REMARK 924 INTRA-LIGAND FREE ENERGY PREDICTED BY IDOCK:   25.36 KCAL/MOL
REMARK 927      BINDING AFFINITY PREDICTED BY RF-SCORE:    0.00 PKD
ROOT
HETATM    1 CL   UNL     1     -12.046  13.650  66.553  1.00  0.00    -0.460 Cl 
HETATM    2  C   UNL     1     -11.769  12.574  67.887  1.00  0.00    -0.359 A  
HETATM    3  C   UNL     1     -12.812  12.443  68.801  1.00  0.00     1.726 A  
HETATM    4  C   UNL     1     -12.656  11.611  69.900  1.00  0.00    -0.002 A  
HETATM    5  C   UNL     1     -11.443  10.951  70.103  1.00  0.00    -0.405 A  
HETATM    6  C   UNL     1     -10.349  11.062  69.217  1.00  0.00    -0.154 A  
HETATM    7  C   UNL     1     -10.558  11.869  68.061  1.00  0.00    -0.207 A  
HETATM    8 CL   UNL     1      -9.394  11.929  66.762  1.00  0.00    -0.195 Cl 
ENDROOT
BRANCH   6   9
HETATM    9  N   UNL     1      -9.158  10.432  69.561  1.00  0.00    -0.155 NA 
HETATM   10  C   UNL     1      -8.338  10.876  70.704  1.00  0.00     3.004 C  
HETATM   11  C   UNL     1      -7.802   9.673  71.513  1.00  0.00     0.977 C  
HETATM   12  N   UNL     1      -7.104   8.643  70.710  1.00  0.00    -0.054 NA 
HETATM   13  C   UNL     1      -8.577   9.343  68.748  1.00  0.00    -0.127 C  
HETATM   14  C   UNL     1      -8.050   8.203  69.655  1.00  0.00    -0.118 C  
BRANCH  12  15
HETATM   15  C   UNL     1      -5.851   9.147  70.124  1.00  0.00    -0.031 C  
BRANCH  15  16
HETATM   16  C   UNL     1      -5.628  10.656  70.342  1.00  0.00    -0.083 C  
BRANCH  16  17
HETATM   17  C   UNL     1      -5.224  11.428  69.082  1.00  0.00    -0.043 C  
BRANCH  17  18
HETATM   18  C   UNL     1      -6.093  11.021  67.901  1.00  0.00    -0.049 C  
BRANCH  18  19
HETATM   19  O   UNL     1      -7.172  10.191  68.328  1.00  0.00    -0.078 OA 
BRANCH  19  20
HETATM   20  C   UNL     1      -7.066   8.888  67.902  1.00  0.00    -0.079 A  
HETATM   21  C   UNL     1      -8.048   8.476  66.998  1.00  0.00    -0.103 A  
HETATM   22  C   UNL     1      -8.030   7.168  66.512  1.00  0.00    -0.112 A  
HETATM   23  C   UNL     1      -7.036   6.267  66.917  1.00  0.00    -0.071 A  
HETATM   24  C   UNL     1      -6.041   6.697  67.793  1.00  0.00    -0.028 A  
HETATM   25  C   UNL     1      -6.979   4.895  66.310  1.00  0.00    -0.067 C  
HETATM   26  C   UNL     1      -6.053   8.000  68.276  1.00  0.00    -0.042 A  
HETATM   27  C   UNL     1      -8.348   4.420  65.862  1.00  0.00    -0.113 C  
HETATM   28  C   UNL     1      -9.114   5.486  65.112  1.00  0.00     0.039 C  
HETATM   29  O   UNL     1      -9.902   5.215  64.212  1.00  0.00     0.438 OA 
HETATM   30  N   UNL     1      -8.983   6.767  65.573  1.00  0.00    -0.367 N  
HETATM   31  H   UNL     1      -9.620   7.474  65.208  1.00  0.00     0.000 HD 
ENDBRANCH  19  20
ENDBRANCH  18  19
ENDBRANCH  17  18
ENDBRANCH  16  17
ENDBRANCH  15  16
ENDBRANCH  12  15
ENDBRANCH   6   9
TORSDOF 7
ENDMDL
MODEL      331
REMARK 921   NORMALIZED FREE ENERGY PREDICTED BY IDOCK:   28.68 KCAL/MOL
REMARK 922        TOTAL FREE ENERGY PREDICTED BY IDOCK:   38.81 KCAL/MOL
REMARK 923 INTER-LIGAND FREE ENERGY PREDICTED BY IDOCK:   -1.11 KCAL/MOL
REMARK 924 INTRA-LIGAND FREE ENERGY PREDICTED BY IDOCK:   39.93 KCAL/MOL
REMARK 927      BINDING AFFINITY PREDICTED BY RF-SCORE:    0.00 PKD
ROOT
HETATM    1 CL   UNL     1     -10.471   7.507  69.462  1.00  0.00    -0.223 Cl 
HETATM    2  C   UNL     1     -11.209   9.068  69.291  1.00  0.00     0.176 A  
HETATM    3  C   UNL     1     -12.324   9.315  70.089  1.00  0.00     0.461 A  
HETATM    4  C   UNL     1     -12.974  10.537  69.995  1.00  0.00     0.071 A  
HETATM    5  C   UNL     1     -12.535  11.486  69.072  1.00  0.00     0.226 A  
HETATM    6  C   UNL     1     -11.421  11.282  68.227  1.00  0.00    -0.308 A  
HETATM    7  C   UNL     1     -10.731  10.046  68.391  1.00  0.00    -0.234 A  
HETATM    8 CL   UNL     1      -9.212   9.732  67.590  1.00  0.00    -0.140 Cl 
ENDROOT
BRANCH   6   9
HETATM    9  N   UNL     1     -11.124  12.257  67.282  1.00  0.00    -0.259 NA 
HETATM   10  C   UNL     1     -11.718  12.249  65.933  1.00  0.00    -0.389 C  
HETATM   11  C   UNL     1     -12.141  13.669  65.494  1.00  0.00    -0.411 C  
HETATM   12  N   UNL     1     -11.086  14.700  65.618  1.00  0.00    -0.328 NA 
HETATM   13  C   UNL     1     -10.118  13.312  67.527  1.00  0.00    -0.223 C  
HETATM   14  C   UNL     1     -10.633  14.686  67.031  1.00  0.00    -0.280 C  
BRANCH  12  15
HETATM   15  C   UNL     1      -9.963  14.463  64.696  1.00  0.00     0.292 C  
BRANCH  15  16
HETATM   16  C   UNL     1      -9.514  12.991  64.633  1.00  0.00     0.529 C  
BRANCH  16  17
HETATM   17  C   UNL     1      -8.461  12.603  65.677  1.00  0.00     1.328 C  
BRANCH  17  18
HETATM   18  C   UNL     1      -8.733  13.302  67.000  1.00  0.00    -0.186 C  
BRANCH  18  19
HETATM   19  O   UNL     1      -9.034  12.354  68.022  1.00  0.00    -0.181 OA 
BRANCH  19  20
HETATM   20  C   UNL     1      -8.232  11.239  67.992  1.00  0.00    -0.134 A  
HETATM   21  C   UNL     1      -8.734  10.162  67.255  1.00  0.00    -0.130 A  
HETATM   22  C   UNL     1      -7.994   8.982  67.170  1.00  0.00    -0.102 A  
HETATM   23  C   UNL     1      -6.753   8.867  67.811  1.00  0.00    -0.066 A  
HETATM   24  C   UNL     1      -6.245   9.956  68.515  1.00  0.00    -0.049 A  
HETATM   25  C   UNL     1      -5.931   7.624  67.628  1.00  0.00    -0.040 C  
HETATM   26  C   UNL     1      -6.976  11.135  68.598  1.00  0.00    -0.081 A  
HETATM   27  C   UNL     1      -6.798   6.411  67.350  1.00  0.00    -0.069 C  
HETATM   28  C   UNL     1      -7.878   6.692  66.330  1.00  0.00    -0.105 C  
HETATM   29  O   UNL     1      -8.286   5.834  65.554  1.00  0.00    -0.128 OA 
HETATM   30  N   UNL     1      -8.473   7.922  66.397  1.00  0.00    -0.131 N  
HETATM   31  H   UNL     1      -9.319   8.075  65.849  1.00  0.00     0.000 HD 
ENDBRANCH  19  20
ENDBRANCH  18  19
ENDBRANCH  17  18
ENDBRANCH  16  17
ENDBRANCH  15  16
ENDBRANCH  12  15
ENDBRANCH   6   9
TORSDOF 7
ENDMDL
MODEL      332
REMARK 921   NORMALIZED FREE ENERGY PREDICTED BY IDOCK:   34.16 KCAL/MOL
REMARK 922        TOTAL FREE ENERGY PREDICTED BY IDOCK:   46.54 KCAL/MOL
REMARK 923 INTER-LIGAND FREE ENERGY PREDICTED BY IDOCK:   46.35 KCAL/MOL
REMARK 924 INTRA-LIGAND FREE ENERGY PREDICTED BY IDOCK:    0.19 KCAL/MOL
REMARK 927      BINDING AFFINITY PREDICTED BY RF-SCORE:    0.00 PKD
ROOT
HETATM    1 CL   UNL     1      -9.615  19.156  73.870  1.00  0.00     4.140 Cl 
HETATM    2  C   UNL     1      -8.404  18.774  72.687  1.00  0.00     9.840 A  
HETATM    3  C   UNL     1      -7.302  19.625  72.635  1.00  0.00     2.967 A  
HETATM    4  C   UNL     1      -6.301  19.390  71.704  1.00  0.00     0.606 A  
HETATM    5  C   UNL     1      -6.429  18.333  70.801  1.00  0.00     1.236 A  
HETATM    6  C   UNL     1      -7.531  17.450  70.800  1.00  0.00     4.122 A  
HETATM    7  C   UNL     1      -8.513  17.674  71.809  1.00  0.00    12.634 A  
HETATM    8 CL   UNL     1      -9.815  16.545  72.087  1.00  0.00     5.925 Cl 
ENDROOT
BRANCH   6   9
HETATM    9  N   UNL     1      -7.601  16.486  69.801  1.00  0.00     0.292 NA 
HETATM   10  C   UNL     1      -7.799  15.056  70.103  1.00  0.00     0.429 C  
HETATM   11  C   UNL     1      -8.804  14.408  69.124  1.00  0.00     0.100 C  
HETATM   12  N   UNL     1      -8.506  14.625  67.690  1.00  0.00    -0.168 NA 
HETATM   13  C   UNL     1      -7.382  16.810  68.376  1.00  0.00    -0.198 C  
HETATM   14  C   UNL     1      -8.425  16.092  67.484  1.00  0.00    -0.163 C  
BRANCH  12  15
HETATM   15  C   UNL     1      -7.262  13.959  67.271  1.00  0.00     0.044 C  
BRANCH  15  16
HETATM   16  C   UNL     1      -7.062  12.566  67.901  1.00  0.00    -0.111 C  
BRANCH  16  17
HETATM   17  C   UNL     1      -8.275  11.638  67.786  1.00  0.00    -0.141 C  
BRANCH  17  18
HETATM   18  C   UNL     1      -8.631  11.048  69.142  1.00  0.00     0.003 C  
BRANCH  18  19
HETATM   19  O   UNL     1      -9.920  10.439  69.107  1.00  0.00    -0.202 OA 
BRANCH  19  20
HETATM   20  C   UNL     1      -9.890   9.104  68.779  1.00  0.00    -0.167 A  
HETATM   21  C   UNL     1     -10.178   8.811  67.444  1.00  0.00    -0.318 A  
HETATM   22  C   UNL     1     -10.178   7.483  67.015  1.00  0.00    -0.298 A  
HETATM   23  C   UNL     1      -9.887   6.443  67.908  1.00  0.00    -0.130 A  
HETATM   24  C   UNL     1      -9.568   6.746  69.229  1.00  0.00    -0.144 A  
HETATM   25  C   UNL     1      -9.799   5.031  67.405  1.00  0.00    -0.207 C  
HETATM   26  C   UNL     1      -9.563   8.068  69.659  1.00  0.00    -0.168 A  
HETATM   27  C   UNL     1     -10.673   4.811  66.185  1.00  0.00    -0.177 C  
HETATM   28  C   UNL     1     -10.542   5.925  65.171  1.00  0.00     2.182 C  
HETATM   29  O   UNL     1     -10.653   5.729  63.965  1.00  0.00     3.143 OA 
HETATM   30  N   UNL     1     -10.420   7.192  65.671  1.00  0.00     1.279 N  
HETATM   31  H   UNL     1     -10.512   7.973  65.022  1.00  0.00     0.000 HD 
ENDBRANCH  19  20
ENDBRANCH  18  19
ENDBRANCH  17  18
ENDBRANCH  16  17
ENDBRANCH  15  16
ENDBRANCH  12  15
ENDBRANCH   6   9
TORSDOF 7
ENDMDL
MODEL      333
REMARK 921   NORMALIZED FREE ENERGY PREDICTED BY IDOCK:   55.21 KCAL/MOL
REMARK 922        TOTAL FREE ENERGY PREDICTED BY IDOCK:   76.20 KCAL/MOL
REMARK 923 INTER-LIGAND FREE ENERGY PREDICTED BY IDOCK:   26.09 KCAL/MOL
REMARK 924 INTRA-LIGAND FREE ENERGY PREDICTED BY IDOCK:   50.12 KCAL/MOL
REMARK 927      BINDING AFFINITY PREDICTED BY RF-SCORE:    0.00 PKD
ROOT
HETATM    1 CL   UNL     1      -9.504   6.698  70.006  1.00  0.00    -0.157 Cl 
HETATM    2  C   UNL     1     -10.218   8.274  69.874  1.00  0.00    -0.201 A  
HETATM    3  C   UNL     1     -11.405   8.475  70.575  1.00  0.00    -0.235 A  
HETATM    4  C   UNL     1     -12.040   9.706  70.503  1.00  0.00    -0.198 A  
HETATM    5  C   UNL     1     -11.510  10.714  69.697  1.00  0.00    -0.361 A  
HETATM    6  C   UNL     1     -10.319  10.558  68.953  1.00  0.00    -0.208 A  
HETATM    7  C   UNL     1      -9.651   9.308  69.096  1.00  0.00    -0.161 A  
HETATM    8 CL   UNL     1      -8.062   9.036  68.427  1.00  0.00    -0.107 Cl 
ENDROOT
BRANCH   6   9
HETATM    9  N   UNL     1      -9.928  11.595  68.113  1.00  0.00    -0.189 NA 
HETATM   10  C   UNL     1      -9.411  11.350  66.754  1.00  0.00    -0.180 C  
HETATM   11  C   UNL     1      -9.991  12.362  65.740  1.00  0.00    -0.254 C  
HETATM   12  N   UNL     1      -9.851  13.784  66.128  1.00  0.00    -0.301 NA 
HETATM   13  C   UNL     1      -9.908  13.005  68.556  1.00  0.00    -0.151 C  
HETATM   14  C   UNL     1     -10.487  13.932  67.459  1.00  0.00    -0.248 C  
BRANCH  12  15
HETATM   15  C   UNL     1      -8.444  14.218  66.158  1.00  0.00     0.884 C  
BRANCH  15  16
HETATM   16  C   UNL     1      -7.497  13.202  66.827  1.00  0.00     0.598 C  
BRANCH  16  17
HETATM   17  C   UNL     1      -7.568  13.180  68.357  1.00  0.00    -0.133 C  
BRANCH  17  18
HETATM   18  C   UNL     1      -8.973  13.514  68.835  1.00  0.00     0.228 C  
BRANCH  18  19
HETATM   19  O   UNL     1      -9.599  12.367  69.409  1.00  0.00     0.616 OA 
BRANCH  19  20
HETATM   20  C   UNL     1      -8.762  11.627  70.210  1.00  0.00     3.705 A  
HETATM   21  C   UNL     1      -8.119  10.560  69.575  1.00  0.00    -0.105 A  
HETATM   22  C   UNL     1      -7.254   9.746  70.306  1.00  0.00    -0.149 A  
HETATM   23  C   UNL     1      -7.019   9.988  71.666  1.00  0.00     1.158 A  
HETATM   24  C   UNL     1      -7.638  11.073  72.282  1.00  0.00     9.032 A  
HETATM   25  C   UNL     1      -6.013   9.159  72.409  1.00  0.00     0.017 C  
HETATM   26  C   UNL     1      -8.497  11.890  71.557  1.00  0.00    13.300 A  
HETATM   27  C   UNL     1      -5.876   7.770  71.814  1.00  0.00    -0.035 C  
HETATM   28  C   UNL     1      -5.787   7.793  70.305  1.00  0.00    -0.023 C  
HETATM   29  O   UNL     1      -5.135   6.967  69.675  1.00  0.00    -0.014 OA 
HETATM   30  N   UNL     1      -6.576   8.708  69.663  1.00  0.00    -0.039 N  
HETATM   31  H   UNL     1      -6.674   8.628  68.651  1.00  0.00     0.000 HD 
ENDBRANCH  19  20
ENDBRANCH  18  19
ENDBRANCH  17  18
ENDBRANCH  16  17
ENDBRANCH  15  16
ENDBRANCH  12  15
ENDBRANCH   6   9
TORSDOF 7
ENDMDL
MODEL      334
REMARK 921   NORMALIZED FREE ENERGY PREDICTED BY IDOCK:   62.26 KCAL/MOL
REMARK 922        TOTAL FREE ENERGY PREDICTED BY IDOCK:   86.14 KCAL/MOL
REMARK 923 INTER-LIGAND FREE ENERGY PREDICTED BY IDOCK:   85.76 KCAL/MOL
REMARK 924 INTRA-LIGAND FREE ENERGY PREDICTED BY IDOCK:    0.38 KCAL/MOL
REMARK 927      BINDING AFFINITY PREDICTED BY RF-SCORE:    0.00 PKD
ROOT
HETATM    1 CL   UNL     1      -9.696  19.072  74.079  1.00  0.00     4.154 Cl 
HETATM    2  C   UNL     1      -8.239  18.645  73.237  1.00  0.00     9.392 A  
HETATM    3  C   UNL     1      -7.206  19.578  73.278  1.00  0.00     4.995 A  
HETATM    4  C   UNL     1      -6.018  19.311  72.614  1.00  0.00     1.759 A  
HETATM    5  C   UNL     1      -5.885  18.133  71.877  1.00  0.00     1.087 A  
HETATM    6  C   UNL     1      -6.906  17.161  71.789  1.00  0.00     5.634 A  
HETATM    7  C   UNL     1      -8.091  17.429  72.534  1.00  0.00    15.572 A  
HETATM    8 CL   UNL     1      -9.350  16.234  72.713  1.00  0.00    10.275 Cl 
ENDROOT
BRANCH   6   9
HETATM    9  N   UNL     1      -6.702  16.067  70.956  1.00  0.00     1.513 NA 
HETATM   10  C   UNL     1      -6.786  14.679  71.449  1.00  0.00     1.011 C  
HETATM   11  C   UNL     1      -7.536  13.771  70.449  1.00  0.00     1.884 C  
HETATM   12  N   UNL     1      -7.032  13.825  69.058  1.00  0.00    -0.111 NA 
HETATM   13  C   UNL     1      -6.288  16.216  69.545  1.00  0.00    -0.191 C  
HETATM   14  C   UNL     1      -7.082  15.246  68.636  1.00  0.00    -0.116 C  
BRANCH  12  15
HETATM   15  C   UNL     1      -5.669  13.282  68.936  1.00  0.00    -0.074 C  
BRANCH  15  16
HETATM   16  C   UNL     1      -5.424  12.027  69.798  1.00  0.00    -0.089 C  
BRANCH  16  17
HETATM   17  C   UNL     1      -6.455  10.911  69.602  1.00  0.00    -0.114 C  
BRANCH  17  18
HETATM   18  C   UNL     1      -6.971  10.415  70.945  1.00  0.00     0.638 C  
BRANCH  18  19
HETATM   19  O   UNL     1      -8.078  11.201  71.383  1.00  0.00     5.050 OA 
BRANCH  19  20
HETATM   20  C   UNL     1      -9.296  10.712  70.976  1.00  0.00     3.544 A  
HETATM   21  C   UNL     1      -9.833  11.320  69.837  1.00  0.00     0.997 A  
HETATM   22  C   UNL     1     -11.070  10.895  69.350  1.00  0.00    -0.260 A  
HETATM   23  C   UNL     1     -11.776   9.866  69.986  1.00  0.00    -0.186 A  
HETATM   24  C   UNL     1     -11.218   9.242  71.099  1.00  0.00    -0.413 A  
HETATM   25  C   UNL     1     -13.058   9.361  69.390  1.00  0.00     3.218 C  
HETATM   26  C   UNL     1      -9.984   9.659  71.586  1.00  0.00     0.598 A  
HETATM   27  C   UNL     1     -13.769  10.435  68.589  1.00  0.00     7.484 C  
HETATM   28  C   UNL     1     -12.830  11.199  67.684  1.00  0.00     4.497 C  
HETATM   29  O   UNL     1     -13.188  11.656  66.603  1.00  0.00     4.319 OA 
HETATM   30  N   UNL     1     -11.586  11.470  68.186  1.00  0.00    -0.308 N  
HETATM   31  H   UNL     1     -10.999  12.132  67.680  1.00  0.00     0.000 HD 
ENDBRANCH  19  20
ENDBRANCH  18  19
ENDBRANCH  17  18
ENDBRANCH  16  17
ENDBRANCH  15  16
ENDBRANCH  12  15
ENDBRANCH   6   9
TORSDOF 7
ENDMDL
