MODEL        1
REMARK 921   NORMALIZED FREE ENERGY PREDICTED BY IDOCK:   -5.97 KCAL/MOL
REMARK 922        TOTAL FREE ENERGY PREDICTED BY IDOCK:   -8.72 KCAL/MOL
REMARK 923 INTER-LIGAND FREE ENERGY PREDICTED BY IDOCK:   -7.72 KCAL/MOL
REMARK 924 INTRA-LIGAND FREE ENERGY PREDICTED BY IDOCK:   -1.00 KCAL/MOL
REMARK 927      BINDING AFFINITY PREDICTED BY RF-SCORE:    0.00 PKD
ROOT
HETATM    1  N   UNL     1     -12.149  15.491  63.759  1.00  0.00    -0.974 N  
HETATM    2  C   UNL     1     -12.356  14.245  64.290  1.00  0.00    -0.377 C  
HETATM    3  H1  UNL     1     -12.078  16.312  64.359  1.00  0.00     0.000 HD 
HETATM    4  H2  UNL     1     -12.064  15.598  62.747  1.00  0.00     0.000 HD 
HETATM    5  O   UNL     1     -12.441  13.257  63.567  1.00  0.00    -0.728 OA 
ENDROOT
BRANCH   2   6
HETATM    6  C   UNL     1     -12.511  14.188  65.796  1.00  0.00    -0.466 C  
BRANCH   6   7
HETATM    7  S   UNL     1     -10.889  14.407  66.579  1.00  0.00    -0.316 S  
HETATM    8  O   UNL     1     -10.047  15.183  65.601  1.00  0.00    -0.312 OA 
BRANCH   7   9
HETATM    9  C   UNL     1     -11.403  15.572  67.924  1.00  0.00    -0.308 C  
BRANCH   9  10
HETATM   10  C   UNL     1     -11.845  14.894  69.217  1.00  0.00    -0.350 A  
HETATM   11  C   UNL     1     -11.777  13.493  69.321  1.00  0.00    -0.382 A  
HETATM   12  C   UNL     1     -12.384  15.605  70.301  1.00  0.00    -0.402 A  
HETATM   13  C   UNL     1     -12.233  12.829  70.464  1.00  0.00    -0.389 A  
HETATM   14  C   UNL     1     -12.776  13.552  71.518  1.00  0.00    -0.412 A  
HETATM   15  C   UNL     1     -12.853  14.940  71.439  1.00  0.00    -0.416 A  
ENDBRANCH   9  10
BRANCH   9  16
HETATM   16  C   UNL     1     -10.318  16.628  68.144  1.00  0.00    -0.303 A  
HETATM   17  C   UNL     1      -9.562  18.934  67.927  1.00  0.00    -0.361 A  
HETATM   18  C   UNL     1      -8.060  17.271  68.810  1.00  0.00    -0.242 A  
HETATM   19  C   UNL     1     -10.560  17.966  67.788  1.00  0.00    -0.399 A  
HETATM   20  C   UNL     1      -9.052  16.301  68.665  1.00  0.00    -0.228 A  
HETATM   21  C   UNL     1      -8.312  18.586  68.437  1.00  0.00    -0.355 A  
ENDBRANCH   9  16
ENDBRANCH   7   9
ENDBRANCH   6   7
ENDBRANCH   2   6
TORSDOF 5
ENDMDL
MODEL        2
REMARK 921   NORMALIZED FREE ENERGY PREDICTED BY IDOCK:   -5.97 KCAL/MOL
REMARK 922        TOTAL FREE ENERGY PREDICTED BY IDOCK:   -8.72 KCAL/MOL
REMARK 923 INTER-LIGAND FREE ENERGY PREDICTED BY IDOCK:   -8.18 KCAL/MOL
REMARK 924 INTRA-LIGAND FREE ENERGY PREDICTED BY IDOCK:   -0.54 KCAL/MOL
REMARK 927      BINDING AFFINITY PREDICTED BY RF-SCORE:    0.00 PKD
ROOT
HETATM    1  N   UNL     1     -12.486  14.015  63.551  1.00  0.00    -1.099 N  
HETATM    2  C   UNL     1     -11.932  15.067  64.230  1.00  0.00    -0.295 C  
HETATM    3  H1  UNL     1     -12.354  13.055  63.872  1.00  0.00     0.000 HD 
HETATM    4  H2  UNL     1     -13.038  14.192  62.711  1.00  0.00     0.000 HD 
HETATM    5  O   UNL     1     -12.092  16.221  63.844  1.00  0.00    -0.986 OA 
ENDROOT
BRANCH   2   6
HETATM    6  C   UNL     1     -11.096  14.705  65.440  1.00  0.00    -0.348 C  
BRANCH   6   7
HETATM    7  S   UNL     1     -12.139  13.879  66.672  1.00  0.00    -0.433 S  
HETATM    8  O   UNL     1     -12.301  12.456  66.205  1.00  0.00    -0.606 OA 
BRANCH   7   9
HETATM    9  C   UNL     1     -10.933  13.874  68.077  1.00  0.00    -0.251 C  
BRANCH   9  10
HETATM   10  C   UNL     1     -10.208  15.198  68.298  1.00  0.00    -0.223 A  
HETATM   11  C   UNL     1     -10.917  16.405  68.154  1.00  0.00    -0.339 A  
HETATM   12  C   UNL     1      -8.835  15.275  68.580  1.00  0.00    -0.188 A  
HETATM   13  C   UNL     1     -10.275  17.640  68.285  1.00  0.00    -0.374 A  
HETATM   14  C   UNL     1      -8.912  17.692  68.550  1.00  0.00    -0.289 A  
HETATM   15  C   UNL     1      -8.190  16.510  68.697  1.00  0.00    -0.234 A  
ENDBRANCH   9  10
BRANCH   9  16
HETATM   16  C   UNL     1     -11.608  13.342  69.343  1.00  0.00    -0.365 A  
HETATM   17  C   UNL     1     -12.337  11.451  70.695  1.00  0.00    -0.466 A  
HETATM   18  C   UNL     1     -12.857  13.692  71.410  1.00  0.00    -0.442 A  
HETATM   19  C   UNL     1     -11.676  11.958  69.573  1.00  0.00    -0.410 A  
HETATM   20  C   UNL     1     -12.203  14.199  70.287  1.00  0.00    -0.416 A  
HETATM   21  C   UNL     1     -12.929  12.318  71.612  1.00  0.00    -0.416 A  
ENDBRANCH   9  16
ENDBRANCH   7   9
ENDBRANCH   6   7
ENDBRANCH   2   6
TORSDOF 5
ENDMDL
MODEL        3
REMARK 921   NORMALIZED FREE ENERGY PREDICTED BY IDOCK:   -5.91 KCAL/MOL
REMARK 922        TOTAL FREE ENERGY PREDICTED BY IDOCK:   -8.64 KCAL/MOL
REMARK 923 INTER-LIGAND FREE ENERGY PREDICTED BY IDOCK:   -7.65 KCAL/MOL
REMARK 924 INTRA-LIGAND FREE ENERGY PREDICTED BY IDOCK:   -0.99 KCAL/MOL
REMARK 927      BINDING AFFINITY PREDICTED BY RF-SCORE:    0.00 PKD
ROOT
HETATM    1  N   UNL     1     -12.159  15.584  63.806  1.00  0.00    -0.974 N  
HETATM    2  C   UNL     1     -12.383  14.294  64.211  1.00  0.00    -0.377 C  
HETATM    3  H1  UNL     1     -12.072  16.339  64.487  1.00  0.00     0.000 HD 
HETATM    4  H2  UNL     1     -12.079  15.793  62.811  1.00  0.00     0.000 HD 
HETATM    5  O   UNL     1     -12.488  13.386  63.392  1.00  0.00    -0.753 OA 
ENDROOT
BRANCH   2   6
HETATM    6  C   UNL     1     -12.528  14.086  65.703  1.00  0.00    -0.504 C  
BRANCH   6   7
HETATM    7  S   UNL     1     -10.919  14.322  66.507  1.00  0.00    -0.322 S  
HETATM    8  O   UNL     1     -10.053  15.054  65.515  1.00  0.00    -0.328 OA 
BRANCH   7   9
HETATM    9  C   UNL     1     -11.446  15.540  67.798  1.00  0.00    -0.243 C  
BRANCH   9  10
HETATM   10  C   UNL     1     -11.866  14.918  69.126  1.00  0.00    -0.340 A  
HETATM   11  C   UNL     1     -11.736  13.529  69.309  1.00  0.00    -0.382 A  
HETATM   12  C   UNL     1     -12.445  15.663  70.165  1.00  0.00    -0.311 A  
HETATM   13  C   UNL     1     -12.170  12.911  70.486  1.00  0.00    -0.395 A  
HETATM   14  C   UNL     1     -12.753  13.667  71.495  1.00  0.00    -0.420 A  
HETATM   15  C   UNL     1     -12.892  15.044  71.336  1.00  0.00    -0.432 A  
ENDBRANCH   9  10
BRANCH   9  16
HETATM   16  C   UNL     1     -10.380  16.626  67.958  1.00  0.00    -0.303 A  
HETATM   17  C   UNL     1      -8.171  17.298  68.736  1.00  0.00    -0.231 A  
HETATM   18  C   UNL     1      -9.645  18.947  67.782  1.00  0.00    -0.357 A  
HETATM   19  C   UNL     1      -9.136  16.308  68.529  1.00  0.00    -0.216 A  
HETATM   20  C   UNL     1     -10.612  17.962  67.581  1.00  0.00    -0.398 A  
HETATM   21  C   UNL     1      -8.426  18.616  68.364  1.00  0.00    -0.366 A  
ENDBRANCH   9  16
ENDBRANCH   7   9
ENDBRANCH   6   7
ENDBRANCH   2   6
TORSDOF 5
ENDMDL
MODEL        4
REMARK 921   NORMALIZED FREE ENERGY PREDICTED BY IDOCK:   -5.90 KCAL/MOL
REMARK 922        TOTAL FREE ENERGY PREDICTED BY IDOCK:   -8.63 KCAL/MOL
REMARK 923 INTER-LIGAND FREE ENERGY PREDICTED BY IDOCK:   -8.04 KCAL/MOL
REMARK 924 INTRA-LIGAND FREE ENERGY PREDICTED BY IDOCK:   -0.59 KCAL/MOL
REMARK 927      BINDING AFFINITY PREDICTED BY RF-SCORE:    0.00 PKD
ROOT
HETATM    1  N   UNL     1     -12.385  13.883  63.343  1.00  0.00    -1.139 N  
HETATM    2  C   UNL     1     -11.989  14.941  64.117  1.00  0.00    -0.235 C  
HETATM    3  H1  UNL     1     -12.143  12.926  63.599  1.00  0.00     0.000 HD 
HETATM    4  H2  UNL     1     -12.931  14.055  62.497  1.00  0.00     0.000 HD 
HETATM    5  O   UNL     1     -12.281  16.092  63.809  1.00  0.00    -0.934 OA 
ENDROOT
BRANCH   2   6
HETATM    6  C   UNL     1     -11.150  14.594  65.329  1.00  0.00    -0.360 C  
BRANCH   6   7
HETATM    7  S   UNL     1     -12.165  13.689  66.529  1.00  0.00    -0.370 S  
HETATM    8  O   UNL     1     -12.261  12.273  66.022  1.00  0.00    -0.646 OA 
BRANCH   7   9
HETATM    9  C   UNL     1     -10.971  13.698  67.944  1.00  0.00    -0.259 C  
BRANCH   9  10
HETATM   10  C   UNL     1     -10.289  15.040  68.193  1.00  0.00    -0.239 A  
HETATM   11  C   UNL     1      -8.943  15.065  68.601  1.00  0.00    -0.186 A  
HETATM   12  C   UNL     1     -10.966  16.265  68.096  1.00  0.00    -0.343 A  
HETATM   13  C   UNL     1      -8.301  16.270  68.902  1.00  0.00    -0.231 A  
HETATM   14  C   UNL     1      -8.996  17.470  68.813  1.00  0.00    -0.211 A  
HETATM   15  C   UNL     1     -10.329  17.470  68.410  1.00  0.00    -0.378 A  
ENDBRANCH   9  10
BRANCH   9  16
HETATM   16  C   UNL     1     -11.639  13.125  69.196  1.00  0.00    -0.368 A  
HETATM   17  C   UNL     1     -12.762  13.491  71.327  1.00  0.00    -0.432 A  
HETATM   18  C   UNL     1     -12.256  11.244  70.623  1.00  0.00    -0.489 A  
HETATM   19  C   UNL     1     -12.198  13.992  70.150  1.00  0.00    -0.425 A  
HETATM   20  C   UNL     1     -11.686  11.742  69.451  1.00  0.00    -0.405 A  
HETATM   21  C   UNL     1     -12.789  12.118  71.563  1.00  0.00    -0.394 A  
ENDBRANCH   9  16
ENDBRANCH   7   9
ENDBRANCH   6   7
ENDBRANCH   2   6
TORSDOF 5
ENDMDL
MODEL        5
REMARK 921   NORMALIZED FREE ENERGY PREDICTED BY IDOCK:   -5.88 KCAL/MOL
REMARK 922        TOTAL FREE ENERGY PREDICTED BY IDOCK:   -8.60 KCAL/MOL
REMARK 923 INTER-LIGAND FREE ENERGY PREDICTED BY IDOCK:   -7.52 KCAL/MOL
REMARK 924 INTRA-LIGAND FREE ENERGY PREDICTED BY IDOCK:   -1.08 KCAL/MOL
REMARK 927      BINDING AFFINITY PREDICTED BY RF-SCORE:    0.00 PKD
ROOT
HETATM    1  N   UNL     1     -12.046  15.447  63.921  1.00  0.00    -0.981 N  
HETATM    2  C   UNL     1     -12.270  14.131  64.226  1.00  0.00    -0.420 C  
HETATM    3  H1  UNL     1     -11.994  16.154  64.655  1.00  0.00     0.000 HD 
HETATM    4  H2  UNL     1     -11.930  15.725  62.946  1.00  0.00     0.000 HD 
HETATM    5  O   UNL     1     -12.332  13.281  63.343  1.00  0.00    -0.726 OA 
ENDROOT
BRANCH   2   6
HETATM    6  C   UNL     1     -12.471  13.819  65.694  1.00  0.00    -0.503 C  
BRANCH   6   7
HETATM    7  S   UNL     1     -10.876  13.903  66.554  1.00  0.00    -0.297 S  
HETATM    8  O   UNL     1      -9.920  14.584  65.610  1.00  0.00    -0.330 OA 
BRANCH   7   9
HETATM    9  C   UNL     1     -11.346  15.130  67.859  1.00  0.00    -0.338 C  
BRANCH   9  10
HETATM   10  C   UNL     1     -11.902  14.516  69.140  1.00  0.00    -0.354 A  
HETATM   11  C   UNL     1     -12.421  15.358  70.141  1.00  0.00    -0.370 A  
HETATM   12  C   UNL     1     -11.864  13.137  69.400  1.00  0.00    -0.383 A  
HETATM   13  C   UNL     1     -12.880  14.839  71.356  1.00  0.00    -0.409 A  
HETATM   14  C   UNL     1     -12.819  13.473  71.597  1.00  0.00    -0.419 A  
HETATM   15  C   UNL     1     -12.310  12.619  70.620  1.00  0.00    -0.375 A  
ENDBRANCH   9  10
BRANCH   9  16
HETATM   16  C   UNL     1     -10.184  16.093  68.114  1.00  0.00    -0.247 A  
HETATM   17  C   UNL     1      -9.209  18.312  67.872  1.00  0.00    -0.284 A  
HETATM   18  C   UNL     1      -7.923  16.557  68.904  1.00  0.00    -0.239 A  
HETATM   19  C   UNL     1     -10.281  17.432  67.700  1.00  0.00    -0.342 A  
HETATM   20  C   UNL     1      -8.989  15.675  68.727  1.00  0.00    -0.205 A  
HETATM   21  C   UNL     1      -8.030  17.874  68.473  1.00  0.00    -0.302 A  
ENDBRANCH   9  16
ENDBRANCH   7   9
ENDBRANCH   6   7
ENDBRANCH   2   6
TORSDOF 5
ENDMDL
MODEL        6
REMARK 921   NORMALIZED FREE ENERGY PREDICTED BY IDOCK:   -5.82 KCAL/MOL
REMARK 922        TOTAL FREE ENERGY PREDICTED BY IDOCK:   -8.52 KCAL/MOL
REMARK 923 INTER-LIGAND FREE ENERGY PREDICTED BY IDOCK:   -7.65 KCAL/MOL
REMARK 924 INTRA-LIGAND FREE ENERGY PREDICTED BY IDOCK:   -0.88 KCAL/MOL
REMARK 927      BINDING AFFINITY PREDICTED BY RF-SCORE:    0.00 PKD
ROOT
HETATM    1  N   UNL     1      -8.421  17.892  66.396  1.00  0.00    -0.253 N  
HETATM    2  C   UNL     1      -9.497  17.045  66.381  1.00  0.00    -0.271 C  
HETATM    3  H1  UNL     1      -7.642  17.740  67.038  1.00  0.00     0.000 HD 
HETATM    4  H2  UNL     1      -8.397  18.688  65.757  1.00  0.00     0.000 HD 
HETATM    5  O   UNL     1     -10.433  17.229  65.609  1.00  0.00    -0.561 OA 
ENDROOT
BRANCH   2   6
HETATM    6  C   UNL     1      -9.464  15.918  67.391  1.00  0.00    -0.219 C  
BRANCH   6   7
HETATM    7  S   UNL     1     -10.103  16.513  68.981  1.00  0.00    -0.291 S  
HETATM    8  O   UNL     1     -10.385  17.982  68.803  1.00  0.00    -0.368 OA 
BRANCH   7   9
HETATM    9  C   UNL     1     -11.728  15.625  68.961  1.00  0.00    -0.395 C  
BRANCH   9  10
HETATM   10  C   UNL     1     -11.691  14.246  68.309  1.00  0.00    -0.377 A  
HETATM   11  C   UNL     1     -11.190  13.151  69.038  1.00  0.00    -0.309 A  
HETATM   12  C   UNL     1     -12.078  14.024  66.978  1.00  0.00    -0.455 A  
HETATM   13  C   UNL     1     -11.079  11.885  68.455  1.00  0.00    -0.292 A  
HETATM   14  C   UNL     1     -11.455  11.692  67.132  1.00  0.00    -0.344 A  
HETATM   15  C   UNL     1     -11.954  12.761  66.391  1.00  0.00    -0.443 A  
ENDBRANCH   9  10
BRANCH   9  16
HETATM   16  C   UNL     1     -12.332  15.605  70.367  1.00  0.00    -0.427 A  
HETATM   17  C   UNL     1     -12.063  15.914  72.768  1.00  0.00    -0.611 A  
HETATM   18  C   UNL     1     -14.169  15.129  71.901  1.00  0.00    -0.676 A  
HETATM   19  C   UNL     1     -11.548  15.980  71.471  1.00  0.00    -0.529 A  
HETATM   20  C   UNL     1     -13.654  15.187  70.606  1.00  0.00    -0.176 A  
HETATM   21  C   UNL     1     -13.372  15.487  72.983  1.00  0.00    -0.650 A  
ENDBRANCH   9  16
ENDBRANCH   7   9
ENDBRANCH   6   7
ENDBRANCH   2   6
TORSDOF 5
ENDMDL
MODEL        7
REMARK 921   NORMALIZED FREE ENERGY PREDICTED BY IDOCK:   -5.81 KCAL/MOL
REMARK 922        TOTAL FREE ENERGY PREDICTED BY IDOCK:   -8.51 KCAL/MOL
REMARK 923 INTER-LIGAND FREE ENERGY PREDICTED BY IDOCK:   -7.68 KCAL/MOL
REMARK 924 INTRA-LIGAND FREE ENERGY PREDICTED BY IDOCK:   -0.83 KCAL/MOL
REMARK 927      BINDING AFFINITY PREDICTED BY RF-SCORE:    0.00 PKD
ROOT
HETATM    1  N   UNL     1     -10.966  14.198  65.328  1.00  0.00    -0.319 N  
HETATM    2  C   UNL     1     -12.118  13.729  65.902  1.00  0.00    -0.433 C  
HETATM    3  H1  UNL     1     -10.052  13.959  65.715  1.00  0.00     0.000 HD 
HETATM    4  H2  UNL     1     -11.021  14.794  64.502  1.00  0.00     0.000 HD 
HETATM    5  O   UNL     1     -13.216  14.016  65.436  1.00  0.00    -0.761 OA 
ENDROOT
BRANCH   2   6
HETATM    6  C   UNL     1     -11.940  12.886  67.147  1.00  0.00    -0.310 C  
BRANCH   6   7
HETATM    7  S   UNL     1     -11.416  13.944  68.524  1.00  0.00    -0.335 S  
HETATM    8  O   UNL     1     -11.875  15.339  68.186  1.00  0.00    -0.330 OA 
BRANCH   7   9
HETATM    9  C   UNL     1     -12.560  13.276  69.818  1.00  0.00     0.126 C  
BRANCH   9  10
HETATM   10  C   UNL     1     -12.218  11.872  70.307  1.00  0.00    -0.353 A  
HETATM   11  C   UNL     1     -12.979  11.296  71.341  1.00  0.00    -0.482 A  
HETATM   12  C   UNL     1     -11.126  11.141  69.813  1.00  0.00    -0.271 A  
HETATM   13  C   UNL     1     -12.657  10.039  71.861  1.00  0.00    -0.454 A  
HETATM   14  C   UNL     1     -11.564   9.340  71.366  1.00  0.00    -0.437 A  
HETATM   15  C   UNL     1     -10.796   9.889  70.342  1.00  0.00    -0.380 A  
ENDBRANCH   9  10
BRANCH   9  16
HETATM   16  C   UNL     1     -12.707  14.286  70.958  1.00  0.00    -0.430 A  
HETATM   17  C   UNL     1     -11.689  15.603  72.736  1.00  0.00    -0.537 A  
HETATM   18  C   UNL     1     -14.079  15.657  72.440  1.00  0.00    -0.575 A  
HETATM   19  C   UNL     1     -11.569  14.725  71.656  1.00  0.00    -0.260 A  
HETATM   20  C   UNL     1     -13.962  14.775  71.365  1.00  0.00    -0.512 A  
HETATM   21  C   UNL     1     -12.943  16.068  73.129  1.00  0.00    -0.627 A  
ENDBRANCH   9  16
ENDBRANCH   7   9
ENDBRANCH   6   7
ENDBRANCH   2   6
TORSDOF 5
ENDMDL
MODEL        8
REMARK 921   NORMALIZED FREE ENERGY PREDICTED BY IDOCK:   -5.81 KCAL/MOL
REMARK 922        TOTAL FREE ENERGY PREDICTED BY IDOCK:   -8.51 KCAL/MOL
REMARK 923 INTER-LIGAND FREE ENERGY PREDICTED BY IDOCK:   -7.47 KCAL/MOL
REMARK 924 INTRA-LIGAND FREE ENERGY PREDICTED BY IDOCK:   -1.04 KCAL/MOL
REMARK 927      BINDING AFFINITY PREDICTED BY RF-SCORE:    0.00 PKD
ROOT
HETATM    1  N   UNL     1     -12.449  15.088  63.730  1.00  0.00    -1.049 N  
HETATM    2  C   UNL     1     -12.470  13.845  64.305  1.00  0.00    -0.259 C  
HETATM    3  H1  UNL     1     -12.445  15.932  64.305  1.00  0.00     0.000 HD 
HETATM    4  H2  UNL     1     -12.438  15.173  62.713  1.00  0.00     0.000 HD 
HETATM    5  O   UNL     1     -12.476  12.831  63.614  1.00  0.00    -0.642 OA 
ENDROOT
BRANCH   2   6
HETATM    6  C   UNL     1     -12.527  13.818  65.818  1.00  0.00    -0.485 C  
BRANCH   6   7
HETATM    7  S   UNL     1     -10.892  14.222  66.492  1.00  0.00    -0.309 S  
HETATM    8  O   UNL     1     -10.141  14.926  65.392  1.00  0.00    -0.346 OA 
BRANCH   7   9
HETATM    9  C   UNL     1     -11.423  15.505  67.718  1.00  0.00    -0.243 C  
BRANCH   9  10
HETATM   10  C   UNL     1     -11.911  14.948  69.051  1.00  0.00    -0.333 A  
HETATM   11  C   UNL     1     -12.352  15.836  70.050  1.00  0.00    -0.248 A  
HETATM   12  C   UNL     1     -11.881  13.579  69.359  1.00  0.00    -0.389 A  
HETATM   13  C   UNL     1     -12.745  15.370  71.309  1.00  0.00    -0.501 A  
HETATM   14  C   UNL     1     -12.693  14.012  71.596  1.00  0.00    -0.422 A  
HETATM   15  C   UNL     1     -12.261  13.114  70.622  1.00  0.00    -0.402 A  
ENDBRANCH   9  10
BRANCH   9  16
HETATM   16  C   UNL     1     -10.328  16.562  67.876  1.00  0.00    -0.294 A  
HETATM   17  C   UNL     1      -8.074  17.156  68.584  1.00  0.00    -0.264 A  
HETATM   18  C   UNL     1      -9.551  18.873  67.764  1.00  0.00    -0.357 A  
HETATM   19  C   UNL     1      -9.068  16.195  68.378  1.00  0.00    -0.199 A  
HETATM   20  C   UNL     1     -10.547  17.917  67.565  1.00  0.00    -0.386 A  
HETATM   21  C   UNL     1      -8.316  18.494  68.278  1.00  0.00    -0.344 A  
ENDBRANCH   9  16
ENDBRANCH   7   9
ENDBRANCH   6   7
ENDBRANCH   2   6
TORSDOF 5
ENDMDL
MODEL        9
REMARK 921   NORMALIZED FREE ENERGY PREDICTED BY IDOCK:   -5.80 KCAL/MOL
REMARK 922        TOTAL FREE ENERGY PREDICTED BY IDOCK:   -8.50 KCAL/MOL
REMARK 923 INTER-LIGAND FREE ENERGY PREDICTED BY IDOCK:   -8.17 KCAL/MOL
REMARK 924 INTRA-LIGAND FREE ENERGY PREDICTED BY IDOCK:   -0.33 KCAL/MOL
REMARK 927      BINDING AFFINITY PREDICTED BY RF-SCORE:    0.00 PKD
ROOT
HETATM    1  N   UNL     1     -12.340  14.628  64.012  1.00  0.00    -0.999 N  
HETATM    2  C   UNL     1     -12.313  13.987  65.222  1.00  0.00    -0.465 C  
HETATM    3  H1  UNL     1     -11.804  15.482  63.859  1.00  0.00     0.000 HD 
HETATM    4  H2  UNL     1     -12.904  14.245  63.252  1.00  0.00     0.000 HD 
HETATM    5  O   UNL     1     -12.958  12.958  65.405  1.00  0.00    -0.615 OA 
ENDROOT
BRANCH   2   6
HETATM    6  C   UNL     1     -11.483  14.649  66.301  1.00  0.00    -0.351 C  
BRANCH   6   7
HETATM    7  S   UNL     1     -11.893  13.921  67.912  1.00  0.00    -0.366 S  
HETATM    8  O   UNL     1     -10.695  13.106  68.326  1.00  0.00    -0.230 OA 
BRANCH   7   9
HETATM    9  C   UNL     1     -11.886  15.478  68.914  1.00  0.00    -0.338 C  
BRANCH   9  10
HETATM   10  C   UNL     1     -12.172  15.280  70.399  1.00  0.00    -0.404 A  
HETATM   11  C   UNL     1     -13.001  14.218  70.807  1.00  0.00    -0.368 A  
HETATM   12  C   UNL     1     -11.696  16.155  71.388  1.00  0.00    -0.506 A  
HETATM   13  C   UNL     1     -13.340  14.042  72.152  1.00  0.00    -0.545 A  
HETATM   14  C   UNL     1     -12.869  14.928  73.111  1.00  0.00    -0.619 A  
HETATM   15  C   UNL     1     -12.046  15.986  72.731  1.00  0.00    -0.635 A  
ENDBRANCH   9  10
BRANCH   9  16
HETATM   16  C   UNL     1     -10.598  16.262  68.653  1.00  0.00    -0.297 A  
HETATM   17  C   UNL     1      -8.177  16.446  68.856  1.00  0.00    -0.235 A  
HETATM   18  C   UNL     1      -9.428  18.261  67.883  1.00  0.00    -0.288 A  
HETATM   19  C   UNL     1      -9.359  15.721  69.034  1.00  0.00    -0.244 A  
HETATM   20  C   UNL     1     -10.609  17.541  68.067  1.00  0.00    -0.384 A  
HETATM   21  C   UNL     1      -8.213  17.716  68.283  1.00  0.00    -0.276 A  
ENDBRANCH   9  16
ENDBRANCH   7   9
ENDBRANCH   6   7
ENDBRANCH   2   6
TORSDOF 5
ENDMDL
MODEL       10
REMARK 921   NORMALIZED FREE ENERGY PREDICTED BY IDOCK:   -5.77 KCAL/MOL
REMARK 922        TOTAL FREE ENERGY PREDICTED BY IDOCK:   -8.45 KCAL/MOL
REMARK 923 INTER-LIGAND FREE ENERGY PREDICTED BY IDOCK:   -7.63 KCAL/MOL
REMARK 924 INTRA-LIGAND FREE ENERGY PREDICTED BY IDOCK:   -0.82 KCAL/MOL
REMARK 927      BINDING AFFINITY PREDICTED BY RF-SCORE:    0.00 PKD
ROOT
HETATM    1  N   UNL     1      -8.709  15.194  66.389  1.00  0.00    -0.446 N  
HETATM    2  C   UNL     1      -8.293  15.610  67.626  1.00  0.00    -0.155 C  
HETATM    3  H1  UNL     1      -9.617  14.745  66.264  1.00  0.00     0.000 HD 
HETATM    4  H2  UNL     1      -8.103  15.335  65.580  1.00  0.00     0.000 HD 
HETATM    5  O   UNL     1      -7.201  16.149  67.775  1.00  0.00    -0.123 OA 
ENDROOT
BRANCH   2   6
HETATM    6  C   UNL     1      -9.240  15.322  68.772  1.00  0.00    -0.203 C  
BRANCH   6   7
HETATM    7  S   UNL     1     -10.489  16.634  68.867  1.00  0.00    -0.342 S  
HETATM    8  O   UNL     1     -10.595  17.221  67.484  1.00  0.00    -0.354 OA 
BRANCH   7   9
HETATM    9  C   UNL     1     -11.975  15.562  69.137  1.00  0.00    -0.309 C  
BRANCH   9  10
HETATM   10  C   UNL     1     -11.832  14.134  68.620  1.00  0.00    -0.383 A  
HETATM   11  C   UNL     1     -11.924  13.888  67.237  1.00  0.00    -0.446 A  
HETATM   12  C   UNL     1     -11.675  13.030  69.472  1.00  0.00    -0.381 A  
HETATM   13  C   UNL     1     -11.864  12.586  66.729  1.00  0.00    -0.416 A  
HETATM   14  C   UNL     1     -11.722  11.508  67.593  1.00  0.00    -0.283 A  
HETATM   15  C   UNL     1     -11.628  11.727  68.965  1.00  0.00    -0.372 A  
ENDBRANCH   9  10
BRANCH   9  16
HETATM   16  C   UNL     1     -12.408  15.627  70.603  1.00  0.00    -0.457 A  
HETATM   17  C   UNL     1     -14.149  15.380  72.289  1.00  0.00    -0.660 A  
HETATM   18  C   UNL     1     -11.968  16.165  72.943  1.00  0.00    -0.623 A  
HETATM   19  C   UNL     1     -13.719  15.273  70.963  1.00  0.00    -0.452 A  
HETATM   20  C   UNL     1     -11.538  16.066  71.619  1.00  0.00    -0.538 A  
HETATM   21  C   UNL     1     -13.274  15.827  73.277  1.00  0.00    -0.687 A  
ENDBRANCH   9  16
ENDBRANCH   7   9
ENDBRANCH   6   7
ENDBRANCH   2   6
TORSDOF 5
ENDMDL
MODEL       11
REMARK 921   NORMALIZED FREE ENERGY PREDICTED BY IDOCK:   -5.75 KCAL/MOL
REMARK 922        TOTAL FREE ENERGY PREDICTED BY IDOCK:   -8.43 KCAL/MOL
REMARK 923 INTER-LIGAND FREE ENERGY PREDICTED BY IDOCK:   -7.59 KCAL/MOL
REMARK 924 INTRA-LIGAND FREE ENERGY PREDICTED BY IDOCK:   -0.85 KCAL/MOL
REMARK 927      BINDING AFFINITY PREDICTED BY RF-SCORE:    0.00 PKD
ROOT
HETATM    1  N   UNL     1     -12.286  14.274  63.394  1.00  0.00    -1.126 N  
HETATM    2  C   UNL     1     -12.528  13.749  64.636  1.00  0.00    -0.315 C  
HETATM    3  H1  UNL     1     -11.775  15.150  63.286  1.00  0.00     0.000 HD 
HETATM    4  H2  UNL     1     -12.622  13.782  62.566  1.00  0.00     0.000 HD 
HETATM    5  O   UNL     1     -13.143  12.695  64.767  1.00  0.00    -0.852 OA 
ENDROOT
BRANCH   2   6
HETATM    6  C   UNL     1     -12.028  14.569  65.808  1.00  0.00    -0.306 C  
BRANCH   6   7
HETATM    7  S   UNL     1     -10.617  15.579  65.280  1.00  0.00    -0.429 S  
HETATM    8  O   UNL     1     -11.191  16.747  64.521  1.00  0.00    -0.997 OA 
BRANCH   7   9
HETATM    9  C   UNL     1     -10.097  16.195  66.948  1.00  0.00    -0.272 C  
BRANCH   9  10
HETATM   10  C   UNL     1      -8.975  15.394  67.600  1.00  0.00    -0.185 A  
HETATM   11  C   UNL     1      -8.460  14.263  66.940  1.00  0.00    -0.133 A  
HETATM   12  C   UNL     1      -8.467  15.695  68.874  1.00  0.00    -0.213 A  
HETATM   13  C   UNL     1      -7.477  13.464  67.533  1.00  0.00    -0.170 A  
HETATM   14  C   UNL     1      -7.000  13.774  68.800  1.00  0.00    -0.109 A  
HETATM   15  C   UNL     1      -7.494  14.889  69.473  1.00  0.00    -0.162 A  
ENDBRANCH   9  10
BRANCH   9  16
HETATM   16  C   UNL     1      -9.800  17.695  66.882  1.00  0.00    -0.306 A  
HETATM   17  C   UNL     1      -8.205  19.503  66.541  1.00  0.00    -0.334 A  
HETATM   18  C   UNL     1     -10.473  20.024  67.163  1.00  0.00    -0.513 A  
HETATM   19  C   UNL     1      -8.510  18.140  66.550  1.00  0.00    -0.283 A  
HETATM   20  C   UNL     1     -10.777  18.662  67.180  1.00  0.00    -0.433 A  
HETATM   21  C   UNL     1      -9.185  20.445  66.849  1.00  0.00    -0.450 A  
ENDBRANCH   9  16
ENDBRANCH   7   9
ENDBRANCH   6   7
ENDBRANCH   2   6
TORSDOF 5
ENDMDL
MODEL       12
REMARK 921   NORMALIZED FREE ENERGY PREDICTED BY IDOCK:   -5.71 KCAL/MOL
REMARK 922        TOTAL FREE ENERGY PREDICTED BY IDOCK:   -8.39 KCAL/MOL
REMARK 923 INTER-LIGAND FREE ENERGY PREDICTED BY IDOCK:   -7.48 KCAL/MOL
REMARK 924 INTRA-LIGAND FREE ENERGY PREDICTED BY IDOCK:   -0.91 KCAL/MOL
REMARK 927      BINDING AFFINITY PREDICTED BY RF-SCORE:    0.00 PKD
ROOT
HETATM    1  N   UNL     1     -12.400  14.083  63.272  1.00  0.00    -1.145 N  
HETATM    2  C   UNL     1     -12.535  13.613  64.551  1.00  0.00    -0.287 C  
HETATM    3  H1  UNL     1     -12.047  15.023  63.092  1.00  0.00     0.000 HD 
HETATM    4  H2  UNL     1     -12.656  13.484  62.486  1.00  0.00     0.000 HD 
HETATM    5  O   UNL     1     -12.959  12.482  64.766  1.00  0.00    -0.827 OA 
ENDROOT
BRANCH   2   6
HETATM    6  C   UNL     1     -12.170  14.586  65.653  1.00  0.00    -0.273 C  
BRANCH   6   7
HETATM    7  S   UNL     1     -10.741  15.576  65.137  1.00  0.00    -0.438 S  
HETATM    8  O   UNL     1     -11.294  16.767  64.398  1.00  0.00    -1.089 OA 
BRANCH   7   9
HETATM    9  C   UNL     1     -10.203  16.155  66.812  1.00  0.00    -0.281 C  
BRANCH   9  10
HETATM   10  C   UNL     1      -9.127  15.295  67.467  1.00  0.00    -0.189 A  
HETATM   11  C   UNL     1      -8.551  15.715  68.680  1.00  0.00    -0.188 A  
HETATM   12  C   UNL     1      -8.629  14.121  66.879  1.00  0.00    -0.157 A  
HETATM   13  C   UNL     1      -7.517  14.989  69.279  1.00  0.00    -0.188 A  
HETATM   14  C   UNL     1      -7.031  13.839  68.672  1.00  0.00    -0.102 A  
HETATM   15  C   UNL     1      -7.586  13.403  67.471  1.00  0.00    -0.176 A  
ENDBRANCH   9  10
BRANCH   9  16
HETATM   16  C   UNL     1      -9.832  17.639  66.758  1.00  0.00    -0.304 A  
HETATM   17  C   UNL     1     -10.456  19.969  67.095  1.00  0.00    -0.513 A  
HETATM   18  C   UNL     1      -8.296  19.441  66.167  1.00  0.00    -0.310 A  
HETATM   19  C   UNL     1     -10.754  18.607  67.189  1.00  0.00    -0.433 A  
HETATM   20  C   UNL     1      -8.595  18.081  66.254  1.00  0.00    -0.204 A  
HETATM   21  C   UNL     1      -9.228  20.385  66.583  1.00  0.00    -0.372 A  
ENDBRANCH   9  16
ENDBRANCH   7   9
ENDBRANCH   6   7
ENDBRANCH   2   6
TORSDOF 5
ENDMDL
MODEL       13
REMARK 921   NORMALIZED FREE ENERGY PREDICTED BY IDOCK:   -5.65 KCAL/MOL
REMARK 922        TOTAL FREE ENERGY PREDICTED BY IDOCK:   -8.30 KCAL/MOL
REMARK 923 INTER-LIGAND FREE ENERGY PREDICTED BY IDOCK:   -7.74 KCAL/MOL
REMARK 924 INTRA-LIGAND FREE ENERGY PREDICTED BY IDOCK:   -0.55 KCAL/MOL
REMARK 927      BINDING AFFINITY PREDICTED BY RF-SCORE:    0.00 PKD
ROOT
HETATM    1  N   UNL     1     -12.491  14.033  63.090  1.00  0.00    -1.070 N  
HETATM    2  C   UNL     1     -12.196  12.756  63.490  1.00  0.00    -0.525 C  
HETATM    3  H1  UNL     1     -11.773  14.758  63.079  1.00  0.00     0.000 HD 
HETATM    4  H2  UNL     1     -13.442  14.263  62.800  1.00  0.00     0.000 HD 
HETATM    5  O   UNL     1     -13.060  11.885  63.503  1.00  0.00    -0.715 OA 
ENDROOT
BRANCH   2   6
HETATM    6  C   UNL     1     -10.771  12.519  63.941  1.00  0.00    -0.437 C  
BRANCH   6   7
HETATM    7  S   UNL     1     -10.777  11.608  65.510  1.00  0.00    -0.273 S  
HETATM    8  O   UNL     1      -9.334  11.349  65.856  1.00  0.00    -0.219 OA 
BRANCH   7   9
HETATM    9  C   UNL     1     -11.380  12.974  66.605  1.00  0.00    -0.325 C  
BRANCH   9  10
HETATM   10  C   UNL     1     -11.721  12.545  68.028  1.00  0.00    -0.410 A  
HETATM   11  C   UNL     1     -11.938  13.527  69.013  1.00  0.00    -0.376 A  
HETATM   12  C   UNL     1     -11.768  11.199  68.426  1.00  0.00    -0.349 A  
HETATM   13  C   UNL     1     -12.188  13.175  70.342  1.00  0.00    -0.389 A  
HETATM   14  C   UNL     1     -12.216  11.837  70.715  1.00  0.00    -0.424 A  
HETATM   15  C   UNL     1     -12.005  10.847  69.758  1.00  0.00    -0.423 A  
ENDBRANCH   9  10
BRANCH   9  16
HETATM   16  C   UNL     1     -10.406  14.154  66.554  1.00  0.00    -0.284 A  
HETATM   17  C   UNL     1      -9.941  16.463  65.932  1.00  0.00    -0.358 A  
HETATM   18  C   UNL     1      -8.185  15.111  66.875  1.00  0.00    -0.234 A  
HETATM   19  C   UNL     1     -10.831  15.390  66.040  1.00  0.00    -0.315 A  
HETATM   20  C   UNL     1      -9.070  14.037  66.977  1.00  0.00    -0.256 A  
HETATM   21  C   UNL     1      -8.619  16.322  66.348  1.00  0.00    -0.361 A  
ENDBRANCH   9  16
ENDBRANCH   7   9
ENDBRANCH   6   7
ENDBRANCH   2   6
TORSDOF 5
ENDMDL
MODEL       14
REMARK 921   NORMALIZED FREE ENERGY PREDICTED BY IDOCK:   -5.63 KCAL/MOL
REMARK 922        TOTAL FREE ENERGY PREDICTED BY IDOCK:   -8.27 KCAL/MOL
REMARK 923 INTER-LIGAND FREE ENERGY PREDICTED BY IDOCK:   -7.17 KCAL/MOL
REMARK 924 INTRA-LIGAND FREE ENERGY PREDICTED BY IDOCK:   -1.11 KCAL/MOL
REMARK 927      BINDING AFFINITY PREDICTED BY RF-SCORE:    0.00 PKD
ROOT
HETATM    1  N   UNL     1     -12.455  14.043  63.084  1.00  0.00    -1.070 N  
HETATM    2  C   UNL     1     -11.867  12.948  63.661  1.00  0.00    -0.532 C  
HETATM    3  H1  UNL     1     -12.084  14.981  63.241  1.00  0.00     0.000 HD 
HETATM    4  H2  UNL     1     -13.274  13.919  62.488  1.00  0.00     0.000 HD 
HETATM    5  O   UNL     1     -12.313  11.821  63.472  1.00  0.00    -0.509 OA 
ENDROOT
BRANCH   2   6
HETATM    6  C   UNL     1     -10.683  13.232  64.562  1.00  0.00    -0.411 C  
BRANCH   6   7
HETATM    7  S   UNL     1     -11.276  13.697  66.212  1.00  0.00    -0.311 S  
HETATM    8  O   UNL     1     -12.699  14.157  66.038  1.00  0.00    -0.469 OA 
BRANCH   7   9
HETATM    9  C   UNL     1     -11.321  12.004  66.961  1.00  0.00    -0.336 C  
BRANCH   9  10
HETATM   10  C   UNL     1     -10.063  11.172  66.731  1.00  0.00    -0.255 A  
HETATM   11  C   UNL     1     -10.153   9.971  66.003  1.00  0.00    -0.318 A  
HETATM   12  C   UNL     1      -8.814  11.518  67.271  1.00  0.00    -0.160 A  
HETATM   13  C   UNL     1      -9.036   9.148  65.826  1.00  0.00    -0.265 A  
HETATM   14  C   UNL     1      -7.814   9.504  66.382  1.00  0.00    -0.097 A  
HETATM   15  C   UNL     1      -7.701  10.688  67.106  1.00  0.00    -0.110 A  
ENDBRANCH   9  10
BRANCH   9  16
HETATM   16  C   UNL     1     -11.715  12.096  68.437  1.00  0.00    -0.388 A  
HETATM   17  C   UNL     1     -12.449  10.996  70.483  1.00  0.00    -0.432 A  
HETATM   18  C   UNL     1     -12.218  13.394  70.441  1.00  0.00    -0.415 A  
HETATM   19  C   UNL     1     -12.032  10.928  69.151  1.00  0.00    -0.359 A  
HETATM   20  C   UNL     1     -11.808  13.328  69.109  1.00  0.00    -0.378 A  
HETATM   21  C   UNL     1     -12.543  12.229  71.127  1.00  0.00    -0.353 A  
ENDBRANCH   9  16
ENDBRANCH   7   9
ENDBRANCH   6   7
ENDBRANCH   2   6
TORSDOF 5
ENDMDL
MODEL       15
REMARK 921   NORMALIZED FREE ENERGY PREDICTED BY IDOCK:   -5.61 KCAL/MOL
REMARK 922        TOTAL FREE ENERGY PREDICTED BY IDOCK:   -8.25 KCAL/MOL
REMARK 923 INTER-LIGAND FREE ENERGY PREDICTED BY IDOCK:   -7.39 KCAL/MOL
REMARK 924 INTRA-LIGAND FREE ENERGY PREDICTED BY IDOCK:   -0.86 KCAL/MOL
REMARK 927      BINDING AFFINITY PREDICTED BY RF-SCORE:    0.00 PKD
ROOT
HETATM    1  N   UNL     1     -12.479  11.669  63.152  1.00  0.00    -0.949 N  
HETATM    2  C   UNL     1     -11.596  12.570  63.685  1.00  0.00    -0.504 C  
HETATM    3  H1  UNL     1     -13.486  11.797  63.256  1.00  0.00     0.000 HD 
HETATM    4  H2  UNL     1     -12.125  10.859  62.642  1.00  0.00     0.000 HD 
HETATM    5  O   UNL     1     -10.385  12.416  63.559  1.00  0.00    -0.425 OA 
ENDROOT
BRANCH   2   6
HETATM    6  C   UNL     1     -12.210  13.718  64.459  1.00  0.00    -0.403 C  
BRANCH   6   7
HETATM    7  S   UNL     1     -10.990  15.048  64.638  1.00  0.00    -0.219 S  
HETATM    8  O   UNL     1     -11.586  16.263  63.977  1.00  0.00    -0.953 OA 
BRANCH   7   9
HETATM    9  C   UNL     1     -11.125  15.283  66.470  1.00  0.00    -0.271 C  
BRANCH   9  10
HETATM   10  C   UNL     1     -10.883  14.022  67.293  1.00  0.00    -0.288 A  
HETATM   11  C   UNL     1      -9.703  13.282  67.092  1.00  0.00    -0.236 A  
HETATM   12  C   UNL     1     -11.822  13.520  68.209  1.00  0.00    -0.401 A  
HETATM   13  C   UNL     1      -9.474  12.085  67.779  1.00  0.00    -0.190 A  
HETATM   14  C   UNL     1     -10.424  11.602  68.669  1.00  0.00    -0.234 A  
HETATM   15  C   UNL     1     -11.599  12.317  68.886  1.00  0.00    -0.367 A  
ENDBRANCH   9  10
BRANCH   9  16
HETATM   16  C   UNL     1     -10.254  16.461  66.912  1.00  0.00    -0.290 A  
HETATM   17  C   UNL     1      -8.237  17.798  66.631  1.00  0.00    -0.287 A  
HETATM   18  C   UNL     1      -9.740  18.285  68.449  1.00  0.00    -0.373 A  
HETATM   19  C   UNL     1      -9.075  16.763  66.209  1.00  0.00    -0.320 A  
HETATM   20  C   UNL     1     -10.575  17.247  68.034  1.00  0.00    -0.394 A  
HETATM   21  C   UNL     1      -8.569  18.558  67.752  1.00  0.00    -0.286 A  
ENDBRANCH   9  16
ENDBRANCH   7   9
ENDBRANCH   6   7
ENDBRANCH   2   6
TORSDOF 5
ENDMDL
MODEL       16
REMARK 921   NORMALIZED FREE ENERGY PREDICTED BY IDOCK:   -5.58 KCAL/MOL
REMARK 922        TOTAL FREE ENERGY PREDICTED BY IDOCK:   -8.21 KCAL/MOL
REMARK 923 INTER-LIGAND FREE ENERGY PREDICTED BY IDOCK:   -7.45 KCAL/MOL
REMARK 924 INTRA-LIGAND FREE ENERGY PREDICTED BY IDOCK:   -0.76 KCAL/MOL
REMARK 927      BINDING AFFINITY PREDICTED BY RF-SCORE:    0.00 PKD
ROOT
HETATM    1  N   UNL     1     -12.224  13.516  63.123  1.00  0.00    -0.999 N  
HETATM    2  C   UNL     1     -11.218  12.825  63.745  1.00  0.00    -0.443 C  
HETATM    3  H1  UNL     1     -12.393  14.500  63.335  1.00  0.00     0.000 HD 
HETATM    4  H2  UNL     1     -12.812  13.041  62.438  1.00  0.00     0.000 HD 
HETATM    5  O   UNL     1     -11.016  11.642  63.490  1.00  0.00    -0.397 OA 
ENDROOT
BRANCH   2   6
HETATM    6  C   UNL     1     -10.424  13.599  64.776  1.00  0.00    -0.418 C  
BRANCH   6   7
HETATM    7  S   UNL     1     -11.443  14.946  65.438  1.00  0.00    -0.284 S  
HETATM    8  O   UNL     1     -12.711  14.309  65.945  1.00  0.00    -0.451 OA 
BRANCH   7   9
HETATM    9  C   UNL     1     -10.400  15.367  66.909  1.00  0.00    -0.277 C  
BRANCH   9  10
HETATM   10  C   UNL     1      -9.980  16.831  66.993  1.00  0.00    -0.269 A  
HETATM   11  C   UNL     1      -9.051  17.228  67.973  1.00  0.00    -0.249 A  
HETATM   12  C   UNL     1     -10.531  17.828  66.172  1.00  0.00    -0.301 A  
HETATM   13  C   UNL     1      -8.690  18.570  68.125  1.00  0.00    -0.330 A  
HETATM   14  C   UNL     1      -9.259  19.540  67.311  1.00  0.00    -0.391 A  
HETATM   15  C   UNL     1     -10.180  19.172  66.334  1.00  0.00    -0.515 A  
ENDBRANCH   9  10
BRANCH   9  16
HETATM   16  C   UNL     1     -11.071  14.862  68.188  1.00  0.00    -0.290 A  
HETATM   17  C   UNL     1     -11.662  13.010  69.655  1.00  0.00    -0.364 A  
HETATM   18  C   UNL     1     -12.438  15.230  70.176  1.00  0.00    -0.374 A  
HETATM   19  C   UNL     1     -11.008  13.499  68.522  1.00  0.00    -0.291 A  
HETATM   20  C   UNL     1     -11.791  15.720  69.040  1.00  0.00    -0.367 A  
HETATM   21  C   UNL     1     -12.378  13.875  70.481  1.00  0.00    -0.439 A  
ENDBRANCH   9  16
ENDBRANCH   7   9
ENDBRANCH   6   7
ENDBRANCH   2   6
TORSDOF 5
ENDMDL
MODEL       17
REMARK 921   NORMALIZED FREE ENERGY PREDICTED BY IDOCK:   -5.57 KCAL/MOL
REMARK 922        TOTAL FREE ENERGY PREDICTED BY IDOCK:   -8.20 KCAL/MOL
REMARK 923 INTER-LIGAND FREE ENERGY PREDICTED BY IDOCK:   -7.48 KCAL/MOL
REMARK 924 INTRA-LIGAND FREE ENERGY PREDICTED BY IDOCK:   -0.72 KCAL/MOL
REMARK 927      BINDING AFFINITY PREDICTED BY RF-SCORE:    0.00 PKD
ROOT
HETATM    1  N   UNL     1     -13.322   9.645  72.550  1.00  0.00    -0.610 N  
HETATM    2  C   UNL     1     -12.479  10.206  71.628  1.00  0.00    -0.409 C  
HETATM    3  H1  UNL     1     -14.167  10.131  72.852  1.00  0.00     0.000 HD 
HETATM    4  H2  UNL     1     -13.104   8.728  72.940  1.00  0.00     0.000 HD 
HETATM    5  O   UNL     1     -11.463   9.621  71.265  1.00  0.00    -0.339 OA 
ENDROOT
BRANCH   2   6
HETATM    6  C   UNL     1     -12.862  11.586  71.137  1.00  0.00    -0.315 C  
BRANCH   6   7
HETATM    7  S   UNL     1     -11.771  12.066  69.769  1.00  0.00    -0.289 S  
HETATM    8  O   UNL     1     -12.273  11.337  68.550  1.00  0.00    -0.588 OA 
BRANCH   7   9
HETATM    9  C   UNL     1     -12.297  13.835  69.621  1.00  0.00    -0.232 C  
BRANCH   9  10
HETATM   10  C   UNL     1     -12.608  14.520  70.949  1.00  0.00    -0.414 A  
HETATM   11  C   UNL     1     -13.936  14.878  71.246  1.00  0.00    -0.489 A  
HETATM   12  C   UNL     1     -11.613  14.872  71.874  1.00  0.00    -0.335 A  
HETATM   13  C   UNL     1     -14.254  15.565  72.422  1.00  0.00    -0.571 A  
HETATM   14  C   UNL     1     -13.250  15.916  73.315  1.00  0.00    -0.698 A  
HETATM   15  C   UNL     1     -11.929  15.571  73.043  1.00  0.00    -0.571 A  
ENDBRANCH   9  10
BRANCH   9  16
HETATM   16  C   UNL     1     -11.289  14.611  68.771  1.00  0.00    -0.302 A  
HETATM   17  C   UNL     1      -9.136  14.704  67.635  1.00  0.00    -0.193 A  
HETATM   18  C   UNL     1     -10.545  16.657  67.669  1.00  0.00    -0.321 A  
HETATM   19  C   UNL     1     -10.094  13.994  68.364  1.00  0.00    -0.236 A  
HETATM   20  C   UNL     1     -11.500  15.953  68.402  1.00  0.00    -0.348 A  
HETATM   21  C   UNL     1      -9.361  16.036  67.289  1.00  0.00    -0.218 A  
ENDBRANCH   9  16
ENDBRANCH   7   9
ENDBRANCH   6   7
ENDBRANCH   2   6
TORSDOF 5
ENDMDL
MODEL       18
REMARK 921   NORMALIZED FREE ENERGY PREDICTED BY IDOCK:   -5.54 KCAL/MOL
REMARK 922        TOTAL FREE ENERGY PREDICTED BY IDOCK:   -8.16 KCAL/MOL
REMARK 923 INTER-LIGAND FREE ENERGY PREDICTED BY IDOCK:   -7.46 KCAL/MOL
REMARK 924 INTRA-LIGAND FREE ENERGY PREDICTED BY IDOCK:   -0.69 KCAL/MOL
REMARK 927      BINDING AFFINITY PREDICTED BY RF-SCORE:    0.00 PKD
ROOT
HETATM    1  N   UNL     1     -12.106  15.792  63.756  1.00  0.00    -0.880 N  
HETATM    2  C   UNL     1     -11.067  15.520  64.606  1.00  0.00    -0.359 C  
HETATM    3  H1  UNL     1     -12.720  15.048  63.424  1.00  0.00     0.000 HD 
HETATM    4  H2  UNL     1     -12.270  16.752  63.452  1.00  0.00     0.000 HD 
HETATM    5  O   UNL     1     -10.329  16.415  65.006  1.00  0.00    -0.615 OA 
ENDROOT
BRANCH   2   6
HETATM    6  C   UNL     1     -10.877  14.063  64.971  1.00  0.00    -0.392 C  
BRANCH   6   7
HETATM    7  S   UNL     1     -12.455  13.369  65.535  1.00  0.00    -0.467 S  
HETATM    8  O   UNL     1     -13.077  12.700  64.338  1.00  0.00    -0.752 OA 
BRANCH   7   9
HETATM    9  C   UNL     1     -11.780  12.040  66.634  1.00  0.00    -0.256 C  
BRANCH   9  10
HETATM   10  C   UNL     1     -10.376  11.567  66.271  1.00  0.00    -0.280 A  
HETATM   11  C   UNL     1     -10.202  10.684  65.189  1.00  0.00    -0.368 A  
HETATM   12  C   UNL     1      -9.239  11.922  67.014  1.00  0.00    -0.191 A  
HETATM   13  C   UNL     1      -8.940  10.177  64.865  1.00  0.00    -0.230 A  
HETATM   14  C   UNL     1      -7.832  10.531  65.623  1.00  0.00    -0.150 A  
HETATM   15  C   UNL     1      -7.979  11.404  66.699  1.00  0.00    -0.148 A  
ENDBRANCH   9  10
BRANCH   9  16
HETATM   16  C   UNL     1     -11.911  12.457  68.100  1.00  0.00    -0.372 A  
HETATM   17  C   UNL     1     -12.139  11.835  70.444  1.00  0.00    -0.440 A  
HETATM   18  C   UNL     1     -12.186  14.162  69.824  1.00  0.00    -0.397 A  
HETATM   19  C   UNL     1     -11.962  11.477  69.105  1.00  0.00    -0.386 A  
HETATM   20  C   UNL     1     -12.017  13.806  68.486  1.00  0.00    -0.402 A  
HETATM   21  C   UNL     1     -12.252  13.177  70.803  1.00  0.00    -0.375 A  
ENDBRANCH   9  16
ENDBRANCH   7   9
ENDBRANCH   6   7
ENDBRANCH   2   6
TORSDOF 5
ENDMDL
MODEL       19
REMARK 921   NORMALIZED FREE ENERGY PREDICTED BY IDOCK:   -5.49 KCAL/MOL
REMARK 922        TOTAL FREE ENERGY PREDICTED BY IDOCK:   -8.09 KCAL/MOL
REMARK 923 INTER-LIGAND FREE ENERGY PREDICTED BY IDOCK:   -7.05 KCAL/MOL
REMARK 924 INTRA-LIGAND FREE ENERGY PREDICTED BY IDOCK:   -1.04 KCAL/MOL
REMARK 927      BINDING AFFINITY PREDICTED BY RF-SCORE:    0.00 PKD
ROOT
HETATM    1  N   UNL     1     -12.493  13.954  62.857  1.00  0.00    -0.877 N  
HETATM    2  C   UNL     1     -11.966  12.875  63.516  1.00  0.00    -0.556 C  
HETATM    3  H1  UNL     1     -12.115  14.891  62.998  1.00  0.00     0.000 HD 
HETATM    4  H2  UNL     1     -13.274  13.819  62.214  1.00  0.00     0.000 HD 
HETATM    5  O   UNL     1     -12.421  11.748  63.345  1.00  0.00    -0.555 OA 
ENDROOT
BRANCH   2   6
HETATM    6  C   UNL     1     -10.837  13.176  64.479  1.00  0.00    -0.383 C  
BRANCH   6   7
HETATM    7  S   UNL     1     -11.328  14.531  65.581  1.00  0.00    -0.341 S  
HETATM    8  O   UNL     1     -12.723  14.212  66.051  1.00  0.00    -0.469 OA 
BRANCH   7   9
HETATM    9  C   UNL     1     -10.169  14.166  66.979  1.00  0.00    -0.260 C  
BRANCH   9  10
HETATM   10  C   UNL     1      -8.875  14.974  66.960  1.00  0.00    -0.257 A  
HETATM   11  C   UNL     1      -7.796  14.569  67.767  1.00  0.00    -0.171 A  
HETATM   12  C   UNL     1      -8.727  16.155  66.215  1.00  0.00    -0.373 A  
HETATM   13  C   UNL     1      -6.617  15.318  67.827  1.00  0.00    -0.182 A  
HETATM   14  C   UNL     1      -6.499  16.491  67.092  1.00  0.00    -0.229 A  
HETATM   15  C   UNL     1      -7.554  16.911  66.286  1.00  0.00    -0.312 A  
ENDBRANCH   9  10
BRANCH   9  16
HETATM   16  C   UNL     1     -10.912  14.260  68.313  1.00  0.00    -0.261 A  
HETATM   17  C   UNL     1     -11.990  13.150  70.195  1.00  0.00    -0.381 A  
HETATM   18  C   UNL     1     -12.018  15.555  70.061  1.00  0.00    -0.385 A  
HETATM   19  C   UNL     1     -11.262  13.087  69.004  1.00  0.00    -0.316 A  
HETATM   20  C   UNL     1     -11.296  15.494  68.868  1.00  0.00    -0.329 A  
HETATM   21  C   UNL     1     -12.369  14.383  70.722  1.00  0.00    -0.417 A  
ENDBRANCH   9  16
ENDBRANCH   7   9
ENDBRANCH   6   7
ENDBRANCH   2   6
TORSDOF 5
ENDMDL
MODEL       20
REMARK 921   NORMALIZED FREE ENERGY PREDICTED BY IDOCK:   -5.48 KCAL/MOL
REMARK 922        TOTAL FREE ENERGY PREDICTED BY IDOCK:   -8.09 KCAL/MOL
REMARK 923 INTER-LIGAND FREE ENERGY PREDICTED BY IDOCK:   -7.86 KCAL/MOL
REMARK 924 INTRA-LIGAND FREE ENERGY PREDICTED BY IDOCK:   -0.22 KCAL/MOL
REMARK 927      BINDING AFFINITY PREDICTED BY RF-SCORE:    0.00 PKD
ROOT
HETATM    1  N   UNL     1     -10.462  18.112  65.726  1.00  0.00    -0.319 N  
HETATM    2  C   UNL     1     -10.713  16.923  65.094  1.00  0.00    -0.103 C  
HETATM    3  H1  UNL     1      -9.787  18.168  66.488  1.00  0.00     0.000 HD 
HETATM    4  H2  UNL     1     -10.958  18.954  65.430  1.00  0.00     0.000 HD 
HETATM    5  O   UNL     1     -11.526  16.856  64.176  1.00  0.00    -1.174 OA 
ENDROOT
BRANCH   2   6
HETATM    6  C   UNL     1      -9.963  15.721  65.627  1.00  0.00    -0.345 C  
BRANCH   6   7
HETATM    7  S   UNL     1     -10.416  15.445  67.361  1.00  0.00    -0.283 S  
HETATM    8  O   UNL     1     -11.148  16.683  67.811  1.00  0.00    -0.279 OA 
BRANCH   7   9
HETATM    9  C   UNL     1     -11.676  14.114  67.096  1.00  0.00    -0.403 C  
BRANCH   9  10
HETATM   10  C   UNL     1     -11.429  13.239  65.871  1.00  0.00    -0.359 A  
HETATM   11  C   UNL     1     -12.434  13.120  64.893  1.00  0.00    -0.490 A  
HETATM   12  C   UNL     1     -10.256  12.486  65.699  1.00  0.00    -0.287 A  
HETATM   13  C   UNL     1     -12.271  12.277  63.789  1.00  0.00    -0.642 A  
HETATM   14  C   UNL     1     -11.109  11.531  63.648  1.00  0.00    -0.469 A  
HETATM   15  C   UNL     1     -10.100  11.633  64.602  1.00  0.00    -0.305 A  
ENDBRANCH   9  10
BRANCH   9  16
HETATM   16  C   UNL     1     -11.861  13.305  68.381  1.00  0.00    -0.395 A  
HETATM   17  C   UNL     1     -11.977  11.144  69.499  1.00  0.00    -0.425 A  
HETATM   18  C   UNL     1     -12.386  13.155  70.759  1.00  0.00    -0.404 A  
HETATM   19  C   UNL     1     -11.755  11.904  68.348  1.00  0.00    -0.387 A  
HETATM   20  C   UNL     1     -12.172  13.916  69.609  1.00  0.00    -0.374 A  
HETATM   21  C   UNL     1     -12.294  11.769  70.704  1.00  0.00    -0.421 A  
ENDBRANCH   9  16
ENDBRANCH   7   9
ENDBRANCH   6   7
ENDBRANCH   2   6
TORSDOF 5
ENDMDL
MODEL       21
REMARK 921   NORMALIZED FREE ENERGY PREDICTED BY IDOCK:   -5.47 KCAL/MOL
REMARK 922        TOTAL FREE ENERGY PREDICTED BY IDOCK:   -8.08 KCAL/MOL
REMARK 923 INTER-LIGAND FREE ENERGY PREDICTED BY IDOCK:   -7.32 KCAL/MOL
REMARK 924 INTRA-LIGAND FREE ENERGY PREDICTED BY IDOCK:   -0.75 KCAL/MOL
REMARK 927      BINDING AFFINITY PREDICTED BY RF-SCORE:    0.00 PKD
ROOT
HETATM    1  N   UNL     1     -12.099  13.824  63.182  1.00  0.00    -0.970 N  
HETATM    2  C   UNL     1     -12.270  14.803  64.124  1.00  0.00    -0.295 C  
HETATM    3  H1  UNL     1     -12.268  12.843  63.408  1.00  0.00     0.000 HD 
HETATM    4  H2  UNL     1     -11.798  14.078  62.240  1.00  0.00     0.000 HD 
HETATM    5  O   UNL     1     -12.067  15.982  63.851  1.00  0.00    -0.880 OA 
ENDROOT
BRANCH   2   6
HETATM    6  C   UNL     1     -12.678  14.328  65.503  1.00  0.00    -0.380 C  
BRANCH   6   7
HETATM    7  S   UNL     1     -11.708  12.862  65.949  1.00  0.00    -0.421 S  
HETATM    8  O   UNL     1     -10.284  13.160  65.556  1.00  0.00    -0.287 OA 
BRANCH   7   9
HETATM    9  C   UNL     1     -11.826  13.020  67.791  1.00  0.00    -0.347 C  
BRANCH   9  10
HETATM   10  C   UNL     1     -11.577  11.724  68.557  1.00  0.00    -0.380 A  
HETATM   11  C   UNL     1     -11.946  11.643  69.913  1.00  0.00    -0.414 A  
HETATM   12  C   UNL     1     -10.933  10.616  67.987  1.00  0.00    -0.336 A  
HETATM   13  C   UNL     1     -11.677  10.497  70.668  1.00  0.00    -0.453 A  
HETATM   14  C   UNL     1     -11.025   9.418  70.086  1.00  0.00    -0.282 A  
HETATM   15  C   UNL     1     -10.651   9.475  68.745  1.00  0.00    -0.240 A  
ENDBRANCH   9  10
BRANCH   9  16
HETATM   16  C   UNL     1     -10.949  14.177  68.274  1.00  0.00    -0.266 A  
HETATM   17  C   UNL     1     -10.734  16.516  68.920  1.00  0.00    -0.337 A  
HETATM   18  C   UNL     1      -8.771  15.124  68.833  1.00  0.00    -0.205 A  
HETATM   19  C   UNL     1     -11.527  15.432  68.533  1.00  0.00    -0.360 A  
HETATM   20  C   UNL     1      -9.559  14.042  68.439  1.00  0.00    -0.222 A  
HETATM   21  C   UNL     1      -9.357  16.362  69.068  1.00  0.00    -0.248 A  
ENDBRANCH   9  16
ENDBRANCH   7   9
ENDBRANCH   6   7
ENDBRANCH   2   6
TORSDOF 5
ENDMDL
MODEL       22
REMARK 921   NORMALIZED FREE ENERGY PREDICTED BY IDOCK:   -5.47 KCAL/MOL
REMARK 922        TOTAL FREE ENERGY PREDICTED BY IDOCK:   -8.08 KCAL/MOL
REMARK 923 INTER-LIGAND FREE ENERGY PREDICTED BY IDOCK:   -7.58 KCAL/MOL
REMARK 924 INTRA-LIGAND FREE ENERGY PREDICTED BY IDOCK:   -0.50 KCAL/MOL
REMARK 927      BINDING AFFINITY PREDICTED BY RF-SCORE:    0.00 PKD
ROOT
HETATM    1  N   UNL     1     -10.239  13.880  64.731  1.00  0.00    -0.583 N  
HETATM    2  C   UNL     1     -10.897  14.850  65.440  1.00  0.00    -0.369 C  
HETATM    3  H1  UNL     1     -10.372  12.891  64.948  1.00  0.00     0.000 HD 
HETATM    4  H2  UNL     1      -9.608  14.148  63.975  1.00  0.00     0.000 HD 
HETATM    5  O   UNL     1     -10.737  16.039  65.178  1.00  0.00    -0.444 OA 
ENDROOT
BRANCH   2   6
HETATM    6  C   UNL     1     -11.780  14.360  66.568  1.00  0.00    -0.391 C  
BRANCH   6   7
HETATM    7  S   UNL     1     -11.021  14.789  68.159  1.00  0.00    -0.279 S  
HETATM    8  O   UNL     1     -11.389  16.224  68.432  1.00  0.00    -0.367 OA 
BRANCH   7   9
HETATM    9  C   UNL     1     -12.075  13.723  69.248  1.00  0.00    -0.329 C  
BRANCH   9  10
HETATM   10  C   UNL     1     -11.512  12.330  69.511  1.00  0.00    -0.318 A  
HETATM   11  C   UNL     1     -10.385  11.893  68.790  1.00  0.00    -0.184 A  
HETATM   12  C   UNL     1     -12.109  11.425  70.403  1.00  0.00    -0.473 A  
HETATM   13  C   UNL     1      -9.878  10.600  68.954  1.00  0.00    -0.210 A  
HETATM   14  C   UNL     1     -10.494   9.718  69.832  1.00  0.00    -0.298 A  
HETATM   15  C   UNL     1     -11.611  10.128  70.557  1.00  0.00    -0.411 A  
ENDBRANCH   9  10
BRANCH   9  16
HETATM   16  C   UNL     1     -12.429  14.477  70.532  1.00  0.00    -0.408 A  
HETATM   17  C   UNL     1     -14.117  15.264  72.102  1.00  0.00    -0.658 A  
HETATM   18  C   UNL     1     -11.811  15.878  72.431  1.00  0.00    -0.618 A  
HETATM   19  C   UNL     1     -13.765  14.534  70.964  1.00  0.00    -0.241 A  
HETATM   20  C   UNL     1     -11.459  15.155  71.291  1.00  0.00    -0.395 A  
HETATM   21  C   UNL     1     -13.140  15.937  72.834  1.00  0.00    -0.601 A  
ENDBRANCH   9  16
ENDBRANCH   7   9
ENDBRANCH   6   7
ENDBRANCH   2   6
TORSDOF 5
ENDMDL
MODEL       23
REMARK 921   NORMALIZED FREE ENERGY PREDICTED BY IDOCK:   -5.45 KCAL/MOL
REMARK 922        TOTAL FREE ENERGY PREDICTED BY IDOCK:   -8.04 KCAL/MOL
REMARK 923 INTER-LIGAND FREE ENERGY PREDICTED BY IDOCK:   -7.12 KCAL/MOL
REMARK 924 INTRA-LIGAND FREE ENERGY PREDICTED BY IDOCK:   -0.93 KCAL/MOL
REMARK 927      BINDING AFFINITY PREDICTED BY RF-SCORE:    0.00 PKD
ROOT
HETATM    1  N   UNL     1     -14.406  15.353  71.895  1.00  0.00    -0.545 N  
HETATM    2  C   UNL     1     -13.793  14.129  71.931  1.00  0.00    -0.451 C  
HETATM    3  H1  UNL     1     -14.108  16.070  71.233  1.00  0.00     0.000 HD 
HETATM    4  H2  UNL     1     -15.172  15.552  72.540  1.00  0.00     0.000 HD 
HETATM    5  O   UNL     1     -14.153  13.267  72.727  1.00  0.00    -0.691 OA 
ENDROOT
BRANCH   2   6
HETATM    6  C   UNL     1     -12.641  13.939  70.967  1.00  0.00    -0.371 C  
BRANCH   6   7
HETATM    7  S   UNL     1     -12.146  15.548  70.292  1.00  0.00    -0.390 S  
HETATM    8  O   UNL     1     -11.667  16.369  71.460  1.00  0.00    -0.448 OA 
BRANCH   7   9
HETATM    9  C   UNL     1     -10.653  14.990  69.349  1.00  0.00    -0.256 C  
BRANCH   9  10
HETATM   10  C   UNL     1     -10.954  14.077  68.164  1.00  0.00    -0.268 A  
HETATM   11  C   UNL     1     -11.898  14.482  67.203  1.00  0.00    -0.412 A  
HETATM   12  C   UNL     1     -10.374  12.807  68.017  1.00  0.00    -0.232 A  
HETATM   13  C   UNL     1     -12.250  13.647  66.138  1.00  0.00    -0.490 A  
HETATM   14  C   UNL     1     -11.673  12.389  66.021  1.00  0.00    -0.469 A  
HETATM   15  C   UNL     1     -10.735  11.966  66.960  1.00  0.00    -0.280 A  
ENDBRANCH   9  10
BRANCH   9  16
HETATM   16  C   UNL     1      -9.792  16.197  68.970  1.00  0.00    -0.245 A  
HETATM   17  C   UNL     1      -7.588  17.203  68.716  1.00  0.00    -0.259 A  
HETATM   18  C   UNL     1      -9.555  18.538  68.324  1.00  0.00    -0.370 A  
HETATM   19  C   UNL     1      -8.391  16.096  69.003  1.00  0.00    -0.247 A  
HETATM   20  C   UNL     1     -10.358  17.436  68.617  1.00  0.00    -0.364 A  
HETATM   21  C   UNL     1      -8.170  18.423  68.378  1.00  0.00    -0.331 A  
ENDBRANCH   9  16
ENDBRANCH   7   9
ENDBRANCH   6   7
ENDBRANCH   2   6
TORSDOF 5
ENDMDL
MODEL       24
REMARK 921   NORMALIZED FREE ENERGY PREDICTED BY IDOCK:   -5.44 KCAL/MOL
REMARK 922        TOTAL FREE ENERGY PREDICTED BY IDOCK:   -8.03 KCAL/MOL
REMARK 923 INTER-LIGAND FREE ENERGY PREDICTED BY IDOCK:   -7.05 KCAL/MOL
REMARK 924 INTRA-LIGAND FREE ENERGY PREDICTED BY IDOCK:   -0.99 KCAL/MOL
REMARK 927      BINDING AFFINITY PREDICTED BY RF-SCORE:    0.00 PKD
ROOT
HETATM    1  N   UNL     1     -13.227  15.802  70.660  1.00  0.00    -0.759 N  
HETATM    2  C   UNL     1     -11.895  15.591  70.902  1.00  0.00    -0.371 C  
HETATM    3  H1  UNL     1     -13.553  16.083  69.735  1.00  0.00     0.000 HD 
HETATM    4  H2  UNL     1     -13.902  15.676  71.415  1.00  0.00     0.000 HD 
HETATM    5  O   UNL     1     -11.502  15.253  72.014  1.00  0.00    -0.420 OA 
ENDROOT
BRANCH   2   6
HETATM    6  C   UNL     1     -10.964  15.842  69.734  1.00  0.00    -0.328 C  
BRANCH   6   7
HETATM    7  S   UNL     1     -10.909  14.369  68.678  1.00  0.00    -0.259 S  
HETATM    8  O   UNL     1     -12.172  13.598  68.958  1.00  0.00    -0.334 OA 
BRANCH   7   9
HETATM    9  C   UNL     1     -11.117  15.211  67.041  1.00  0.00    -0.328 C  
BRANCH   9  10
HETATM   10  C   UNL     1     -10.088  16.299  66.750  1.00  0.00    -0.281 A  
HETATM   11  C   UNL     1      -8.728  15.954  66.652  1.00  0.00    -0.324 A  
HETATM   12  C   UNL     1     -10.429  17.656  66.637  1.00  0.00    -0.286 A  
HETATM   13  C   UNL     1      -7.747  16.931  66.451  1.00  0.00    -0.345 A  
HETATM   14  C   UNL     1      -8.107  18.269  66.356  1.00  0.00    -0.285 A  
HETATM   15  C   UNL     1      -9.447  18.634  66.450  1.00  0.00    -0.319 A  
ENDBRANCH   9  10
BRANCH   9  16
HETATM   16  C   UNL     1     -11.216  14.168  65.926  1.00  0.00    -0.313 A  
HETATM   17  C   UNL     1     -10.564  12.006  65.013  1.00  0.00    -0.332 A  
HETATM   18  C   UNL     1     -11.987  13.459  63.721  1.00  0.00    -0.517 A  
HETATM   19  C   UNL     1     -10.532  12.947  66.046  1.00  0.00    -0.290 A  
HETATM   20  C   UNL     1     -11.950  14.403  64.749  1.00  0.00    -0.455 A  
HETATM   21  C   UNL     1     -11.290  12.263  63.851  1.00  0.00    -0.501 A  
ENDBRANCH   9  16
ENDBRANCH   7   9
ENDBRANCH   6   7
ENDBRANCH   2   6
TORSDOF 5
ENDMDL
MODEL       25
REMARK 921   NORMALIZED FREE ENERGY PREDICTED BY IDOCK:   -5.43 KCAL/MOL
REMARK 922        TOTAL FREE ENERGY PREDICTED BY IDOCK:   -8.02 KCAL/MOL
REMARK 923 INTER-LIGAND FREE ENERGY PREDICTED BY IDOCK:   -7.77 KCAL/MOL
REMARK 924 INTRA-LIGAND FREE ENERGY PREDICTED BY IDOCK:   -0.25 KCAL/MOL
REMARK 927      BINDING AFFINITY PREDICTED BY RF-SCORE:    0.00 PKD
ROOT
HETATM    1  N   UNL     1     -11.785  15.900  64.003  1.00  0.00    -0.937 N  
HETATM    2  C   UNL     1     -11.879  14.619  64.479  1.00  0.00    -0.431 C  
HETATM    3  H1  UNL     1     -11.163  16.579  64.444  1.00  0.00     0.000 HD 
HETATM    4  H2  UNL     1     -12.344  16.180  63.197  1.00  0.00     0.000 HD 
HETATM    5  O   UNL     1     -12.626  13.803  63.949  1.00  0.00    -0.701 OA 
ENDROOT
BRANCH   2   6
HETATM    6  C   UNL     1     -11.044  14.307  65.703  1.00  0.00    -0.316 C  
BRANCH   6   7
HETATM    7  S   UNL     1     -12.127  13.757  67.050  1.00  0.00    -0.354 S  
HETATM    8  O   UNL     1     -12.049  12.253  67.071  1.00  0.00    -0.575 OA 
BRANCH   7   9
HETATM    9  C   UNL     1     -11.123  14.391  68.471  1.00  0.00    -0.253 C  
BRANCH   9  10
HETATM   10  C   UNL     1     -10.426  15.723  68.214  1.00  0.00    -0.259 A  
HETATM   11  C   UNL     1      -9.023  15.795  68.297  1.00  0.00    -0.182 A  
HETATM   12  C   UNL     1     -11.128  16.911  67.957  1.00  0.00    -0.190 A  
HETATM   13  C   UNL     1      -8.351  17.010  68.132  1.00  0.00    -0.222 A  
HETATM   14  C   UNL     1      -9.068  18.175  67.893  1.00  0.00    -0.270 A  
HETATM   15  C   UNL     1     -10.457  18.128  67.806  1.00  0.00    -0.421 A  
ENDBRANCH   9  10
BRANCH   9  16
HETATM   16  C   UNL     1     -11.967  14.394  69.748  1.00  0.00    -0.385 A  
HETATM   17  C   UNL     1     -12.955  13.176  71.612  1.00  0.00    -0.429 A  
HETATM   18  C   UNL     1     -13.420  15.525  71.349  1.00  0.00    -0.583 A  
HETATM   19  C   UNL     1     -12.141  13.205  70.476  1.00  0.00    -0.385 A  
HETATM   20  C   UNL     1     -12.614  15.555  70.211  1.00  0.00    -0.362 A  
HETATM   21  C   UNL     1     -13.595  14.336  72.047  1.00  0.00    -0.520 A  
ENDBRANCH   9  16
ENDBRANCH   7   9
ENDBRANCH   6   7
ENDBRANCH   2   6
TORSDOF 5
ENDMDL
MODEL       26
REMARK 921   NORMALIZED FREE ENERGY PREDICTED BY IDOCK:   -5.41 KCAL/MOL
REMARK 922        TOTAL FREE ENERGY PREDICTED BY IDOCK:   -7.99 KCAL/MOL
REMARK 923 INTER-LIGAND FREE ENERGY PREDICTED BY IDOCK:   -7.34 KCAL/MOL
REMARK 924 INTRA-LIGAND FREE ENERGY PREDICTED BY IDOCK:   -0.65 KCAL/MOL
REMARK 927      BINDING AFFINITY PREDICTED BY RF-SCORE:    0.00 PKD
ROOT
HETATM    1  N   UNL     1      -9.571  20.116  65.840  1.00  0.00    -0.576 N  
HETATM    2  C   UNL     1     -10.088  19.150  66.662  1.00  0.00    -0.395 C  
HETATM    3  H1  UNL     1      -8.989  19.867  65.039  1.00  0.00     0.000 HD 
HETATM    4  H2  UNL     1      -9.771  21.099  66.030  1.00  0.00     0.000 HD 
HETATM    5  O   UNL     1     -10.788  19.450  67.624  1.00  0.00    -0.455 OA 
ENDROOT
BRANCH   2   6
HETATM    6  C   UNL     1      -9.705  17.724  66.326  1.00  0.00    -0.267 C  
BRANCH   6   7
HETATM    7  S   UNL     1     -11.173  16.820  65.763  1.00  0.00     0.568 S  
HETATM    8  O   UNL     1     -11.091  16.772  64.259  1.00  0.00    -1.106 OA 
BRANCH   7   9
HETATM    9  C   UNL     1     -10.713  15.145  66.404  1.00  0.00    -0.317 C  
BRANCH   9  10
HETATM   10  C   UNL     1     -11.195  14.851  67.821  1.00  0.00    -0.329 A  
HETATM   11  C   UNL     1     -11.290  13.516  68.255  1.00  0.00    -0.328 A  
HETATM   12  C   UNL     1     -11.614  15.858  68.705  1.00  0.00    -0.383 A  
HETATM   13  C   UNL     1     -11.788  13.202  69.523  1.00  0.00    -0.383 A  
HETATM   14  C   UNL     1     -12.211  14.214  70.375  1.00  0.00    -0.427 A  
HETATM   15  C   UNL     1     -12.125  15.543  69.968  1.00  0.00    -0.391 A  
ENDBRANCH   9  10
BRANCH   9  16
HETATM   16  C   UNL     1     -11.125  14.068  65.397  1.00  0.00    -0.318 A  
HETATM   17  C   UNL     1     -12.878  12.743  64.345  1.00  0.00    -0.288 A  
HETATM   18  C   UNL     1     -10.573  12.324  63.782  1.00  0.00    -0.488 A  
HETATM   19  C   UNL     1     -12.485  13.762  65.217  1.00  0.00    -0.512 A  
HETATM   20  C   UNL     1     -10.178  13.337  64.658  1.00  0.00    -0.334 A  
HETATM   21  C   UNL     1     -11.922  12.024  63.629  1.00  0.00    -0.612 A  
ENDBRANCH   9  16
ENDBRANCH   7   9
ENDBRANCH   6   7
ENDBRANCH   2   6
TORSDOF 5
ENDMDL
MODEL       27
REMARK 921   NORMALIZED FREE ENERGY PREDICTED BY IDOCK:   -5.36 KCAL/MOL
REMARK 922        TOTAL FREE ENERGY PREDICTED BY IDOCK:   -7.93 KCAL/MOL
REMARK 923 INTER-LIGAND FREE ENERGY PREDICTED BY IDOCK:   -7.07 KCAL/MOL
REMARK 924 INTRA-LIGAND FREE ENERGY PREDICTED BY IDOCK:   -0.86 KCAL/MOL
REMARK 927      BINDING AFFINITY PREDICTED BY RF-SCORE:    0.00 PKD
ROOT
HETATM    1  N   UNL     1     -12.312  13.399  63.055  1.00  0.00    -0.945 N  
HETATM    2  C   UNL     1     -11.347  12.640  63.663  1.00  0.00    -0.481 C  
HETATM    3  H1  UNL     1     -12.483  14.362  63.347  1.00  0.00     0.000 HD 
HETATM    4  H2  UNL     1     -12.868  12.997  62.300  1.00  0.00     0.000 HD 
HETATM    5  O   UNL     1     -11.142  11.483  63.312  1.00  0.00    -0.341 OA 
ENDROOT
BRANCH   2   6
HETATM    6  C   UNL     1     -10.602  13.307  64.800  1.00  0.00    -0.386 C  
BRANCH   6   7
HETATM    7  S   UNL     1     -11.589  14.686  65.444  1.00  0.00    -0.325 S  
HETATM    8  O   UNL     1     -12.885  14.090  65.929  1.00  0.00    -0.484 OA 
BRANCH   7   9
HETATM    9  C   UNL     1     -10.559  15.074  66.933  1.00  0.00    -0.297 C  
BRANCH   9  10
HETATM   10  C   UNL     1     -10.057  16.513  67.003  1.00  0.00    -0.279 A  
HETATM   11  C   UNL     1     -10.658  17.493  66.191  1.00  0.00    -0.211 A  
HETATM   12  C   UNL     1      -8.970  16.901  67.801  1.00  0.00    -0.225 A  
HETATM   13  C   UNL     1     -10.185  18.809  66.177  1.00  0.00    -0.462 A  
HETATM   14  C   UNL     1      -9.098  19.166  66.965  1.00  0.00    -0.329 A  
HETATM   15  C   UNL     1      -8.489  18.214  67.777  1.00  0.00    -0.251 A  
ENDBRANCH   9  10
BRANCH   9  16
HETATM   16  C   UNL     1     -11.289  14.633  68.204  1.00  0.00    -0.321 A  
HETATM   17  C   UNL     1     -12.568  15.212  70.195  1.00  0.00    -0.319 A  
HETATM   18  C   UNL     1     -11.930  12.919  69.819  1.00  0.00    -0.365 A  
HETATM   19  C   UNL     1     -11.944  15.586  69.002  1.00  0.00    -0.323 A  
HETATM   20  C   UNL     1     -11.301  13.292  68.630  1.00  0.00    -0.324 A  
HETATM   21  C   UNL     1     -12.559  13.879  70.604  1.00  0.00    -0.405 A  
ENDBRANCH   9  16
ENDBRANCH   7   9
ENDBRANCH   6   7
ENDBRANCH   2   6
TORSDOF 5
ENDMDL
MODEL       28
REMARK 921   NORMALIZED FREE ENERGY PREDICTED BY IDOCK:   -5.34 KCAL/MOL
REMARK 922        TOTAL FREE ENERGY PREDICTED BY IDOCK:   -7.91 KCAL/MOL
REMARK 923 INTER-LIGAND FREE ENERGY PREDICTED BY IDOCK:   -7.29 KCAL/MOL
REMARK 924 INTRA-LIGAND FREE ENERGY PREDICTED BY IDOCK:   -0.62 KCAL/MOL
REMARK 927      BINDING AFFINITY PREDICTED BY RF-SCORE:    0.00 PKD
ROOT
HETATM    1  N   UNL     1      -9.319  15.395  65.674  1.00  0.00    -0.377 N  
HETATM    2  C   UNL     1      -8.443  15.746  66.667  1.00  0.00    -0.288 C  
HETATM    3  H1  UNL     1     -10.031  14.681  65.831  1.00  0.00     0.000 HD 
HETATM    4  H2  UNL     1      -9.259  15.853  64.764  1.00  0.00     0.000 HD 
HETATM    5  O   UNL     1      -7.587  16.604  66.478  1.00  0.00    -0.253 OA 
ENDROOT
BRANCH   2   6
HETATM    6  C   UNL     1      -8.581  14.984  67.968  1.00  0.00    -0.158 C  
BRANCH   6   7
HETATM    7  S   UNL     1      -9.994  15.633  68.902  1.00  0.00    -0.228 S  
HETATM    8  O   UNL     1     -10.774  16.498  67.947  1.00  0.00    -0.324 OA 
BRANCH   7   9
HETATM    9  C   UNL     1     -10.925  14.045  69.108  1.00  0.00    -0.230 C  
BRANCH   9  10
HETATM   10  C   UNL     1     -12.041  14.092  70.147  1.00  0.00    -0.419 A  
HETATM   11  C   UNL     1     -12.643  15.325  70.459  1.00  0.00    -0.450 A  
HETATM   12  C   UNL     1     -12.461  12.960  70.863  1.00  0.00    -0.383 A  
HETATM   13  C   UNL     1     -13.623  15.421  71.451  1.00  0.00    -0.604 A  
HETATM   14  C   UNL     1     -14.012  14.290  72.157  1.00  0.00    -0.618 A  
HETATM   15  C   UNL     1     -13.432  13.058  71.865  1.00  0.00    -0.498 A  
ENDBRANCH   9  10
BRANCH   9  16
HETATM   16  C   UNL     1     -11.398  13.535  67.745  1.00  0.00    -0.327 A  
HETATM   17  C   UNL     1     -11.302  11.850  65.989  1.00  0.00    -0.375 A  
HETATM   18  C   UNL     1     -12.654  13.819  65.673  1.00  0.00    -0.551 A  
HETATM   19  C   UNL     1     -10.927  12.305  67.255  1.00  0.00    -0.301 A  
HETATM   20  C   UNL     1     -12.275  14.278  66.934  1.00  0.00    -0.366 A  
HETATM   21  C   UNL     1     -12.164  12.607  65.197  1.00  0.00    -0.539 A  
ENDBRANCH   9  16
ENDBRANCH   7   9
ENDBRANCH   6   7
ENDBRANCH   2   6
TORSDOF 5
ENDMDL
MODEL       29
REMARK 921   NORMALIZED FREE ENERGY PREDICTED BY IDOCK:   -5.33 KCAL/MOL
REMARK 922        TOTAL FREE ENERGY PREDICTED BY IDOCK:   -7.89 KCAL/MOL
REMARK 923 INTER-LIGAND FREE ENERGY PREDICTED BY IDOCK:   -7.37 KCAL/MOL
REMARK 924 INTRA-LIGAND FREE ENERGY PREDICTED BY IDOCK:   -0.52 KCAL/MOL
REMARK 927      BINDING AFFINITY PREDICTED BY RF-SCORE:    0.00 PKD
ROOT
HETATM    1  N   UNL     1     -10.434  17.863  66.045  1.00  0.00    -0.357 N  
HETATM    2  C   UNL     1     -10.544  16.742  65.265  1.00  0.00    -0.168 C  
HETATM    3  H1  UNL     1      -9.900  17.847  66.914  1.00  0.00     0.000 HD 
HETATM    4  H2  UNL     1     -10.893  18.726  65.753  1.00  0.00     0.000 HD 
HETATM    5  O   UNL     1     -11.186  16.762  64.219  1.00  0.00    -1.163 OA 
ENDROOT
BRANCH   2   6
HETATM    6  C   UNL     1      -9.865  15.498  65.798  1.00  0.00    -0.357 C  
BRANCH   6   7
HETATM    7  S   UNL     1     -10.443  15.169  67.486  1.00  0.00    -0.263 S  
HETATM    8  O   UNL     1     -11.891  15.583  67.527  1.00  0.00    -0.127 OA 
BRANCH   7   9
HETATM    9  C   UNL     1     -10.390  13.319  67.426  1.00  0.00    -0.243 C  
BRANCH   9  10
HETATM   10  C   UNL     1     -11.051  12.625  68.613  1.00  0.00    -0.305 A  
HETATM   11  C   UNL     1     -11.097  11.219  68.653  1.00  0.00    -0.286 A  
HETATM   12  C   UNL     1     -11.680  13.330  69.652  1.00  0.00    -0.369 A  
HETATM   13  C   UNL     1     -11.750  10.547  69.691  1.00  0.00    -0.328 A  
HETATM   14  C   UNL     1     -12.378  11.265  70.699  1.00  0.00    -0.477 A  
HETATM   15  C   UNL     1     -12.345  12.658  70.682  1.00  0.00    -0.375 A  
ENDBRANCH   9  10
BRANCH   9  16
HETATM   16  C   UNL     1     -10.915  12.824  66.077  1.00  0.00    -0.306 A  
HETATM   17  C   UNL     1     -10.491  11.780  63.917  1.00  0.00    -0.437 A  
HETATM   18  C   UNL     1     -12.698  12.600  64.426  1.00  0.00    -0.417 A  
HETATM   19  C   UNL     1     -10.044  12.188  65.177  1.00  0.00    -0.288 A  
HETATM   20  C   UNL     1     -12.252  13.014  65.681  1.00  0.00    -0.521 A  
HETATM   21  C   UNL     1     -11.817  11.988  63.541  1.00  0.00    -0.587 A  
ENDBRANCH   9  16
ENDBRANCH   7   9
ENDBRANCH   6   7
ENDBRANCH   2   6
TORSDOF 5
ENDMDL
MODEL       30
REMARK 921   NORMALIZED FREE ENERGY PREDICTED BY IDOCK:   -5.31 KCAL/MOL
REMARK 922        TOTAL FREE ENERGY PREDICTED BY IDOCK:   -7.87 KCAL/MOL
REMARK 923 INTER-LIGAND FREE ENERGY PREDICTED BY IDOCK:   -6.93 KCAL/MOL
REMARK 924 INTRA-LIGAND FREE ENERGY PREDICTED BY IDOCK:   -0.94 KCAL/MOL
REMARK 927      BINDING AFFINITY PREDICTED BY RF-SCORE:    0.00 PKD
ROOT
HETATM    1  N   UNL     1     -10.054  19.220  67.143  1.00  0.00    -0.352 N  
HETATM    2  C   UNL     1      -9.141  18.583  67.942  1.00  0.00    -0.290 C  
HETATM    3  H1  UNL     1     -10.688  18.689  66.545  1.00  0.00     0.000 HD 
HETATM    4  H2  UNL     1     -10.100  20.239  67.146  1.00  0.00     0.000 HD 
HETATM    5  O   UNL     1      -8.379  19.221  68.661  1.00  0.00    -0.357 OA 
ENDROOT
BRANCH   2   6
HETATM    6  C   UNL     1      -9.118  17.072  67.842  1.00  0.00    -0.232 C  
BRANCH   6   7
HETATM    7  S   UNL     1     -10.524  16.510  66.843  1.00  0.00    -0.245 S  
HETATM    8  O   UNL     1     -10.056  16.515  65.411  1.00  0.00    -0.570 OA 
BRANCH   7   9
HETATM    9  C   UNL     1     -10.564  14.748  67.413  1.00  0.00    -0.268 C  
BRANCH   9  10
HETATM   10  C   UNL     1     -11.294  14.524  68.734  1.00  0.00    -0.298 A  
HETATM   11  C   UNL     1     -11.496  13.210  69.196  1.00  0.00    -0.358 A  
HETATM   12  C   UNL     1     -11.838  15.574  69.490  1.00  0.00    -0.390 A  
HETATM   13  C   UNL     1     -12.217  12.959  70.368  1.00  0.00    -0.381 A  
HETATM   14  C   UNL     1     -12.758  14.014  71.092  1.00  0.00    -0.436 A  
HETATM   15  C   UNL     1     -12.570  15.322  70.654  1.00  0.00    -0.471 A  
ENDBRANCH   9  10
BRANCH   9  16
HETATM   16  C   UNL     1     -11.074  13.846  66.288  1.00  0.00    -0.304 A  
HETATM   17  C   UNL     1     -10.624  12.169  64.579  1.00  0.00    -0.350 A  
HETATM   18  C   UNL     1     -12.838  13.097  64.777  1.00  0.00    -0.298 A  
HETATM   19  C   UNL     1     -10.191  12.960  65.646  1.00  0.00    -0.295 A  
HETATM   20  C   UNL     1     -12.406  13.893  65.839  1.00  0.00    -0.517 A  
HETATM   21  C   UNL     1     -11.946  12.239  64.144  1.00  0.00    -0.518 A  
ENDBRANCH   9  16
ENDBRANCH   7   9
ENDBRANCH   6   7
ENDBRANCH   2   6
TORSDOF 5
ENDMDL
MODEL       31
REMARK 921   NORMALIZED FREE ENERGY PREDICTED BY IDOCK:   -5.30 KCAL/MOL
REMARK 922        TOTAL FREE ENERGY PREDICTED BY IDOCK:   -7.85 KCAL/MOL
REMARK 923 INTER-LIGAND FREE ENERGY PREDICTED BY IDOCK:   -7.47 KCAL/MOL
REMARK 924 INTRA-LIGAND FREE ENERGY PREDICTED BY IDOCK:   -0.38 KCAL/MOL
REMARK 927      BINDING AFFINITY PREDICTED BY RF-SCORE:    0.00 PKD
ROOT
HETATM    1  N   UNL     1     -13.767   9.457  72.482  1.00  0.00    -0.691 N  
HETATM    2  C   UNL     1     -12.720  10.050  71.829  1.00  0.00    -0.428 C  
HETATM    3  H1  UNL     1     -14.662   9.937  72.583  1.00  0.00     0.000 HD 
HETATM    4  H2  UNL     1     -13.652   8.521  72.873  1.00  0.00     0.000 HD 
HETATM    5  O   UNL     1     -11.644   9.472  71.708  1.00  0.00    -0.385 OA 
ENDROOT
BRANCH   2   6
HETATM    6  C   UNL     1     -12.970  11.454  71.319  1.00  0.00    -0.316 C  
BRANCH   6   7
HETATM    7  S   UNL     1     -11.791  11.834  69.994  1.00  0.00    -0.310 S  
HETATM    8  O   UNL     1     -12.141  10.929  68.841  1.00  0.00    -0.463 OA 
BRANCH   7   9
HETATM    9  C   UNL     1     -12.401  13.533  69.579  1.00  0.00    -0.147 C  
BRANCH   9  10
HETATM   10  C   UNL     1     -12.703  14.414  70.787  1.00  0.00    -0.427 A  
HETATM   11  C   UNL     1     -11.658  14.768  71.661  1.00  0.00    -0.260 A  
HETATM   12  C   UNL     1     -14.000  14.842  71.111  1.00  0.00    -0.403 A  
HETATM   13  C   UNL     1     -11.904  15.519  72.814  1.00  0.00    -0.575 A  
HETATM   14  C   UNL     1     -13.197  15.919  73.122  1.00  0.00    -0.692 A  
HETATM   15  C   UNL     1     -14.247  15.581  72.271  1.00  0.00    -0.617 A  
ENDBRANCH   9  10
BRANCH   9  16
HETATM   16  C   UNL     1     -11.456  14.197  68.575  1.00  0.00    -0.333 A  
HETATM   17  C   UNL     1     -11.045  15.052  66.332  1.00  0.00    -0.329 A  
HETATM   18  C   UNL     1      -9.259  15.054  67.948  1.00  0.00    -0.182 A  
HETATM   19  C   UNL     1     -11.909  14.498  67.280  1.00  0.00    -0.419 A  
HETATM   20  C   UNL     1     -10.118  14.493  68.894  1.00  0.00    -0.224 A  
HETATM   21  C   UNL     1      -9.720  15.329  66.666  1.00  0.00    -0.268 A  
ENDBRANCH   9  16
ENDBRANCH   7   9
ENDBRANCH   6   7
ENDBRANCH   2   6
TORSDOF 5
ENDMDL
MODEL       32
REMARK 921   NORMALIZED FREE ENERGY PREDICTED BY IDOCK:   -5.28 KCAL/MOL
REMARK 922        TOTAL FREE ENERGY PREDICTED BY IDOCK:   -7.82 KCAL/MOL
REMARK 923 INTER-LIGAND FREE ENERGY PREDICTED BY IDOCK:   -6.93 KCAL/MOL
REMARK 924 INTRA-LIGAND FREE ENERGY PREDICTED BY IDOCK:   -0.90 KCAL/MOL
REMARK 927      BINDING AFFINITY PREDICTED BY RF-SCORE:    0.00 PKD
ROOT
HETATM    1  N   UNL     1     -10.103  19.436  67.596  1.00  0.00    -0.371 N  
HETATM    2  C   UNL     1      -9.064  18.759  68.177  1.00  0.00    -0.307 C  
HETATM    3  H1  UNL     1     -10.889  18.935  67.180  1.00  0.00     0.000 HD 
HETATM    4  H2  UNL     1     -10.092  20.457  67.579  1.00  0.00     0.000 HD 
HETATM    5  O   UNL     1      -8.120  19.362  68.677  1.00  0.00    -0.354 OA 
ENDROOT
BRANCH   2   6
HETATM    6  C   UNL     1      -9.146  17.248  68.119  1.00  0.00    -0.257 C  
BRANCH   6   7
HETATM    7  S   UNL     1     -10.584  16.758  67.128  1.00  0.00    -0.202 S  
HETATM    8  O   UNL     1     -10.158  16.852  65.686  1.00  0.00    -0.546 OA 
BRANCH   7   9
HETATM    9  C   UNL     1     -10.622  14.965  67.586  1.00  0.00    -0.264 C  
BRANCH   9  10
HETATM   10  C   UNL     1     -11.481  14.637  68.803  1.00  0.00    -0.322 A  
HETATM   11  C   UNL     1     -12.091  15.683  69.520  1.00  0.00    -0.307 A  
HETATM   12  C   UNL     1     -11.645  13.330  69.288  1.00  0.00    -0.370 A  
HETATM   13  C   UNL     1     -12.833  15.430  70.678  1.00  0.00    -0.484 A  
HETATM   14  C   UNL     1     -12.969  14.130  71.147  1.00  0.00    -0.419 A  
HETATM   15  C   UNL     1     -12.376  13.078  70.453  1.00  0.00    -0.351 A  
ENDBRANCH   9  10
BRANCH   9  16
HETATM   16  C   UNL     1     -10.973  14.118  66.361  1.00  0.00    -0.311 A  
HETATM   17  C   UNL     1     -12.660  13.167  64.884  1.00  0.00    -0.468 A  
HETATM   18  C   UNL     1     -10.338  12.626  64.537  1.00  0.00    -0.369 A  
HETATM   19  C   UNL     1     -12.314  13.981  65.965  1.00  0.00    -0.504 A  
HETATM   20  C   UNL     1      -9.991  13.433  65.621  1.00  0.00    -0.249 A  
HETATM   21  C   UNL     1     -11.672  12.489  64.171  1.00  0.00    -0.471 A  
ENDBRANCH   9  16
ENDBRANCH   7   9
ENDBRANCH   6   7
ENDBRANCH   2   6
TORSDOF 5
ENDMDL
MODEL       33
REMARK 921   NORMALIZED FREE ENERGY PREDICTED BY IDOCK:   -5.26 KCAL/MOL
REMARK 922        TOTAL FREE ENERGY PREDICTED BY IDOCK:   -7.80 KCAL/MOL
REMARK 923 INTER-LIGAND FREE ENERGY PREDICTED BY IDOCK:   -7.17 KCAL/MOL
REMARK 924 INTRA-LIGAND FREE ENERGY PREDICTED BY IDOCK:   -0.63 KCAL/MOL
REMARK 927      BINDING AFFINITY PREDICTED BY RF-SCORE:    0.00 PKD
ROOT
HETATM    1  N   UNL     1     -13.316  15.579  70.334  1.00  0.00    -0.779 N  
HETATM    2  C   UNL     1     -12.032  15.610  70.809  1.00  0.00    -0.398 C  
HETATM    3  H1  UNL     1     -13.529  15.167  69.425  1.00  0.00     0.000 HD 
HETATM    4  H2  UNL     1     -14.071  15.972  70.897  1.00  0.00     0.000 HD 
HETATM    5  O   UNL     1     -11.776  16.105  71.902  1.00  0.00    -0.475 OA 
ENDROOT
BRANCH   2   6
HETATM    6  C   UNL     1     -10.973  15.040  69.888  1.00  0.00    -0.261 C  
BRANCH   6   7
HETATM    7  S   UNL     1     -11.685  14.773  68.241  1.00  0.00    -0.287 S  
HETATM    8  O   UNL     1     -11.152  15.876  67.364  1.00  0.00    -0.301 OA 
BRANCH   7   9
HETATM    9  C   UNL     1     -10.772  13.221  67.808  1.00  0.00    -0.244 C  
BRANCH   9  10
HETATM   10  C   UNL     1     -11.011  12.055  68.762  1.00  0.00    -0.282 A  
HETATM   11  C   UNL     1     -12.160  12.052  69.574  1.00  0.00    -0.273 A  
HETATM   12  C   UNL     1     -10.097  11.001  68.917  1.00  0.00    -0.212 A  
HETATM   13  C   UNL     1     -12.383  11.035  70.507  1.00  0.00    -0.462 A  
HETATM   14  C   UNL     1     -11.458  10.010  70.654  1.00  0.00    -0.425 A  
HETATM   15  C   UNL     1     -10.314   9.991  69.860  1.00  0.00    -0.315 A  
ENDBRANCH   9  10
BRANCH   9  16
HETATM   16  C   UNL     1     -11.024  12.857  66.343  1.00  0.00    -0.310 A  
HETATM   17  C   UNL     1     -12.588  12.517  64.507  1.00  0.00    -0.503 A  
HETATM   18  C   UNL     1     -10.245  12.065  64.170  1.00  0.00    -0.367 A  
HETATM   19  C   UNL     1     -12.329  12.900  65.825  1.00  0.00    -0.437 A  
HETATM   20  C   UNL     1      -9.986  12.441  65.489  1.00  0.00    -0.260 A  
HETATM   21  C   UNL     1     -11.546  12.098  63.680  1.00  0.00    -0.575 A  
ENDBRANCH   9  16
ENDBRANCH   7   9
ENDBRANCH   6   7
ENDBRANCH   2   6
TORSDOF 5
ENDMDL
MODEL       34
REMARK 921   NORMALIZED FREE ENERGY PREDICTED BY IDOCK:   -5.25 KCAL/MOL
REMARK 922        TOTAL FREE ENERGY PREDICTED BY IDOCK:   -7.78 KCAL/MOL
REMARK 923 INTER-LIGAND FREE ENERGY PREDICTED BY IDOCK:   -7.15 KCAL/MOL
REMARK 924 INTRA-LIGAND FREE ENERGY PREDICTED BY IDOCK:   -0.63 KCAL/MOL
REMARK 927      BINDING AFFINITY PREDICTED BY RF-SCORE:    0.00 PKD
ROOT
HETATM    1  N   UNL     1     -10.922  19.531  67.261  1.00  0.00    -0.450 N  
HETATM    2  C   UNL     1     -10.045  18.485  67.157  1.00  0.00    -0.353 C  
HETATM    3  H1  UNL     1     -11.254  19.849  68.172  1.00  0.00     0.000 HD 
HETATM    4  H2  UNL     1     -11.249  20.001  66.416  1.00  0.00     0.000 HD 
HETATM    5  O   UNL     1      -9.646  18.104  66.061  1.00  0.00    -0.496 OA 
ENDROOT
BRANCH   2   6
HETATM    6  C   UNL     1      -9.648  17.824  68.461  1.00  0.00    -0.322 C  
BRANCH   6   7
HETATM    7  S   UNL     1      -9.357  16.056  68.178  1.00  0.00    -0.202 S  
HETATM    8  O   UNL     1      -8.968  15.472  69.511  1.00  0.00    -0.268 OA 
BRANCH   7   9
HETATM    9  C   UNL     1     -11.105  15.553  67.834  1.00  0.00    -0.321 C  
BRANCH   9  10
HETATM   10  C   UNL     1     -11.279  14.641  66.623  1.00  0.00    -0.349 A  
HETATM   11  C   UNL     1     -10.196  14.444  65.747  1.00  0.00    -0.355 A  
HETATM   12  C   UNL     1     -12.501  14.031  66.300  1.00  0.00    -0.439 A  
HETATM   13  C   UNL     1     -10.333  13.669  64.591  1.00  0.00    -0.407 A  
HETATM   14  C   UNL     1     -11.556  13.087  64.285  1.00  0.00    -0.437 A  
HETATM   15  C   UNL     1     -12.642  13.267  65.138  1.00  0.00    -0.512 A  
ENDBRANCH   9  10
BRANCH   9  16
HETATM   16  C   UNL     1     -11.747  14.989  69.104  1.00  0.00    -0.345 A  
HETATM   17  C   UNL     1     -12.317  13.068  70.489  1.00  0.00    -0.365 A  
HETATM   18  C   UNL     1     -13.056  15.265  71.145  1.00  0.00    -0.546 A  
HETATM   19  C   UNL     1     -11.688  13.610  69.365  1.00  0.00    -0.379 A  
HETATM   20  C   UNL     1     -12.435  15.807  70.019  1.00  0.00    -0.178 A  
HETATM   21  C   UNL     1     -13.002  13.896  71.378  1.00  0.00    -0.430 A  
ENDBRANCH   9  16
ENDBRANCH   7   9
ENDBRANCH   6   7
ENDBRANCH   2   6
TORSDOF 5
ENDMDL
MODEL       35
REMARK 921   NORMALIZED FREE ENERGY PREDICTED BY IDOCK:   -5.24 KCAL/MOL
REMARK 922        TOTAL FREE ENERGY PREDICTED BY IDOCK:   -7.77 KCAL/MOL
REMARK 923 INTER-LIGAND FREE ENERGY PREDICTED BY IDOCK:   -7.00 KCAL/MOL
REMARK 924 INTRA-LIGAND FREE ENERGY PREDICTED BY IDOCK:   -0.77 KCAL/MOL
REMARK 927      BINDING AFFINITY PREDICTED BY RF-SCORE:    0.00 PKD
ROOT
HETATM    1  N   UNL     1     -10.154  19.026  69.006  1.00  0.00    -0.530 N  
HETATM    2  C   UNL     1      -9.709  18.429  67.856  1.00  0.00    -0.308 C  
HETATM    3  H1  UNL     1     -10.982  18.679  69.491  1.00  0.00     0.000 HD 
HETATM    4  H2  UNL     1      -9.651  19.830  69.383  1.00  0.00     0.000 HD 
HETATM    5  O   UNL     1      -8.713  18.847  67.274  1.00  0.00    -0.273 OA 
ENDROOT
BRANCH   2   6
HETATM    6  C   UNL     1     -10.541  17.269  67.350  1.00  0.00    -0.303 C  
BRANCH   6   7
HETATM    7  S   UNL     1     -10.065  15.754  68.227  1.00  0.00    -0.225 S  
HETATM    8  O   UNL     1     -10.065  16.095  69.694  1.00  0.00    -0.255 OA 
BRANCH   7   9
HETATM    9  C   UNL     1     -11.589  14.761  67.882  1.00  0.00    -0.351 C  
BRANCH   9  10
HETATM   10  C   UNL     1     -11.600  14.061  66.526  1.00  0.00    -0.389 A  
HETATM   11  C   UNL     1     -10.393  13.908  65.819  1.00  0.00    -0.326 A  
HETATM   12  C   UNL     1     -12.779  13.612  65.912  1.00  0.00    -0.428 A  
HETATM   13  C   UNL     1     -10.369  13.331  64.546  1.00  0.00    -0.394 A  
HETATM   14  C   UNL     1     -11.551  12.908  63.952  1.00  0.00    -0.515 A  
HETATM   15  C   UNL     1     -12.757  13.047  64.633  1.00  0.00    -0.367 A  
ENDBRANCH   9  10
BRANCH   9  16
HETATM   16  C   UNL     1     -11.868  13.810  69.048  1.00  0.00    -0.397 A  
HETATM   17  C   UNL     1     -11.784  11.564  69.988  1.00  0.00    -0.414 A  
HETATM   18  C   UNL     1     -12.824  13.338  71.243  1.00  0.00    -0.398 A  
HETATM   19  C   UNL     1     -11.487  12.461  68.958  1.00  0.00    -0.352 A  
HETATM   20  C   UNL     1     -12.534  14.233  70.213  1.00  0.00    -0.422 A  
HETATM   21  C   UNL     1     -12.454  12.002  71.129  1.00  0.00    -0.353 A  
ENDBRANCH   9  16
ENDBRANCH   7   9
ENDBRANCH   6   7
ENDBRANCH   2   6
TORSDOF 5
ENDMDL
MODEL       36
REMARK 921   NORMALIZED FREE ENERGY PREDICTED BY IDOCK:   -5.16 KCAL/MOL
REMARK 922        TOTAL FREE ENERGY PREDICTED BY IDOCK:   -7.67 KCAL/MOL
REMARK 923 INTER-LIGAND FREE ENERGY PREDICTED BY IDOCK:   -6.85 KCAL/MOL
REMARK 924 INTRA-LIGAND FREE ENERGY PREDICTED BY IDOCK:   -0.82 KCAL/MOL
REMARK 927      BINDING AFFINITY PREDICTED BY RF-SCORE:    0.00 PKD
ROOT
HETATM    1  N   UNL     1     -12.140   8.335  71.302  1.00  0.00    -0.288 N  
HETATM    2  C   UNL     1     -11.019   9.121  71.289  1.00  0.00    -0.330 C  
HETATM    3  H1  UNL     1     -12.899   8.492  70.638  1.00  0.00     0.000 HD 
HETATM    4  H2  UNL     1     -12.219   7.581  71.986  1.00  0.00     0.000 HD 
HETATM    5  O   UNL     1     -10.106   8.931  72.088  1.00  0.00    -0.325 OA 
ENDROOT
BRANCH   2   6
HETATM    6  C   UNL     1     -11.008  10.239  70.268  1.00  0.00    -0.309 C  
BRANCH   6   7
HETATM    7  S   UNL     1     -12.488  11.265  70.480  1.00  0.00    -0.286 S  
HETATM    8  O   UNL     1     -12.877  11.155  71.931  1.00  0.00    -0.411 OA 
BRANCH   7   9
HETATM    9  C   UNL     1     -11.697  12.922  70.235  1.00  0.00    -0.107 C  
BRANCH   9  10
HETATM   10  C   UNL     1     -11.650  13.396  68.786  1.00  0.00    -0.363 A  
HETATM   11  C   UNL     1     -11.372  14.749  68.512  1.00  0.00    -0.309 A  
HETATM   12  C   UNL     1     -11.935  12.554  67.701  1.00  0.00    -0.287 A  
HETATM   13  C   UNL     1     -11.384  15.237  67.201  1.00  0.00    -0.247 A  
HETATM   14  C   UNL     1     -11.684  14.388  66.144  1.00  0.00    -0.384 A  
HETATM   15  C   UNL     1     -11.960  13.045  66.392  1.00  0.00    -0.466 A  
ENDBRANCH   9  10
BRANCH   9  16
HETATM   16  C   UNL     1     -12.328  13.947  71.180  1.00  0.00    -0.440 A  
HETATM   17  C   UNL     1     -14.311  15.094  72.007  1.00  0.00    -0.682 A  
HETATM   18  C   UNL     1     -12.142  15.723  72.843  1.00  0.00    -0.596 A  
HETATM   19  C   UNL     1     -13.722  14.123  71.193  1.00  0.00    -0.206 A  
HETATM   20  C   UNL     1     -11.550  14.759  72.026  1.00  0.00    -0.178 A  
HETATM   21  C   UNL     1     -13.521  15.894  72.830  1.00  0.00    -0.637 A  
ENDBRANCH   9  16
ENDBRANCH   7   9
ENDBRANCH   6   7
ENDBRANCH   2   6
TORSDOF 5
ENDMDL
MODEL       37
REMARK 921   NORMALIZED FREE ENERGY PREDICTED BY IDOCK:   -5.15 KCAL/MOL
REMARK 922        TOTAL FREE ENERGY PREDICTED BY IDOCK:   -7.66 KCAL/MOL
REMARK 923 INTER-LIGAND FREE ENERGY PREDICTED BY IDOCK:   -6.61 KCAL/MOL
REMARK 924 INTRA-LIGAND FREE ENERGY PREDICTED BY IDOCK:   -1.05 KCAL/MOL
REMARK 927      BINDING AFFINITY PREDICTED BY RF-SCORE:    0.00 PKD
ROOT
HETATM    1  N   UNL     1     -11.737  10.354  71.044  1.00  0.00    -0.353 N  
HETATM    2  C   UNL     1     -12.516  11.467  71.217  1.00  0.00    -0.293 C  
HETATM    3  H1  UNL     1     -11.003  10.332  70.335  1.00  0.00     0.000 HD 
HETATM    4  H2  UNL     1     -11.892   9.535  71.633  1.00  0.00     0.000 HD 
HETATM    5  O   UNL     1     -13.398  11.494  72.070  1.00  0.00    -0.476 OA 
ENDROOT
BRANCH   2   6
HETATM    6  C   UNL     1     -12.241  12.618  70.271  1.00  0.00    -0.271 C  
BRANCH   6   7
HETATM    7  S   UNL     1     -11.384  11.999  68.798  1.00  0.00    -0.304 S  
HETATM    8  O   UNL     1     -12.224  10.870  68.260  1.00  0.00    -0.526 OA 
BRANCH   7   9
HETATM    9  C   UNL     1     -11.650  13.467  67.702  1.00  0.00    -0.339 C  
BRANCH   9  10
HETATM   10  C   UNL     1     -10.781  14.676  68.035  1.00  0.00    -0.246 A  
HETATM   11  C   UNL     1     -11.145  15.944  67.546  1.00  0.00    -0.235 A  
HETATM   12  C   UNL     1      -9.584  14.574  68.761  1.00  0.00    -0.193 A  
HETATM   13  C   UNL     1     -10.341  17.065  67.774  1.00  0.00    -0.335 A  
HETATM   14  C   UNL     1      -9.154  16.938  68.483  1.00  0.00    -0.257 A  
HETATM   15  C   UNL     1      -8.773  15.693  68.977  1.00  0.00    -0.240 A  
ENDBRANCH   9  10
BRANCH   9  16
HETATM   16  C   UNL     1     -11.554  13.048  66.233  1.00  0.00    -0.408 A  
HETATM   17  C   UNL     1     -10.211  12.245  64.366  1.00  0.00    -0.341 A  
HETATM   18  C   UNL     1     -12.526  12.809  64.008  1.00  0.00    -0.445 A  
HETATM   19  C   UNL     1     -10.334  12.578  65.717  1.00  0.00    -0.288 A  
HETATM   20  C   UNL     1     -12.648  13.149  65.355  1.00  0.00    -0.512 A  
HETATM   21  C   UNL     1     -11.306  12.362  63.511  1.00  0.00    -0.553 A  
ENDBRANCH   9  16
ENDBRANCH   7   9
ENDBRANCH   6   7
ENDBRANCH   2   6
TORSDOF 5
ENDMDL
MODEL       38
REMARK 921   NORMALIZED FREE ENERGY PREDICTED BY IDOCK:   -5.14 KCAL/MOL
REMARK 922        TOTAL FREE ENERGY PREDICTED BY IDOCK:   -7.65 KCAL/MOL
REMARK 923 INTER-LIGAND FREE ENERGY PREDICTED BY IDOCK:   -7.21 KCAL/MOL
REMARK 924 INTRA-LIGAND FREE ENERGY PREDICTED BY IDOCK:   -0.44 KCAL/MOL
REMARK 927      BINDING AFFINITY PREDICTED BY RF-SCORE:    0.00 PKD
ROOT
HETATM    1  N   UNL     1     -11.963  15.824  63.916  1.00  0.00    -0.950 N  
HETATM    2  C   UNL     1     -10.987  15.730  64.873  1.00  0.00    -0.427 C  
HETATM    3  H1  UNL     1     -12.544  15.020  63.679  1.00  0.00     0.000 HD 
HETATM    4  H2  UNL     1     -12.110  16.711  63.433  1.00  0.00     0.000 HD 
HETATM    5  O   UNL     1     -10.288  16.697  65.158  1.00  0.00    -0.630 OA 
ENDROOT
BRANCH   2   6
HETATM    6  C   UNL     1     -10.814  14.365  65.506  1.00  0.00    -0.331 C  
BRANCH   6   7
HETATM    7  S   UNL     1     -12.427  13.744  66.056  1.00  0.00    -0.409 S  
HETATM    8  O   UNL     1     -12.855  12.716  65.040  1.00  0.00    -0.765 OA 
BRANCH   7   9
HETATM    9  C   UNL     1     -11.858  12.836  67.566  1.00  0.00    -0.343 C  
BRANCH   9  10
HETATM   10  C   UNL     1     -10.532  12.099  67.404  1.00  0.00    -0.233 A  
HETATM   11  C   UNL     1      -9.378  12.609  68.028  1.00  0.00    -0.209 A  
HETATM   12  C   UNL     1     -10.390  10.957  66.600  1.00  0.00    -0.289 A  
HETATM   13  C   UNL     1      -8.132  12.001  67.852  1.00  0.00    -0.150 A  
HETATM   14  C   UNL     1      -8.013  10.880  67.040  1.00  0.00    -0.132 A  
HETATM   15  C   UNL     1      -9.141  10.357  66.413  1.00  0.00    -0.177 A  
ENDBRANCH   9  10
BRANCH   9  16
HETATM   16  C   UNL     1     -11.878  13.771  68.777  1.00  0.00    -0.398 A  
HETATM   17  C   UNL     1     -11.739  16.027  69.687  1.00  0.00    -0.278 A  
HETATM   18  C   UNL     1     -11.925  14.151  71.187  1.00  0.00    -0.316 A  
HETATM   19  C   UNL     1     -11.780  15.160  68.591  1.00  0.00    -0.364 A  
HETATM   20  C   UNL     1     -11.959  13.284  70.095  1.00  0.00    -0.388 A  
HETATM   21  C   UNL     1     -11.810  15.522  70.984  1.00  0.00    -0.427 A  
ENDBRANCH   9  16
ENDBRANCH   7   9
ENDBRANCH   6   7
ENDBRANCH   2   6
TORSDOF 5
ENDMDL
MODEL       39
REMARK 921   NORMALIZED FREE ENERGY PREDICTED BY IDOCK:   -5.13 KCAL/MOL
REMARK 922        TOTAL FREE ENERGY PREDICTED BY IDOCK:   -7.63 KCAL/MOL
REMARK 923 INTER-LIGAND FREE ENERGY PREDICTED BY IDOCK:   -7.25 KCAL/MOL
REMARK 924 INTRA-LIGAND FREE ENERGY PREDICTED BY IDOCK:   -0.39 KCAL/MOL
REMARK 927      BINDING AFFINITY PREDICTED BY RF-SCORE:    0.00 PKD
ROOT
HETATM    1  N   UNL     1      -9.677  11.657  65.696  1.00  0.00    -0.233 N  
HETATM    2  C   UNL     1      -9.949  12.793  66.412  1.00  0.00    -0.265 C  
HETATM    3  H1  UNL     1      -9.605  10.751  66.158  1.00  0.00     0.000 HD 
HETATM    4  H2  UNL     1      -9.544  11.719  64.686  1.00  0.00     0.000 HD 
HETATM    5  O   UNL     1     -10.036  13.883  65.855  1.00  0.00    -0.300 OA 
ENDROOT
BRANCH   2   6
HETATM    6  C   UNL     1     -10.090  12.611  67.909  1.00  0.00    -0.222 C  
BRANCH   6   7
HETATM    7  S   UNL     1     -11.718  11.903  68.281  1.00  0.00    -0.293 S  
HETATM    8  O   UNL     1     -11.651  10.452  67.884  1.00  0.00    -0.406 OA 
BRANCH   7   9
HETATM    9  C   UNL     1     -11.623  11.984  70.129  1.00  0.00    -0.143 C  
BRANCH   9  10
HETATM   10  C   UNL     1     -12.431  13.114  70.759  1.00  0.00    -0.389 A  
HETATM   11  C   UNL     1     -12.347  14.409  70.215  1.00  0.00    -0.410 A  
HETATM   12  C   UNL     1     -13.215  12.938  71.910  1.00  0.00    -0.521 A  
HETATM   13  C   UNL     1     -13.020  15.485  70.802  1.00  0.00    -0.490 A  
HETATM   14  C   UNL     1     -13.778  15.290  71.949  1.00  0.00    -0.601 A  
HETATM   15  C   UNL     1     -13.877  14.017  72.505  1.00  0.00    -0.610 A  
ENDBRANCH   9  10
BRANCH   9  16
HETATM   16  C   UNL     1     -11.944  10.613  70.730  1.00  0.00    -0.477 A  
HETATM   17  C   UNL     1     -13.596   8.980  71.463  1.00  0.00    -0.395 A  
HETATM   18  C   UNL     1     -11.253   8.523  71.781  1.00  0.00    -0.379 A  
HETATM   19  C   UNL     1     -13.281  10.203  70.865  1.00  0.00    -0.360 A  
HETATM   20  C   UNL     1     -10.936   9.747  71.191  1.00  0.00    -0.386 A  
HETATM   21  C   UNL     1     -12.582   8.141  71.922  1.00  0.00    -0.368 A  
ENDBRANCH   9  16
ENDBRANCH   7   9
ENDBRANCH   6   7
ENDBRANCH   2   6
TORSDOF 5
ENDMDL
MODEL       40
REMARK 921   NORMALIZED FREE ENERGY PREDICTED BY IDOCK:   -5.12 KCAL/MOL
REMARK 922        TOTAL FREE ENERGY PREDICTED BY IDOCK:   -7.61 KCAL/MOL
REMARK 923 INTER-LIGAND FREE ENERGY PREDICTED BY IDOCK:   -6.74 KCAL/MOL
REMARK 924 INTRA-LIGAND FREE ENERGY PREDICTED BY IDOCK:   -0.87 KCAL/MOL
REMARK 927      BINDING AFFINITY PREDICTED BY RF-SCORE:    0.00 PKD
ROOT
HETATM    1  N   UNL     1      -8.403  18.344  67.985  1.00  0.00    -0.265 N  
HETATM    2  C   UNL     1      -8.686  17.976  66.696  1.00  0.00    -0.259 C  
HETATM    3  H1  UNL     1      -8.976  18.014  68.762  1.00  0.00     0.000 HD 
HETATM    4  H2  UNL     1      -7.608  18.956  68.171  1.00  0.00     0.000 HD 
HETATM    5  O   UNL     1      -7.996  18.373  65.762  1.00  0.00    -0.509 OA 
ENDROOT
BRANCH   2   6
HETATM    6  C   UNL     1      -9.908  17.100  66.513  1.00  0.00    -0.296 C  
BRANCH   6   7
HETATM    7  S   UNL     1      -9.477  15.377  66.880  1.00  0.00    -0.243 S  
HETATM    8  O   UNL     1      -9.091  15.337  68.335  1.00  0.00    -0.179 OA 
BRANCH   7   9
HETATM    9  C   UNL     1     -11.171  14.644  66.728  1.00  0.00    -0.344 C  
BRANCH   9  10
HETATM   10  C   UNL     1     -11.368  13.744  65.513  1.00  0.00    -0.313 A  
HETATM   11  C   UNL     1     -12.650  13.238  65.229  1.00  0.00    -0.528 A  
HETATM   12  C   UNL     1     -10.307  13.337  64.688  1.00  0.00    -0.394 A  
HETATM   13  C   UNL     1     -12.861  12.357  64.164  1.00  0.00    -0.364 A  
HETATM   14  C   UNL     1     -11.793  11.958  63.370  1.00  0.00    -0.512 A  
HETATM   15  C   UNL     1     -10.515  12.446  63.631  1.00  0.00    -0.460 A  
ENDBRANCH   9  10
BRANCH   9  16
HETATM   16  C   UNL     1     -11.568  13.970  68.043  1.00  0.00    -0.372 A  
HETATM   17  C   UNL     1     -12.534  14.130  70.273  1.00  0.00    -0.416 A  
HETATM   18  C   UNL     1     -11.603  12.036  69.531  1.00  0.00    -0.389 A  
HETATM   19  C   UNL     1     -12.215  14.713  69.044  1.00  0.00    -0.199 A  
HETATM   20  C   UNL     1     -11.276  12.619  68.306  1.00  0.00    -0.312 A  
HETATM   21  C   UNL     1     -12.227  12.793  70.517  1.00  0.00    -0.389 A  
ENDBRANCH   9  16
ENDBRANCH   7   9
ENDBRANCH   6   7
ENDBRANCH   2   6
TORSDOF 5
ENDMDL
MODEL       41
REMARK 921   NORMALIZED FREE ENERGY PREDICTED BY IDOCK:   -5.10 KCAL/MOL
REMARK 922        TOTAL FREE ENERGY PREDICTED BY IDOCK:   -7.60 KCAL/MOL
REMARK 923 INTER-LIGAND FREE ENERGY PREDICTED BY IDOCK:   -6.81 KCAL/MOL
REMARK 924 INTRA-LIGAND FREE ENERGY PREDICTED BY IDOCK:   -0.79 KCAL/MOL
REMARK 927      BINDING AFFINITY PREDICTED BY RF-SCORE:    0.00 PKD
ROOT
HETATM    1  N   UNL     1     -13.923  15.343  71.040  1.00  0.00    -0.822 N  
HETATM    2  C   UNL     1     -13.142  14.218  71.021  1.00  0.00    -0.328 C  
HETATM    3  H1  UNL     1     -13.893  16.015  70.272  1.00  0.00     0.000 HD 
HETATM    4  H2  UNL     1     -14.543  15.513  71.832  1.00  0.00     0.000 HD 
HETATM    5  O   UNL     1     -13.178  13.410  71.945  1.00  0.00    -0.392 OA 
ENDROOT
BRANCH   2   6
HETATM    6  C   UNL     1     -12.224  14.071  69.826  1.00  0.00    -0.341 C  
BRANCH   6   7
HETATM    7  S   UNL     1     -11.728  15.713  69.238  1.00  0.00    -0.363 S  
HETATM    8  O   UNL     1     -10.985  16.365  70.375  1.00  0.00    -0.322 OA 
BRANCH   7   9
HETATM    9  C   UNL     1     -10.476  15.177  67.984  1.00  0.00    -0.247 C  
BRANCH   9  10
HETATM   10  C   UNL     1     -11.010  14.224  66.919  1.00  0.00    -0.304 A  
HETATM   11  C   UNL     1     -11.782  14.735  65.859  1.00  0.00    -0.248 A  
HETATM   12  C   UNL     1     -10.820  12.834  66.980  1.00  0.00    -0.282 A  
HETATM   13  C   UNL     1     -12.343  13.886  64.900  1.00  0.00    -0.445 A  
HETATM   14  C   UNL     1     -12.154  12.513  64.989  1.00  0.00    -0.504 A  
HETATM   15  C   UNL     1     -11.394  11.985  66.029  1.00  0.00    -0.398 A  
ENDBRANCH   9  10
BRANCH   9  16
HETATM   16  C   UNL     1      -9.772  16.400  67.392  1.00  0.00    -0.238 A  
HETATM   17  C   UNL     1      -9.811  18.766  66.812  1.00  0.00    -0.374 A  
HETATM   18  C   UNL     1      -7.896  17.431  66.220  1.00  0.00    -0.330 A  
HETATM   19  C   UNL     1     -10.414  17.650  67.399  1.00  0.00    -0.356 A  
HETATM   20  C   UNL     1      -8.499  16.314  66.799  1.00  0.00    -0.283 A  
HETATM   21  C   UNL     1      -8.554  18.656  66.222  1.00  0.00    -0.232 A  
ENDBRANCH   9  16
ENDBRANCH   7   9
ENDBRANCH   6   7
ENDBRANCH   2   6
TORSDOF 5
ENDMDL
MODEL       42
REMARK 921   NORMALIZED FREE ENERGY PREDICTED BY IDOCK:   -5.03 KCAL/MOL
REMARK 922        TOTAL FREE ENERGY PREDICTED BY IDOCK:   -7.51 KCAL/MOL
REMARK 923 INTER-LIGAND FREE ENERGY PREDICTED BY IDOCK:   -6.51 KCAL/MOL
REMARK 924 INTRA-LIGAND FREE ENERGY PREDICTED BY IDOCK:   -0.99 KCAL/MOL
REMARK 927      BINDING AFFINITY PREDICTED BY RF-SCORE:    0.00 PKD
ROOT
HETATM    1  N   UNL     1     -12.306  11.653  62.838  1.00  0.00    -0.861 N  
HETATM    2  C   UNL     1     -11.276  12.396  63.350  1.00  0.00    -0.422 C  
HETATM    3  H1  UNL     1     -13.209  12.081  62.632  1.00  0.00     0.000 HD 
HETATM    4  H2  UNL     1     -12.170  10.657  62.661  1.00  0.00     0.000 HD 
HETATM    5  O   UNL     1     -10.190  11.881  63.599  1.00  0.00    -0.363 OA 
ENDROOT
BRANCH   2   6
HETATM    6  C   UNL     1     -11.583  13.854  63.619  1.00  0.00     0.149 C  
BRANCH   6   7
HETATM    7  S   UNL     1     -12.415  14.012  65.223  1.00  0.00    -0.458 S  
HETATM    8  O   UNL     1     -13.265  12.778  65.383  1.00  0.00    -0.428 OA 
BRANCH   7   9
HETATM    9  C   UNL     1     -10.930  13.814  66.310  1.00  0.00    -0.297 C  
BRANCH   9  10
HETATM   10  C   UNL     1     -10.045  15.053  66.410  1.00  0.00    -0.289 A  
HETATM   11  C   UNL     1     -10.610  16.324  66.196  1.00  0.00    -0.272 A  
HETATM   12  C   UNL     1      -8.663  14.983  66.644  1.00  0.00    -0.289 A  
HETATM   13  C   UNL     1      -9.821  17.478  66.214  1.00  0.00    -0.295 A  
HETATM   14  C   UNL     1      -8.453  17.383  66.434  1.00  0.00    -0.292 A  
HETATM   15  C   UNL     1      -7.871  16.136  66.648  1.00  0.00    -0.288 A  
ENDBRANCH   9  10
BRANCH   9  16
HETATM   16  C   UNL     1     -11.350  13.269  67.677  1.00  0.00    -0.328 A  
HETATM   17  C   UNL     1     -11.699  11.367  69.159  1.00  0.00    -0.410 A  
HETATM   18  C   UNL     1     -12.285  13.580  69.910  1.00  0.00    -0.356 A  
HETATM   19  C   UNL     1     -11.266  11.891  67.938  1.00  0.00    -0.325 A  
HETATM   20  C   UNL     1     -11.860  14.104  68.688  1.00  0.00    -0.383 A  
HETATM   21  C   UNL     1     -12.210  12.212  70.143  1.00  0.00    -0.308 A  
ENDBRANCH   9  16
ENDBRANCH   7   9
ENDBRANCH   6   7
ENDBRANCH   2   6
TORSDOF 5
ENDMDL
MODEL       43
REMARK 921   NORMALIZED FREE ENERGY PREDICTED BY IDOCK:   -5.01 KCAL/MOL
REMARK 922        TOTAL FREE ENERGY PREDICTED BY IDOCK:   -7.48 KCAL/MOL
REMARK 923 INTER-LIGAND FREE ENERGY PREDICTED BY IDOCK:   -6.96 KCAL/MOL
REMARK 924 INTRA-LIGAND FREE ENERGY PREDICTED BY IDOCK:   -0.52 KCAL/MOL
REMARK 927      BINDING AFFINITY PREDICTED BY RF-SCORE:    0.00 PKD
ROOT
HETATM    1  N   UNL     1     -13.382   9.753  70.636  1.00  0.00    -0.607 N  
HETATM    2  C   UNL     1     -12.168  10.331  70.898  1.00  0.00    -0.365 C  
HETATM    3  H1  UNL     1     -14.049  10.197  70.004  1.00  0.00     0.000 HD 
HETATM    4  H2  UNL     1     -13.624   8.866  71.080  1.00  0.00     0.000 HD 
HETATM    5  O   UNL     1     -11.366   9.797  71.657  1.00  0.00    -0.349 OA 
ENDROOT
BRANCH   2   6
HETATM    6  C   UNL     1     -11.915  11.665  70.228  1.00  0.00    -0.358 C  
BRANCH   6   7
HETATM    7  S   UNL     1     -11.038  11.399  68.662  1.00  0.00    -0.262 S  
HETATM    8  O   UNL     1     -11.598  10.131  68.072  1.00  0.00    -0.253 OA 
BRANCH   7   9
HETATM    9  C   UNL     1     -11.753  12.821  67.716  1.00  0.00    -0.359 C  
BRANCH   9  10
HETATM   10  C   UNL     1     -11.288  14.196  68.186  1.00  0.00    -0.316 A  
HETATM   11  C   UNL     1     -10.165  14.789  67.580  1.00  0.00    -0.232 A  
HETATM   12  C   UNL     1     -11.896  14.881  69.250  1.00  0.00    -0.350 A  
HETATM   13  C   UNL     1      -9.668  16.018  68.026  1.00  0.00    -0.217 A  
HETATM   14  C   UNL     1     -10.277  16.671  69.090  1.00  0.00    -0.309 A  
HETATM   15  C   UNL     1     -11.391  16.103  69.704  1.00  0.00    -0.316 A  
ENDBRANCH   9  10
BRANCH   9  16
HETATM   16  C   UNL     1     -11.552  12.604  66.214  1.00  0.00    -0.440 A  
HETATM   17  C   UNL     1     -12.256  13.031  63.921  1.00  0.00    -0.511 A  
HETATM   18  C   UNL     1     -10.437  11.507  64.341  1.00  0.00    -0.380 A  
HETATM   19  C   UNL     1     -12.386  13.260  65.294  1.00  0.00    -0.525 A  
HETATM   20  C   UNL     1     -10.570  11.730  65.711  1.00  0.00    -0.312 A  
HETATM   21  C   UNL     1     -11.283  12.153  63.446  1.00  0.00    -0.494 A  
ENDBRANCH   9  16
ENDBRANCH   7   9
ENDBRANCH   6   7
ENDBRANCH   2   6
TORSDOF 5
ENDMDL
MODEL       44
REMARK 921   NORMALIZED FREE ENERGY PREDICTED BY IDOCK:   -5.00 KCAL/MOL
REMARK 922        TOTAL FREE ENERGY PREDICTED BY IDOCK:   -7.47 KCAL/MOL
REMARK 923 INTER-LIGAND FREE ENERGY PREDICTED BY IDOCK:   -6.94 KCAL/MOL
REMARK 924 INTRA-LIGAND FREE ENERGY PREDICTED BY IDOCK:   -0.53 KCAL/MOL
REMARK 927      BINDING AFFINITY PREDICTED BY RF-SCORE:    0.00 PKD
ROOT
HETATM    1  N   UNL     1     -11.391  11.955  70.027  1.00  0.00    -0.510 N  
HETATM    2  C   UNL     1     -11.794  11.785  68.729  1.00  0.00    -0.320 C  
HETATM    3  H1  UNL     1     -11.143  12.879  70.382  1.00  0.00     0.000 HD 
HETATM    4  H2  UNL     1     -11.336  11.147  70.647  1.00  0.00     0.000 HD 
HETATM    5  O   UNL     1     -12.091  10.674  68.302  1.00  0.00    -0.423 OA 
ENDROOT
BRANCH   2   6
HETATM    6  C   UNL     1     -11.804  13.033  67.872  1.00  0.00    -0.343 C  
BRANCH   6   7
HETATM    7  S   UNL     1     -10.380  14.072  68.299  1.00  0.00    -0.252 S  
HETATM    8  O   UNL     1      -9.639  14.326  67.013  1.00  0.00    -0.239 OA 
BRANCH   7   9
HETATM    9  C   UNL     1     -11.303  15.619  68.730  1.00  0.00    -0.349 C  
BRANCH   9  10
HETATM   10  C   UNL     1     -11.984  15.595  70.095  1.00  0.00    -0.387 A  
HETATM   11  C   UNL     1     -13.264  15.022  70.217  1.00  0.00    -0.025 A  
HETATM   12  C   UNL     1     -11.417  16.180  71.238  1.00  0.00    -0.433 A  
HETATM   13  C   UNL     1     -13.949  15.038  71.436  1.00  0.00    -0.565 A  
HETATM   14  C   UNL     1     -13.374  15.636  72.550  1.00  0.00    -0.604 A  
HETATM   15  C   UNL     1     -12.108  16.209  72.453  1.00  0.00    -0.630 A  
ENDBRANCH   9  10
BRANCH   9  16
HETATM   16  C   UNL     1     -10.399  16.839  68.534  1.00  0.00    -0.316 A  
HETATM   17  C   UNL     1     -10.085  19.100  67.686  1.00  0.00    -0.464 A  
HETATM   18  C   UNL     1      -8.226  17.938  68.684  1.00  0.00    -0.281 A  
HETATM   19  C   UNL     1     -10.909  17.997  67.925  1.00  0.00    -0.227 A  
HETATM   20  C   UNL     1      -9.045  16.833  68.917  1.00  0.00    -0.230 A  
HETATM   21  C   UNL     1      -8.743  19.070  68.064  1.00  0.00    -0.341 A  
ENDBRANCH   9  16
ENDBRANCH   7   9
ENDBRANCH   6   7
ENDBRANCH   2   6
TORSDOF 5
ENDMDL
MODEL       45
REMARK 921   NORMALIZED FREE ENERGY PREDICTED BY IDOCK:   -5.00 KCAL/MOL
REMARK 922        TOTAL FREE ENERGY PREDICTED BY IDOCK:   -7.47 KCAL/MOL
REMARK 923 INTER-LIGAND FREE ENERGY PREDICTED BY IDOCK:   -6.72 KCAL/MOL
REMARK 924 INTRA-LIGAND FREE ENERGY PREDICTED BY IDOCK:   -0.74 KCAL/MOL
REMARK 927      BINDING AFFINITY PREDICTED BY RF-SCORE:    0.00 PKD
ROOT
HETATM    1  N   UNL     1     -14.336  15.588  72.306  1.00  0.00    -0.547 N  
HETATM    2  C   UNL     1     -13.047  15.616  72.768  1.00  0.00    -0.495 C  
HETATM    3  H1  UNL     1     -14.595  15.004  71.510  1.00  0.00     0.000 HD 
HETATM    4  H2  UNL     1     -15.047  16.160  72.762  1.00  0.00     0.000 HD 
HETATM    5  O   UNL     1     -12.735  16.319  73.725  1.00  0.00    -0.526 OA 
ENDROOT
BRANCH   2   6
HETATM    6  C   UNL     1     -12.052  14.768  72.004  1.00  0.00    -0.325 C  
BRANCH   6   7
HETATM    7  S   UNL     1     -12.645  14.524  70.306  1.00  0.00    -0.274 S  
HETATM    8  O   UNL     1     -12.322  15.791  69.558  1.00  0.00    -0.281 OA 
BRANCH   7   9
HETATM    9  C   UNL     1     -11.421  13.236  69.783  1.00  0.00    -0.158 C  
BRANCH   9  10
HETATM   10  C   UNL     1     -11.736  11.825  70.271  1.00  0.00    -0.317 A  
HETATM   11  C   UNL     1     -12.800  11.626  71.169  1.00  0.00    -0.392 A  
HETATM   12  C   UNL     1     -10.965  10.708  69.912  1.00  0.00    -0.337 A  
HETATM   13  C   UNL     1     -13.079  10.358  71.690  1.00  0.00    -0.553 A  
HETATM   14  C   UNL     1     -12.294   9.270  71.332  1.00  0.00    -0.421 A  
HETATM   15  C   UNL     1     -11.236   9.443  70.443  1.00  0.00    -0.309 A  
ENDBRANCH   9  10
BRANCH   9  16
HETATM   16  C   UNL     1     -11.198  13.310  68.271  1.00  0.00    -0.309 A  
HETATM   17  C   UNL     1     -12.070  13.074  66.009  1.00  0.00    -0.493 A  
HETATM   18  C   UNL     1      -9.741  13.597  66.335  1.00  0.00    -0.300 A  
HETATM   19  C   UNL     1     -12.267  13.067  67.393  1.00  0.00    -0.155 A  
HETATM   20  C   UNL     1      -9.934  13.584  67.716  1.00  0.00    -0.232 A  
HETATM   21  C   UNL     1     -10.807  13.337  65.481  1.00  0.00    -0.297 A  
ENDBRANCH   9  16
ENDBRANCH   7   9
ENDBRANCH   6   7
ENDBRANCH   2   6
TORSDOF 5
ENDMDL
MODEL       46
REMARK 921   NORMALIZED FREE ENERGY PREDICTED BY IDOCK:   -5.00 KCAL/MOL
REMARK 922        TOTAL FREE ENERGY PREDICTED BY IDOCK:   -7.46 KCAL/MOL
REMARK 923 INTER-LIGAND FREE ENERGY PREDICTED BY IDOCK:   -7.03 KCAL/MOL
REMARK 924 INTRA-LIGAND FREE ENERGY PREDICTED BY IDOCK:   -0.43 KCAL/MOL
REMARK 927      BINDING AFFINITY PREDICTED BY RF-SCORE:    0.00 PKD
ROOT
HETATM    1  N   UNL     1     -12.112   8.127  70.562  1.00  0.00    -0.482 N  
HETATM    2  C   UNL     1     -12.716   9.074  71.344  1.00  0.00    -0.304 C  
HETATM    3  H1  UNL     1     -11.873   8.324  69.589  1.00  0.00     0.000 HD 
HETATM    4  H2  UNL     1     -11.897   7.210  70.956  1.00  0.00     0.000 HD 
HETATM    5  O   UNL     1     -13.002   8.837  72.514  1.00  0.00    -0.397 OA 
ENDROOT
BRANCH   2   6
HETATM    6  C   UNL     1     -13.033  10.389  70.663  1.00  0.00    -0.283 C  
BRANCH   6   7
HETATM    7  S   UNL     1     -11.502  11.126  70.029  1.00  0.00    -0.266 S  
HETATM    8  O   UNL     1     -11.171  10.390  68.757  1.00  0.00    -0.246 OA 
BRANCH   7   9
HETATM    9  C   UNL     1     -12.184  12.782  69.556  1.00  0.00    -0.102 C  
BRANCH   9  10
HETATM   10  C   UNL     1     -12.316  13.769  70.712  1.00  0.00    -0.451 A  
HETATM   11  C   UNL     1     -13.205  13.483  71.765  1.00  0.00    -0.490 A  
HETATM   12  C   UNL     1     -11.634  14.995  70.746  1.00  0.00    -0.364 A  
HETATM   13  C   UNL     1     -13.404  14.391  72.810  1.00  0.00    -0.606 A  
HETATM   14  C   UNL     1     -12.728  15.605  72.815  1.00  0.00    -0.538 A  
HETATM   15  C   UNL     1     -11.843  15.909  71.784  1.00  0.00    -0.579 A  
ENDBRANCH   9  10
BRANCH   9  16
HETATM   16  C   UNL     1     -11.401  13.351  68.371  1.00  0.00    -0.329 A  
HETATM   17  C   UNL     1      -9.265  13.780  67.281  1.00  0.00    -0.239 A  
HETATM   18  C   UNL     1     -11.295  14.601  66.278  1.00  0.00    -0.347 A  
HETATM   19  C   UNL     1     -10.003  13.217  68.326  1.00  0.00    -0.236 A  
HETATM   20  C   UNL     1     -12.033  14.046  67.324  1.00  0.00    -0.448 A  
HETATM   21  C   UNL     1      -9.911  14.473  66.258  1.00  0.00    -0.322 A  
ENDBRANCH   9  16
ENDBRANCH   7   9
ENDBRANCH   6   7
ENDBRANCH   2   6
TORSDOF 5
ENDMDL
MODEL       47
REMARK 921   NORMALIZED FREE ENERGY PREDICTED BY IDOCK:   -5.00 KCAL/MOL
REMARK 922        TOTAL FREE ENERGY PREDICTED BY IDOCK:   -7.46 KCAL/MOL
REMARK 923 INTER-LIGAND FREE ENERGY PREDICTED BY IDOCK:   -6.64 KCAL/MOL
REMARK 924 INTRA-LIGAND FREE ENERGY PREDICTED BY IDOCK:   -0.82 KCAL/MOL
REMARK 927      BINDING AFFINITY PREDICTED BY RF-SCORE:    0.00 PKD
ROOT
HETATM    1  N   UNL     1      -9.804   8.376  66.014  1.00  0.00    -0.474 N  
HETATM    2  C   UNL     1     -10.384   7.856  67.140  1.00  0.00    -0.328 C  
HETATM    3  H1  UNL     1      -9.129   9.139  66.077  1.00  0.00     0.000 HD 
HETATM    4  H2  UNL     1     -10.049   7.996  65.099  1.00  0.00     0.000 HD 
HETATM    5  O   UNL     1     -11.196   6.938  67.064  1.00  0.00    -0.369 OA 
ENDROOT
BRANCH   2   6
HETATM    6  C   UNL     1      -9.991   8.509  68.448  1.00  0.00    -0.187 C  
BRANCH   6   7
HETATM    7  S   UNL     1     -10.669  10.190  68.513  1.00  0.00    -0.240 S  
HETATM    8  O   UNL     1     -11.462  10.377  67.246  1.00  0.00    -0.315 OA 
BRANCH   7   9
HETATM    9  C   UNL     1     -11.874   9.934  69.896  1.00  0.00    -0.010 C  
BRANCH   9  10
HETATM   10  C   UNL     1     -11.441   8.904  70.935  1.00  0.00    -0.339 A  
HETATM   11  C   UNL     1     -12.111   7.668  71.001  1.00  0.00    -0.282 A  
HETATM   12  C   UNL     1     -10.436   9.155  71.882  1.00  0.00    -0.280 A  
HETATM   13  C   UNL     1     -11.788   6.723  71.981  1.00  0.00    -0.351 A  
HETATM   14  C   UNL     1     -10.800   7.000  72.916  1.00  0.00    -0.334 A  
HETATM   15  C   UNL     1     -10.123   8.216  72.869  1.00  0.00    -0.349 A  
ENDBRANCH   9  10
BRANCH   9  16
HETATM   16  C   UNL     1     -12.255  11.281  70.514  1.00  0.00    -0.474 A  
HETATM   17  C   UNL     1     -13.472  12.543  72.205  1.00  0.00    -0.523 A  
HETATM   18  C   UNL     1     -12.246  13.722  70.499  1.00  0.00    -0.440 A  
HETATM   19  C   UNL     1     -13.067  11.322  71.660  1.00  0.00    -0.513 A  
HETATM   20  C   UNL     1     -11.846  12.503  69.949  1.00  0.00    -0.373 A  
HETATM   21  C   UNL     1     -13.063  13.742  71.623  1.00  0.00    -0.456 A  
ENDBRANCH   9  16
ENDBRANCH   7   9
ENDBRANCH   6   7
ENDBRANCH   2   6
TORSDOF 5
ENDMDL
MODEL       48
REMARK 921   NORMALIZED FREE ENERGY PREDICTED BY IDOCK:   -4.99 KCAL/MOL
REMARK 922        TOTAL FREE ENERGY PREDICTED BY IDOCK:   -7.45 KCAL/MOL
REMARK 923 INTER-LIGAND FREE ENERGY PREDICTED BY IDOCK:   -6.50 KCAL/MOL
REMARK 924 INTRA-LIGAND FREE ENERGY PREDICTED BY IDOCK:   -0.96 KCAL/MOL
REMARK 927      BINDING AFFINITY PREDICTED BY RF-SCORE:    0.00 PKD
ROOT
HETATM    1  N   UNL     1     -11.124   8.420  69.908  1.00  0.00    -0.421 N  
HETATM    2  C   UNL     1     -10.338   9.540  69.859  1.00  0.00    -0.236 C  
HETATM    3  H1  UNL     1     -11.985   8.358  69.363  1.00  0.00     0.000 HD 
HETATM    4  H2  UNL     1     -10.845   7.634  70.497  1.00  0.00     0.000 HD 
HETATM    5  O   UNL     1      -9.303   9.613  70.514  1.00  0.00    -0.253 OA 
ENDROOT
BRANCH   2   6
HETATM    6  C   UNL     1     -10.852  10.670  68.991  1.00  0.00    -0.235 C  
BRANCH   6   7
HETATM    7  S   UNL     1     -12.200  11.527  69.849  1.00  0.00    -0.223 S  
HETATM    8  O   UNL     1     -12.210  10.998  71.260  1.00  0.00    -0.330 OA 
BRANCH   7   9
HETATM    9  C   UNL     1     -11.451  13.220  69.891  1.00  0.00    -0.100 C  
BRANCH   9  10
HETATM   10  C   UNL     1     -11.218  13.846  68.520  1.00  0.00    -0.298 A  
HETATM   11  C   UNL     1     -10.112  14.695  68.328  1.00  0.00    -0.228 A  
HETATM   12  C   UNL     1     -12.099  13.666  67.442  1.00  0.00    -0.375 A  
HETATM   13  C   UNL     1      -9.899  15.340  67.105  1.00  0.00    -0.225 A  
HETATM   14  C   UNL     1     -10.792  15.158  66.058  1.00  0.00    -0.335 A  
HETATM   15  C   UNL     1     -11.893  14.322  66.224  1.00  0.00    -0.420 A  
ENDBRANCH   9  10
BRANCH   9  16
HETATM   16  C   UNL     1     -12.252  14.123  70.832  1.00  0.00    -0.434 A  
HETATM   17  C   UNL     1     -12.293  15.865  72.534  1.00  0.00    -0.575 A  
HETATM   18  C   UNL     1     -14.354  14.816  71.859  1.00  0.00    -0.657 A  
HETATM   19  C   UNL     1     -11.586  15.071  71.628  1.00  0.00    -0.416 A  
HETATM   20  C   UNL     1     -13.649  14.017  70.959  1.00  0.00    -0.115 A  
HETATM   21  C   UNL     1     -13.676  15.736  72.651  1.00  0.00    -0.622 A  
ENDBRANCH   9  16
ENDBRANCH   7   9
ENDBRANCH   6   7
ENDBRANCH   2   6
TORSDOF 5
ENDMDL
MODEL       49
REMARK 921   NORMALIZED FREE ENERGY PREDICTED BY IDOCK:   -4.96 KCAL/MOL
REMARK 922        TOTAL FREE ENERGY PREDICTED BY IDOCK:   -7.42 KCAL/MOL
REMARK 923 INTER-LIGAND FREE ENERGY PREDICTED BY IDOCK:   -6.51 KCAL/MOL
REMARK 924 INTRA-LIGAND FREE ENERGY PREDICTED BY IDOCK:   -0.91 KCAL/MOL
REMARK 927      BINDING AFFINITY PREDICTED BY RF-SCORE:    0.00 PKD
ROOT
HETATM    1  N   UNL     1     -11.019   8.059  68.029  1.00  0.00    -0.460 N  
HETATM    2  C   UNL     1     -10.241   9.110  67.621  1.00  0.00    -0.236 C  
HETATM    3  H1  UNL     1     -12.036   8.139  68.056  1.00  0.00     0.000 HD 
HETATM    4  H2  UNL     1     -10.575   7.184  68.310  1.00  0.00     0.000 HD 
HETATM    5  O   UNL     1      -9.018   9.014  67.588  1.00  0.00    -0.124 OA 
ENDROOT
BRANCH   2   6
HETATM    6  C   UNL     1     -10.983  10.381  67.263  1.00  0.00    -0.240 C  
BRANCH   6   7
HETATM    7  S   UNL     1     -11.593  11.172  68.777  1.00  0.00    -0.335 S  
HETATM    8  O   UNL     1     -10.788  10.594  69.911  1.00  0.00    -0.267 OA 
BRANCH   7   9
HETATM    9  C   UNL     1     -10.959  12.882  68.453  1.00  0.00    -0.258 C  
BRANCH   9  10
HETATM   10  C   UNL     1     -11.210  13.397  67.039  1.00  0.00    -0.328 A  
HETATM   11  C   UNL     1     -12.531  13.488  66.562  1.00  0.00    -0.309 A  
HETATM   12  C   UNL     1     -10.171  13.728  66.156  1.00  0.00    -0.305 A  
HETATM   13  C   UNL     1     -12.799  13.893  65.251  1.00  0.00    -0.437 A  
HETATM   14  C   UNL     1     -11.754  14.203  64.391  1.00  0.00    -0.409 A  
HETATM   15  C   UNL     1     -10.439  14.120  64.840  1.00  0.00    -0.461 A  
ENDBRANCH   9  10
BRANCH   9  16
HETATM   16  C   UNL     1     -11.461  13.839  69.536  1.00  0.00    -0.327 A  
HETATM   17  C   UNL     1     -11.409  16.042  70.575  1.00  0.00    -0.420 A  
HETATM   18  C   UNL     1     -12.756  14.300  71.553  1.00  0.00    -0.425 A  
HETATM   19  C   UNL     1     -11.006  15.168  69.562  1.00  0.00    -0.279 A  
HETATM   20  C   UNL     1     -12.349  13.425  70.545  1.00  0.00    -0.401 A  
HETATM   21  C   UNL     1     -12.282  15.607  71.571  1.00  0.00    -0.487 A  
ENDBRANCH   9  16
ENDBRANCH   7   9
ENDBRANCH   6   7
ENDBRANCH   2   6
TORSDOF 5
ENDMDL
MODEL       50
REMARK 921   NORMALIZED FREE ENERGY PREDICTED BY IDOCK:   -4.95 KCAL/MOL
REMARK 922        TOTAL FREE ENERGY PREDICTED BY IDOCK:   -7.40 KCAL/MOL
REMARK 923 INTER-LIGAND FREE ENERGY PREDICTED BY IDOCK:   -6.56 KCAL/MOL
REMARK 924 INTRA-LIGAND FREE ENERGY PREDICTED BY IDOCK:   -0.84 KCAL/MOL
REMARK 927      BINDING AFFINITY PREDICTED BY RF-SCORE:    0.00 PKD
ROOT
HETATM    1  N   UNL     1     -13.368  13.713  72.828  1.00  0.00    -0.482 N  
HETATM    2  C   UNL     1     -13.563  14.963  72.303  1.00  0.00    -0.434 C  
HETATM    3  H1  UNL     1     -13.288  12.896  72.222  1.00  0.00     0.000 HD 
HETATM    4  H2  UNL     1     -13.301  13.597  73.840  1.00  0.00     0.000 HD 
HETATM    5  O   UNL     1     -13.659  15.945  73.033  1.00  0.00    -0.575 OA 
ENDROOT
BRANCH   2   6
HETATM    6  C   UNL     1     -13.690  15.034  70.796  1.00  0.00    -0.141 C  
BRANCH   6   7
HETATM    7  S   UNL     1     -12.037  15.134  70.054  1.00  0.00    -0.351 S  
HETATM    8  O   UNL     1     -11.082  14.554  71.064  1.00  0.00    -0.006 OA 
BRANCH   7   9
HETATM    9  C   UNL     1     -12.272  13.874  68.717  1.00  0.00    -0.197 C  
BRANCH   9  10
HETATM   10  C   UNL     1     -11.788  14.312  67.338  1.00  0.00    -0.441 A  
HETATM   11  C   UNL     1     -10.757  15.264  67.239  1.00  0.00    -0.311 A  
HETATM   12  C   UNL     1     -12.372  13.853  66.147  1.00  0.00    -0.504 A  
HETATM   13  C   UNL     1     -10.330  15.740  65.995  1.00  0.00    -0.356 A  
HETATM   14  C   UNL     1     -10.932  15.281  64.830  1.00  0.00    -0.445 A  
HETATM   15  C   UNL     1     -11.954  14.338  64.904  1.00  0.00    -0.430 A  
ENDBRANCH   9  10
BRANCH   9  16
HETATM   16  C   UNL     1     -11.688  12.530  69.157  1.00  0.00    -0.375 A  
HETATM   17  C   UNL     1     -11.776  10.584  70.619  1.00  0.00    -0.453 A  
HETATM   18  C   UNL     1      -9.957  10.813  69.056  1.00  0.00    -0.214 A  
HETATM   19  C   UNL     1     -12.325  11.786  70.164  1.00  0.00    -0.272 A  
HETATM   20  C   UNL     1     -10.500  12.017  68.606  1.00  0.00    -0.238 A  
HETATM   21  C   UNL     1     -10.592  10.099  70.066  1.00  0.00    -0.338 A  
ENDBRANCH   9  16
ENDBRANCH   7   9
ENDBRANCH   6   7
ENDBRANCH   2   6
TORSDOF 5
ENDMDL
MODEL       51
REMARK 921   NORMALIZED FREE ENERGY PREDICTED BY IDOCK:   -4.94 KCAL/MOL
REMARK 922        TOTAL FREE ENERGY PREDICTED BY IDOCK:   -7.39 KCAL/MOL
REMARK 923 INTER-LIGAND FREE ENERGY PREDICTED BY IDOCK:   -6.53 KCAL/MOL
REMARK 924 INTRA-LIGAND FREE ENERGY PREDICTED BY IDOCK:   -0.86 KCAL/MOL
REMARK 927      BINDING AFFINITY PREDICTED BY RF-SCORE:    0.00 PKD
ROOT
HETATM    1  N   UNL     1     -11.936  12.017  70.651  1.00  0.00    -0.485 N  
HETATM    2  C   UNL     1     -12.252  13.306  70.310  1.00  0.00    -0.321 C  
HETATM    3  H1  UNL     1     -11.492  11.391  69.979  1.00  0.00     0.000 HD 
HETATM    4  H2  UNL     1     -12.148  11.679  71.590  1.00  0.00     0.000 HD 
HETATM    5  O   UNL     1     -12.786  14.059  71.118  1.00  0.00    -0.326 OA 
ENDROOT
BRANCH   2   6
HETATM    6  C   UNL     1     -11.938  13.707  68.884  1.00  0.00    -0.356 C  
BRANCH   6   7
HETATM    7  S   UNL     1     -11.149  12.318  68.024  1.00  0.00    -0.259 S  
HETATM    8  O   UNL     1     -12.211  11.262  67.861  1.00  0.00    -0.570 OA 
BRANCH   7   9
HETATM    9  C   UNL     1     -10.909  13.130  66.377  1.00  0.00    -0.287 C  
BRANCH   9  10
HETATM   10  C   UNL     1     -10.105  14.426  66.418  1.00  0.00    -0.294 A  
HETATM   11  C   UNL     1     -10.666  15.603  65.887  1.00  0.00    -0.336 A  
HETATM   12  C   UNL     1      -8.792  14.490  66.909  1.00  0.00    -0.257 A  
HETATM   13  C   UNL     1      -9.937  16.796  65.846  1.00  0.00    -0.299 A  
HETATM   14  C   UNL     1      -8.634  16.832  66.325  1.00  0.00    -0.340 A  
HETATM   15  C   UNL     1      -8.059  15.680  66.856  1.00  0.00    -0.290 A  
ENDBRANCH   9  10
BRANCH   9  16
HETATM   16  C   UNL     1     -10.359  12.117  65.370  1.00  0.00    -0.301 A  
HETATM   17  C   UNL     1      -9.868  11.510  63.063  1.00  0.00    -0.367 A  
HETATM   18  C   UNL     1      -9.470   9.912  64.821  1.00  0.00    -0.356 A  
HETATM   19  C   UNL     1     -10.314  12.442  64.004  1.00  0.00    -0.435 A  
HETATM   20  C   UNL     1      -9.921  10.839  65.761  1.00  0.00    -0.306 A  
HETATM   21  C   UNL     1      -9.448  10.245  63.471  1.00  0.00    -0.345 A  
ENDBRANCH   9  16
ENDBRANCH   7   9
ENDBRANCH   6   7
ENDBRANCH   2   6
TORSDOF 5
ENDMDL
MODEL       52
REMARK 921   NORMALIZED FREE ENERGY PREDICTED BY IDOCK:   -4.92 KCAL/MOL
REMARK 922        TOTAL FREE ENERGY PREDICTED BY IDOCK:   -7.36 KCAL/MOL
REMARK 923 INTER-LIGAND FREE ENERGY PREDICTED BY IDOCK:   -6.47 KCAL/MOL
REMARK 924 INTRA-LIGAND FREE ENERGY PREDICTED BY IDOCK:   -0.89 KCAL/MOL
REMARK 927      BINDING AFFINITY PREDICTED BY RF-SCORE:    0.00 PKD
ROOT
HETATM    1  N   UNL     1     -10.335  10.495  63.825  1.00  0.00    -0.436 N  
HETATM    2  C   UNL     1     -10.747  11.800  63.784  1.00  0.00    -0.419 C  
HETATM    3  H1  UNL     1     -10.919   9.774  64.250  1.00  0.00     0.000 HD 
HETATM    4  H2  UNL     1      -9.432  10.239  63.426  1.00  0.00     0.000 HD 
HETATM    5  O   UNL     1     -10.045  12.667  63.273  1.00  0.00    -0.300 OA 
ENDROOT
BRANCH   2   6
HETATM    6  C   UNL     1     -12.082  12.093  64.437  1.00  0.00    -0.357 C  
BRANCH   6   7
HETATM    7  S   UNL     1     -11.963  13.628  65.395  1.00  0.00    -0.404 S  
HETATM    8  O   UNL     1     -13.316  14.285  65.314  1.00  0.00    -0.660 OA 
BRANCH   7   9
HETATM    9  C   UNL     1     -11.805  12.876  67.080  1.00  0.00    -0.374 C  
BRANCH   9  10
HETATM   10  C   UNL     1     -10.718  11.812  67.202  1.00  0.00    -0.283 A  
HETATM   11  C   UNL     1     -11.078  10.494  67.539  1.00  0.00    -0.358 A  
HETATM   12  C   UNL     1      -9.352  12.101  67.056  1.00  0.00    -0.201 A  
HETATM   13  C   UNL     1     -10.107   9.505  67.725  1.00  0.00    -0.244 A  
HETATM   14  C   UNL     1      -8.760   9.817  67.589  1.00  0.00    -0.125 A  
HETATM   15  C   UNL     1      -8.381  11.115  67.255  1.00  0.00    -0.135 A  
ENDBRANCH   9  10
BRANCH   9  16
HETATM   16  C   UNL     1     -11.684  13.978  68.135  1.00  0.00    -0.387 A  
HETATM   17  C   UNL     1     -11.036  16.249  68.730  1.00  0.00    -0.355 A  
HETATM   18  C   UNL     1     -11.841  14.758  70.442  1.00  0.00    -0.352 A  
HETATM   19  C   UNL     1     -11.207  15.248  67.771  1.00  0.00    -0.327 A  
HETATM   20  C   UNL     1     -12.006  13.755  69.487  1.00  0.00    -0.399 A  
HETATM   21  C   UNL     1     -11.351  16.003  70.066  1.00  0.00    -0.353 A  
ENDBRANCH   9  16
ENDBRANCH   7   9
ENDBRANCH   6   7
ENDBRANCH   2   6
TORSDOF 5
ENDMDL
MODEL       53
REMARK 921   NORMALIZED FREE ENERGY PREDICTED BY IDOCK:   -4.92 KCAL/MOL
REMARK 922        TOTAL FREE ENERGY PREDICTED BY IDOCK:   -7.35 KCAL/MOL
REMARK 923 INTER-LIGAND FREE ENERGY PREDICTED BY IDOCK:   -6.24 KCAL/MOL
REMARK 924 INTRA-LIGAND FREE ENERGY PREDICTED BY IDOCK:   -1.11 KCAL/MOL
REMARK 927      BINDING AFFINITY PREDICTED BY RF-SCORE:    0.00 PKD
ROOT
HETATM    1  N   UNL     1      -6.602  13.690  70.198  1.00  0.00    -0.378 N  
HETATM    2  C   UNL     1      -6.338  13.979  68.885  1.00  0.00    -0.092 C  
HETATM    3  H1  UNL     1      -7.558  13.533  70.518  1.00  0.00     0.000 HD 
HETATM    4  H2  UNL     1      -5.832  13.631  70.864  1.00  0.00     0.000 HD 
HETATM    5  O   UNL     1      -5.189  14.168  68.500  1.00  0.00    -0.086 OA 
ENDROOT
BRANCH   2   6
HETATM    6  C   UNL     1      -7.546  14.087  67.978  1.00  0.00    -0.143 C  
BRANCH   6   7
HETATM    7  S   UNL     1      -8.640  15.402  68.581  1.00  0.00    -0.193 S  
HETATM    8  O   UNL     1      -7.747  16.456  69.181  1.00  0.00    -0.234 OA 
BRANCH   7   9
HETATM    9  C   UNL     1      -9.226  16.031  66.941  1.00  0.00    -0.224 C  
BRANCH   9  10
HETATM   10  C   UNL     1     -10.424  15.283  66.363  1.00  0.00    -0.307 A  
HETATM   11  C   UNL     1     -10.844  15.562  65.049  1.00  0.00    -0.468 A  
HETATM   12  C   UNL     1     -11.178  14.365  67.110  1.00  0.00    -0.337 A  
HETATM   13  C   UNL     1     -11.976  14.947  64.507  1.00  0.00    -0.420 A  
HETATM   14  C   UNL     1     -12.715  14.052  65.269  1.00  0.00    -0.468 A  
HETATM   15  C   UNL     1     -12.318  13.760  66.572  1.00  0.00    -0.432 A  
ENDBRANCH   9  10
BRANCH   9  16
HETATM   16  C   UNL     1      -9.441  17.544  67.007  1.00  0.00    -0.268 A  
HETATM   17  C   UNL     1     -10.777  19.442  67.748  1.00  0.00    -0.480 A  
HETATM   18  C   UNL     1      -8.838  19.822  66.370  1.00  0.00    -0.428 A  
HETATM   19  C   UNL     1     -10.531  18.066  67.723  1.00  0.00    -0.421 A  
HETATM   20  C   UNL     1      -8.595  18.448  66.338  1.00  0.00    -0.264 A  
HETATM   21  C   UNL     1      -9.931  20.318  67.071  1.00  0.00    -0.601 A  
ENDBRANCH   9  16
ENDBRANCH   7   9
ENDBRANCH   6   7
ENDBRANCH   2   6
TORSDOF 5
ENDMDL
MODEL       54
REMARK 921   NORMALIZED FREE ENERGY PREDICTED BY IDOCK:   -4.91 KCAL/MOL
REMARK 922        TOTAL FREE ENERGY PREDICTED BY IDOCK:   -7.35 KCAL/MOL
REMARK 923 INTER-LIGAND FREE ENERGY PREDICTED BY IDOCK:   -6.45 KCAL/MOL
REMARK 924 INTRA-LIGAND FREE ENERGY PREDICTED BY IDOCK:   -0.90 KCAL/MOL
REMARK 927      BINDING AFFINITY PREDICTED BY RF-SCORE:    0.00 PKD
ROOT
HETATM    1  N   UNL     1      -9.655  13.903  65.666  1.00  0.00    -0.525 N  
HETATM    2  C   UNL     1     -10.521  14.463  66.569  1.00  0.00    -0.289 C  
HETATM    3  H1  UNL     1      -9.033  13.142  65.939  1.00  0.00     0.000 HD 
HETATM    4  H2  UNL     1      -9.632  14.253  64.708  1.00  0.00     0.000 HD 
HETATM    5  O   UNL     1     -11.269  15.378  66.240  1.00  0.00    -0.282 OA 
ENDROOT
BRANCH   2   6
HETATM    6  C   UNL     1     -10.456  13.908  67.976  1.00  0.00    -0.243 C  
BRANCH   6   7
HETATM    7  S   UNL     1     -11.674  12.576  68.158  1.00  0.00    -0.332 S  
HETATM    8  O   UNL     1     -12.003  12.109  66.765  1.00  0.00    -0.606 OA 
BRANCH   7   9
HETATM    9  C   UNL     1     -10.564  11.309  68.928  1.00  0.00    -0.207 C  
BRANCH   9  10
HETATM   10  C   UNL     1     -11.181  10.550  70.099  1.00  0.00    -0.389 A  
HETATM   11  C   UNL     1     -10.422   9.567  70.761  1.00  0.00    -0.384 A  
HETATM   12  C   UNL     1     -12.508  10.743  70.515  1.00  0.00    -0.447 A  
HETATM   13  C   UNL     1     -10.972   8.805  71.796  1.00  0.00    -0.415 A  
HETATM   14  C   UNL     1     -12.292   9.003  72.180  1.00  0.00    -0.442 A  
HETATM   15  C   UNL     1     -13.062   9.971  71.541  1.00  0.00    -0.531 A  
ENDBRANCH   9  10
BRANCH   9  16
HETATM   16  C   UNL     1     -10.000  10.384  67.848  1.00  0.00    -0.192 A  
HETATM   17  C   UNL     1     -10.124   8.293  66.603  1.00  0.00    -0.351 A  
HETATM   18  C   UNL     1      -8.285   9.800  66.212  1.00  0.00    -0.116 A  
HETATM   19  C   UNL     1     -10.655   9.178  67.545  1.00  0.00    -0.317 A  
HETATM   20  C   UNL     1      -8.810  10.682  67.157  1.00  0.00    -0.139 A  
HETATM   21  C   UNL     1      -8.939   8.604  65.938  1.00  0.00    -0.245 A  
ENDBRANCH   9  16
ENDBRANCH   7   9
ENDBRANCH   6   7
ENDBRANCH   2   6
TORSDOF 5
ENDMDL
MODEL       55
REMARK 921   NORMALIZED FREE ENERGY PREDICTED BY IDOCK:   -4.85 KCAL/MOL
REMARK 922        TOTAL FREE ENERGY PREDICTED BY IDOCK:   -7.27 KCAL/MOL
REMARK 923 INTER-LIGAND FREE ENERGY PREDICTED BY IDOCK:   -6.66 KCAL/MOL
REMARK 924 INTRA-LIGAND FREE ENERGY PREDICTED BY IDOCK:   -0.61 KCAL/MOL
REMARK 927      BINDING AFFINITY PREDICTED BY RF-SCORE:    0.00 PKD
ROOT
HETATM    1  N   UNL     1     -12.519  14.223  63.609  1.00  0.00    -1.083 N  
HETATM    2  C   UNL     1     -11.884  14.748  64.703  1.00  0.00    -0.436 C  
HETATM    3  H1  UNL     1     -13.172  13.445  63.705  1.00  0.00     0.000 HD 
HETATM    4  H2  UNL     1     -12.336  14.615  62.684  1.00  0.00     0.000 HD 
HETATM    5  O   UNL     1     -11.098  15.684  64.587  1.00  0.00    -0.434 OA 
ENDROOT
BRANCH   2   6
HETATM    6  C   UNL     1     -12.185  14.077  66.026  1.00  0.00    -0.458 C  
BRANCH   6   7
HETATM    7  S   UNL     1     -11.774  12.314  65.918  1.00  0.00    -0.331 S  
HETATM    8  O   UNL     1     -10.928  12.150  64.682  1.00  0.00    -0.290 OA 
BRANCH   7   9
HETATM    9  C   UNL     1     -10.648  12.215  67.385  1.00  0.00    -0.226 C  
BRANCH   9  10
HETATM   10  C   UNL     1     -11.343  12.386  68.732  1.00  0.00    -0.339 A  
HETATM   11  C   UNL     1     -11.830  11.250  69.406  1.00  0.00    -0.424 A  
HETATM   12  C   UNL     1     -11.579  13.642  69.312  1.00  0.00    -0.363 A  
HETATM   13  C   UNL     1     -12.530  11.370  70.611  1.00  0.00    -0.419 A  
HETATM   14  C   UNL     1     -12.764  12.625  71.158  1.00  0.00    -0.347 A  
HETATM   15  C   UNL     1     -12.291  13.762  70.510  1.00  0.00    -0.429 A  
ENDBRANCH   9  10
BRANCH   9  16
HETATM   16  C   UNL     1      -9.798  10.946  67.307  1.00  0.00    -0.202 A  
HETATM   17  C   UNL     1      -7.624   9.862  67.504  1.00  0.00    -0.091 A  
HETATM   18  C   UNL     1      -9.529   8.578  66.779  1.00  0.00    -0.253 A  
HETATM   19  C   UNL     1      -8.430  10.998  67.624  1.00  0.00    -0.121 A  
HETATM   20  C   UNL     1     -10.333   9.713  66.891  1.00  0.00    -0.307 A  
HETATM   21  C   UNL     1      -8.174   8.654  67.080  1.00  0.00    -0.107 A  
ENDBRANCH   9  16
ENDBRANCH   7   9
ENDBRANCH   6   7
ENDBRANCH   2   6
TORSDOF 5
ENDMDL
MODEL       56
REMARK 921   NORMALIZED FREE ENERGY PREDICTED BY IDOCK:   -4.85 KCAL/MOL
REMARK 922        TOTAL FREE ENERGY PREDICTED BY IDOCK:   -7.27 KCAL/MOL
REMARK 923 INTER-LIGAND FREE ENERGY PREDICTED BY IDOCK:   -6.36 KCAL/MOL
REMARK 924 INTRA-LIGAND FREE ENERGY PREDICTED BY IDOCK:   -0.91 KCAL/MOL
REMARK 927      BINDING AFFINITY PREDICTED BY RF-SCORE:    0.00 PKD
ROOT
HETATM    1  N   UNL     1      -7.739  10.992  65.702  1.00  0.00    -0.365 N  
HETATM    2  C   UNL     1      -8.675  10.090  65.270  1.00  0.00    -0.163 C  
HETATM    3  H1  UNL     1      -8.018  11.853  66.172  1.00  0.00     0.000 HD 
HETATM    4  H2  UNL     1      -6.748  10.800  65.550  1.00  0.00     0.000 HD 
HETATM    5  O   UNL     1      -8.339   9.054  64.704  1.00  0.00    -0.154 OA 
ENDROOT
BRANCH   2   6
HETATM    6  C   UNL     1     -10.120  10.477  65.501  1.00  0.00    -0.283 C  
BRANCH   6   7
HETATM    7  S   UNL     1     -10.540  10.233  67.249  1.00  0.00    -0.261 S  
HETATM    8  O   UNL     1      -9.337   9.591  67.889  1.00  0.00    -0.132 OA 
BRANCH   7   9
HETATM    9  C   UNL     1     -10.567  12.012  67.764  1.00  0.00    -0.207 C  
BRANCH   9  10
HETATM   10  C   UNL     1     -10.952  12.989  66.658  1.00  0.00    -0.301 A  
HETATM   11  C   UNL     1     -10.019  13.952  66.232  1.00  0.00    -0.315 A  
HETATM   12  C   UNL     1     -12.231  13.016  66.079  1.00  0.00    -0.463 A  
HETATM   13  C   UNL     1     -10.354  14.907  65.267  1.00  0.00    -0.424 A  
HETATM   14  C   UNL     1     -11.630  14.924  64.719  1.00  0.00    -0.410 A  
HETATM   15  C   UNL     1     -12.571  13.980  65.124  1.00  0.00    -0.453 A  
ENDBRANCH   9  10
BRANCH   9  16
HETATM   16  C   UNL     1     -11.412  12.177  69.029  1.00  0.00    -0.351 A  
HETATM   17  C   UNL     1     -12.480  13.638  70.661  1.00  0.00    -0.417 A  
HETATM   18  C   UNL     1     -12.564  11.250  70.970  1.00  0.00    -0.495 A  
HETATM   19  C   UNL     1     -11.757  13.464  69.477  1.00  0.00    -0.385 A  
HETATM   20  C   UNL     1     -11.836  11.075  69.792  1.00  0.00    -0.421 A  
HETATM   21  C   UNL     1     -12.881  12.531  71.407  1.00  0.00    -0.359 A  
ENDBRANCH   9  16
ENDBRANCH   7   9
ENDBRANCH   6   7
ENDBRANCH   2   6
TORSDOF 5
ENDMDL
MODEL       57
REMARK 921   NORMALIZED FREE ENERGY PREDICTED BY IDOCK:   -4.84 KCAL/MOL
REMARK 922        TOTAL FREE ENERGY PREDICTED BY IDOCK:   -7.26 KCAL/MOL
REMARK 923 INTER-LIGAND FREE ENERGY PREDICTED BY IDOCK:   -6.57 KCAL/MOL
REMARK 924 INTRA-LIGAND FREE ENERGY PREDICTED BY IDOCK:   -0.70 KCAL/MOL
REMARK 927      BINDING AFFINITY PREDICTED BY RF-SCORE:    0.00 PKD
ROOT
HETATM    1  N   UNL     1      -9.226  10.764  66.270  1.00  0.00    -0.168 N  
HETATM    2  C   UNL     1      -9.754   9.541  66.587  1.00  0.00    -0.211 C  
HETATM    3  H1  UNL     1      -9.471  11.596  66.808  1.00  0.00     0.000 HD 
HETATM    4  H2  UNL     1      -8.579  10.845  65.485  1.00  0.00     0.000 HD 
HETATM    5  O   UNL     1      -9.459   8.540  65.941  1.00  0.00    -0.208 OA 
ENDROOT
BRANCH   2   6
HETATM    6  C   UNL     1     -10.736   9.524  67.740  1.00  0.00    -0.242 C  
BRANCH   6   7
HETATM    7  S   UNL     1     -11.144  11.227  68.212  1.00  0.00    -0.266 S  
HETATM    8  O   UNL     1     -12.098  11.741  67.166  1.00  0.00    -0.592 OA 
BRANCH   7   9
HETATM    9  C   UNL     1     -12.129  10.850  69.734  1.00  0.00    -0.338 C  
BRANCH   9  10
HETATM   10  C   UNL     1     -11.544   9.750  70.614  1.00  0.00    -0.389 A  
HETATM   11  C   UNL     1     -12.395   8.759  71.137  1.00  0.00    -0.258 A  
HETATM   12  C   UNL     1     -10.191   9.714  70.986  1.00  0.00    -0.252 A  
HETATM   13  C   UNL     1     -11.909   7.772  72.001  1.00  0.00    -0.351 A  
HETATM   14  C   UNL     1     -10.569   7.765  72.366  1.00  0.00    -0.336 A  
HETATM   15  C   UNL     1      -9.708   8.735  71.860  1.00  0.00    -0.386 A  
ENDBRANCH   9  10
BRANCH   9  16
HETATM   16  C   UNL     1     -12.419  12.141  70.503  1.00  0.00    -0.282 A  
HETATM   17  C   UNL     1     -12.138  14.549  70.738  1.00  0.00    -0.398 A  
HETATM   18  C   UNL     1     -13.346  13.325  72.424  1.00  0.00    -0.616 A  
HETATM   19  C   UNL     1     -11.933  13.368  70.020  1.00  0.00    -0.407 A  
HETATM   20  C   UNL     1     -13.136  12.143  71.713  1.00  0.00    -0.457 A  
HETATM   21  C   UNL     1     -12.843  14.527  71.940  1.00  0.00    -0.410 A  
ENDBRANCH   9  16
ENDBRANCH   7   9
ENDBRANCH   6   7
ENDBRANCH   2   6
TORSDOF 5
ENDMDL
MODEL       58
REMARK 921   NORMALIZED FREE ENERGY PREDICTED BY IDOCK:   -4.84 KCAL/MOL
REMARK 922        TOTAL FREE ENERGY PREDICTED BY IDOCK:   -7.26 KCAL/MOL
REMARK 923 INTER-LIGAND FREE ENERGY PREDICTED BY IDOCK:   -6.86 KCAL/MOL
REMARK 924 INTRA-LIGAND FREE ENERGY PREDICTED BY IDOCK:   -0.41 KCAL/MOL
REMARK 927      BINDING AFFINITY PREDICTED BY RF-SCORE:    0.00 PKD
ROOT
HETATM    1  N   UNL     1     -10.731  18.664  68.039  1.00  0.00    -0.304 N  
HETATM    2  C   UNL     1     -10.364  17.764  67.074  1.00  0.00    -0.344 C  
HETATM    3  H1  UNL     1     -10.836  18.376  69.012  1.00  0.00     0.000 HD 
HETATM    4  H2  UNL     1     -10.903  19.637  67.781  1.00  0.00     0.000 HD 
HETATM    5  O   UNL     1     -10.238  18.111  65.904  1.00  0.00    -0.548 OA 
ENDROOT
BRANCH   2   6
HETATM    6  C   UNL     1     -10.171  16.337  67.542  1.00  0.00    -0.270 C  
BRANCH   6   7
HETATM    7  S   UNL     1     -11.769  15.645  68.049  1.00  0.00    -0.025 S  
HETATM    8  O   UNL     1     -12.120  14.594  67.029  1.00  0.00    -0.357 OA 
BRANCH   7   9
HETATM    9  C   UNL     1     -11.203  14.773  69.582  1.00  0.00    -0.275 C  
BRANCH   9  10
HETATM   10  C   UNL     1     -12.012  15.098  70.834  1.00  0.00    -0.378 A  
HETATM   11  C   UNL     1     -13.417  15.128  70.760  1.00  0.00    -0.345 A  
HETATM   12  C   UNL     1     -11.414  15.436  72.058  1.00  0.00    -0.521 A  
HETATM   13  C   UNL     1     -14.192  15.485  71.868  1.00  0.00    -0.586 A  
HETATM   14  C   UNL     1     -13.577  15.829  73.065  1.00  0.00    -0.638 A  
HETATM   15  C   UNL     1     -12.188  15.806  73.162  1.00  0.00    -0.605 A  
ENDBRANCH   9  10
BRANCH   9  16
HETATM   16  C   UNL     1     -11.090  13.270  69.317  1.00  0.00    -0.208 A  
HETATM   17  C   UNL     1     -11.904  11.006  69.700  1.00  0.00    -0.414 A  
HETATM   18  C   UNL     1      -9.936  11.348  68.353  1.00  0.00    -0.206 A  
HETATM   19  C   UNL     1     -12.024  12.387  69.884  1.00  0.00    -0.369 A  
HETATM   20  C   UNL     1     -10.050  12.726  68.541  1.00  0.00    -0.189 A  
HETATM   21  C   UNL     1     -10.860  10.488  68.937  1.00  0.00    -0.275 A  
ENDBRANCH   9  16
ENDBRANCH   7   9
ENDBRANCH   6   7
ENDBRANCH   2   6
TORSDOF 5
ENDMDL
MODEL       59
REMARK 921   NORMALIZED FREE ENERGY PREDICTED BY IDOCK:   -4.79 KCAL/MOL
REMARK 922        TOTAL FREE ENERGY PREDICTED BY IDOCK:   -7.19 KCAL/MOL
REMARK 923 INTER-LIGAND FREE ENERGY PREDICTED BY IDOCK:   -6.76 KCAL/MOL
REMARK 924 INTRA-LIGAND FREE ENERGY PREDICTED BY IDOCK:   -0.43 KCAL/MOL
REMARK 927      BINDING AFFINITY PREDICTED BY RF-SCORE:    0.00 PKD
ROOT
HETATM    1  N   UNL     1      -9.486  17.275  66.519  1.00  0.00    -0.260 N  
HETATM    2  C   UNL     1     -10.063  16.259  65.804  1.00  0.00    -0.347 C  
HETATM    3  H1  UNL     1      -8.782  17.081  67.231  1.00  0.00     0.000 HD 
HETATM    4  H2  UNL     1      -9.764  18.240  66.337  1.00  0.00     0.000 HD 
HETATM    5  O   UNL     1     -10.910  16.494  64.947  1.00  0.00    -0.684 OA 
ENDROOT
BRANCH   2   6
HETATM    6  C   UNL     1      -9.619  14.859  66.171  1.00  0.00    -0.310 C  
BRANCH   6   7
HETATM    7  S   UNL     1     -10.106  14.498  67.881  1.00  0.00    -0.229 S  
HETATM    8  O   UNL     1     -10.883  15.696  68.362  1.00  0.00    -0.265 OA 
BRANCH   7   9
HETATM    9  C   UNL     1     -11.320  13.145  67.529  1.00  0.00    -0.298 C  
BRANCH   9  10
HETATM   10  C   UNL     1     -11.384  12.711  66.068  1.00  0.00    -0.369 A  
HETATM   11  C   UNL     1     -12.420  13.195  65.248  1.00  0.00    -0.550 A  
HETATM   12  C   UNL     1     -10.484  11.790  65.509  1.00  0.00    -0.311 A  
HETATM   13  C   UNL     1     -12.552  12.771  63.922  1.00  0.00    -0.380 A  
HETATM   14  C   UNL     1     -11.658  11.848  63.395  1.00  0.00    -0.477 A  
HETATM   15  C   UNL     1     -10.623  11.356  64.187  1.00  0.00    -0.430 A  
ENDBRANCH   9  10
BRANCH   9  16
HETATM   16  C   UNL     1     -11.094  11.977  68.490  1.00  0.00    -0.289 A  
HETATM   17  C   UNL     1     -11.950  10.486  70.217  1.00  0.00    -0.411 A  
HETATM   18  C   UNL     1      -9.641  10.327  69.549  1.00  0.00    -0.225 A  
HETATM   19  C   UNL     1     -12.151  11.514  69.292  1.00  0.00    -0.344 A  
HETATM   20  C   UNL     1      -9.838  11.358  68.630  1.00  0.00    -0.199 A  
HETATM   21  C   UNL     1     -10.695   9.894  70.346  1.00  0.00    -0.379 A  
ENDBRANCH   9  16
ENDBRANCH   7   9
ENDBRANCH   6   7
ENDBRANCH   2   6
TORSDOF 5
ENDMDL
MODEL       60
REMARK 921   NORMALIZED FREE ENERGY PREDICTED BY IDOCK:   -4.77 KCAL/MOL
REMARK 922        TOTAL FREE ENERGY PREDICTED BY IDOCK:   -7.16 KCAL/MOL
REMARK 923 INTER-LIGAND FREE ENERGY PREDICTED BY IDOCK:   -6.40 KCAL/MOL
REMARK 924 INTRA-LIGAND FREE ENERGY PREDICTED BY IDOCK:   -0.76 KCAL/MOL
REMARK 927      BINDING AFFINITY PREDICTED BY RF-SCORE:    0.00 PKD
ROOT
HETATM    1  N   UNL     1     -10.405  10.743  69.731  1.00  0.00    -0.445 N  
HETATM    2  C   UNL     1     -10.810  11.048  68.459  1.00  0.00    -0.213 C  
HETATM    3  H1  UNL     1      -9.450  10.928  70.037  1.00  0.00     0.000 HD 
HETATM    4  H2  UNL     1     -11.069  10.323  70.384  1.00  0.00     0.000 HD 
HETATM    5  O   UNL     1     -11.960  10.825  68.092  1.00  0.00    -0.527 OA 
ENDROOT
BRANCH   2   6
HETATM    6  C   UNL     1      -9.747  11.628  67.550  1.00  0.00    -0.177 C  
BRANCH   6   7
HETATM    7  S   UNL     1      -9.298  13.288  68.127  1.00  0.00    -0.214 S  
HETATM    8  O   UNL     1      -7.807  13.276  68.338  1.00  0.00    -0.132 OA 
BRANCH   7   9
HETATM    9  C   UNL     1      -9.634  14.212  66.557  1.00  0.00    -0.296 C  
BRANCH   9  10
HETATM   10  C   UNL     1     -10.702  13.585  65.666  1.00  0.00    -0.284 A  
HETATM   11  C   UNL     1     -10.316  12.928  64.483  1.00  0.00    -0.380 A  
HETATM   12  C   UNL     1     -12.075  13.689  65.939  1.00  0.00    -0.476 A  
HETATM   13  C   UNL     1     -11.268  12.398  63.607  1.00  0.00    -0.544 A  
HETATM   14  C   UNL     1     -12.622  12.525  63.891  1.00  0.00    -0.485 A  
HETATM   15  C   UNL     1     -13.028  13.170  65.056  1.00  0.00    -0.221 A  
ENDBRANCH   9  10
BRANCH   9  16
HETATM   16  C   UNL     1      -9.902  15.687  66.865  1.00  0.00    -0.245 A  
HETATM   17  C   UNL     1     -10.324  17.444  68.498  1.00  0.00    -0.378 A  
HETATM   18  C   UNL     1     -10.363  17.973  66.148  1.00  0.00    -0.368 A  
HETATM   19  C   UNL     1     -10.023  16.113  68.198  1.00  0.00    -0.230 A  
HETATM   20  C   UNL     1     -10.069  16.643  65.847  1.00  0.00    -0.341 A  
HETATM   21  C   UNL     1     -10.496  18.373  67.473  1.00  0.00    -0.445 A  
ENDBRANCH   9  16
ENDBRANCH   7   9
ENDBRANCH   6   7
ENDBRANCH   2   6
TORSDOF 5
ENDMDL
MODEL       61
REMARK 921   NORMALIZED FREE ENERGY PREDICTED BY IDOCK:   -4.76 KCAL/MOL
REMARK 922        TOTAL FREE ENERGY PREDICTED BY IDOCK:   -7.15 KCAL/MOL
REMARK 923 INTER-LIGAND FREE ENERGY PREDICTED BY IDOCK:   -6.26 KCAL/MOL
REMARK 924 INTRA-LIGAND FREE ENERGY PREDICTED BY IDOCK:   -0.89 KCAL/MOL
REMARK 927      BINDING AFFINITY PREDICTED BY RF-SCORE:    0.00 PKD
ROOT
HETATM    1  N   UNL     1     -13.143  10.104  70.591  1.00  0.00    -0.585 N  
HETATM    2  C   UNL     1     -11.779  10.039  70.487  1.00  0.00    -0.318 C  
HETATM    3  H1  UNL     1     -13.705  10.538  69.858  1.00  0.00     0.000 HD 
HETATM    4  H2  UNL     1     -13.604   9.712  71.413  1.00  0.00     0.000 HD 
HETATM    5  O   UNL     1     -11.103   9.517  71.369  1.00  0.00    -0.351 OA 
ENDROOT
BRANCH   2   6
HETATM    6  C   UNL     1     -11.180  10.682  69.254  1.00  0.00    -0.273 C  
BRANCH   6   7
HETATM    7  S   UNL     1     -11.902  12.329  69.019  1.00  0.00    -0.276 S  
HETATM    8  O   UNL     1     -11.749  13.051  70.332  1.00  0.00    -0.210 OA 
BRANCH   7   9
HETATM    9  C   UNL     1     -10.633  13.009  67.854  1.00  0.00    -0.229 C  
BRANCH   9  10
HETATM   10  C   UNL     1     -10.996  12.890  66.377  1.00  0.00    -0.310 A  
HETATM   11  C   UNL     1     -12.350  12.922  65.995  1.00  0.00    -0.330 A  
HETATM   12  C   UNL     1     -10.038  12.684  65.372  1.00  0.00    -0.277 A  
HETATM   13  C   UNL     1     -12.729  12.751  64.659  1.00  0.00    -0.439 A  
HETATM   14  C   UNL     1     -11.763  12.534  63.685  1.00  0.00    -0.594 A  
HETATM   15  C   UNL     1     -10.417  12.499  64.039  1.00  0.00    -0.449 A  
ENDBRANCH   9  10
BRANCH   9  16
HETATM   16  C   UNL     1     -10.257  14.434  68.264  1.00  0.00    -0.241 A  
HETATM   17  C   UNL     1     -10.829  16.798  68.396  1.00  0.00    -0.355 A  
HETATM   18  C   UNL     1      -8.651  16.063  69.115  1.00  0.00    -0.247 A  
HETATM   19  C   UNL     1     -11.175  15.482  68.080  1.00  0.00    -0.343 A  
HETATM   20  C   UNL     1      -8.992  14.749  68.795  1.00  0.00    -0.179 A  
HETATM   21  C   UNL     1      -9.567  17.089  68.911  1.00  0.00    -0.248 A  
ENDBRANCH   9  16
ENDBRANCH   7   9
ENDBRANCH   6   7
ENDBRANCH   2   6
TORSDOF 5
ENDMDL
MODEL       62
REMARK 921   NORMALIZED FREE ENERGY PREDICTED BY IDOCK:   -4.72 KCAL/MOL
REMARK 922        TOTAL FREE ENERGY PREDICTED BY IDOCK:   -7.11 KCAL/MOL
REMARK 923 INTER-LIGAND FREE ENERGY PREDICTED BY IDOCK:   -6.10 KCAL/MOL
REMARK 924 INTRA-LIGAND FREE ENERGY PREDICTED BY IDOCK:   -1.01 KCAL/MOL
REMARK 927      BINDING AFFINITY PREDICTED BY RF-SCORE:    0.00 PKD
ROOT
HETATM    1  N   UNL     1     -13.793   8.843  73.074  1.00  0.00    -0.907 N  
HETATM    2  C   UNL     1     -13.920   8.797  71.711  1.00  0.00    -0.418 C  
HETATM    3  H1  UNL     1     -13.480   9.693  73.543  1.00  0.00     0.000 HD 
HETATM    4  H2  UNL     1     -14.014   8.015  73.628  1.00  0.00     0.000 HD 
HETATM    5  O   UNL     1     -14.297   7.774  71.147  1.00  0.00    -0.332 OA 
ENDROOT
BRANCH   2   6
HETATM    6  C   UNL     1     -13.531  10.058  70.969  1.00  0.00    -0.189 C  
BRANCH   6   7
HETATM    7  S   UNL     1     -11.722  10.177  70.886  1.00  0.00    -0.390 S  
HETATM    8  O   UNL     1     -11.190   8.819  71.261  1.00  0.00    -0.249 OA 
BRANCH   7   9
HETATM    9  C   UNL     1     -11.554  10.358  69.051  1.00  0.00    -0.150 C  
BRANCH   9  10
HETATM   10  C   UNL     1     -11.583  11.798  68.548  1.00  0.00    -0.380 A  
HETATM   11  C   UNL     1     -11.741  12.848  69.471  1.00  0.00    -0.387 A  
HETATM   12  C   UNL     1     -11.524  12.128  67.185  1.00  0.00    -0.413 A  
HETATM   13  C   UNL     1     -11.837  14.177  69.045  1.00  0.00    -0.384 A  
HETATM   14  C   UNL     1     -11.790  14.478  67.690  1.00  0.00    -0.395 A  
HETATM   15  C   UNL     1     -11.634  13.455  66.758  1.00  0.00    -0.404 A  
ENDBRANCH   9  10
BRANCH   9  16
HETATM   16  C   UNL     1     -10.334   9.577  68.558  1.00  0.00    -0.234 A  
HETATM   17  C   UNL     1      -7.915   9.313  68.457  1.00  0.00    -0.101 A  
HETATM   18  C   UNL     1      -9.326   7.808  67.213  1.00  0.00    -0.175 A  
HETATM   19  C   UNL     1      -9.044   9.978  68.943  1.00  0.00    -0.159 A  
HETATM   20  C   UNL     1     -10.454   8.475  67.691  1.00  0.00    -0.308 A  
HETATM   21  C   UNL     1      -8.056   8.229  67.592  1.00  0.00    -0.126 A  
ENDBRANCH   9  16
ENDBRANCH   7   9
ENDBRANCH   6   7
ENDBRANCH   2   6
TORSDOF 5
ENDMDL
MODEL       63
REMARK 921   NORMALIZED FREE ENERGY PREDICTED BY IDOCK:   -4.71 KCAL/MOL
REMARK 922        TOTAL FREE ENERGY PREDICTED BY IDOCK:   -7.09 KCAL/MOL
REMARK 923 INTER-LIGAND FREE ENERGY PREDICTED BY IDOCK:   -6.75 KCAL/MOL
REMARK 924 INTRA-LIGAND FREE ENERGY PREDICTED BY IDOCK:   -0.34 KCAL/MOL
REMARK 927      BINDING AFFINITY PREDICTED BY RF-SCORE:    0.00 PKD
ROOT
HETATM    1  N   UNL     1     -10.615  10.372  70.155  1.00  0.00    -0.436 N  
HETATM    2  C   UNL     1     -11.839  10.894  69.831  1.00  0.00    -0.349 C  
HETATM    3  H1  UNL     1      -9.803  10.531  69.558  1.00  0.00     0.000 HD 
HETATM    4  H2  UNL     1     -10.512   9.818  71.006  1.00  0.00     0.000 HD 
HETATM    5  O   UNL     1     -12.815  10.703  70.550  1.00  0.00    -0.349 OA 
ENDROOT
BRANCH   2   6
HETATM    6  C   UNL     1     -11.904  11.667  68.531  1.00  0.00    -0.292 C  
BRANCH   6   7
HETATM    7  S   UNL     1     -10.838  13.130  68.644  1.00  0.00    -0.253 S  
HETATM    8  O   UNL     1      -9.461  12.685  68.226  1.00  0.00    -0.213 OA 
BRANCH   7   9
HETATM    9  C   UNL     1     -11.565  14.095  67.240  1.00  0.00    -0.373 C  
BRANCH   9  10
HETATM   10  C   UNL     1     -11.034  15.518  67.104  1.00  0.00    -0.295 A  
HETATM   11  C   UNL     1     -10.936  16.331  68.249  1.00  0.00    -0.348 A  
HETATM   12  C   UNL     1     -10.694  16.087  65.867  1.00  0.00    -0.287 A  
HETATM   13  C   UNL     1     -10.516  17.662  68.156  1.00  0.00    -0.386 A  
HETATM   14  C   UNL     1     -10.198  18.207  66.919  1.00  0.00    -0.380 A  
HETATM   15  C   UNL     1     -10.287  17.422  65.773  1.00  0.00    -0.226 A  
ENDBRANCH   9  10
BRANCH   9  16
HETATM   16  C   UNL     1     -11.459  13.291  65.943  1.00  0.00    -0.359 A  
HETATM   17  C   UNL     1     -12.542  12.276  64.010  1.00  0.00    -0.521 A  
HETATM   18  C   UNL     1     -10.177  11.965  64.345  1.00  0.00    -0.333 A  
HETATM   19  C   UNL     1     -12.608  13.056  65.168  1.00  0.00    -0.530 A  
HETATM   20  C   UNL     1     -10.242  12.738  65.505  1.00  0.00    -0.293 A  
HETATM   21  C   UNL     1     -11.327  11.730  63.600  1.00  0.00    -0.525 A  
ENDBRANCH   9  16
ENDBRANCH   7   9
ENDBRANCH   6   7
ENDBRANCH   2   6
TORSDOF 5
ENDMDL
MODEL       64
REMARK 921   NORMALIZED FREE ENERGY PREDICTED BY IDOCK:   -4.71 KCAL/MOL
REMARK 922        TOTAL FREE ENERGY PREDICTED BY IDOCK:   -7.08 KCAL/MOL
REMARK 923 INTER-LIGAND FREE ENERGY PREDICTED BY IDOCK:   -6.87 KCAL/MOL
REMARK 924 INTRA-LIGAND FREE ENERGY PREDICTED BY IDOCK:   -0.21 KCAL/MOL
REMARK 927      BINDING AFFINITY PREDICTED BY RF-SCORE:    0.00 PKD
ROOT
HETATM    1  N   UNL     1      -6.936  16.704  66.512  1.00  0.00    -0.203 N  
HETATM    2  C   UNL     1      -8.283  16.951  66.517  1.00  0.00    -0.285 C  
HETATM    3  H1  UNL     1      -6.555  15.880  66.046  1.00  0.00     0.000 HD 
HETATM    4  H2  UNL     1      -6.303  17.352  66.982  1.00  0.00     0.000 HD 
HETATM    5  O   UNL     1      -8.740  17.942  67.078  1.00  0.00    -0.234 OA 
ENDROOT
BRANCH   2   6
HETATM    6  C   UNL     1      -9.147  15.913  65.831  1.00  0.00    -0.269 C  
BRANCH   6   7
HETATM    7  S   UNL     1     -10.859  16.508  65.751  1.00  0.00    -0.051 S  
HETATM    8  O   UNL     1     -11.168  16.718  64.292  1.00  0.00    -1.163 OA 
BRANCH   7   9
HETATM    9  C   UNL     1     -11.704  14.949  66.285  1.00  0.00    -0.177 C  
BRANCH   9  10
HETATM   10  C   UNL     1     -11.225  13.689  65.572  1.00  0.00    -0.301 A  
HETATM   11  C   UNL     1     -11.880  13.267  64.400  1.00  0.00    -0.448 A  
HETATM   12  C   UNL     1     -10.188  12.883  66.069  1.00  0.00    -0.293 A  
HETATM   13  C   UNL     1     -11.513  12.083  63.754  1.00  0.00    -0.547 A  
HETATM   14  C   UNL     1     -10.494  11.294  64.272  1.00  0.00    -0.419 A  
HETATM   15  C   UNL     1      -9.831  11.691  65.430  1.00  0.00    -0.268 A  
ENDBRANCH   9  10
BRANCH   9  16
HETATM   16  C   UNL     1     -11.661  14.827  67.810  1.00  0.00    -0.378 A  
HETATM   17  C   UNL     1     -12.050  13.505  69.819  1.00  0.00    -0.381 A  
HETATM   18  C   UNL     1     -11.309  15.788  70.025  1.00  0.00    -0.354 A  
HETATM   19  C   UNL     1     -12.028  13.619  68.426  1.00  0.00    -0.391 A  
HETATM   20  C   UNL     1     -11.294  15.906  68.635  1.00  0.00    -0.376 A  
HETATM   21  C   UNL     1     -11.692  14.590  70.618  1.00  0.00    -0.330 A  
ENDBRANCH   9  16
ENDBRANCH   7   9
ENDBRANCH   6   7
ENDBRANCH   2   6
TORSDOF 5
ENDMDL
MODEL       65
REMARK 921   NORMALIZED FREE ENERGY PREDICTED BY IDOCK:   -4.70 KCAL/MOL
REMARK 922        TOTAL FREE ENERGY PREDICTED BY IDOCK:   -7.08 KCAL/MOL
REMARK 923 INTER-LIGAND FREE ENERGY PREDICTED BY IDOCK:   -6.19 KCAL/MOL
REMARK 924 INTRA-LIGAND FREE ENERGY PREDICTED BY IDOCK:   -0.89 KCAL/MOL
REMARK 927      BINDING AFFINITY PREDICTED BY RF-SCORE:    0.00 PKD
ROOT
HETATM    1  N   UNL     1     -11.133  11.789  64.698  1.00  0.00    -0.312 N  
HETATM    2  C   UNL     1     -10.246  12.599  65.356  1.00  0.00    -0.284 C  
HETATM    3  H1  UNL     1     -11.709  12.151  63.937  1.00  0.00     0.000 HD 
HETATM    4  H2  UNL     1     -11.221  10.810  64.972  1.00  0.00     0.000 HD 
HETATM    5  O   UNL     1      -9.554  12.163  66.271  1.00  0.00    -0.229 OA 
ENDROOT
BRANCH   2   6
HETATM    6  C   UNL     1     -10.214  14.045  64.908  1.00  0.00    -0.348 C  
BRANCH   6   7
HETATM    7  S   UNL     1     -11.454  14.992  65.833  1.00  0.00    -0.153 S  
HETATM    8  O   UNL     1     -12.537  14.016  66.213  1.00  0.00    -0.451 OA 
BRANCH   7   9
HETATM    9  C   UNL     1     -10.448  15.330  67.351  1.00  0.00    -0.270 C  
BRANCH   9  10
HETATM   10  C   UNL     1      -9.879  16.743  67.435  1.00  0.00    -0.252 A  
HETATM   11  C   UNL     1      -8.846  17.018  68.349  1.00  0.00    -0.247 A  
HETATM   12  C   UNL     1     -10.386  17.813  66.680  1.00  0.00    -0.345 A  
HETATM   13  C   UNL     1      -8.342  18.314  68.503  1.00  0.00    -0.327 A  
HETATM   14  C   UNL     1      -8.869  19.359  67.756  1.00  0.00    -0.359 A  
HETATM   15  C   UNL     1      -9.892  19.111  66.843  1.00  0.00    -0.403 A  
ENDBRANCH   9  10
BRANCH   9  16
HETATM   16  C   UNL     1     -11.233  14.927  68.600  1.00  0.00    -0.288 A  
HETATM   17  C   UNL     1     -12.571  15.566  70.533  1.00  0.00    -0.462 A  
HETATM   18  C   UNL     1     -11.971  13.255  70.217  1.00  0.00    -0.372 A  
HETATM   19  C   UNL     1     -11.896  15.907  69.358  1.00  0.00    -0.325 A  
HETATM   20  C   UNL     1     -11.291  13.594  69.047  1.00  0.00    -0.333 A  
HETATM   21  C   UNL     1     -12.607  14.241  70.963  1.00  0.00    -0.428 A  
ENDBRANCH   9  16
ENDBRANCH   7   9
ENDBRANCH   6   7
ENDBRANCH   2   6
TORSDOF 5
ENDMDL
MODEL       66
REMARK 921   NORMALIZED FREE ENERGY PREDICTED BY IDOCK:   -4.70 KCAL/MOL
REMARK 922        TOTAL FREE ENERGY PREDICTED BY IDOCK:   -7.07 KCAL/MOL
REMARK 923 INTER-LIGAND FREE ENERGY PREDICTED BY IDOCK:   -6.06 KCAL/MOL
REMARK 924 INTRA-LIGAND FREE ENERGY PREDICTED BY IDOCK:   -1.01 KCAL/MOL
REMARK 927      BINDING AFFINITY PREDICTED BY RF-SCORE:    0.00 PKD
ROOT
HETATM    1  N   UNL     1     -12.294  12.555  71.115  1.00  0.00    -0.331 N  
HETATM    2  C   UNL     1     -12.586  13.893  71.154  1.00  0.00    -0.370 C  
HETATM    3  H1  UNL     1     -12.005  12.107  70.245  1.00  0.00     0.000 HD 
HETATM    4  H2  UNL     1     -12.367  11.999  71.967  1.00  0.00     0.000 HD 
HETATM    5  O   UNL     1     -12.933  14.432  72.201  1.00  0.00    -0.321 OA 
ENDROOT
BRANCH   2   6
HETATM    6  C   UNL     1     -12.490  14.629  69.834  1.00  0.00    -0.245 C  
BRANCH   6   7
HETATM    7  S   UNL     1     -11.340  13.755  68.737  1.00  0.00    -0.304 S  
HETATM    8  O   UNL     1     -12.036  12.489  68.313  1.00  0.00    -0.328 OA 
BRANCH   7   9
HETATM    9  C   UNL     1     -11.394  14.932  67.308  1.00  0.00    -0.349 C  
BRANCH   9  10
HETATM   10  C   UNL     1     -10.344  16.037  67.353  1.00  0.00    -0.294 A  
HETATM   11  C   UNL     1      -9.350  16.004  68.348  1.00  0.00    -0.207 A  
HETATM   12  C   UNL     1     -10.358  17.135  66.478  1.00  0.00    -0.306 A  
HETATM   13  C   UNL     1      -8.409  17.032  68.464  1.00  0.00    -0.260 A  
HETATM   14  C   UNL     1      -8.451  18.115  67.596  1.00  0.00    -0.245 A  
HETATM   15  C   UNL     1      -9.425  18.169  66.602  1.00  0.00    -0.303 A  
ENDBRANCH   9  10
BRANCH   9  16
HETATM   16  C   UNL     1     -11.388  14.154  65.990  1.00  0.00    -0.330 A  
HETATM   17  C   UNL     1     -10.151  12.939  64.279  1.00  0.00    -0.251 A  
HETATM   18  C   UNL     1     -12.511  13.326  63.988  1.00  0.00    -0.329 A  
HETATM   19  C   UNL     1     -10.189  13.603  65.508  1.00  0.00    -0.316 A  
HETATM   20  C   UNL     1     -12.549  13.995  65.212  1.00  0.00    -0.495 A  
HETATM   21  C   UNL     1     -11.312  12.802  63.519  1.00  0.00    -0.480 A  
ENDBRANCH   9  16
ENDBRANCH   7   9
ENDBRANCH   6   7
ENDBRANCH   2   6
TORSDOF 5
ENDMDL
MODEL       67
REMARK 921   NORMALIZED FREE ENERGY PREDICTED BY IDOCK:   -4.68 KCAL/MOL
REMARK 922        TOTAL FREE ENERGY PREDICTED BY IDOCK:   -7.05 KCAL/MOL
REMARK 923 INTER-LIGAND FREE ENERGY PREDICTED BY IDOCK:   -6.08 KCAL/MOL
REMARK 924 INTRA-LIGAND FREE ENERGY PREDICTED BY IDOCK:   -0.97 KCAL/MOL
REMARK 927      BINDING AFFINITY PREDICTED BY RF-SCORE:    0.00 PKD
ROOT
HETATM    1  N   UNL     1     -13.002  11.648  62.974  1.00  0.00    -0.852 N  
HETATM    2  C   UNL     1     -11.871  12.355  63.282  1.00  0.00    -0.402 C  
HETATM    3  H1  UNL     1     -13.927  12.062  63.089  1.00  0.00     0.000 HD 
HETATM    4  H2  UNL     1     -12.919  10.693  62.624  1.00  0.00     0.000 HD 
HETATM    5  O   UNL     1     -10.758  11.857  63.143  1.00  0.00    -0.354 OA 
ENDROOT
BRANCH   2   6
HETATM    6  C   UNL     1     -12.093  13.749  63.832  1.00  0.00    -0.376 C  
BRANCH   6   7
HETATM    7  S   UNL     1     -12.070  13.694  65.645  1.00  0.00    -0.456 S  
HETATM    8  O   UNL     1     -12.368  12.268  66.030  1.00  0.00    -0.609 OA 
BRANCH   7   9
HETATM    9  C   UNL     1     -10.256  13.975  65.894  1.00  0.00    -0.320 C  
BRANCH   9  10
HETATM   10  C   UNL     1      -9.902  15.311  66.538  1.00  0.00    -0.283 A  
HETATM   11  C   UNL     1      -8.575  15.776  66.478  1.00  0.00    -0.343 A  
HETATM   12  C   UNL     1     -10.833  16.081  67.252  1.00  0.00    -0.255 A  
HETATM   13  C   UNL     1      -8.196  16.964  67.112  1.00  0.00    -0.215 A  
HETATM   14  C   UNL     1      -9.132  17.701  67.825  1.00  0.00    -0.247 A  
HETATM   15  C   UNL     1     -10.451  17.262  67.897  1.00  0.00    -0.382 A  
ENDBRANCH   9  10
BRANCH   9  16
HETATM   16  C   UNL     1      -9.636  12.778  66.619  1.00  0.00    -0.255 A  
HETATM   17  C   UNL     1      -8.563  10.594  66.522  1.00  0.00    -0.143 A  
HETATM   18  C   UNL     1      -9.104  11.556  68.663  1.00  0.00    -0.124 A  
HETATM   19  C   UNL     1      -9.082  11.721  65.879  1.00  0.00    -0.128 A  
HETATM   20  C   UNL     1      -9.630  12.679  68.023  1.00  0.00    -0.213 A  
HETATM   21  C   UNL     1      -8.576  10.511  67.914  1.00  0.00    -0.123 A  
ENDBRANCH   9  16
ENDBRANCH   7   9
ENDBRANCH   6   7
ENDBRANCH   2   6
TORSDOF 5
ENDMDL
MODEL       68
REMARK 921   NORMALIZED FREE ENERGY PREDICTED BY IDOCK:   -4.64 KCAL/MOL
REMARK 922        TOTAL FREE ENERGY PREDICTED BY IDOCK:   -7.00 KCAL/MOL
REMARK 923 INTER-LIGAND FREE ENERGY PREDICTED BY IDOCK:   -6.17 KCAL/MOL
REMARK 924 INTRA-LIGAND FREE ENERGY PREDICTED BY IDOCK:   -0.83 KCAL/MOL
REMARK 927      BINDING AFFINITY PREDICTED BY RF-SCORE:    0.00 PKD
ROOT
HETATM    1  N   UNL     1      -5.443  12.849  67.889  1.00  0.00    -0.102 N  
HETATM    2  C   UNL     1      -6.674  13.373  67.595  1.00  0.00    -0.167 C  
HETATM    3  H1  UNL     1      -4.672  13.452  68.177  1.00  0.00     0.000 HD 
HETATM    4  H2  UNL     1      -5.295  11.842  67.818  1.00  0.00     0.000 HD 
HETATM    5  O   UNL     1      -7.602  12.647  67.248  1.00  0.00    -0.153 OA 
ENDROOT
BRANCH   2   6
HETATM    6  C   UNL     1      -6.790  14.880  67.688  1.00  0.00    -0.181 C  
BRANCH   6   7
HETATM    7  S   UNL     1      -8.438  15.324  68.302  1.00  0.00    -0.159 S  
HETATM    8  O   UNL     1      -8.251  16.528  69.187  1.00  0.00    -0.233 OA 
BRANCH   7   9
HETATM    9  C   UNL     1      -9.165  15.910  66.703  1.00  0.00    -0.252 C  
BRANCH   9  10
HETATM   10  C   UNL     1     -10.382  15.121  66.230  1.00  0.00    -0.303 A  
HETATM   11  C   UNL     1     -11.026  14.245  67.123  1.00  0.00    -0.305 A  
HETATM   12  C   UNL     1     -10.859  15.179  64.911  1.00  0.00    -0.437 A  
HETATM   13  C   UNL     1     -12.104  13.455  66.710  1.00  0.00    -0.419 A  
HETATM   14  C   UNL     1     -12.549  13.518  65.396  1.00  0.00    -0.531 A  
HETATM   15  C   UNL     1     -11.928  14.379  64.494  1.00  0.00    -0.487 A  
ENDBRANCH   9  10
BRANCH   9  16
HETATM   16  C   UNL     1      -9.418  17.418  66.765  1.00  0.00    -0.282 A  
HETATM   17  C   UNL     1      -8.640  19.693  66.372  1.00  0.00    -0.390 A  
HETATM   18  C   UNL     1     -10.773  19.335  67.431  1.00  0.00    -0.594 A  
HETATM   19  C   UNL     1      -8.453  18.312  66.272  1.00  0.00    -0.216 A  
HETATM   20  C   UNL     1     -10.585  17.956  67.339  1.00  0.00    -0.370 A  
HETATM   21  C   UNL     1      -9.799  20.204  66.953  1.00  0.00    -0.593 A  
ENDBRANCH   9  16
ENDBRANCH   7   9
ENDBRANCH   6   7
ENDBRANCH   2   6
TORSDOF 5
ENDMDL
MODEL       69
REMARK 921   NORMALIZED FREE ENERGY PREDICTED BY IDOCK:   -4.63 KCAL/MOL
REMARK 922        TOTAL FREE ENERGY PREDICTED BY IDOCK:   -6.99 KCAL/MOL
REMARK 923 INTER-LIGAND FREE ENERGY PREDICTED BY IDOCK:   -6.46 KCAL/MOL
REMARK 924 INTRA-LIGAND FREE ENERGY PREDICTED BY IDOCK:   -0.53 KCAL/MOL
REMARK 927      BINDING AFFINITY PREDICTED BY RF-SCORE:    0.00 PKD
ROOT
HETATM    1  N   UNL     1     -12.181  13.894  63.344  1.00  0.00    -1.102 N  
HETATM    2  C   UNL     1     -12.321  14.053  64.698  1.00  0.00    -0.397 C  
HETATM    3  H1  UNL     1     -11.276  14.025  62.892  1.00  0.00     0.000 HD 
HETATM    4  H2  UNL     1     -12.994  13.642  62.780  1.00  0.00     0.000 HD 
HETATM    5  O   UNL     1     -13.410  13.896  65.242  1.00  0.00    -0.732 OA 
ENDROOT
BRANCH   2   6
HETATM    6  C   UNL     1     -11.072  14.467  65.446  1.00  0.00    -0.331 C  
BRANCH   6   7
HETATM    7  S   UNL     1     -10.588  16.140  64.938  1.00  0.00     0.007 S  
HETATM    8  O   UNL     1     -11.696  16.652  64.056  1.00  0.00    -1.143 OA 
BRANCH   7   9
HETATM    9  C   UNL     1     -10.752  16.972  66.584  1.00  0.00    -0.092 C  
BRANCH   9  10
HETATM   10  C   UNL     1     -10.718  16.027  67.782  1.00  0.00    -0.323 A  
HETATM   11  C   UNL     1      -9.498  15.795  68.443  1.00  0.00    -0.196 A  
HETATM   12  C   UNL     1     -11.847  15.319  68.223  1.00  0.00    -0.251 A  
HETATM   13  C   UNL     1      -9.412  14.887  69.503  1.00  0.00    -0.004 A  
HETATM   14  C   UNL     1     -10.540  14.187  69.913  1.00  0.00     0.292 A  
HETATM   15  C   UNL     1     -11.758  14.401  69.274  1.00  0.00    -0.358 A  
ENDBRANCH   9  10
BRANCH   9  16
HETATM   16  C   UNL     1      -9.740  18.115  66.696  1.00  0.00    -0.334 A  
HETATM   17  C   UNL     1      -9.126  20.291  67.603  1.00  0.00    -0.423 A  
HETATM   18  C   UNL     1      -7.658  19.202  66.033  1.00  0.00    -0.281 A  
HETATM   19  C   UNL     1     -10.011  19.211  67.532  1.00  0.00    -0.433 A  
HETATM   20  C   UNL     1      -8.544  18.127  65.955  1.00  0.00    -0.016 A  
HETATM   21  C   UNL     1      -7.951  20.286  66.853  1.00  0.00    -0.349 A  
ENDBRANCH   9  16
ENDBRANCH   7   9
ENDBRANCH   6   7
ENDBRANCH   2   6
TORSDOF 5
ENDMDL
MODEL       70
REMARK 921   NORMALIZED FREE ENERGY PREDICTED BY IDOCK:   -4.61 KCAL/MOL
REMARK 922        TOTAL FREE ENERGY PREDICTED BY IDOCK:   -6.95 KCAL/MOL
REMARK 923 INTER-LIGAND FREE ENERGY PREDICTED BY IDOCK:   -6.47 KCAL/MOL
REMARK 924 INTRA-LIGAND FREE ENERGY PREDICTED BY IDOCK:   -0.48 KCAL/MOL
REMARK 927      BINDING AFFINITY PREDICTED BY RF-SCORE:    0.00 PKD
ROOT
HETATM    1  N   UNL     1     -11.961  12.982  63.320  1.00  0.00    -0.806 N  
HETATM    2  C   UNL     1     -10.976  13.266  64.229  1.00  0.00    -0.395 C  
HETATM    3  H1  UNL     1     -12.788  13.574  63.241  1.00  0.00     0.000 HD 
HETATM    4  H2  UNL     1     -11.866  12.167  62.714  1.00  0.00     0.000 HD 
HETATM    5  O   UNL     1      -9.981  12.553  64.323  1.00  0.00    -0.277 OA 
ENDROOT
BRANCH   2   6
HETATM    6  C   UNL     1     -11.221  14.470  65.114  1.00  0.00    -0.367 C  
BRANCH   6   7
HETATM    7  S   UNL     1     -12.150  13.959  66.586  1.00  0.00    -0.433 S  
HETATM    8  O   UNL     1     -12.308  12.464  66.491  1.00  0.00    -0.511 OA 
BRANCH   7   9
HETATM    9  C   UNL     1     -10.845  14.306  67.854  1.00  0.00    -0.253 C  
BRANCH   9  10
HETATM   10  C   UNL     1     -11.380  14.684  69.231  1.00  0.00    -0.313 A  
HETATM   11  C   UNL     1     -10.915  15.857  69.854  1.00  0.00    -0.343 A  
HETATM   12  C   UNL     1     -12.278  13.875  69.946  1.00  0.00    -0.393 A  
HETATM   13  C   UNL     1     -11.332  16.204  71.143  1.00  0.00    -0.368 A  
HETATM   14  C   UNL     1     -12.210  15.381  71.837  1.00  0.00    -0.453 A  
HETATM   15  C   UNL     1     -12.684  14.216  71.240  1.00  0.00    -0.434 A  
ENDBRANCH   9  10
BRANCH   9  16
HETATM   16  C   UNL     1      -9.840  13.152  67.899  1.00  0.00    -0.231 A  
HETATM   17  C   UNL     1      -9.243  10.921  68.673  1.00  0.00    -0.187 A  
HETATM   18  C   UNL     1      -7.645  12.205  67.407  1.00  0.00    -0.155 A  
HETATM   19  C   UNL     1     -10.168  11.964  68.572  1.00  0.00    -0.221 A  
HETATM   20  C   UNL     1      -8.565  13.250  67.312  1.00  0.00    -0.211 A  
HETATM   21  C   UNL     1      -7.981  11.043  68.092  1.00  0.00    -0.119 A  
ENDBRANCH   9  16
ENDBRANCH   7   9
ENDBRANCH   6   7
ENDBRANCH   2   6
TORSDOF 5
ENDMDL
MODEL       71
REMARK 921   NORMALIZED FREE ENERGY PREDICTED BY IDOCK:   -4.59 KCAL/MOL
REMARK 922        TOTAL FREE ENERGY PREDICTED BY IDOCK:   -6.93 KCAL/MOL
REMARK 923 INTER-LIGAND FREE ENERGY PREDICTED BY IDOCK:   -6.34 KCAL/MOL
REMARK 924 INTRA-LIGAND FREE ENERGY PREDICTED BY IDOCK:   -0.59 KCAL/MOL
REMARK 927      BINDING AFFINITY PREDICTED BY RF-SCORE:    0.00 PKD
ROOT
HETATM    1  N   UNL     1      -9.019  18.654  67.009  1.00  0.00    -0.278 N  
HETATM    2  C   UNL     1     -10.098  18.776  67.843  1.00  0.00    -0.366 C  
HETATM    3  H1  UNL     1      -8.611  17.740  66.810  1.00  0.00     0.000 HD 
HETATM    4  H2  UNL     1      -8.616  19.488  66.581  1.00  0.00     0.000 HD 
HETATM    5  O   UNL     1     -10.589  19.875  68.083  1.00  0.00    -0.388 OA 
ENDROOT
BRANCH   2   6
HETATM    6  C   UNL     1     -10.602  17.490  68.464  1.00  0.00    -0.312 C  
BRANCH   6   7
HETATM    7  S   UNL     1      -9.412  16.158  68.145  1.00  0.00    -0.212 S  
HETATM    8  O   UNL     1      -8.267  16.374  69.100  1.00  0.00    -0.240 OA 
BRANCH   7   9
HETATM    9  C   UNL     1     -10.420  14.745  68.789  1.00  0.00    -0.250 C  
BRANCH   9  10
HETATM   10  C   UNL     1     -11.388  15.112  69.910  1.00  0.00    -0.309 A  
HETATM   11  C   UNL     1     -10.878  15.480  71.169  1.00  0.00    -0.147 A  
HETATM   12  C   UNL     1     -12.782  15.038  69.765  1.00  0.00    -0.062 A  
HETATM   13  C   UNL     1     -11.731  15.760  72.241  1.00  0.00    -0.580 A  
HETATM   14  C   UNL     1     -13.107  15.667  72.077  1.00  0.00    -0.541 A  
HETATM   15  C   UNL     1     -13.635  15.305  70.840  1.00  0.00    -0.402 A  
ENDBRANCH   9  10
BRANCH   9  16
HETATM   16  C   UNL     1     -11.100  14.015  67.628  1.00  0.00    -0.298 A  
HETATM   17  C   UNL     1     -11.585  11.936  66.455  1.00  0.00    -0.315 A  
HETATM   18  C   UNL     1     -12.354  14.026  65.534  1.00  0.00    -0.503 A  
HETATM   19  C   UNL     1     -11.020  12.615  67.538  1.00  0.00    -0.280 A  
HETATM   20  C   UNL     1     -11.784  14.706  66.611  1.00  0.00    -0.345 A  
HETATM   21  C   UNL     1     -12.250  12.642  65.453  1.00  0.00    -0.517 A  
ENDBRANCH   9  16
ENDBRANCH   7   9
ENDBRANCH   6   7
ENDBRANCH   2   6
TORSDOF 5
ENDMDL
MODEL       72
REMARK 921   NORMALIZED FREE ENERGY PREDICTED BY IDOCK:   -4.59 KCAL/MOL
REMARK 922        TOTAL FREE ENERGY PREDICTED BY IDOCK:   -6.93 KCAL/MOL
REMARK 923 INTER-LIGAND FREE ENERGY PREDICTED BY IDOCK:   -6.49 KCAL/MOL
REMARK 924 INTRA-LIGAND FREE ENERGY PREDICTED BY IDOCK:   -0.44 KCAL/MOL
REMARK 927      BINDING AFFINITY PREDICTED BY RF-SCORE:    0.00 PKD
ROOT
HETATM    1  N   UNL     1      -9.323  17.636  68.654  1.00  0.00    -0.282 N  
HETATM    2  C   UNL     1     -10.020  17.504  67.483  1.00  0.00    -0.315 C  
HETATM    3  H1  UNL     1      -9.263  16.865  69.319  1.00  0.00     0.000 HD 
HETATM    4  H2  UNL     1      -8.856  18.519  68.866  1.00  0.00     0.000 HD 
HETATM    5  O   UNL     1     -10.092  18.433  66.684  1.00  0.00    -0.336 OA 
ENDROOT
BRANCH   2   6
HETATM    6  C   UNL     1     -10.713  16.174  67.274  1.00  0.00    -0.277 C  
BRANCH   6   7
HETATM    7  S   UNL     1     -10.808  15.287  68.853  1.00  0.00    -0.261 S  
HETATM    8  O   UNL     1     -11.594  16.168  69.788  1.00  0.00    -0.314 OA 
BRANCH   7   9
HETATM    9  C   UNL     1     -11.920  13.908  68.313  1.00  0.00    -0.357 C  
BRANCH   9  10
HETATM   10  C   UNL     1     -11.418  13.120  67.107  1.00  0.00    -0.378 A  
HETATM   11  C   UNL     1     -10.104  12.618  67.109  1.00  0.00    -0.224 A  
HETATM   12  C   UNL     1     -12.192  12.924  65.952  1.00  0.00    -0.469 A  
HETATM   13  C   UNL     1      -9.584  11.947  65.997  1.00  0.00    -0.251 A  
HETATM   14  C   UNL     1     -10.364  11.778  64.860  1.00  0.00    -0.334 A  
HETATM   15  C   UNL     1     -11.668  12.266  64.835  1.00  0.00    -0.409 A  
ENDBRANCH   9  10
BRANCH   9  16
HETATM   16  C   UNL     1     -12.265  13.016  69.508  1.00  0.00    -0.198 A  
HETATM   17  C   UNL     1     -12.506  10.787  70.459  1.00  0.00    -0.447 A  
HETATM   18  C   UNL     1     -13.097  12.711  71.782  1.00  0.00    -0.461 A  
HETATM   19  C   UNL     1     -12.142  11.621  69.399  1.00  0.00    -0.328 A  
HETATM   20  C   UNL     1     -12.741  13.546  70.721  1.00  0.00    -0.316 A  
HETATM   21  C   UNL     1     -12.985  11.332  71.649  1.00  0.00    -0.537 A  
ENDBRANCH   9  16
ENDBRANCH   7   9
ENDBRANCH   6   7
ENDBRANCH   2   6
TORSDOF 5
ENDMDL
MODEL       73
REMARK 921   NORMALIZED FREE ENERGY PREDICTED BY IDOCK:   -4.58 KCAL/MOL
REMARK 922        TOTAL FREE ENERGY PREDICTED BY IDOCK:   -6.92 KCAL/MOL
REMARK 923 INTER-LIGAND FREE ENERGY PREDICTED BY IDOCK:   -6.43 KCAL/MOL
REMARK 924 INTRA-LIGAND FREE ENERGY PREDICTED BY IDOCK:   -0.49 KCAL/MOL
REMARK 927      BINDING AFFINITY PREDICTED BY RF-SCORE:    0.00 PKD
ROOT
HETATM    1  N   UNL     1      -6.326  16.235  67.696  1.00  0.00    -0.143 N  
HETATM    2  C   UNL     1      -7.113  15.205  67.254  1.00  0.00    -0.126 C  
HETATM    3  H1  UNL     1      -6.655  17.200  67.661  1.00  0.00     0.000 HD 
HETATM    4  H2  UNL     1      -5.396  16.034  68.067  1.00  0.00     0.000 HD 
HETATM    5  O   UNL     1      -6.717  14.044  67.297  1.00  0.00    -0.244 OA 
ENDROOT
BRANCH   2   6
HETATM    6  C   UNL     1      -8.459  15.601  66.684  1.00  0.00    -0.288 C  
BRANCH   6   7
HETATM    7  S   UNL     1      -9.525  16.213  68.019  1.00  0.00    -0.213 S  
HETATM    8  O   UNL     1     -10.603  17.032  67.359  1.00  0.00    -0.328 OA 
BRANCH   7   9
HETATM    9  C   UNL     1     -10.276  14.595  68.518  1.00  0.00    -0.240 C  
BRANCH   9  10
HETATM   10  C   UNL     1     -11.200  14.669  69.730  1.00  0.00    -0.296 A  
HETATM   11  C   UNL     1     -11.219  15.839  70.512  1.00  0.00    -0.392 A  
HETATM   12  C   UNL     1     -11.996  13.591  70.145  1.00  0.00    -0.399 A  
HETATM   13  C   UNL     1     -12.002  15.922  71.668  1.00  0.00    -0.553 A  
HETATM   14  C   UNL     1     -12.771  14.837  72.067  1.00  0.00    -0.400 A  
HETATM   15  C   UNL     1     -12.769  13.670  71.308  1.00  0.00    -0.443 A  
ENDBRANCH   9  10
BRANCH   9  16
HETATM   16  C   UNL     1     -10.931  13.927  67.307  1.00  0.00    -0.299 A  
HETATM   17  C   UNL     1     -12.758  13.830  65.699  1.00  0.00    -0.523 A  
HETATM   18  C   UNL     1     -11.044  12.138  65.651  1.00  0.00    -0.360 A  
HETATM   19  C   UNL     1     -12.114  14.459  66.768  1.00  0.00    -0.393 A  
HETATM   20  C   UNL     1     -10.404  12.760  66.723  1.00  0.00    -0.248 A  
HETATM   21  C   UNL     1     -12.224  12.669  65.142  1.00  0.00    -0.539 A  
ENDBRANCH   9  16
ENDBRANCH   7   9
ENDBRANCH   6   7
ENDBRANCH   2   6
TORSDOF 5
ENDMDL
MODEL       74
REMARK 921   NORMALIZED FREE ENERGY PREDICTED BY IDOCK:   -4.58 KCAL/MOL
REMARK 922        TOTAL FREE ENERGY PREDICTED BY IDOCK:   -6.92 KCAL/MOL
REMARK 923 INTER-LIGAND FREE ENERGY PREDICTED BY IDOCK:   -6.11 KCAL/MOL
REMARK 924 INTRA-LIGAND FREE ENERGY PREDICTED BY IDOCK:   -0.81 KCAL/MOL
REMARK 927      BINDING AFFINITY PREDICTED BY RF-SCORE:    0.00 PKD
ROOT
HETATM    1  N   UNL     1      -9.692   9.890  66.720  1.00  0.00    -0.182 N  
HETATM    2  C   UNL     1     -10.637  10.845  66.454  1.00  0.00    -0.229 C  
HETATM    3  H1  UNL     1      -9.613   9.474  67.649  1.00  0.00     0.000 HD 
HETATM    4  H2  UNL     1      -9.057   9.590  65.979  1.00  0.00     0.000 HD 
HETATM    5  O   UNL     1     -10.731  11.345  65.338  1.00  0.00    -0.277 OA 
ENDROOT
BRANCH   2   6
HETATM    6  C   UNL     1     -11.506  11.258  67.624  1.00  0.00    -0.264 C  
BRANCH   6   7
HETATM    7  S   UNL     1     -10.524  12.240  68.790  1.00  0.00    -0.108 S  
HETATM    8  O   UNL     1      -9.230  12.564  68.089  1.00  0.00    -0.200 OA 
BRANCH   7   9
HETATM    9  C   UNL     1     -11.564  13.773  68.784  1.00  0.00    -0.328 C  
BRANCH   9  10
HETATM   10  C   UNL     1     -12.343  14.018  70.073  1.00  0.00    -0.397 A  
HETATM   11  C   UNL     1     -12.590  12.943  70.946  1.00  0.00    -0.355 A  
HETATM   12  C   UNL     1     -12.887  15.269  70.405  1.00  0.00    -0.360 A  
HETATM   13  C   UNL     1     -13.355  13.113  72.104  1.00  0.00    -0.621 A  
HETATM   14  C   UNL     1     -13.895  14.356  72.404  1.00  0.00    -0.595 A  
HETATM   15  C   UNL     1     -13.663  15.436  71.556  1.00  0.00    -0.601 A  
ENDBRANCH   9  10
BRANCH   9  16
HETATM   16  C   UNL     1     -10.720  14.976  68.357  1.00  0.00    -0.245 A  
HETATM   17  C   UNL     1      -9.068  16.679  68.906  1.00  0.00    -0.238 A  
HETATM   18  C   UNL     1     -10.109  16.693  66.734  1.00  0.00    -0.293 A  
HETATM   19  C   UNL     1      -9.805  15.545  69.258  1.00  0.00    -0.270 A  
HETATM   20  C   UNL     1     -10.852  15.565  67.086  1.00  0.00    -0.316 A  
HETATM   21  C   UNL     1      -9.221  17.253  67.645  1.00  0.00    -0.229 A  
ENDBRANCH   9  16
ENDBRANCH   7   9
ENDBRANCH   6   7
ENDBRANCH   2   6
TORSDOF 5
ENDMDL
MODEL       75
REMARK 921   NORMALIZED FREE ENERGY PREDICTED BY IDOCK:   -4.55 KCAL/MOL
REMARK 922        TOTAL FREE ENERGY PREDICTED BY IDOCK:   -6.89 KCAL/MOL
REMARK 923 INTER-LIGAND FREE ENERGY PREDICTED BY IDOCK:   -6.22 KCAL/MOL
REMARK 924 INTRA-LIGAND FREE ENERGY PREDICTED BY IDOCK:   -0.67 KCAL/MOL
REMARK 927      BINDING AFFINITY PREDICTED BY RF-SCORE:    0.00 PKD
ROOT
HETATM    1  N   UNL     1     -11.579  16.323  70.678  1.00  0.00    -0.520 N  
HETATM    2  C   UNL     1     -11.730  15.946  69.370  1.00  0.00    -0.343 C  
HETATM    3  H1  UNL     1     -11.868  15.706  71.438  1.00  0.00     0.000 HD 
HETATM    4  H2  UNL     1     -11.172  17.233  70.897  1.00  0.00     0.000 HD 
HETATM    5  O   UNL     1     -11.381  16.688  68.457  1.00  0.00    -0.317 OA 
ENDROOT
BRANCH   2   6
HETATM    6  C   UNL     1     -12.380  14.598  69.142  1.00  0.00    -0.095 C  
BRANCH   6   7
HETATM    7  S   UNL     1     -11.963  13.485  70.512  1.00  0.00    -0.202 S  
HETATM    8  O   UNL     1     -13.136  13.518  71.458  1.00  0.00    -0.351 OA 
BRANCH   7   9
HETATM    9  C   UNL     1     -12.036  11.885  69.583  1.00  0.00    -0.298 C  
BRANCH   9  10
HETATM   10  C   UNL     1     -10.983  11.736  68.489  1.00  0.00    -0.270 A  
HETATM   11  C   UNL     1     -11.252  10.912  67.380  1.00  0.00    -0.345 A  
HETATM   12  C   UNL     1      -9.717  12.337  68.566  1.00  0.00    -0.142 A  
HETATM   13  C   UNL     1     -10.289  10.698  66.389  1.00  0.00    -0.291 A  
HETATM   14  C   UNL     1      -9.038  11.292  66.494  1.00  0.00    -0.193 A  
HETATM   15  C   UNL     1      -8.749  12.111  67.582  1.00  0.00    -0.172 A  
ENDBRANCH   9  10
BRANCH   9  16
HETATM   16  C   UNL     1     -12.049  10.711  70.564  1.00  0.00    -0.448 A  
HETATM   17  C   UNL     1     -10.885   8.853  71.627  1.00  0.00    -0.420 A  
HETATM   18  C   UNL     1     -13.219   9.217  72.099  1.00  0.00    -0.524 A  
HETATM   19  C   UNL     1     -10.878   9.964  70.779  1.00  0.00    -0.387 A  
HETATM   20  C   UNL     1     -13.216  10.322  71.247  1.00  0.00    -0.447 A  
HETATM   21  C   UNL     1     -12.055   8.479  72.285  1.00  0.00    -0.455 A  
ENDBRANCH   9  16
ENDBRANCH   7   9
ENDBRANCH   6   7
ENDBRANCH   2   6
TORSDOF 5
ENDMDL
MODEL       76
REMARK 921   NORMALIZED FREE ENERGY PREDICTED BY IDOCK:   -4.55 KCAL/MOL
REMARK 922        TOTAL FREE ENERGY PREDICTED BY IDOCK:   -6.88 KCAL/MOL
REMARK 923 INTER-LIGAND FREE ENERGY PREDICTED BY IDOCK:   -6.26 KCAL/MOL
REMARK 924 INTRA-LIGAND FREE ENERGY PREDICTED BY IDOCK:   -0.62 KCAL/MOL
REMARK 927      BINDING AFFINITY PREDICTED BY RF-SCORE:    0.00 PKD
ROOT
HETATM    1  N   UNL     1     -11.142   5.493  66.407  1.00  0.00    -0.726 N  
HETATM    2  C   UNL     1     -10.178   6.274  66.987  1.00  0.00    -0.201 C  
HETATM    3  H1  UNL     1     -12.124   5.594  66.665  1.00  0.00     0.000 HD 
HETATM    4  H2  UNL     1     -10.875   4.801  65.706  1.00  0.00     0.000 HD 
HETATM    5  O   UNL     1      -8.997   6.153  66.676  1.00  0.00    -0.122 OA 
ENDROOT
BRANCH   2   6
HETATM    6  C   UNL     1     -10.662   7.244  68.044  1.00  0.00    -0.146 C  
BRANCH   6   7
HETATM    7  S   UNL     1     -11.267   6.319  69.482  1.00  0.00    -0.394 S  
HETATM    8  O   UNL     1     -10.442   5.061  69.555  1.00  0.00    -0.223 OA 
BRANCH   7   9
HETATM    9  C   UNL     1     -10.661   7.464  70.805  1.00  0.00    -0.223 C  
BRANCH   9  10
HETATM   10  C   UNL     1     -11.488   8.735  70.975  1.00  0.00    -0.337 A  
HETATM   11  C   UNL     1     -11.129   9.893  70.261  1.00  0.00    -0.368 A  
HETATM   12  C   UNL     1     -12.566   8.826  71.870  1.00  0.00    -0.428 A  
HETATM   13  C   UNL     1     -11.821  11.095  70.438  1.00  0.00    -0.462 A  
HETATM   14  C   UNL     1     -12.876  11.164  71.339  1.00  0.00    -0.544 A  
HETATM   15  C   UNL     1     -13.249  10.031  72.057  1.00  0.00    -0.545 A  
ENDBRANCH   9  10
BRANCH   9  16
HETATM   16  C   UNL     1     -10.470   6.696  72.115  1.00  0.00    -0.228 A  
HETATM   17  C   UNL     1      -9.236   6.360  74.188  1.00  0.00    -0.181 A  
HETATM   18  C   UNL     1     -11.030   4.858  73.619  1.00  0.00    -0.387 A  
HETATM   19  C   UNL     1      -9.463   7.084  73.014  1.00  0.00    -0.177 A  
HETATM   20  C   UNL     1     -11.254   5.575  72.443  1.00  0.00    -0.305 A  
HETATM   21  C   UNL     1     -10.018   5.247  74.489  1.00  0.00    -0.258 A  
ENDBRANCH   9  16
ENDBRANCH   7   9
ENDBRANCH   6   7
ENDBRANCH   2   6
TORSDOF 5
ENDMDL
MODEL       77
REMARK 921   NORMALIZED FREE ENERGY PREDICTED BY IDOCK:   -4.54 KCAL/MOL
REMARK 922        TOTAL FREE ENERGY PREDICTED BY IDOCK:   -6.87 KCAL/MOL
REMARK 923 INTER-LIGAND FREE ENERGY PREDICTED BY IDOCK:   -6.08 KCAL/MOL
REMARK 924 INTRA-LIGAND FREE ENERGY PREDICTED BY IDOCK:   -0.79 KCAL/MOL
REMARK 927      BINDING AFFINITY PREDICTED BY RF-SCORE:    0.00 PKD
ROOT
HETATM    1  N   UNL     1     -11.257   7.171  68.330  1.00  0.00    -0.482 N  
HETATM    2  C   UNL     1     -10.306   7.920  67.688  1.00  0.00    -0.241 C  
HETATM    3  H1  UNL     1     -12.225   7.488  68.385  1.00  0.00     0.000 HD 
HETATM    4  H2  UNL     1     -10.993   6.284  68.759  1.00  0.00     0.000 HD 
HETATM    5  O   UNL     1      -9.142   7.538  67.623  1.00  0.00    -0.126 OA 
ENDROOT
BRANCH   2   6
HETATM    6  C   UNL     1     -10.780   9.240  67.118  1.00  0.00    -0.152 C  
BRANCH   6   7
HETATM    7  S   UNL     1     -11.115  10.399  68.472  1.00  0.00    -0.252 S  
HETATM    8  O   UNL     1     -10.180  10.025  69.592  1.00  0.00    -0.211 OA 
BRANCH   7   9
HETATM    9  C   UNL     1     -10.450  11.933  67.676  1.00  0.00    -0.208 C  
BRANCH   9  10
HETATM   10  C   UNL     1     -10.887  12.139  66.229  1.00  0.00    -0.317 A  
HETATM   11  C   UNL     1      -9.996  11.819  65.187  1.00  0.00    -0.285 A  
HETATM   12  C   UNL     1     -12.126  12.699  65.881  1.00  0.00    -0.459 A  
HETATM   13  C   UNL     1     -10.332  12.054  63.851  1.00  0.00    -0.433 A  
HETATM   14  C   UNL     1     -11.559  12.623  63.531  1.00  0.00    -0.584 A  
HETATM   15  C   UNL     1     -12.457  12.946  64.545  1.00  0.00    -0.468 A  
ENDBRANCH   9  10
BRANCH   9  16
HETATM   16  C   UNL     1     -10.732  13.147  68.564  1.00  0.00    -0.277 A  
HETATM   17  C   UNL     1     -12.013  14.178  70.361  1.00  0.00    -0.400 A  
HETATM   18  C   UNL     1     -10.381  15.486  69.167  1.00  0.00    -0.237 A  
HETATM   19  C   UNL     1     -11.701  13.064  69.578  1.00  0.00    -0.381 A  
HETATM   20  C   UNL     1     -10.073  14.376  68.379  1.00  0.00    -0.244 A  
HETATM   21  C   UNL     1     -11.354  15.389  70.154  1.00  0.00    -0.321 A  
ENDBRANCH   9  16
ENDBRANCH   7   9
ENDBRANCH   6   7
ENDBRANCH   2   6
TORSDOF 5
ENDMDL
MODEL       78
REMARK 921   NORMALIZED FREE ENERGY PREDICTED BY IDOCK:   -4.53 KCAL/MOL
REMARK 922        TOTAL FREE ENERGY PREDICTED BY IDOCK:   -6.86 KCAL/MOL
REMARK 923 INTER-LIGAND FREE ENERGY PREDICTED BY IDOCK:   -6.41 KCAL/MOL
REMARK 924 INTRA-LIGAND FREE ENERGY PREDICTED BY IDOCK:   -0.45 KCAL/MOL
REMARK 927      BINDING AFFINITY PREDICTED BY RF-SCORE:    0.00 PKD
ROOT
HETATM    1  N   UNL     1     -12.948  12.641  64.643  1.00  0.00    -0.738 N  
HETATM    2  C   UNL     1     -12.472  13.888  64.952  1.00  0.00    -0.391 C  
HETATM    3  H1  UNL     1     -12.925  11.886  65.330  1.00  0.00     0.000 HD 
HETATM    4  H2  UNL     1     -13.331  12.464  63.714  1.00  0.00     0.000 HD 
HETATM    5  O   UNL     1     -12.500  14.795  64.127  1.00  0.00    -0.758 OA 
ENDROOT
BRANCH   2   6
HETATM    6  C   UNL     1     -11.885  14.045  66.339  1.00  0.00    -0.418 C  
BRANCH   6   7
HETATM    7  S   UNL     1     -10.088  13.814  66.266  1.00  0.00    -0.306 S  
HETATM    8  O   UNL     1      -9.491  15.184  66.078  1.00  0.00    -0.301 OA 
BRANCH   7   9
HETATM    9  C   UNL     1      -9.813  13.320  68.029  1.00  0.00    -0.230 C  
BRANCH   9  10
HETATM   10  C   UNL     1     -10.693  14.050  69.039  1.00  0.00    -0.232 A  
HETATM   11  C   UNL     1     -11.797  13.383  69.603  1.00  0.00    -0.394 A  
HETATM   12  C   UNL     1     -10.492  15.394  69.391  1.00  0.00    -0.257 A  
HETATM   13  C   UNL     1     -12.665  14.037  70.482  1.00  0.00    -0.347 A  
HETATM   14  C   UNL     1     -12.454  15.372  70.804  1.00  0.00    -0.476 A  
HETATM   15  C   UNL     1     -11.368  16.052  70.259  1.00  0.00    -0.391 A  
ENDBRANCH   9  10
BRANCH   9  16
HETATM   16  C   UNL     1      -9.887  11.797  68.163  1.00  0.00    -0.190 A  
HETATM   17  C   UNL     1      -9.192   9.756  69.297  1.00  0.00    -0.197 A  
HETATM   18  C   UNL     1     -10.630   9.612  67.370  1.00  0.00    -0.333 A  
HETATM   19  C   UNL     1      -9.183  11.150  69.192  1.00  0.00     0.038 A  
HETATM   20  C   UNL     1     -10.617  11.003  67.259  1.00  0.00    -0.287 A  
HETATM   21  C   UNL     1      -9.914   8.988  68.385  1.00  0.00    -0.200 A  
ENDBRANCH   9  16
ENDBRANCH   7   9
ENDBRANCH   6   7
ENDBRANCH   2   6
TORSDOF 5
ENDMDL
MODEL       79
REMARK 921   NORMALIZED FREE ENERGY PREDICTED BY IDOCK:   -4.52 KCAL/MOL
REMARK 922        TOTAL FREE ENERGY PREDICTED BY IDOCK:   -6.84 KCAL/MOL
REMARK 923 INTER-LIGAND FREE ENERGY PREDICTED BY IDOCK:   -6.57 KCAL/MOL
REMARK 924 INTRA-LIGAND FREE ENERGY PREDICTED BY IDOCK:   -0.27 KCAL/MOL
REMARK 927      BINDING AFFINITY PREDICTED BY RF-SCORE:    0.00 PKD
ROOT
HETATM    1  N   UNL     1     -13.132   7.694  72.117  1.00  0.00    -0.508 N  
HETATM    2  C   UNL     1     -11.875   8.215  71.960  1.00  0.00    -0.338 C  
HETATM    3  H1  UNL     1     -13.851   7.836  71.407  1.00  0.00     0.000 HD 
HETATM    4  H2  UNL     1     -13.353   7.156  72.955  1.00  0.00     0.000 HD 
HETATM    5  O   UNL     1     -11.011   8.044  72.814  1.00  0.00    -0.363 OA 
ENDROOT
BRANCH   2   6
HETATM    6  C   UNL     1     -11.651   9.033  70.705  1.00  0.00    -0.265 C  
BRANCH   6   7
HETATM    7  S   UNL     1     -12.863  10.381  70.638  1.00  0.00    -0.244 S  
HETATM    8  O   UNL     1     -13.397  10.542  72.037  1.00  0.00    -0.434 OA 
BRANCH   7   9
HETATM    9  C   UNL     1     -11.686  11.777  70.323  1.00  0.00    -0.228 C  
BRANCH   9  10
HETATM   10  C   UNL     1     -11.073  11.789  68.927  1.00  0.00    -0.297 A  
HETATM   11  C   UNL     1     -11.910  11.951  67.807  1.00  0.00    -0.289 A  
HETATM   12  C   UNL     1      -9.704  11.580  68.696  1.00  0.00    -0.172 A  
HETATM   13  C   UNL     1     -11.396  11.903  66.507  1.00  0.00    -0.403 A  
HETATM   14  C   UNL     1     -10.040  11.681  66.303  1.00  0.00    -0.254 A  
HETATM   15  C   UNL     1      -9.193  11.518  67.396  1.00  0.00    -0.166 A  
ENDBRANCH   9  10
BRANCH   9  16
HETATM   16  C   UNL     1     -12.340  13.107  70.701  1.00  0.00    -0.405 A  
HETATM   17  C   UNL     1     -12.292  15.543  70.696  1.00  0.00    -0.462 A  
HETATM   18  C   UNL     1     -14.073  14.394  71.840  1.00  0.00    -0.596 A  
HETATM   19  C   UNL     1     -11.741  14.317  70.313  1.00  0.00    -0.343 A  
HETATM   20  C   UNL     1     -13.521  13.169  71.464  1.00  0.00    -0.215 A  
HETATM   21  C   UNL     1     -13.457  15.581  71.461  1.00  0.00    -0.582 A  
ENDBRANCH   9  16
ENDBRANCH   7   9
ENDBRANCH   6   7
ENDBRANCH   2   6
TORSDOF 5
ENDMDL
MODEL       80
REMARK 921   NORMALIZED FREE ENERGY PREDICTED BY IDOCK:   -4.51 KCAL/MOL
REMARK 922        TOTAL FREE ENERGY PREDICTED BY IDOCK:   -6.84 KCAL/MOL
REMARK 923 INTER-LIGAND FREE ENERGY PREDICTED BY IDOCK:   -6.22 KCAL/MOL
REMARK 924 INTRA-LIGAND FREE ENERGY PREDICTED BY IDOCK:   -0.61 KCAL/MOL
REMARK 927      BINDING AFFINITY PREDICTED BY RF-SCORE:    0.00 PKD
ROOT
HETATM    1  N   UNL     1     -13.816   9.141  72.721  1.00  0.00    -0.873 N  
HETATM    2  C   UNL     1     -12.730   8.561  72.121  1.00  0.00    -0.373 C  
HETATM    3  H1  UNL     1     -13.911  10.156  72.766  1.00  0.00     0.000 HD 
HETATM    4  H2  UNL     1     -14.540   8.549  73.130  1.00  0.00     0.000 HD 
HETATM    5  O   UNL     1     -12.616   7.340  72.068  1.00  0.00    -0.288 OA 
ENDROOT
BRANCH   2   6
HETATM    6  C   UNL     1     -11.687   9.516  71.579  1.00  0.00    -0.402 C  
BRANCH   6   7
HETATM    7  S   UNL     1     -12.470  10.675  70.425  1.00  0.00    -0.309 S  
HETATM    8  O   UNL     1     -12.929  11.850  71.248  1.00  0.00    -0.348 OA 
BRANCH   7   9
HETATM    9  C   UNL     1     -10.951  11.196  69.503  1.00  0.00    -0.220 C  
BRANCH   9  10
HETATM   10  C   UNL     1     -10.069  10.045  69.029  1.00  0.00    -0.211 A  
HETATM   11  C   UNL     1      -8.673  10.136  69.183  1.00  0.00    -0.173 A  
HETATM   12  C   UNL     1     -10.582   8.912  68.379  1.00  0.00    -0.190 A  
HETATM   13  C   UNL     1      -7.826   9.133  68.703  1.00  0.00    -0.097 A  
HETATM   14  C   UNL     1      -8.356   8.027  68.050  1.00  0.00    -0.126 A  
HETATM   15  C   UNL     1      -9.734   7.915  67.886  1.00  0.00    -0.184 A  
ENDBRANCH   9  10
BRANCH   9  16
HETATM   16  C   UNL     1     -11.327  12.164  68.379  1.00  0.00    -0.336 A  
HETATM   17  C   UNL     1     -12.000  14.395  67.671  1.00  0.00    -0.378 A  
HETATM   18  C   UNL     1     -11.837  12.631  66.039  1.00  0.00    -0.492 A  
HETATM   19  C   UNL     1     -11.600  13.510  68.675  1.00  0.00    -0.365 A  
HETATM   20  C   UNL     1     -11.445  11.744  67.041  1.00  0.00    -0.368 A  
HETATM   21  C   UNL     1     -12.120  13.956  66.354  1.00  0.00    -0.489 A  
ENDBRANCH   9  16
ENDBRANCH   7   9
ENDBRANCH   6   7
ENDBRANCH   2   6
TORSDOF 5
ENDMDL
MODEL       81
REMARK 921   NORMALIZED FREE ENERGY PREDICTED BY IDOCK:   -4.51 KCAL/MOL
REMARK 922        TOTAL FREE ENERGY PREDICTED BY IDOCK:   -6.83 KCAL/MOL
REMARK 923 INTER-LIGAND FREE ENERGY PREDICTED BY IDOCK:   -6.47 KCAL/MOL
REMARK 924 INTRA-LIGAND FREE ENERGY PREDICTED BY IDOCK:   -0.37 KCAL/MOL
REMARK 927      BINDING AFFINITY PREDICTED BY RF-SCORE:    0.00 PKD
ROOT
HETATM    1  N   UNL     1      -9.458  11.644  64.589  1.00  0.00    -0.414 N  
HETATM    2  C   UNL     1     -10.349  12.508  65.168  1.00  0.00    -0.289 C  
HETATM    3  H1  UNL     1      -9.502  10.641  64.776  1.00  0.00     0.000 HD 
HETATM    4  H2  UNL     1      -8.740  12.007  63.961  1.00  0.00     0.000 HD 
HETATM    5  O   UNL     1     -10.296  13.713  64.942  1.00  0.00    -0.377 OA 
ENDROOT
BRANCH   2   6
HETATM    6  C   UNL     1     -11.352  11.884  66.115  1.00  0.00    -0.324 C  
BRANCH   6   7
HETATM    7  S   UNL     1     -10.508  11.369  67.636  1.00  0.00    -0.203 S  
HETATM    8  O   UNL     1      -9.454  12.409  67.910  1.00  0.00    -0.185 OA 
BRANCH   7   9
HETATM    9  C   UNL     1     -11.902  11.657  68.821  1.00  0.00    -0.325 C  
BRANCH   9  10
HETATM   10  C   UNL     1     -11.953  10.682  69.993  1.00  0.00    -0.408 A  
HETATM   11  C   UNL     1     -10.798   9.955  70.336  1.00  0.00    -0.380 A  
HETATM   12  C   UNL     1     -13.128  10.424  70.717  1.00  0.00    -0.362 A  
HETATM   13  C   UNL     1     -10.821   9.004  71.361  1.00  0.00    -0.400 A  
HETATM   14  C   UNL     1     -11.999   8.755  72.054  1.00  0.00    -0.446 A  
HETATM   15  C   UNL     1     -13.154   9.464  71.733  1.00  0.00    -0.488 A  
ENDBRANCH   9  10
BRANCH   9  16
HETATM   16  C   UNL     1     -11.919  13.123  69.262  1.00  0.00    -0.344 A  
HETATM   17  C   UNL     1     -11.981  15.487  68.678  1.00  0.00    -0.231 A  
HETATM   18  C   UNL     1     -11.769  14.840  70.988  1.00  0.00    -0.358 A  
HETATM   19  C   UNL     1     -12.021  14.142  68.300  1.00  0.00    -0.367 A  
HETATM   20  C   UNL     1     -11.801  13.497  70.613  1.00  0.00    -0.200 A  
HETATM   21  C   UNL     1     -11.853  15.835  70.021  1.00  0.00    -0.365 A  
ENDBRANCH   9  16
ENDBRANCH   7   9
ENDBRANCH   6   7
ENDBRANCH   2   6
TORSDOF 5
ENDMDL
MODEL       82
REMARK 921   NORMALIZED FREE ENERGY PREDICTED BY IDOCK:   -4.51 KCAL/MOL
REMARK 922        TOTAL FREE ENERGY PREDICTED BY IDOCK:   -6.83 KCAL/MOL
REMARK 923 INTER-LIGAND FREE ENERGY PREDICTED BY IDOCK:   -6.30 KCAL/MOL
REMARK 924 INTRA-LIGAND FREE ENERGY PREDICTED BY IDOCK:   -0.53 KCAL/MOL
REMARK 927      BINDING AFFINITY PREDICTED BY RF-SCORE:    0.00 PKD
ROOT
HETATM    1  N   UNL     1      -6.982  13.158  69.526  1.00  0.00    -0.328 N  
HETATM    2  C   UNL     1      -6.638  14.482  69.463  1.00  0.00    -0.143 C  
HETATM    3  H1  UNL     1      -7.936  12.854  69.328  1.00  0.00     0.000 HD 
HETATM    4  H2  UNL     1      -6.275  12.466  69.775  1.00  0.00     0.000 HD 
HETATM    5  O   UNL     1      -5.491  14.848  69.701  1.00  0.00    -0.093 OA 
ENDROOT
BRANCH   2   6
HETATM    6  C   UNL     1      -7.762  15.441  69.126  1.00  0.00    -0.207 C  
BRANCH   6   7
HETATM    7  S   UNL     1      -8.176  15.292  67.367  1.00  0.00    -0.201 S  
HETATM    8  O   UNL     1      -8.203  13.818  67.060  1.00  0.00    -0.144 OA 
BRANCH   7   9
HETATM    9  C   UNL     1      -9.931  15.878  67.460  1.00  0.00    -0.238 C  
BRANCH   9  10
HETATM   10  C   UNL     1     -10.102  17.391  67.376  1.00  0.00    -0.321 A  
HETATM   11  C   UNL     1     -10.234  18.002  66.115  1.00  0.00    -0.364 A  
HETATM   12  C   UNL     1     -10.069  18.224  68.505  1.00  0.00    -0.419 A  
HETATM   13  C   UNL     1     -10.328  19.391  65.990  1.00  0.00    -0.584 A  
HETATM   14  C   UNL     1     -10.279  20.196  67.121  1.00  0.00    -0.554 A  
HETATM   15  C   UNL     1     -10.149  19.614  68.380  1.00  0.00    -0.557 A  
ENDBRANCH   9  10
BRANCH   9  16
HETATM   16  C   UNL     1     -10.789  15.122  66.444  1.00  0.00    -0.326 A  
HETATM   17  C   UNL     1     -12.772  13.797  65.947  1.00  0.00    -0.452 A  
HETATM   18  C   UNL     1     -11.161  14.219  64.207  1.00  0.00    -0.149 A  
HETATM   19  C   UNL     1     -12.003  14.539  66.847  1.00  0.00    -0.371 A  
HETATM   20  C   UNL     1     -10.388  14.955  65.106  1.00  0.00    -0.431 A  
HETATM   21  C   UNL     1     -12.351  13.635  64.629  1.00  0.00    -0.413 A  
ENDBRANCH   9  16
ENDBRANCH   7   9
ENDBRANCH   6   7
ENDBRANCH   2   6
TORSDOF 5
ENDMDL
MODEL       83
REMARK 921   NORMALIZED FREE ENERGY PREDICTED BY IDOCK:   -4.50 KCAL/MOL
REMARK 922        TOTAL FREE ENERGY PREDICTED BY IDOCK:   -6.82 KCAL/MOL
REMARK 923 INTER-LIGAND FREE ENERGY PREDICTED BY IDOCK:   -5.84 KCAL/MOL
REMARK 924 INTRA-LIGAND FREE ENERGY PREDICTED BY IDOCK:   -0.98 KCAL/MOL
REMARK 927      BINDING AFFINITY PREDICTED BY RF-SCORE:    0.00 PKD
ROOT
HETATM    1  N   UNL     1     -13.096   9.935  70.408  1.00  0.00    -0.576 N  
HETATM    2  C   UNL     1     -11.760   9.795  70.677  1.00  0.00    -0.300 C  
HETATM    3  H1  UNL     1     -13.414  10.397  69.555  1.00  0.00     0.000 HD 
HETATM    4  H2  UNL     1     -13.784   9.572  71.069  1.00  0.00     0.000 HD 
HETATM    5  O   UNL     1     -11.379   9.240  71.703  1.00  0.00    -0.358 OA 
ENDROOT
BRANCH   2   6
HETATM    6  C   UNL     1     -10.815  10.400  69.660  1.00  0.00    -0.277 C  
BRANCH   6   7
HETATM    7  S   UNL     1     -11.697  11.647  68.682  1.00  0.00    -0.317 S  
HETATM    8  O   UNL     1     -11.996  12.789  69.619  1.00  0.00    -0.314 OA 
BRANCH   7   9
HETATM    9  C   UNL     1     -10.293  12.168  67.593  1.00  0.00    -0.203 C  
BRANCH   9  10
HETATM   10  C   UNL     1      -9.522  11.017  66.954  1.00  0.00    -0.197 A  
HETATM   11  C   UNL     1      -8.120  10.981  67.064  1.00  0.00    -0.136 A  
HETATM   12  C   UNL     1     -10.145  10.013  66.197  1.00  0.00    -0.317 A  
HETATM   13  C   UNL     1      -7.372   9.979  66.438  1.00  0.00    -0.104 A  
HETATM   14  C   UNL     1      -8.009   9.003  65.682  1.00  0.00    -0.104 A  
HETATM   15  C   UNL     1      -9.396   9.019  65.560  1.00  0.00    -0.255 A  
ENDBRANCH   9  10
BRANCH   9  16
HETATM   16  C   UNL     1     -10.777  13.202  66.573  1.00  0.00    -0.288 A  
HETATM   17  C   UNL     1     -12.523  14.019  65.084  1.00  0.00    -0.472 A  
HETATM   18  C   UNL     1     -10.387  15.131  65.131  1.00  0.00    -0.416 A  
HETATM   19  C   UNL     1     -12.082  13.120  66.058  1.00  0.00    -0.495 A  
HETATM   20  C   UNL     1      -9.942  14.229  66.098  1.00  0.00    -0.330 A  
HETATM   21  C   UNL     1     -11.675  15.023  64.620  1.00  0.00    -0.383 A  
ENDBRANCH   9  16
ENDBRANCH   7   9
ENDBRANCH   6   7
ENDBRANCH   2   6
TORSDOF 5
ENDMDL
MODEL       84
REMARK 921   NORMALIZED FREE ENERGY PREDICTED BY IDOCK:   -4.47 KCAL/MOL
REMARK 922        TOTAL FREE ENERGY PREDICTED BY IDOCK:   -6.78 KCAL/MOL
REMARK 923 INTER-LIGAND FREE ENERGY PREDICTED BY IDOCK:   -6.09 KCAL/MOL
REMARK 924 INTRA-LIGAND FREE ENERGY PREDICTED BY IDOCK:   -0.69 KCAL/MOL
REMARK 927      BINDING AFFINITY PREDICTED BY RF-SCORE:    0.00 PKD
ROOT
HETATM    1  N   UNL     1     -12.477  14.473  68.867  1.00  0.00    -0.569 N  
HETATM    2  C   UNL     1     -12.006  13.808  67.767  1.00  0.00    -0.356 C  
HETATM    3  H1  UNL     1     -12.945  15.375  68.775  1.00  0.00     0.000 HD 
HETATM    4  H2  UNL     1     -12.358  14.062  69.794  1.00  0.00     0.000 HD 
HETATM    5  O   UNL     1     -11.443  12.723  67.879  1.00  0.00    -0.275 OA 
ENDROOT
BRANCH   2   6
HETATM    6  C   UNL     1     -12.191  14.514  66.440  1.00  0.00    -0.252 C  
BRANCH   6   7
HETATM    7  S   UNL     1     -10.576  15.049  65.809  1.00  0.00    -0.364 S  
HETATM    8  O   UNL     1     -10.853  16.128  64.795  1.00  0.00    -0.634 OA 
BRANCH   7   9
HETATM    9  C   UNL     1      -9.953  15.871  67.347  1.00  0.00    -0.239 C  
BRANCH   9  10
HETATM   10  C   UNL     1      -8.729  15.207  67.972  1.00  0.00    -0.165 A  
HETATM   11  C   UNL     1      -8.231  15.691  69.195  1.00  0.00    -0.248 A  
HETATM   12  C   UNL     1      -8.028  14.164  67.347  1.00  0.00    -0.201 A  
HETATM   13  C   UNL     1      -7.074  15.153  69.768  1.00  0.00    -0.169 A  
HETATM   14  C   UNL     1      -6.389  14.131  69.124  1.00  0.00    -0.106 A  
HETATM   15  C   UNL     1      -6.864  13.635  67.912  1.00  0.00    -0.155 A  
ENDBRANCH   9  10
BRANCH   9  16
HETATM   16  C   UNL     1      -9.759  17.368  67.098  1.00  0.00    -0.267 A  
HETATM   17  C   UNL     1     -10.646  19.636  67.158  1.00  0.00    -0.611 A  
HETATM   18  C   UNL     1      -8.452  19.244  66.245  1.00  0.00    -0.328 A  
HETATM   19  C   UNL     1     -10.782  18.272  67.430  1.00  0.00    -0.377 A  
HETATM   20  C   UNL     1      -8.588  17.881  66.509  1.00  0.00    -0.279 A  
HETATM   21  C   UNL     1      -9.482  20.121  66.564  1.00  0.00    -0.497 A  
ENDBRANCH   9  16
ENDBRANCH   7   9
ENDBRANCH   6   7
ENDBRANCH   2   6
TORSDOF 5
ENDMDL
MODEL       85
REMARK 921   NORMALIZED FREE ENERGY PREDICTED BY IDOCK:   -4.46 KCAL/MOL
REMARK 922        TOTAL FREE ENERGY PREDICTED BY IDOCK:   -6.76 KCAL/MOL
REMARK 923 INTER-LIGAND FREE ENERGY PREDICTED BY IDOCK:   -5.78 KCAL/MOL
REMARK 924 INTRA-LIGAND FREE ENERGY PREDICTED BY IDOCK:   -0.98 KCAL/MOL
REMARK 927      BINDING AFFINITY PREDICTED BY RF-SCORE:    0.00 PKD
ROOT
HETATM    1  N   UNL     1     -13.797  15.318  71.684  1.00  0.00    -0.483 N  
HETATM    2  C   UNL     1     -12.520  14.834  71.782  1.00  0.00    -0.343 C  
HETATM    3  H1  UNL     1     -14.418  15.013  70.934  1.00  0.00     0.000 HD 
HETATM    4  H2  UNL     1     -14.133  15.994  72.371  1.00  0.00     0.000 HD 
HETATM    5  O   UNL     1     -11.773  15.201  72.684  1.00  0.00    -0.409 OA 
ENDROOT
BRANCH   2   6
HETATM    6  C   UNL     1     -12.096  13.867  70.695  1.00  0.00    -0.347 C  
BRANCH   6   7
HETATM    7  S   UNL     1     -12.253  14.670  69.076  1.00  0.00    -0.091 S  
HETATM    8  O   UNL     1     -12.035  16.143  69.310  1.00  0.00    -0.264 OA 
BRANCH   7   9
HETATM    9  C   UNL     1     -10.716  13.993  68.297  1.00  0.00    -0.254 C  
BRANCH   9  10
HETATM   10  C   UNL     1     -10.938  13.283  66.965  1.00  0.00    -0.291 A  
HETATM   11  C   UNL     1     -12.153  13.467  66.279  1.00  0.00    -0.475 A  
HETATM   12  C   UNL     1     -10.003  12.393  66.413  1.00  0.00    -0.254 A  
HETATM   13  C   UNL     1     -12.421  12.783  65.089  1.00  0.00    -0.565 A  
HETATM   14  C   UNL     1     -11.487  11.896  64.569  1.00  0.00    -0.363 A  
HETATM   15  C   UNL     1     -10.277  11.699  65.230  1.00  0.00    -0.316 A  
ENDBRANCH   9  10
BRANCH   9  16
HETATM   16  C   UNL     1      -9.644  15.083  68.221  1.00  0.00    -0.210 A  
HETATM   17  C   UNL     1      -8.537  16.852  66.965  1.00  0.00    -0.229 A  
HETATM   18  C   UNL     1      -7.713  16.253  69.148  1.00  0.00    -0.229 A  
HETATM   19  C   UNL     1      -9.545  15.891  67.076  1.00  0.00    -0.232 A  
HETATM   20  C   UNL     1      -8.715  15.288  69.258  1.00  0.00    -0.237 A  
HETATM   21  C   UNL     1      -7.621  17.032  68.000  1.00  0.00    -0.183 A  
ENDBRANCH   9  16
ENDBRANCH   7   9
ENDBRANCH   6   7
ENDBRANCH   2   6
TORSDOF 5
ENDMDL
MODEL       86
REMARK 921   NORMALIZED FREE ENERGY PREDICTED BY IDOCK:   -4.45 KCAL/MOL
REMARK 922        TOTAL FREE ENERGY PREDICTED BY IDOCK:   -6.75 KCAL/MOL
REMARK 923 INTER-LIGAND FREE ENERGY PREDICTED BY IDOCK:   -5.62 KCAL/MOL
REMARK 924 INTRA-LIGAND FREE ENERGY PREDICTED BY IDOCK:   -1.13 KCAL/MOL
REMARK 927      BINDING AFFINITY PREDICTED BY RF-SCORE:    0.00 PKD
ROOT
HETATM    1  N   UNL     1     -14.115   8.948  73.128  1.00  0.00    -0.774 N  
HETATM    2  C   UNL     1     -13.819   8.726  71.809  1.00  0.00    -0.423 C  
HETATM    3  H1  UNL     1     -13.780   9.783  73.608  1.00  0.00     0.000 HD 
HETATM    4  H2  UNL     1     -14.679   8.267  73.638  1.00  0.00     0.000 HD 
HETATM    5  O   UNL     1     -14.222   7.721  71.232  1.00  0.00    -0.362 OA 
ENDROOT
BRANCH   2   6
HETATM    6  C   UNL     1     -12.943   9.769  71.146  1.00  0.00    -0.348 C  
BRANCH   6   7
HETATM    7  S   UNL     1     -11.199   9.321  71.365  1.00  0.00    -0.384 S  
HETATM    8  O   UNL     1     -11.145   8.387  72.546  1.00  0.00    -0.361 OA 
BRANCH   7   9
HETATM    9  C   UNL     1     -10.994   8.301  69.833  1.00  0.00    -0.166 C  
BRANCH   9  10
HETATM   10  C   UNL     1     -10.503   9.075  68.614  1.00  0.00    -0.229 A  
HETATM   11  C   UNL     1     -10.122  10.422  68.759  1.00  0.00    -0.198 A  
HETATM   12  C   UNL     1     -10.472   8.522  67.324  1.00  0.00    -0.366 A  
HETATM   13  C   UNL     1      -9.728  11.185  67.655  1.00  0.00    -0.184 A  
HETATM   14  C   UNL     1      -9.720  10.621  66.387  1.00  0.00    -0.241 A  
HETATM   15  C   UNL     1     -10.092   9.289  66.218  1.00  0.00    -0.322 A  
ENDBRANCH   9  10
BRANCH   9  16
HETATM   16  C   UNL     1     -10.146   7.065  70.137  1.00  0.00    -0.197 A  
HETATM   17  C   UNL     1      -7.964   6.078  70.588  1.00  0.00    -0.111 A  
HETATM   18  C   UNL     1      -9.896   4.651  70.395  1.00  0.00    -0.306 A  
HETATM   19  C   UNL     1      -8.766   7.201  70.365  1.00  0.00    -0.150 A  
HETATM   20  C   UNL     1     -10.696   5.770  70.165  1.00  0.00    -0.390 A  
HETATM   21  C   UNL     1      -8.529   4.803  70.601  1.00  0.00    -0.106 A  
ENDBRANCH   9  16
ENDBRANCH   7   9
ENDBRANCH   6   7
ENDBRANCH   2   6
TORSDOF 5
ENDMDL
MODEL       87
REMARK 921   NORMALIZED FREE ENERGY PREDICTED BY IDOCK:   -4.44 KCAL/MOL
REMARK 922        TOTAL FREE ENERGY PREDICTED BY IDOCK:   -6.74 KCAL/MOL
REMARK 923 INTER-LIGAND FREE ENERGY PREDICTED BY IDOCK:   -6.76 KCAL/MOL
REMARK 924 INTRA-LIGAND FREE ENERGY PREDICTED BY IDOCK:    0.02 KCAL/MOL
REMARK 927      BINDING AFFINITY PREDICTED BY RF-SCORE:    0.00 PKD
ROOT
HETATM    1  N   UNL     1     -10.816   7.046  66.768  1.00  0.00    -0.530 N  
HETATM    2  C   UNL     1     -10.420   8.157  67.464  1.00  0.00    -0.256 C  
HETATM    3  H1  UNL     1     -10.870   7.058  65.749  1.00  0.00     0.000 HD 
HETATM    4  H2  UNL     1     -11.061   6.195  67.275  1.00  0.00     0.000 HD 
HETATM    5  O   UNL     1     -10.356   8.143  68.689  1.00  0.00    -0.205 OA 
ENDROOT
BRANCH   2   6
HETATM    6  C   UNL     1     -10.117   9.385  66.631  1.00  0.00    -0.262 C  
BRANCH   6   7
HETATM    7  S   UNL     1      -9.739  10.781  67.726  1.00  0.00    -0.164 S  
HETATM    8  O   UNL     1      -8.856  11.713  66.937  1.00  0.00    -0.176 OA 
BRANCH   7   9
HETATM    9  C   UNL     1     -11.431  11.531  67.790  1.00  0.00    -0.286 C  
BRANCH   9  10
HETATM   10  C   UNL     1     -11.907  11.909  69.189  1.00  0.00    -0.371 A  
HETATM   11  C   UNL     1     -12.306  10.895  70.080  1.00  0.00    -0.385 A  
HETATM   12  C   UNL     1     -12.029  13.240  69.616  1.00  0.00    -0.376 A  
HETATM   13  C   UNL     1     -12.810  11.204  71.347  1.00  0.00    -0.544 A  
HETATM   14  C   UNL     1     -12.935  12.529  71.742  1.00  0.00    -0.419 A  
HETATM   15  C   UNL     1     -12.546  13.549  70.878  1.00  0.00    -0.414 A  
ENDBRANCH   9  10
BRANCH   9  16
HETATM   16  C   UNL     1     -11.528  12.688  66.792  1.00  0.00    -0.410 A  
HETATM   17  C   UNL     1     -12.188  13.514  64.598  1.00  0.00    -0.450 A  
HETATM   18  C   UNL     1     -11.044  14.984  66.125  1.00  0.00    -0.329 A  
HETATM   19  C   UNL     1     -12.140  12.486  65.544  1.00  0.00    -0.481 A  
HETATM   20  C   UNL     1     -10.989  13.958  67.068  1.00  0.00    -0.301 A  
HETATM   21  C   UNL     1     -11.639  14.762  64.888  1.00  0.00    -0.401 A  
ENDBRANCH   9  16
ENDBRANCH   7   9
ENDBRANCH   6   7
ENDBRANCH   2   6
TORSDOF 5
ENDMDL
MODEL       88
REMARK 921   NORMALIZED FREE ENERGY PREDICTED BY IDOCK:   -4.44 KCAL/MOL
REMARK 922        TOTAL FREE ENERGY PREDICTED BY IDOCK:   -6.74 KCAL/MOL
REMARK 923 INTER-LIGAND FREE ENERGY PREDICTED BY IDOCK:   -6.69 KCAL/MOL
REMARK 924 INTRA-LIGAND FREE ENERGY PREDICTED BY IDOCK:   -0.04 KCAL/MOL
REMARK 927      BINDING AFFINITY PREDICTED BY RF-SCORE:    0.00 PKD
ROOT
HETATM    1  N   UNL     1     -12.412  14.350  63.592  1.00  0.00    -1.086 N  
HETATM    2  C   UNL     1     -12.576  13.598  64.726  1.00  0.00    -0.295 C  
HETATM    3  H1  UNL     1     -11.871  15.215  63.610  1.00  0.00     0.000 HD 
HETATM    4  H2  UNL     1     -12.837  14.041  62.717  1.00  0.00     0.000 HD 
HETATM    5  O   UNL     1     -13.226  12.558  64.703  1.00  0.00    -0.848 OA 
ENDROOT
BRANCH   2   6
HETATM    6  C   UNL     1     -11.945  14.156  65.984  1.00  0.00    -0.413 C  
BRANCH   6   7
HETATM    7  S   UNL     1     -10.323  14.864  65.586  1.00  0.00    -0.379 S  
HETATM    8  O   UNL     1     -10.580  16.266  65.099  1.00  0.00    -0.576 OA 
BRANCH   7   9
HETATM    9  C   UNL     1      -9.657  14.982  67.310  1.00  0.00    -0.207 C  
BRANCH   9  10
HETATM   10  C   UNL     1     -10.691  14.756  68.408  1.00  0.00    -0.243 A  
HETATM   11  C   UNL     1     -10.988  13.442  68.816  1.00  0.00    -0.290 A  
HETATM   12  C   UNL     1     -11.417  15.803  68.996  1.00  0.00    -0.394 A  
HETATM   13  C   UNL     1     -11.976  13.188  69.773  1.00  0.00    -0.382 A  
HETATM   14  C   UNL     1     -12.691  14.240  70.331  1.00  0.00    -0.355 A  
HETATM   15  C   UNL     1     -12.414  15.549  69.943  1.00  0.00    -0.243 A  
ENDBRANCH   9  10
BRANCH   9  16
HETATM   16  C   UNL     1      -8.424  14.088  67.456  1.00  0.00    -0.201 A  
HETATM   17  C   UNL     1      -7.432  11.863  67.434  1.00  0.00    -0.148 A  
HETATM   18  C   UNL     1      -6.068  13.765  68.007  1.00  0.00    -0.140 A  
HETATM   19  C   UNL     1      -8.534  12.703  67.249  1.00  0.00    -0.193 A  
HETATM   20  C   UNL     1      -7.169  14.604  67.830  1.00  0.00    -0.191 A  
HETATM   21  C   UNL     1      -6.201  12.394  67.814  1.00  0.00    -0.111 A  
ENDBRANCH   9  16
ENDBRANCH   7   9
ENDBRANCH   6   7
ENDBRANCH   2   6
TORSDOF 5
ENDMDL
MODEL       89
REMARK 921   NORMALIZED FREE ENERGY PREDICTED BY IDOCK:   -4.43 KCAL/MOL
REMARK 922        TOTAL FREE ENERGY PREDICTED BY IDOCK:   -6.73 KCAL/MOL
REMARK 923 INTER-LIGAND FREE ENERGY PREDICTED BY IDOCK:   -5.83 KCAL/MOL
REMARK 924 INTRA-LIGAND FREE ENERGY PREDICTED BY IDOCK:   -0.90 KCAL/MOL
REMARK 927      BINDING AFFINITY PREDICTED BY RF-SCORE:    0.00 PKD
ROOT
HETATM    1  N   UNL     1      -8.821   8.279  64.539  1.00  0.00    -0.386 N  
HETATM    2  C   UNL     1      -9.140   9.611  64.498  1.00  0.00    -0.236 C  
HETATM    3  H1  UNL     1      -8.613   7.817  65.424  1.00  0.00     0.000 HD 
HETATM    4  H2  UNL     1      -8.790   7.742  63.672  1.00  0.00     0.000 HD 
HETATM    5  O   UNL     1      -9.389  10.166  63.432  1.00  0.00    -0.273 OA 
ENDROOT
BRANCH   2   6
HETATM    6  C   UNL     1      -9.120  10.336  65.827  1.00  0.00    -0.170 C  
BRANCH   6   7
HETATM    7  S   UNL     1     -10.572   9.853  66.801  1.00  0.00    -0.093 S  
HETATM    8  O   UNL     1     -10.311   8.450  67.285  1.00  0.00    -0.248 OA 
BRANCH   7   9
HETATM    9  C   UNL     1     -10.320  10.997  68.235  1.00  0.00    -0.178 C  
BRANCH   9  10
HETATM   10  C   UNL     1     -10.756  12.438  67.983  1.00  0.00    -0.247 A  
HETATM   11  C   UNL     1     -11.704  12.706  66.979  1.00  0.00    -0.438 A  
HETATM   12  C   UNL     1     -10.203  13.530  68.670  1.00  0.00    -0.193 A  
HETATM   13  C   UNL     1     -12.081  14.018  66.674  1.00  0.00    -0.487 A  
HETATM   14  C   UNL     1     -11.510  15.083  67.357  1.00  0.00    -0.326 A  
HETATM   15  C   UNL     1     -10.570  14.842  68.356  1.00  0.00    -0.242 A  
ENDBRANCH   9  10
BRANCH   9  16
HETATM   16  C   UNL     1     -10.939  10.397  69.498  1.00  0.00    -0.307 A  
HETATM   17  C   UNL     1     -12.846  10.181  70.999  1.00  0.00    -0.474 A  
HETATM   18  C   UNL     1     -10.768   9.098  71.557  1.00  0.00    -0.437 A  
HETATM   19  C   UNL     1     -12.279  10.673  69.821  1.00  0.00    -0.318 A  
HETATM   20  C   UNL     1     -10.198   9.594  70.384  1.00  0.00    -0.348 A  
HETATM   21  C   UNL     1     -12.090   9.395  71.868  1.00  0.00    -0.427 A  
ENDBRANCH   9  16
ENDBRANCH   7   9
ENDBRANCH   6   7
ENDBRANCH   2   6
TORSDOF 5
ENDMDL
MODEL       90
REMARK 921   NORMALIZED FREE ENERGY PREDICTED BY IDOCK:   -4.42 KCAL/MOL
REMARK 922        TOTAL FREE ENERGY PREDICTED BY IDOCK:   -6.72 KCAL/MOL
REMARK 923 INTER-LIGAND FREE ENERGY PREDICTED BY IDOCK:   -5.90 KCAL/MOL
REMARK 924 INTRA-LIGAND FREE ENERGY PREDICTED BY IDOCK:   -0.82 KCAL/MOL
REMARK 927      BINDING AFFINITY PREDICTED BY RF-SCORE:    0.00 PKD
ROOT
HETATM    1  N   UNL     1     -11.850  13.199  70.504  1.00  0.00    -0.535 N  
HETATM    2  C   UNL     1     -12.426  11.969  70.680  1.00  0.00    -0.247 C  
HETATM    3  H1  UNL     1     -11.248  13.386  69.701  1.00  0.00     0.000 HD 
HETATM    4  H2  UNL     1     -12.024  13.939  71.185  1.00  0.00     0.000 HD 
HETATM    5  O   UNL     1     -13.150  11.745  71.645  1.00  0.00    -0.441 OA 
ENDROOT
BRANCH   2   6
HETATM    6  C   UNL     1     -12.078  10.922  69.643  1.00  0.00    -0.329 C  
BRANCH   6   7
HETATM    7  S   UNL     1     -10.466  11.312  68.908  1.00  0.00    -0.188 S  
HETATM    8  O   UNL     1      -9.502  10.275  69.425  1.00  0.00    -0.207 OA 
BRANCH   7   9
HETATM    9  C   UNL     1     -10.866  10.880  67.152  1.00  0.00    -0.280 C  
BRANCH   9  10
HETATM   10  C   UNL     1     -11.455  12.025  66.334  1.00  0.00    -0.417 A  
HETATM   11  C   UNL     1     -11.605  11.874  64.943  1.00  0.00    -0.290 A  
HETATM   12  C   UNL     1     -11.800  13.263  66.899  1.00  0.00    -0.446 A  
HETATM   13  C   UNL     1     -12.080  12.922  64.149  1.00  0.00    -0.503 A  
HETATM   14  C   UNL     1     -12.402  14.143  64.728  1.00  0.00    -0.436 A  
HETATM   15  C   UNL     1     -12.262  14.316  66.103  1.00  0.00    -0.430 A  
ENDBRANCH   9  10
BRANCH   9  16
HETATM   16  C   UNL     1      -9.652  10.231  66.484  1.00  0.00    -0.228 A  
HETATM   17  C   UNL     1      -8.572   8.246  65.574  1.00  0.00    -0.183 A  
HETATM   18  C   UNL     1      -7.354  10.322  65.669  1.00  0.00    -0.149 A  
HETATM   19  C   UNL     1      -9.690   8.871  66.133  1.00  0.00    -0.338 A  
HETATM   20  C   UNL     1      -8.467  10.946  66.233  1.00  0.00    -0.166 A  
HETATM   21  C   UNL     1      -7.404   8.971  65.344  1.00  0.00    -0.085 A  
ENDBRANCH   9  16
ENDBRANCH   7   9
ENDBRANCH   6   7
ENDBRANCH   2   6
TORSDOF 5
ENDMDL
MODEL       91
REMARK 921   NORMALIZED FREE ENERGY PREDICTED BY IDOCK:   -4.42 KCAL/MOL
REMARK 922        TOTAL FREE ENERGY PREDICTED BY IDOCK:   -6.71 KCAL/MOL
REMARK 923 INTER-LIGAND FREE ENERGY PREDICTED BY IDOCK:   -6.59 KCAL/MOL
REMARK 924 INTRA-LIGAND FREE ENERGY PREDICTED BY IDOCK:   -0.13 KCAL/MOL
REMARK 927      BINDING AFFINITY PREDICTED BY RF-SCORE:    0.00 PKD
ROOT
HETATM    1  N   UNL     1     -11.524  12.534  63.034  1.00  0.00    -0.715 N  
HETATM    2  C   UNL     1     -11.758  13.466  64.011  1.00  0.00    -0.416 C  
HETATM    3  H1  UNL     1     -10.586  12.169  62.871  1.00  0.00     0.000 HD 
HETATM    4  H2  UNL     1     -12.300  12.201  62.461  1.00  0.00     0.000 HD 
HETATM    5  O   UNL     1     -12.887  13.905  64.206  1.00  0.00    -0.618 OA 
ENDROOT
BRANCH   2   6
HETATM    6  C   UNL     1     -10.541  13.931  64.783  1.00  0.00    -0.426 C  
BRANCH   6   7
HETATM    7  S   UNL     1     -10.899  13.885  66.560  1.00  0.00    -0.297 S  
HETATM    8  O   UNL     1     -12.278  14.465  66.731  1.00  0.00    -0.420 OA 
BRANCH   7   9
HETATM    9  C   UNL     1     -11.035  12.048  66.753  1.00  0.00    -0.285 C  
BRANCH   9  10
HETATM   10  C   UNL     1      -9.844  11.261  66.215  1.00  0.00    -0.248 A  
HETATM   11  C   UNL     1      -8.550  11.565  66.679  1.00  0.00    -0.176 A  
HETATM   12  C   UNL     1      -9.969  10.279  65.220  1.00  0.00    -0.387 A  
HETATM   13  C   UNL     1      -7.426  10.912  66.163  1.00  0.00    -0.107 A  
HETATM   14  C   UNL     1      -7.573   9.954  65.169  1.00  0.00    -0.132 A  
HETATM   15  C   UNL     1      -8.843   9.637  64.695  1.00  0.00    -0.253 A  
ENDBRANCH   9  10
BRANCH   9  16
HETATM   16  C   UNL     1     -11.377  11.698  68.203  1.00  0.00    -0.358 A  
HETATM   17  C   UNL     1     -11.601  10.025  69.959  1.00  0.00    -0.279 A  
HETATM   18  C   UNL     1     -12.217  12.309  70.411  1.00  0.00    -0.371 A  
HETATM   19  C   UNL     1     -11.240  10.375  68.655  1.00  0.00    -0.305 A  
HETATM   20  C   UNL     1     -11.864  12.659  69.108  1.00  0.00    -0.349 A  
HETATM   21  C   UNL     1     -12.091  10.991  70.836  1.00  0.00    -0.444 A  
ENDBRANCH   9  16
ENDBRANCH   7   9
ENDBRANCH   6   7
ENDBRANCH   2   6
TORSDOF 5
ENDMDL
MODEL       92
REMARK 921   NORMALIZED FREE ENERGY PREDICTED BY IDOCK:   -4.41 KCAL/MOL
REMARK 922        TOTAL FREE ENERGY PREDICTED BY IDOCK:   -6.70 KCAL/MOL
REMARK 923 INTER-LIGAND FREE ENERGY PREDICTED BY IDOCK:   -6.02 KCAL/MOL
REMARK 924 INTRA-LIGAND FREE ENERGY PREDICTED BY IDOCK:   -0.68 KCAL/MOL
REMARK 927      BINDING AFFINITY PREDICTED BY RF-SCORE:    0.00 PKD
ROOT
HETATM    1  N   UNL     1      -6.266  15.067  67.946  1.00  0.00    -0.149 N  
HETATM    2  C   UNL     1      -7.220  15.256  68.910  1.00  0.00    -0.137 C  
HETATM    3  H1  UNL     1      -6.527  14.851  66.984  1.00  0.00     0.000 HD 
HETATM    4  H2  UNL     1      -5.278  15.142  68.194  1.00  0.00     0.000 HD 
HETATM    5  O   UNL     1      -6.905  15.515  70.067  1.00  0.00    -0.133 OA 
ENDROOT
BRANCH   2   6
HETATM    6  C   UNL     1      -8.656  15.084  68.460  1.00  0.00    -0.166 C  
BRANCH   6   7
HETATM    7  S   UNL     1      -8.818  13.533  67.534  1.00  0.00    -0.223 S  
HETATM    8  O   UNL     1      -8.487  12.425  68.499  1.00  0.00    -0.150 OA 
BRANCH   7   9
HETATM    9  C   UNL     1     -10.656  13.551  67.310  1.00  0.00    -0.263 C  
BRANCH   9  10
HETATM   10  C   UNL     1     -11.142  12.967  65.987  1.00  0.00    -0.308 A  
HETATM   11  C   UNL     1     -10.243  12.245  65.179  1.00  0.00    -0.305 A  
HETATM   12  C   UNL     1     -12.442  13.171  65.498  1.00  0.00    -0.516 A  
HETATM   13  C   UNL     1     -10.631  11.750  63.930  1.00  0.00    -0.445 A  
HETATM   14  C   UNL     1     -11.918  11.977  63.461  1.00  0.00    -0.605 A  
HETATM   15  C   UNL     1     -12.825  12.688  64.243  1.00  0.00    -0.306 A  
ENDBRANCH   9  10
BRANCH   9  16
HETATM   16  C   UNL     1     -11.337  12.921  68.527  1.00  0.00    -0.324 A  
HETATM   17  C   UNL     1     -12.365  13.177  70.720  1.00  0.00    -0.404 A  
HETATM   18  C   UNL     1     -12.077  10.972  69.795  1.00  0.00    -0.424 A  
HETATM   19  C   UNL     1     -11.792  13.738  69.576  1.00  0.00    -0.394 A  
HETATM   20  C   UNL     1     -11.498  11.529  68.655  1.00  0.00    -0.354 A  
HETATM   21  C   UNL     1     -12.506  11.795  70.831  1.00  0.00    -0.416 A  
ENDBRANCH   9  16
ENDBRANCH   7   9
ENDBRANCH   6   7
ENDBRANCH   2   6
TORSDOF 5
ENDMDL
MODEL       93
REMARK 921   NORMALIZED FREE ENERGY PREDICTED BY IDOCK:   -4.41 KCAL/MOL
REMARK 922        TOTAL FREE ENERGY PREDICTED BY IDOCK:   -6.70 KCAL/MOL
REMARK 923 INTER-LIGAND FREE ENERGY PREDICTED BY IDOCK:   -6.84 KCAL/MOL
REMARK 924 INTRA-LIGAND FREE ENERGY PREDICTED BY IDOCK:    0.14 KCAL/MOL
REMARK 927      BINDING AFFINITY PREDICTED BY RF-SCORE:    0.00 PKD
ROOT
HETATM    1  N   UNL     1      -9.828  18.830  68.258  1.00  0.00    -0.352 N  
HETATM    2  C   UNL     1     -10.606  17.841  67.718  1.00  0.00    -0.386 C  
HETATM    3  H1  UNL     1      -9.713  18.914  69.269  1.00  0.00     0.000 HD 
HETATM    4  H2  UNL     1      -9.356  19.493  67.642  1.00  0.00     0.000 HD 
HETATM    5  O   UNL     1     -10.743  17.740  66.503  1.00  0.00    -0.253 OA 
ENDROOT
BRANCH   2   6
HETATM    6  C   UNL     1     -11.298  16.930  68.710  1.00  0.00     0.073 C  
BRANCH   6   7
HETATM    7  S   UNL     1     -10.497  15.303  68.700  1.00  0.00    -0.243 S  
HETATM    8  O   UNL     1      -9.454  15.336  69.786  1.00  0.00    -0.218 OA 
BRANCH   7   9
HETATM    9  C   UNL     1     -11.925  14.302  69.323  1.00  0.00    -0.335 C  
BRANCH   9  10
HETATM   10  C   UNL     1     -11.698  12.793  69.311  1.00  0.00    -0.376 A  
HETATM   11  C   UNL     1     -11.198  12.180  68.147  1.00  0.00    -0.320 A  
HETATM   12  C   UNL     1     -12.027  11.967  70.396  1.00  0.00    -0.400 A  
HETATM   13  C   UNL     1     -11.037  10.793  68.073  1.00  0.00    -0.359 A  
HETATM   14  C   UNL     1     -11.384   9.994  69.154  1.00  0.00    -0.146 A  
HETATM   15  C   UNL     1     -11.880  10.578  70.317  1.00  0.00    -0.418 A  
ENDBRANCH   9  10
BRANCH   9  16
HETATM   16  C   UNL     1     -12.376  14.827  70.687  1.00  0.00    -0.401 A  
HETATM   17  C   UNL     1     -14.178  15.365  72.236  1.00  0.00    -0.639 A  
HETATM   18  C   UNL     1     -11.901  15.863  72.845  1.00  0.00    -0.566 A  
HETATM   19  C   UNL     1     -13.741  14.836  71.018  1.00  0.00    -0.322 A  
HETATM   20  C   UNL     1     -11.464  15.343  71.627  1.00  0.00    -0.492 A  
HETATM   21  C   UNL     1     -13.258  15.879  73.148  1.00  0.00    -0.692 A  
ENDBRANCH   9  16
ENDBRANCH   7   9
ENDBRANCH   6   7
ENDBRANCH   2   6
TORSDOF 5
ENDMDL
MODEL       94
REMARK 921   NORMALIZED FREE ENERGY PREDICTED BY IDOCK:   -4.38 KCAL/MOL
REMARK 922        TOTAL FREE ENERGY PREDICTED BY IDOCK:   -6.66 KCAL/MOL
REMARK 923 INTER-LIGAND FREE ENERGY PREDICTED BY IDOCK:   -6.71 KCAL/MOL
REMARK 924 INTRA-LIGAND FREE ENERGY PREDICTED BY IDOCK:    0.05 KCAL/MOL
REMARK 927      BINDING AFFINITY PREDICTED BY RF-SCORE:    0.00 PKD
ROOT
HETATM    1  N   UNL     1     -11.111   8.585  69.770  1.00  0.00    -0.431 N  
HETATM    2  C   UNL     1     -11.293   9.939  69.674  1.00  0.00    -0.165 C  
HETATM    3  H1  UNL     1     -10.920   8.021  68.941  1.00  0.00     0.000 HD 
HETATM    4  H2  UNL     1     -11.166   8.133  70.684  1.00  0.00     0.000 HD 
HETATM    5  O   UNL     1     -11.522  10.616  70.672  1.00  0.00    -0.324 OA 
ENDROOT
BRANCH   2   6
HETATM    6  C   UNL     1     -11.234  10.515  68.275  1.00  0.00    -0.291 C  
BRANCH   6   7
HETATM    7  S   UNL     1     -10.261  12.046  68.292  1.00  0.00    -0.209 S  
HETATM    8  O   UNL     1      -9.507  12.084  66.989  1.00  0.00    -0.189 OA 
BRANCH   7   9
HETATM    9  C   UNL     1     -11.662  13.250  68.166  1.00  0.00    -0.362 C  
BRANCH   9  10
HETATM   10  C   UNL     1     -11.826  14.165  69.376  1.00  0.00    -0.378 A  
HETATM   11  C   UNL     1     -11.119  15.381  69.422  1.00  0.00    -0.283 A  
HETATM   12  C   UNL     1     -12.608  13.820  70.489  1.00  0.00    -0.361 A  
HETATM   13  C   UNL     1     -11.191  16.216  70.542  1.00  0.00    -0.381 A  
HETATM   14  C   UNL     1     -11.960  15.847  71.638  1.00  0.00    -0.553 A  
HETATM   15  C   UNL     1     -12.669  14.648  71.614  1.00  0.00    -0.399 A  
ENDBRANCH   9  10
BRANCH   9  16
HETATM   16  C   UNL     1     -11.576  14.017  66.845  1.00  0.00    -0.407 A  
HETATM   17  C   UNL     1     -10.554  15.776  65.504  1.00  0.00    -0.424 A  
HETATM   18  C   UNL     1     -12.397  14.514  64.601  1.00  0.00    -0.419 A  
HETATM   19  C   UNL     1     -10.612  15.026  66.682  1.00  0.00    -0.301 A  
HETATM   20  C   UNL     1     -12.461  13.769  65.779  1.00  0.00    -0.527 A  
HETATM   21  C   UNL     1     -11.448  15.521  64.465  1.00  0.00    -0.311 A  
ENDBRANCH   9  16
ENDBRANCH   7   9
ENDBRANCH   6   7
ENDBRANCH   2   6
TORSDOF 5
ENDMDL
MODEL       95
REMARK 921   NORMALIZED FREE ENERGY PREDICTED BY IDOCK:   -4.38 KCAL/MOL
REMARK 922        TOTAL FREE ENERGY PREDICTED BY IDOCK:   -6.66 KCAL/MOL
REMARK 923 INTER-LIGAND FREE ENERGY PREDICTED BY IDOCK:   -5.54 KCAL/MOL
REMARK 924 INTRA-LIGAND FREE ENERGY PREDICTED BY IDOCK:   -1.12 KCAL/MOL
REMARK 927      BINDING AFFINITY PREDICTED BY RF-SCORE:    0.00 PKD
ROOT
HETATM    1  N   UNL     1     -13.959   8.868  72.839  1.00  0.00    -0.890 N  
HETATM    2  C   UNL     1     -13.101   9.312  71.868  1.00  0.00    -0.415 C  
HETATM    3  H1  UNL     1     -13.612   8.362  73.654  1.00  0.00     0.000 HD 
HETATM    4  H2  UNL     1     -14.960   9.046  72.747  1.00  0.00     0.000 HD 
HETATM    5  O   UNL     1     -13.520   9.921  70.888  1.00  0.00    -0.334 OA 
ENDROOT
BRANCH   2   6
HETATM    6  C   UNL     1     -11.641   8.966  72.068  1.00  0.00    -0.364 C  
BRANCH   6   7
HETATM    7  S   UNL     1     -11.343   7.261  71.528  1.00  0.00    -0.261 S  
HETATM    8  O   UNL     1     -12.635   6.516  71.741  1.00  0.00    -0.335 OA 
BRANCH   7   9
HETATM    9  C   UNL     1     -11.176   7.585  69.713  1.00  0.00    -0.056 C  
BRANCH   9  10
HETATM   10  C   UNL     1     -10.369   8.832  69.361  1.00  0.00    -0.217 A  
HETATM   11  C   UNL     1     -10.955   9.829  68.559  1.00  0.00    -0.195 A  
HETATM   12  C   UNL     1      -9.032   9.007  69.750  1.00  0.00    -0.157 A  
HETATM   13  C   UNL     1     -10.228  10.955  68.160  1.00  0.00    -0.197 A  
HETATM   14  C   UNL     1      -8.901  11.099  68.546  1.00  0.00    -0.161 A  
HETATM   15  C   UNL     1      -8.301  10.126  69.340  1.00  0.00    -0.174 A  
ENDBRANCH   9  10
BRANCH   9  16
HETATM   16  C   UNL     1     -10.673   6.328  69.000  1.00  0.00    -0.362 A  
HETATM   17  C   UNL     1      -9.544   4.171  69.100  1.00  0.00    -0.243 A  
HETATM   18  C   UNL     1     -10.261   5.038  66.970  1.00  0.00    -0.253 A  
HETATM   19  C   UNL     1     -10.061   5.301  69.740  1.00  0.00    -0.334 A  
HETATM   20  C   UNL     1     -10.771   6.170  67.606  1.00  0.00    -0.388 A  
HETATM   21  C   UNL     1      -9.643   4.041  67.716  1.00  0.00    -0.204 A  
ENDBRANCH   9  16
ENDBRANCH   7   9
ENDBRANCH   6   7
ENDBRANCH   2   6
TORSDOF 5
ENDMDL
MODEL       96
REMARK 921   NORMALIZED FREE ENERGY PREDICTED BY IDOCK:   -4.38 KCAL/MOL
REMARK 922        TOTAL FREE ENERGY PREDICTED BY IDOCK:   -6.66 KCAL/MOL
REMARK 923 INTER-LIGAND FREE ENERGY PREDICTED BY IDOCK:   -6.25 KCAL/MOL
REMARK 924 INTRA-LIGAND FREE ENERGY PREDICTED BY IDOCK:   -0.41 KCAL/MOL
REMARK 927      BINDING AFFINITY PREDICTED BY RF-SCORE:    0.00 PKD
ROOT
HETATM    1  N   UNL     1      -7.487  14.047  69.271  1.00  0.00    -0.320 N  
HETATM    2  C   UNL     1      -7.676  14.275  67.934  1.00  0.00    -0.152 C  
HETATM    3  H1  UNL     1      -8.239  13.674  69.851  1.00  0.00     0.000 HD 
HETATM    4  H2  UNL     1      -6.581  14.253  69.694  1.00  0.00     0.000 HD 
HETATM    5  O   UNL     1      -6.771  14.723  67.237  1.00  0.00    -0.279 OA 
ENDROOT
BRANCH   2   6
HETATM    6  C   UNL     1      -9.063  13.980  67.404  1.00  0.00    -0.209 C  
BRANCH   6   7
HETATM    7  S   UNL     1      -9.452  15.126  66.053  1.00  0.00    -0.290 S  
HETATM    8  O   UNL     1     -10.301  14.358  65.074  1.00  0.00    -0.402 OA 
BRANCH   7   9
HETATM    9  C   UNL     1     -10.569  16.267  66.990  1.00  0.00    -0.284 C  
BRANCH   9  10
HETATM   10  C   UNL     1     -11.055  15.724  68.330  1.00  0.00    -0.341 A  
HETATM   11  C   UNL     1     -10.576  16.299  69.522  1.00  0.00    -0.314 A  
HETATM   12  C   UNL     1     -11.918  14.623  68.436  1.00  0.00    -0.289 A  
HETATM   13  C   UNL     1     -10.946  15.788  70.770  1.00  0.00    -0.311 A  
HETATM   14  C   UNL     1     -11.790  14.688  70.850  1.00  0.00    -0.372 A  
HETATM   15  C   UNL     1     -12.277  14.103  69.684  1.00  0.00    -0.376 A  
ENDBRANCH   9  10
BRANCH   9  16
HETATM   16  C   UNL     1      -9.927  17.652  67.103  1.00  0.00    -0.316 A  
HETATM   17  C   UNL     1      -7.925  19.039  67.129  1.00  0.00    -0.271 A  
HETATM   18  C   UNL     1     -10.075  20.052  67.522  1.00  0.00    -0.565 A  
HETATM   19  C   UNL     1      -8.535  17.792  66.972  1.00  0.00    -0.245 A  
HETATM   20  C   UNL     1     -10.686  18.806  67.372  1.00  0.00    -0.487 A  
HETATM   21  C   UNL     1      -8.694  20.168  67.405  1.00  0.00    -0.425 A  
ENDBRANCH   9  16
ENDBRANCH   7   9
ENDBRANCH   6   7
ENDBRANCH   2   6
TORSDOF 5
ENDMDL
MODEL       97
REMARK 921   NORMALIZED FREE ENERGY PREDICTED BY IDOCK:   -4.37 KCAL/MOL
REMARK 922        TOTAL FREE ENERGY PREDICTED BY IDOCK:   -6.64 KCAL/MOL
REMARK 923 INTER-LIGAND FREE ENERGY PREDICTED BY IDOCK:   -6.60 KCAL/MOL
REMARK 924 INTRA-LIGAND FREE ENERGY PREDICTED BY IDOCK:   -0.05 KCAL/MOL
REMARK 927      BINDING AFFINITY PREDICTED BY RF-SCORE:    0.00 PKD
ROOT
HETATM    1  N   UNL     1     -11.424   6.585  67.204  1.00  0.00    -0.745 N  
HETATM    2  C   UNL     1     -10.438   7.440  67.620  1.00  0.00    -0.241 C  
HETATM    3  H1  UNL     1     -12.206   6.921  66.641  1.00  0.00     0.000 HD 
HETATM    4  H2  UNL     1     -11.376   5.599  67.459  1.00  0.00     0.000 HD 
HETATM    5  O   UNL     1      -9.497   7.036  68.296  1.00  0.00    -0.130 OA 
ENDROOT
BRANCH   2   6
HETATM    6  C   UNL     1     -10.614   8.892  67.228  1.00  0.00    -0.234 C  
BRANCH   6   7
HETATM    7  S   UNL     1      -9.129   9.827  67.685  1.00  0.00    -0.130 S  
HETATM    8  O   UNL     1      -8.561  10.376  66.402  1.00  0.00    -0.128 OA 
BRANCH   7   9
HETATM    9  C   UNL     1      -9.959  11.223  68.573  1.00  0.00    -0.202 C  
BRANCH   9  10
HETATM   10  C   UNL     1     -10.736  12.178  67.672  1.00  0.00    -0.252 A  
HETATM   11  C   UNL     1     -10.874  13.527  68.051  1.00  0.00    -0.266 A  
HETATM   12  C   UNL     1     -11.384  11.759  66.500  1.00  0.00    -0.370 A  
HETATM   13  C   UNL     1     -11.632  14.419  67.287  1.00  0.00    -0.401 A  
HETATM   14  C   UNL     1     -12.276  13.977  66.138  1.00  0.00    -0.494 A  
HETATM   15  C   UNL     1     -12.154  12.648  65.743  1.00  0.00    -0.484 A  
ENDBRANCH   9  10
BRANCH   9  16
HETATM   16  C   UNL     1     -10.798  10.681  69.733  1.00  0.00    -0.317 A  
HETATM   17  C   UNL     1     -11.027   9.160  71.622  1.00  0.00    -0.445 A  
HETATM   18  C   UNL     1     -12.887  10.554  70.988  1.00  0.00    -0.502 A  
HETATM   19  C   UNL     1     -10.258   9.710  70.593  1.00  0.00    -0.346 A  
HETATM   20  C   UNL     1     -12.123  11.098  69.955  1.00  0.00    -0.437 A  
HETATM   21  C   UNL     1     -12.341   9.581  71.818  1.00  0.00    -0.474 A  
ENDBRANCH   9  16
ENDBRANCH   7   9
ENDBRANCH   6   7
ENDBRANCH   2   6
TORSDOF 5
ENDMDL
MODEL       98
REMARK 921   NORMALIZED FREE ENERGY PREDICTED BY IDOCK:   -4.35 KCAL/MOL
REMARK 922        TOTAL FREE ENERGY PREDICTED BY IDOCK:   -6.62 KCAL/MOL
REMARK 923 INTER-LIGAND FREE ENERGY PREDICTED BY IDOCK:   -6.70 KCAL/MOL
REMARK 924 INTRA-LIGAND FREE ENERGY PREDICTED BY IDOCK:    0.08 KCAL/MOL
REMARK 927      BINDING AFFINITY PREDICTED BY RF-SCORE:    0.00 PKD
ROOT
HETATM    1  N   UNL     1     -11.247   8.289  69.585  1.00  0.00    -0.452 N  
HETATM    2  C   UNL     1     -10.918   9.345  70.393  1.00  0.00    -0.266 C  
HETATM    3  H1  UNL     1     -10.995   8.287  68.596  1.00  0.00     0.000 HD 
HETATM    4  H2  UNL     1     -11.751   7.493  69.977  1.00  0.00     0.000 HD 
HETATM    5  O   UNL     1     -11.221   9.347  71.582  1.00  0.00    -0.370 OA 
ENDROOT
BRANCH   2   6
HETATM    6  C   UNL     1     -10.207  10.498  69.716  1.00  0.00    -0.123 C  
BRANCH   6   7
HETATM    7  S   UNL     1     -11.315  11.259  68.498  1.00  0.00    -0.306 S  
HETATM    8  O   UNL     1     -12.717  11.032  68.999  1.00  0.00    -0.260 OA 
BRANCH   7   9
HETATM    9  C   UNL     1     -10.884  13.031  68.822  1.00  0.00    -0.244 C  
BRANCH   9  10
HETATM   10  C   UNL     1     -10.809  13.906  67.574  1.00  0.00    -0.274 A  
HETATM   11  C   UNL     1     -11.941  14.027  66.747  1.00  0.00    -0.473 A  
HETATM   12  C   UNL     1      -9.631  14.554  67.170  1.00  0.00    -0.233 A  
HETATM   13  C   UNL     1     -11.894  14.767  65.561  1.00  0.00    -0.231 A  
HETATM   14  C   UNL     1     -10.714  15.387  65.174  1.00  0.00    -0.460 A  
HETATM   15  C   UNL     1      -9.580  15.282  65.977  1.00  0.00    -0.372 A  
ENDBRANCH   9  10
BRANCH   9  16
HETATM   16  C   UNL     1     -11.805  13.605  69.900  1.00  0.00    -0.389 A  
HETATM   17  C   UNL     1     -13.184  13.263  71.879  1.00  0.00    -0.523 A  
HETATM   18  C   UNL     1     -13.096  15.442  70.856  1.00  0.00    -0.528 A  
HETATM   19  C   UNL     1     -12.296  12.771  70.918  1.00  0.00    -0.356 A  
HETATM   20  C   UNL     1     -12.215  14.951  69.892  1.00  0.00    -0.354 A  
HETATM   21  C   UNL     1     -13.585  14.598  71.846  1.00  0.00    -0.483 A  
ENDBRANCH   9  16
ENDBRANCH   7   9
ENDBRANCH   6   7
ENDBRANCH   2   6
TORSDOF 5
ENDMDL
MODEL       99
REMARK 921   NORMALIZED FREE ENERGY PREDICTED BY IDOCK:   -4.34 KCAL/MOL
REMARK 922        TOTAL FREE ENERGY PREDICTED BY IDOCK:   -6.61 KCAL/MOL
REMARK 923 INTER-LIGAND FREE ENERGY PREDICTED BY IDOCK:   -5.63 KCAL/MOL
REMARK 924 INTRA-LIGAND FREE ENERGY PREDICTED BY IDOCK:   -0.98 KCAL/MOL
REMARK 927      BINDING AFFINITY PREDICTED BY RF-SCORE:    0.00 PKD
ROOT
HETATM    1  N   UNL     1     -11.524   6.498  66.824  1.00  0.00    -0.760 N  
HETATM    2  C   UNL     1     -10.166   6.460  67.003  1.00  0.00    -0.205 C  
HETATM    3  H1  UNL     1     -12.121   7.032  67.456  1.00  0.00     0.000 HD 
HETATM    4  H2  UNL     1     -11.944   5.986  66.048  1.00  0.00     0.000 HD 
HETATM    5  O   UNL     1      -9.448   5.817  66.243  1.00  0.00    -0.157 OA 
ENDROOT
BRANCH   2   6
HETATM    6  C   UNL     1      -9.637   7.216  68.204  1.00  0.00    -0.131 C  
BRANCH   6   7
HETATM    7  S   UNL     1      -9.514   8.980  67.801  1.00  0.00    -0.143 S  
HETATM    8  O   UNL     1     -10.065   9.137  66.408  1.00  0.00    -0.283 OA 
BRANCH   7   9
HETATM    9  C   UNL     1     -10.791   9.610  68.985  1.00  0.00    -0.183 C  
BRANCH   9  10
HETATM   10  C   UNL     1     -10.684   9.043  70.397  1.00  0.00    -0.267 A  
HETATM   11  C   UNL     1      -9.451   9.101  71.073  1.00  0.00    -0.344 A  
HETATM   12  C   UNL     1     -11.753   8.401  71.042  1.00  0.00    -0.296 A  
HETATM   13  C   UNL     1      -9.294   8.535  72.342  1.00  0.00    -0.349 A  
HETATM   14  C   UNL     1     -10.363   7.893  72.954  1.00  0.00    -0.413 A  
HETATM   15  C   UNL     1     -11.593   7.824  72.305  1.00  0.00    -0.390 A  
ENDBRANCH   9  10
BRANCH   9  16
HETATM   16  C   UNL     1     -10.823  11.139  68.955  1.00  0.00    -0.276 A  
HETATM   17  C   UNL     1     -12.008  13.221  69.401  1.00  0.00    -0.356 A  
HETATM   18  C   UNL     1      -9.852  13.288  68.328  1.00  0.00    -0.231 A  
HETATM   19  C   UNL     1     -11.935  11.827  69.471  1.00  0.00    -0.364 A  
HETATM   20  C   UNL     1      -9.781  11.896  68.391  1.00  0.00    -0.201 A  
HETATM   21  C   UNL     1     -10.968  13.951  68.828  1.00  0.00    -0.286 A  
ENDBRANCH   9  16
ENDBRANCH   7   9
ENDBRANCH   6   7
ENDBRANCH   2   6
TORSDOF 5
ENDMDL
MODEL      100
REMARK 921   NORMALIZED FREE ENERGY PREDICTED BY IDOCK:   -4.34 KCAL/MOL
REMARK 922        TOTAL FREE ENERGY PREDICTED BY IDOCK:   -6.60 KCAL/MOL
REMARK 923 INTER-LIGAND FREE ENERGY PREDICTED BY IDOCK:   -5.52 KCAL/MOL
REMARK 924 INTRA-LIGAND FREE ENERGY PREDICTED BY IDOCK:   -1.09 KCAL/MOL
REMARK 927      BINDING AFFINITY PREDICTED BY RF-SCORE:    0.00 PKD
ROOT
HETATM    1  N   UNL     1      -7.063   8.254  73.852  1.00  0.00    -0.141 N  
HETATM    2  C   UNL     1      -7.465   8.186  72.544  1.00  0.00    -0.117 C  
HETATM    3  H1  UNL     1      -7.013   7.415  74.430  1.00  0.00     0.000 HD 
HETATM    4  H2  UNL     1      -6.810   9.157  74.255  1.00  0.00     0.000 HD 
HETATM    5  O   UNL     1      -7.524   9.196  71.850  1.00  0.00    -0.338 OA 
ENDROOT
BRANCH   2   6
HETATM    6  C   UNL     1      -7.860   6.812  72.046  1.00  0.00    -0.096 C  
BRANCH   6   7
HETATM    7  S   UNL     1      -9.611   6.516  72.413  1.00  0.00    -0.143 S  
HETATM    8  O   UNL     1      -9.910   7.263  73.687  1.00  0.00    -0.252 OA 
BRANCH   7   9
HETATM    9  C   UNL     1     -10.341   7.482  71.012  1.00  0.00    -0.199 C  
BRANCH   9  10
HETATM   10  C   UNL     1     -10.278   6.784  69.657  1.00  0.00    -0.207 A  
HETATM   11  C   UNL     1     -10.583   7.512  68.491  1.00  0.00    -0.172 A  
HETATM   12  C   UNL     1      -9.989   5.418  69.519  1.00  0.00    -0.289 A  
HETATM   13  C   UNL     1     -10.600   6.893  67.238  1.00  0.00    -0.393 A  
HETATM   14  C   UNL     1     -10.325   5.536  67.127  1.00  0.00    -0.301 A  
HETATM   15  C   UNL     1     -10.020   4.796  68.267  1.00  0.00    -0.157 A  
ENDBRANCH   9  10
BRANCH   9  16
HETATM   16  C   UNL     1     -11.751   7.950  71.378  1.00  0.00    -0.311 A  
HETATM   17  C   UNL     1     -14.128   7.467  71.606  1.00  0.00    -0.552 A  
HETATM   18  C   UNL     1     -13.327   9.701  72.016  1.00  0.00    -0.547 A  
HETATM   19  C   UNL     1     -12.824   7.045  71.330  1.00  0.00    -0.407 A  
HETATM   20  C   UNL     1     -12.026   9.283  71.735  1.00  0.00    -0.455 A  
HETATM   21  C   UNL     1     -14.379   8.795  71.947  1.00  0.00    -0.441 A  
ENDBRANCH   9  16
ENDBRANCH   7   9
ENDBRANCH   6   7
ENDBRANCH   2   6
TORSDOF 5
ENDMDL
MODEL      101
REMARK 921   NORMALIZED FREE ENERGY PREDICTED BY IDOCK:   -4.33 KCAL/MOL
REMARK 922        TOTAL FREE ENERGY PREDICTED BY IDOCK:   -6.60 KCAL/MOL
REMARK 923 INTER-LIGAND FREE ENERGY PREDICTED BY IDOCK:   -5.95 KCAL/MOL
REMARK 924 INTRA-LIGAND FREE ENERGY PREDICTED BY IDOCK:   -0.65 KCAL/MOL
REMARK 927      BINDING AFFINITY PREDICTED BY RF-SCORE:    0.00 PKD
ROOT
HETATM    1  N   UNL     1     -10.410  19.964  69.155  1.00  0.00    -0.600 N  
HETATM    2  C   UNL     1      -9.977  19.874  67.859  1.00  0.00    -0.422 C  
HETATM    3  H1  UNL     1     -11.296  19.546  69.442  1.00  0.00     0.000 HD 
HETATM    4  H2  UNL     1      -9.840  20.455  69.844  1.00  0.00     0.000 HD 
HETATM    5  O   UNL     1      -8.911  20.377  67.514  1.00  0.00    -0.345 OA 
ENDROOT
BRANCH   2   6
HETATM    6  C   UNL     1     -10.908  19.163  66.899  1.00  0.00    -0.348 C  
BRANCH   6   7
HETATM    7  S   UNL     1     -10.194  17.560  66.440  1.00  0.00    -0.338 S  
HETATM    8  O   UNL     1      -8.909  17.860  65.712  1.00  0.00    -0.495 OA 
BRANCH   7   9
HETATM    9  C   UNL     1      -9.751  16.973  68.139  1.00  0.00    -0.268 C  
BRANCH   9  10
HETATM   10  C   UNL     1     -10.669  15.890  68.698  1.00  0.00    -0.274 A  
HETATM   11  C   UNL     1     -10.899  15.828  70.084  1.00  0.00    -0.360 A  
HETATM   12  C   UNL     1     -11.252  14.899  67.892  1.00  0.00    -0.324 A  
HETATM   13  C   UNL     1     -11.681  14.811  70.642  1.00  0.00    -0.353 A  
HETATM   14  C   UNL     1     -12.236  13.834  69.827  1.00  0.00    -0.368 A  
HETATM   15  C   UNL     1     -12.022  13.875  68.452  1.00  0.00    -0.391 A  
ENDBRANCH   9  10
BRANCH   9  16
HETATM   16  C   UNL     1      -8.271  16.587  68.190  1.00  0.00    -0.181 A  
HETATM   17  C   UNL     1      -6.515  14.953  67.769  1.00  0.00    -0.183 A  
HETATM   18  C   UNL     1      -5.964  17.033  68.851  1.00  0.00    -0.158 A  
HETATM   19  C   UNL     1      -7.852  15.347  67.680  1.00  0.00    -0.175 A  
HETATM   20  C   UNL     1      -7.301  17.426  68.769  1.00  0.00    -0.257 A  
HETATM   21  C   UNL     1      -5.572  15.795  68.356  1.00  0.00    -0.111 A  
ENDBRANCH   9  16
ENDBRANCH   7   9
ENDBRANCH   6   7
ENDBRANCH   2   6
TORSDOF 5
ENDMDL
MODEL      102
REMARK 921   NORMALIZED FREE ENERGY PREDICTED BY IDOCK:   -4.33 KCAL/MOL
REMARK 922        TOTAL FREE ENERGY PREDICTED BY IDOCK:   -6.60 KCAL/MOL
REMARK 923 INTER-LIGAND FREE ENERGY PREDICTED BY IDOCK:   -6.13 KCAL/MOL
REMARK 924 INTRA-LIGAND FREE ENERGY PREDICTED BY IDOCK:   -0.46 KCAL/MOL
REMARK 927      BINDING AFFINITY PREDICTED BY RF-SCORE:    0.00 PKD
ROOT
HETATM    1  N   UNL     1     -11.276   5.645  66.417  1.00  0.00    -0.727 N  
HETATM    2  C   UNL     1     -10.725   6.522  67.314  1.00  0.00    -0.356 C  
HETATM    3  H1  UNL     1     -11.314   4.645  66.618  1.00  0.00     0.000 HD 
HETATM    4  H2  UNL     1     -11.653   5.996  65.537  1.00  0.00     0.000 HD 
HETATM    5  O   UNL     1     -10.679   7.724  67.073  1.00  0.00    -0.347 OA 
ENDROOT
BRANCH   2   6
HETATM    6  C   UNL     1     -10.154   5.906  68.574  1.00  0.00    -0.167 C  
BRANCH   6   7
HETATM    7  S   UNL     1     -11.153   6.412  70.001  1.00  0.00    -0.410 S  
HETATM    8  O   UNL     1     -10.805   5.465  71.120  1.00  0.00    -0.210 OA 
BRANCH   7   9
HETATM    9  C   UNL     1     -10.315   8.026  70.350  1.00  0.00    -0.206 C  
BRANCH   9  10
HETATM   10  C   UNL     1     -11.264   9.196  70.591  1.00  0.00    -0.322 A  
HETATM   11  C   UNL     1     -11.029  10.421  69.939  1.00  0.00    -0.364 A  
HETATM   12  C   UNL     1     -12.337   9.131  71.493  1.00  0.00    -0.421 A  
HETATM   13  C   UNL     1     -11.836  11.536  70.183  1.00  0.00    -0.440 A  
HETATM   14  C   UNL     1     -12.884  11.452  71.090  1.00  0.00    -0.440 A  
HETATM   15  C   UNL     1     -13.136  10.250  71.748  1.00  0.00    -0.570 A  
ENDBRANCH   9  10
BRANCH   9  16
HETATM   16  C   UNL     1      -9.287   7.850  71.469  1.00  0.00    -0.179 A  
HETATM   17  C   UNL     1      -8.699   8.039  73.826  1.00  0.00    -0.329 A  
HETATM   18  C   UNL     1      -7.031   7.329  72.240  1.00  0.00    -0.063 A  
HETATM   19  C   UNL     1      -9.641   8.139  72.798  1.00  0.00    -0.353 A  
HETATM   20  C   UNL     1      -7.967   7.434  71.211  1.00  0.00    -0.096 A  
HETATM   21  C   UNL     1      -7.395   7.636  73.546  1.00  0.00    -0.131 A  
ENDBRANCH   9  16
ENDBRANCH   7   9
ENDBRANCH   6   7
ENDBRANCH   2   6
TORSDOF 5
ENDMDL
MODEL      103
REMARK 921   NORMALIZED FREE ENERGY PREDICTED BY IDOCK:   -4.30 KCAL/MOL
REMARK 922        TOTAL FREE ENERGY PREDICTED BY IDOCK:   -6.56 KCAL/MOL
REMARK 923 INTER-LIGAND FREE ENERGY PREDICTED BY IDOCK:   -5.65 KCAL/MOL
REMARK 924 INTRA-LIGAND FREE ENERGY PREDICTED BY IDOCK:   -0.91 KCAL/MOL
REMARK 927      BINDING AFFINITY PREDICTED BY RF-SCORE:    0.00 PKD
ROOT
HETATM    1  N   UNL     1      -7.592  10.465  64.666  1.00  0.00    -0.300 N  
HETATM    2  C   UNL     1      -8.953  10.364  64.777  1.00  0.00    -0.202 C  
HETATM    3  H1  UNL     1      -6.975   9.964  65.306  1.00  0.00     0.000 HD 
HETATM    4  H2  UNL     1      -7.189  11.050  63.933  1.00  0.00     0.000 HD 
HETATM    5  O   UNL     1      -9.695  10.967  64.008  1.00  0.00    -0.247 OA 
ENDROOT
BRANCH   2   6
HETATM    6  C   UNL     1      -9.460   9.508  65.919  1.00  0.00    -0.244 C  
BRANCH   6   7
HETATM    7  S   UNL     1      -9.177  10.367  67.491  1.00  0.00    -0.145 S  
HETATM    8  O   UNL     1      -8.601  11.714  67.141  1.00  0.00    -0.151 OA 
BRANCH   7   9
HETATM    9  C   UNL     1     -10.947  10.621  67.975  1.00  0.00    -0.282 C  
BRANCH   9  10
HETATM   10  C   UNL     1     -11.286  10.188  69.397  1.00  0.00    -0.233 A  
HETATM   11  C   UNL     1     -10.320   9.507  70.161  1.00  0.00    -0.300 A  
HETATM   12  C   UNL     1     -12.554  10.380  69.968  1.00  0.00    -0.125 A  
HETATM   13  C   UNL     1     -10.613   9.035  71.444  1.00  0.00    -0.393 A  
HETATM   14  C   UNL     1     -11.879   9.225  71.983  1.00  0.00    -0.370 A  
HETATM   15  C   UNL     1     -12.852   9.897  71.246  1.00  0.00    -0.486 A  
ENDBRANCH   9  10
BRANCH   9  16
HETATM   16  C   UNL     1     -11.370  12.060  67.671  1.00  0.00    -0.375 A  
HETATM   17  C   UNL     1     -12.238  13.702  66.095  1.00  0.00    -0.490 A  
HETATM   18  C   UNL     1     -11.562  14.411  68.295  1.00  0.00    -0.359 A  
HETATM   19  C   UNL     1     -11.899  12.383  66.410  1.00  0.00    -0.421 A  
HETATM   20  C   UNL     1     -11.216  13.097  68.610  1.00  0.00    -0.314 A  
HETATM   21  C   UNL     1     -12.068  14.715  67.037  1.00  0.00    -0.214 A  
ENDBRANCH   9  16
ENDBRANCH   7   9
ENDBRANCH   6   7
ENDBRANCH   2   6
TORSDOF 5
ENDMDL
MODEL      104
REMARK 921   NORMALIZED FREE ENERGY PREDICTED BY IDOCK:   -4.28 KCAL/MOL
REMARK 922        TOTAL FREE ENERGY PREDICTED BY IDOCK:   -6.54 KCAL/MOL
REMARK 923 INTER-LIGAND FREE ENERGY PREDICTED BY IDOCK:   -5.73 KCAL/MOL
REMARK 924 INTRA-LIGAND FREE ENERGY PREDICTED BY IDOCK:   -0.81 KCAL/MOL
REMARK 927      BINDING AFFINITY PREDICTED BY RF-SCORE:    0.00 PKD
ROOT
HETATM    1  N   UNL     1     -12.530   5.518  72.721  1.00  0.00    -0.382 N  
HETATM    2  C   UNL     1     -11.261   5.079  72.991  1.00  0.00    -0.310 C  
HETATM    3  H1  UNL     1     -12.846   5.649  71.760  1.00  0.00     0.000 HD 
HETATM    4  H2  UNL     1     -13.169   5.716  73.492  1.00  0.00     0.000 HD 
HETATM    5  O   UNL     1     -10.881   4.921  74.148  1.00  0.00    -0.295 OA 
ENDROOT
BRANCH   2   6
HETATM    6  C   UNL     1     -10.371   4.851  71.787  1.00  0.00    -0.179 C  
BRANCH   6   7
HETATM    7  S   UNL     1     -10.381   6.330  70.738  1.00  0.00    -0.215 S  
HETATM    8  O   UNL     1     -11.746   6.392  70.103  1.00  0.00    -0.422 OA 
BRANCH   7   9
HETATM    9  C   UNL     1     -10.329   7.605  72.081  1.00  0.00    -0.221 C  
BRANCH   9  10
HETATM   10  C   UNL     1      -8.929   7.940  72.586  1.00  0.00    -0.251 A  
HETATM   11  C   UNL     1      -7.848   7.925  71.685  1.00  0.00    -0.102 A  
HETATM   12  C   UNL     1      -8.652   8.203  73.937  1.00  0.00    -0.288 A  
HETATM   13  C   UNL     1      -6.541   8.163  72.121  1.00  0.00    -0.073 A  
HETATM   14  C   UNL     1      -6.289   8.407  73.465  1.00  0.00    -0.130 A  
HETATM   15  C   UNL     1      -7.343   8.427  74.375  1.00  0.00    -0.240 A  
ENDBRANCH   9  10
BRANCH   9  16
HETATM   16  C   UNL     1     -11.124   8.842  71.658  1.00  0.00    -0.420 A  
HETATM   17  C   UNL     1     -13.139  10.200  71.832  1.00  0.00    -0.571 A  
HETATM   18  C   UNL     1     -11.425  10.817  70.256  1.00  0.00    -0.406 A  
HETATM   19  C   UNL     1     -12.373   9.107  72.245  1.00  0.00    -0.379 A  
HETATM   20  C   UNL     1     -10.661   9.722  70.662  1.00  0.00    -0.394 A  
HETATM   21  C   UNL     1     -12.666  11.054  70.837  1.00  0.00    -0.452 A  
ENDBRANCH   9  16
ENDBRANCH   7   9
ENDBRANCH   6   7
ENDBRANCH   2   6
TORSDOF 5
ENDMDL
MODEL      105
REMARK 921   NORMALIZED FREE ENERGY PREDICTED BY IDOCK:   -4.24 KCAL/MOL
REMARK 922        TOTAL FREE ENERGY PREDICTED BY IDOCK:   -6.48 KCAL/MOL
REMARK 923 INTER-LIGAND FREE ENERGY PREDICTED BY IDOCK:   -6.04 KCAL/MOL
REMARK 924 INTRA-LIGAND FREE ENERGY PREDICTED BY IDOCK:   -0.44 KCAL/MOL
REMARK 927      BINDING AFFINITY PREDICTED BY RF-SCORE:    0.00 PKD
ROOT
HETATM    1  N   UNL     1      -8.266  11.388  65.859  1.00  0.00    -0.369 N  
HETATM    2  C   UNL     1      -9.262  10.537  66.256  1.00  0.00    -0.168 C  
HETATM    3  H1  UNL     1      -8.426  12.394  65.804  1.00  0.00     0.000 HD 
HETATM    4  H2  UNL     1      -7.350  11.012  65.614  1.00  0.00     0.000 HD 
HETATM    5  O   UNL     1      -9.069   9.327  66.321  1.00  0.00    -0.151 OA 
ENDROOT
BRANCH   2   6
HETATM    6  C   UNL     1     -10.599  11.181  66.560  1.00  0.00    -0.262 C  
BRANCH   6   7
HETATM    7  S   UNL     1     -10.707  11.541  68.334  1.00  0.00    -0.221 S  
HETATM    8  O   UNL     1      -9.357  12.071  68.743  1.00  0.00    -0.091 OA 
BRANCH   7   9
HETATM    9  C   UNL     1     -11.869  12.980  68.240  1.00  0.00    -0.343 C  
BRANCH   9  10
HETATM   10  C   UNL     1     -12.026  13.758  69.543  1.00  0.00    -0.399 A  
HETATM   11  C   UNL     1     -12.301  13.060  70.734  1.00  0.00    -0.394 A  
HETATM   12  C   UNL     1     -11.972  15.159  69.603  1.00  0.00    -0.359 A  
HETATM   13  C   UNL     1     -12.517  13.741  71.937  1.00  0.00    -0.203 A  
HETATM   14  C   UNL     1     -12.473  15.128  71.969  1.00  0.00    -0.414 A  
HETATM   15  C   UNL     1     -12.201  15.840  70.803  1.00  0.00    -0.441 A  
ENDBRANCH   9  10
BRANCH   9  16
HETATM   16  C   UNL     1     -11.502  13.872  67.052  1.00  0.00    -0.367 A  
HETATM   17  C   UNL     1     -12.066  14.794  64.869  1.00  0.00    -0.335 A  
HETATM   18  C   UNL     1      -9.924  15.294  65.851  1.00  0.00    -0.368 A  
HETATM   19  C   UNL     1     -12.406  14.029  65.988  1.00  0.00    -0.504 A  
HETATM   20  C   UNL     1     -10.259  14.526  66.966  1.00  0.00    -0.262 A  
HETATM   21  C   UNL     1     -10.825  15.424  64.800  1.00  0.00    -0.385 A  
ENDBRANCH   9  16
ENDBRANCH   7   9
ENDBRANCH   6   7
ENDBRANCH   2   6
TORSDOF 5
ENDMDL
MODEL      106
REMARK 921   NORMALIZED FREE ENERGY PREDICTED BY IDOCK:   -4.23 KCAL/MOL
REMARK 922        TOTAL FREE ENERGY PREDICTED BY IDOCK:   -6.47 KCAL/MOL
REMARK 923 INTER-LIGAND FREE ENERGY PREDICTED BY IDOCK:   -6.03 KCAL/MOL
REMARK 924 INTRA-LIGAND FREE ENERGY PREDICTED BY IDOCK:   -0.44 KCAL/MOL
REMARK 927      BINDING AFFINITY PREDICTED BY RF-SCORE:    0.00 PKD
ROOT
HETATM    1  N   UNL     1      -6.453  11.793  70.110  1.00  0.00    -0.337 N  
HETATM    2  C   UNL     1      -7.310  10.914  69.503  1.00  0.00    -0.093 C  
HETATM    3  H1  UNL     1      -6.166  12.653  69.643  1.00  0.00     0.000 HD 
HETATM    4  H2  UNL     1      -6.096  11.584  71.043  1.00  0.00     0.000 HD 
HETATM    5  O   UNL     1      -7.655   9.879  70.065  1.00  0.00    -0.142 OA 
ENDROOT
BRANCH   2   6
HETATM    6  C   UNL     1      -7.755  11.286  68.104  1.00  0.00    -0.112 C  
BRANCH   6   7
HETATM    7  S   UNL     1      -8.828  12.746  68.179  1.00  0.00    -0.181 S  
HETATM    8  O   UNL     1      -8.636  13.481  66.877  1.00  0.00    -0.189 OA 
BRANCH   7   9
HETATM    9  C   UNL     1     -10.461  11.877  68.097  1.00  0.00    -0.207 C  
BRANCH   9  10
HETATM   10  C   UNL     1     -11.345  12.068  69.326  1.00  0.00    -0.330 A  
HETATM   11  C   UNL     1     -11.894  10.940  69.963  1.00  0.00    -0.428 A  
HETATM   12  C   UNL     1     -11.695  13.335  69.821  1.00  0.00    -0.354 A  
HETATM   13  C   UNL     1     -12.762  11.076  71.052  1.00  0.00    -0.485 A  
HETATM   14  C   UNL     1     -13.105  12.340  71.515  1.00  0.00    -0.356 A  
HETATM   15  C   UNL     1     -12.573  13.471  70.900  1.00  0.00    -0.414 A  
ENDBRANCH   9  10
BRANCH   9  16
HETATM   16  C   UNL     1     -11.173  12.224  66.788  1.00  0.00    -0.371 A  
HETATM   17  C   UNL     1     -11.572  11.757  64.431  1.00  0.00    -0.325 A  
HETATM   18  C   UNL     1     -12.607  13.678  65.452  1.00  0.00    -0.533 A  
HETATM   19  C   UNL     1     -10.976  11.424  65.650  1.00  0.00    -0.254 A  
HETATM   20  C   UNL     1     -12.006  13.352  66.668  1.00  0.00    -0.452 A  
HETATM   21  C   UNL     1     -12.386  12.884  64.332  1.00  0.00    -0.468 A  
ENDBRANCH   9  16
ENDBRANCH   7   9
ENDBRANCH   6   7
ENDBRANCH   2   6
TORSDOF 5
ENDMDL
MODEL      107
REMARK 921   NORMALIZED FREE ENERGY PREDICTED BY IDOCK:   -4.23 KCAL/MOL
REMARK 922        TOTAL FREE ENERGY PREDICTED BY IDOCK:   -6.46 KCAL/MOL
REMARK 923 INTER-LIGAND FREE ENERGY PREDICTED BY IDOCK:   -6.13 KCAL/MOL
REMARK 924 INTRA-LIGAND FREE ENERGY PREDICTED BY IDOCK:   -0.33 KCAL/MOL
REMARK 927      BINDING AFFINITY PREDICTED BY RF-SCORE:    0.00 PKD
ROOT
HETATM    1  N   UNL     1      -9.392   7.141  70.656  1.00  0.00    -0.158 N  
HETATM    2  C   UNL     1     -10.228   8.221  70.767  1.00  0.00    -0.192 C  
HETATM    3  H1  UNL     1      -9.103   6.794  69.742  1.00  0.00     0.000 HD 
HETATM    4  H2  UNL     1      -9.055   6.677  71.500  1.00  0.00     0.000 HD 
HETATM    5  O   UNL     1     -10.576   8.638  71.867  1.00  0.00    -0.286 OA 
ENDROOT
BRANCH   2   6
HETATM    6  C   UNL     1     -10.710   8.819  69.462  1.00  0.00    -0.188 C  
BRANCH   6   7
HETATM    7  S   UNL     1      -9.857  10.392  69.166  1.00  0.00    -0.224 S  
HETATM    8  O   UNL     1      -9.056  10.210  67.904  1.00  0.00    -0.130 OA 
BRANCH   7   9
HETATM    9  C   UNL     1     -11.340  11.420  68.745  1.00  0.00    -0.271 C  
BRANCH   9  10
HETATM   10  C   UNL     1     -12.015  12.083  69.942  1.00  0.00    -0.391 A  
HETATM   11  C   UNL     1     -12.642  11.280  70.913  1.00  0.00    -0.467 A  
HETATM   12  C   UNL     1     -12.097  13.476  70.092  1.00  0.00    -0.425 A  
HETATM   13  C   UNL     1     -13.328  11.851  71.989  1.00  0.00    -0.425 A  
HETATM   14  C   UNL     1     -13.408  13.232  72.109  1.00  0.00    -0.618 A  
HETATM   15  C   UNL     1     -12.794  14.047  71.162  1.00  0.00    -0.427 A  
ENDBRANCH   9  10
BRANCH   9  16
HETATM   16  C   UNL     1     -10.991  12.410  67.632  1.00  0.00    -0.276 A  
HETATM   17  C   UNL     1      -9.505  14.119  66.736  1.00  0.00    -0.290 A  
HETATM   18  C   UNL     1     -11.524  13.561  65.547  1.00  0.00    -0.320 A  
HETATM   19  C   UNL     1      -9.812  13.170  67.714  1.00  0.00    -0.228 A  
HETATM   20  C   UNL     1     -11.836  12.617  66.526  1.00  0.00    -0.463 A  
HETATM   21  C   UNL     1     -10.362  14.316  65.654  1.00  0.00    -0.352 A  
ENDBRANCH   9  16
ENDBRANCH   7   9
ENDBRANCH   6   7
ENDBRANCH   2   6
TORSDOF 5
ENDMDL
MODEL      108
REMARK 921   NORMALIZED FREE ENERGY PREDICTED BY IDOCK:   -4.23 KCAL/MOL
REMARK 922        TOTAL FREE ENERGY PREDICTED BY IDOCK:   -6.46 KCAL/MOL
REMARK 923 INTER-LIGAND FREE ENERGY PREDICTED BY IDOCK:   -6.23 KCAL/MOL
REMARK 924 INTRA-LIGAND FREE ENERGY PREDICTED BY IDOCK:   -0.23 KCAL/MOL
REMARK 927      BINDING AFFINITY PREDICTED BY RF-SCORE:    0.00 PKD
ROOT
HETATM    1  N   UNL     1     -10.927   5.698  66.396  1.00  0.00    -0.735 N  
HETATM    2  C   UNL     1     -10.929   6.726  67.301  1.00  0.00    -0.363 C  
HETATM    3  H1  UNL     1     -11.082   4.735  66.695  1.00  0.00     0.000 HD 
HETATM    4  H2  UNL     1     -10.768   5.897  65.407  1.00  0.00     0.000 HD 
HETATM    5  O   UNL     1     -10.743   7.884  66.940  1.00  0.00    -0.333 OA 
ENDROOT
BRANCH   2   6
HETATM    6  C   UNL     1     -11.132   6.330  68.748  1.00  0.00    -0.346 C  
BRANCH   6   7
HETATM    7  S   UNL     1      -9.529   6.297  69.596  1.00  0.00    -0.146 S  
HETATM    8  O   UNL     1      -8.763   7.497  69.104  1.00  0.00    -0.135 OA 
BRANCH   7   9
HETATM    9  C   UNL     1     -10.128   6.676  71.307  1.00  0.00    -0.188 C  
BRANCH   9  10
HETATM   10  C   UNL     1     -11.422   7.483  71.364  1.00  0.00    -0.291 A  
HETATM   11  C   UNL     1     -11.361   8.888  71.319  1.00  0.00    -0.371 A  
HETATM   12  C   UNL     1     -12.682   6.887  71.524  1.00  0.00    -0.396 A  
HETATM   13  C   UNL     1     -12.518   9.665  71.434  1.00  0.00    -0.465 A  
HETATM   14  C   UNL     1     -13.753   9.054  71.607  1.00  0.00    -0.442 A  
HETATM   15  C   UNL     1     -13.838   7.665  71.653  1.00  0.00    -0.480 A  
ENDBRANCH   9  10
BRANCH   9  16
HETATM   16  C   UNL     1     -10.188   5.392  72.137  1.00  0.00    -0.253 A  
HETATM   17  C   UNL     1      -9.987   2.968  72.267  1.00  0.00    -0.237 A  
HETATM   18  C   UNL     1     -10.671   4.208  74.215  1.00  0.00    -0.259 A  
HETATM   19  C   UNL     1      -9.883   4.157  71.540  1.00  0.00    -0.255 A  
HETATM   20  C   UNL     1     -10.575   5.396  73.490  1.00  0.00    -0.310 A  
HETATM   21  C   UNL     1     -10.382   2.994  73.603  1.00  0.00    -0.225 A  
ENDBRANCH   9  16
ENDBRANCH   7   9
ENDBRANCH   6   7
ENDBRANCH   2   6
TORSDOF 5
ENDMDL
MODEL      109
REMARK 921   NORMALIZED FREE ENERGY PREDICTED BY IDOCK:   -4.20 KCAL/MOL
REMARK 922        TOTAL FREE ENERGY PREDICTED BY IDOCK:   -6.43 KCAL/MOL
REMARK 923 INTER-LIGAND FREE ENERGY PREDICTED BY IDOCK:   -5.46 KCAL/MOL
REMARK 924 INTRA-LIGAND FREE ENERGY PREDICTED BY IDOCK:   -0.97 KCAL/MOL
REMARK 927      BINDING AFFINITY PREDICTED BY RF-SCORE:    0.00 PKD
ROOT
HETATM    1  N   UNL     1     -13.896  15.351  70.771  1.00  0.00    -0.860 N  
HETATM    2  C   UNL     1     -12.546  15.128  70.712  1.00  0.00    -0.393 C  
HETATM    3  H1  UNL     1     -14.560  14.617  70.527  1.00  0.00     0.000 HD 
HETATM    4  H2  UNL     1     -14.242  16.266  71.063  1.00  0.00     0.000 HD 
HETATM    5  O   UNL     1     -11.747  16.012  71.006  1.00  0.00    -0.391 OA 
ENDROOT
BRANCH   2   6
HETATM    6  C   UNL     1     -12.125  13.756  70.229  1.00  0.00    -0.355 C  
BRANCH   6   7
HETATM    7  S   UNL     1     -11.834  13.808  68.439  1.00  0.00    -0.374 S  
HETATM    8  O   UNL     1     -12.156  15.212  67.997  1.00  0.00    -0.192 OA 
BRANCH   7   9
HETATM    9  C   UNL     1      -9.990  13.638  68.467  1.00  0.00    -0.208 C  
BRANCH   9  10
HETATM   10  C   UNL     1      -9.452  12.422  67.719  1.00  0.00    -0.199 A  
HETATM   11  C   UNL     1      -8.113  12.032  67.907  1.00  0.00    -0.150 A  
HETATM   12  C   UNL     1     -10.219  11.701  66.790  1.00  0.00    -0.248 A  
HETATM   13  C   UNL     1      -7.563  10.964  67.192  1.00  0.00    -0.109 A  
HETATM   14  C   UNL     1      -8.337  10.274  66.267  1.00  0.00    -0.134 A  
HETATM   15  C   UNL     1      -9.665  10.641  66.064  1.00  0.00    -0.258 A  
ENDBRANCH   9  10
BRANCH   9  16
HETATM   16  C   UNL     1      -9.337  14.949  68.024  1.00  0.00    -0.193 A  
HETATM   17  C   UNL     1      -8.512  16.381  66.235  1.00  0.00    -0.372 A  
HETATM   18  C   UNL     1      -8.231  17.065  68.527  1.00  0.00    -0.259 A  
HETATM   19  C   UNL     1      -9.158  15.216  66.657  1.00  0.00    -0.310 A  
HETATM   20  C   UNL     1      -8.869  15.899  68.951  1.00  0.00    -0.225 A  
HETATM   21  C   UNL     1      -8.048  17.305  67.170  1.00  0.00    -0.225 A  
ENDBRANCH   9  16
ENDBRANCH   7   9
ENDBRANCH   6   7
ENDBRANCH   2   6
TORSDOF 5
ENDMDL
MODEL      110
REMARK 921   NORMALIZED FREE ENERGY PREDICTED BY IDOCK:   -4.19 KCAL/MOL
REMARK 922        TOTAL FREE ENERGY PREDICTED BY IDOCK:   -6.41 KCAL/MOL
REMARK 923 INTER-LIGAND FREE ENERGY PREDICTED BY IDOCK:   -5.78 KCAL/MOL
REMARK 924 INTRA-LIGAND FREE ENERGY PREDICTED BY IDOCK:   -0.63 KCAL/MOL
REMARK 927      BINDING AFFINITY PREDICTED BY RF-SCORE:    0.00 PKD
ROOT
HETATM    1  N   UNL     1     -11.456   5.725  72.845  1.00  0.00    -0.472 N  
HETATM    2  C   UNL     1     -11.548   6.152  71.547  1.00  0.00    -0.241 C  
HETATM    3  H1  UNL     1     -12.057   6.117  73.570  1.00  0.00     0.000 HD 
HETATM    4  H2  UNL     1     -10.776   5.005  73.091  1.00  0.00     0.000 HD 
HETATM    5  O   UNL     1     -10.824   5.680  70.675  1.00  0.00    -0.273 OA 
ENDROOT
BRANCH   2   6
HETATM    6  C   UNL     1     -12.555   7.252  71.283  1.00  0.00    -0.366 C  
BRANCH   6   7
HETATM    7  S   UNL     1     -11.942   8.812  71.978  1.00  0.00    -0.379 S  
HETATM    8  O   UNL     1     -10.517   8.560  72.395  1.00  0.00    -0.322 OA 
BRANCH   7   9
HETATM    9  C   UNL     1     -11.902   9.799  70.412  1.00  0.00    -0.193 C  
BRANCH   9  10
HETATM   10  C   UNL     1     -12.179  11.289  70.591  1.00  0.00    -0.489 A  
HETATM   11  C   UNL     1     -12.929  11.722  71.700  1.00  0.00    -0.467 A  
HETATM   12  C   UNL     1     -11.772  12.255  69.658  1.00  0.00    -0.386 A  
HETATM   13  C   UNL     1     -13.260  13.071  71.866  1.00  0.00    -0.527 A  
HETATM   14  C   UNL     1     -12.859  14.007  70.922  1.00  0.00    -0.389 A  
HETATM   15  C   UNL     1     -12.115  13.601  69.817  1.00  0.00    -0.396 A  
ENDBRANCH   9  10
BRANCH   9  16
HETATM   16  C   UNL     1     -10.604   9.520  69.651  1.00  0.00    -0.245 A  
HETATM   17  C   UNL     1      -8.226   9.946  69.335  1.00  0.00    -0.147 A  
HETATM   18  C   UNL     1      -9.381   8.475  67.816  1.00  0.00    -0.153 A  
HETATM   19  C   UNL     1      -9.410  10.143  70.051  1.00  0.00    -0.062 A  
HETATM   20  C   UNL     1     -10.565   8.676  68.526  1.00  0.00    -0.162 A  
HETATM   21  C   UNL     1      -8.213   9.113  68.217  1.00  0.00    -0.116 A  
ENDBRANCH   9  16
ENDBRANCH   7   9
ENDBRANCH   6   7
ENDBRANCH   2   6
TORSDOF 5
ENDMDL
MODEL      111
REMARK 921   NORMALIZED FREE ENERGY PREDICTED BY IDOCK:   -4.18 KCAL/MOL
REMARK 922        TOTAL FREE ENERGY PREDICTED BY IDOCK:   -6.41 KCAL/MOL
REMARK 923 INTER-LIGAND FREE ENERGY PREDICTED BY IDOCK:   -6.03 KCAL/MOL
REMARK 924 INTRA-LIGAND FREE ENERGY PREDICTED BY IDOCK:   -0.37 KCAL/MOL
REMARK 927      BINDING AFFINITY PREDICTED BY RF-SCORE:    0.00 PKD
ROOT
HETATM    1  N   UNL     1     -10.344  19.325  69.401  1.00  0.00    -0.444 N  
HETATM    2  C   UNL     1      -9.790  19.450  68.154  1.00  0.00    -0.393 C  
HETATM    3  H1  UNL     1     -11.293  18.971  69.521  1.00  0.00     0.000 HD 
HETATM    4  H2  UNL     1      -9.799  19.590  70.223  1.00  0.00     0.000 HD 
HETATM    5  O   UNL     1      -8.648  19.875  68.011  1.00  0.00    -0.307 OA 
ENDROOT
BRANCH   2   6
HETATM    6  C   UNL     1     -10.687  19.072  66.994  1.00  0.00    -0.432 C  
BRANCH   6   7
HETATM    7  S   UNL     1      -9.859  17.822  65.973  1.00  0.00    -0.097 S  
HETATM    8  O   UNL     1      -8.384  18.114  66.056  1.00  0.00    -0.491 OA 
BRANCH   7   9
HETATM    9  C   UNL     1     -10.200  16.346  67.037  1.00  0.00    -0.282 C  
BRANCH   9  10
HETATM   10  C   UNL     1     -10.985  15.233  66.350  1.00  0.00    -0.299 A  
HETATM   11  C   UNL     1     -11.429  14.132  67.107  1.00  0.00    -0.373 A  
HETATM   12  C   UNL     1     -11.237  15.222  64.969  1.00  0.00    -0.409 A  
HETATM   13  C   UNL     1     -12.095  13.062  66.503  1.00  0.00    -0.410 A  
HETATM   14  C   UNL     1     -12.320  13.066  65.132  1.00  0.00    -0.536 A  
HETATM   15  C   UNL     1     -11.891  14.145  64.363  1.00  0.00    -0.447 A  
ENDBRANCH   9  10
BRANCH   9  16
HETATM   16  C   UNL     1      -8.900  15.852  67.677  1.00  0.00    -0.180 A  
HETATM   17  C   UNL     1      -6.894  14.475  67.556  1.00  0.00    -0.168 A  
HETATM   18  C   UNL     1      -7.364  15.713  69.569  1.00  0.00    -0.197 A  
HETATM   19  C   UNL     1      -8.056  14.982  66.967  1.00  0.00    -0.225 A  
HETATM   20  C   UNL     1      -8.528  16.214  68.985  1.00  0.00    -0.251 A  
HETATM   21  C   UNL     1      -6.550  14.839  68.857  1.00  0.00    -0.091 A  
ENDBRANCH   9  16
ENDBRANCH   7   9
ENDBRANCH   6   7
ENDBRANCH   2   6
TORSDOF 5
ENDMDL
MODEL      112
REMARK 921   NORMALIZED FREE ENERGY PREDICTED BY IDOCK:   -4.17 KCAL/MOL
REMARK 922        TOTAL FREE ENERGY PREDICTED BY IDOCK:   -6.40 KCAL/MOL
REMARK 923 INTER-LIGAND FREE ENERGY PREDICTED BY IDOCK:   -6.00 KCAL/MOL
REMARK 924 INTRA-LIGAND FREE ENERGY PREDICTED BY IDOCK:   -0.40 KCAL/MOL
REMARK 927      BINDING AFFINITY PREDICTED BY RF-SCORE:    0.00 PKD
ROOT
HETATM    1  N   UNL     1     -10.887  19.960  65.363  1.00  0.00    -0.246 N  
HETATM    2  C   UNL     1     -10.496  19.270  66.480  1.00  0.00    -0.462 C  
HETATM    3  H1  UNL     1     -10.690  19.600  64.429  1.00  0.00     0.000 HD 
HETATM    4  H2  UNL     1     -11.382  20.846  65.467  1.00  0.00     0.000 HD 
HETATM    5  O   UNL     1     -10.733  19.702  67.603  1.00  0.00    -0.445 OA 
ENDROOT
BRANCH   2   6
HETATM    6  C   UNL     1      -9.732  17.986  66.229  1.00  0.00    -0.270 C  
BRANCH   6   7
HETATM    7  S   UNL     1     -10.889  16.683  65.724  1.00  0.00    -0.010 S  
HETATM    8  O   UNL     1     -11.241  16.962  64.286  1.00  0.00    -1.204 OA 
BRANCH   7   9
HETATM    9  C   UNL     1      -9.706  15.259  65.745  1.00  0.00    -0.350 C  
BRANCH   9  10
HETATM   10  C   UNL     1      -8.952  15.077  67.059  1.00  0.00    -0.255 A  
HETATM   11  C   UNL     1      -9.648  15.200  68.277  1.00  0.00    -0.211 A  
HETATM   12  C   UNL     1      -7.568  14.853  67.117  1.00  0.00    -0.145 A  
HETATM   13  C   UNL     1      -8.981  15.106  69.502  1.00  0.00    -0.129 A  
HETATM   14  C   UNL     1      -7.609  14.898  69.534  1.00  0.00    -0.137 A  
HETATM   15  C   UNL     1      -6.899  14.772  68.342  1.00  0.00    -0.104 A  
ENDBRANCH   9  10
BRANCH   9  16
HETATM   16  C   UNL     1     -10.414  13.984  65.281  1.00  0.00    -0.398 A  
HETATM   17  C   UNL     1     -12.039  12.899  63.826  1.00  0.00    -0.583 A  
HETATM   18  C   UNL     1     -10.888  11.600  65.497  1.00  0.00    -0.334 A  
HETATM   19  C   UNL     1     -11.340  14.041  64.227  1.00  0.00    -0.277 A  
HETATM   20  C   UNL     1     -10.195  12.741  65.903  1.00  0.00    -0.300 A  
HETATM   21  C   UNL     1     -11.814  11.679  64.463  1.00  0.00    -0.138 A  
ENDBRANCH   9  16
ENDBRANCH   7   9
ENDBRANCH   6   7
ENDBRANCH   2   6
TORSDOF 5
ENDMDL
MODEL      113
REMARK 921   NORMALIZED FREE ENERGY PREDICTED BY IDOCK:   -4.17 KCAL/MOL
REMARK 922        TOTAL FREE ENERGY PREDICTED BY IDOCK:   -6.39 KCAL/MOL
REMARK 923 INTER-LIGAND FREE ENERGY PREDICTED BY IDOCK:   -5.33 KCAL/MOL
REMARK 924 INTRA-LIGAND FREE ENERGY PREDICTED BY IDOCK:   -1.05 KCAL/MOL
REMARK 927      BINDING AFFINITY PREDICTED BY RF-SCORE:    0.00 PKD
ROOT
HETATM    1  N   UNL     1      -7.862   5.706  72.969  1.00  0.00    -0.101 N  
HETATM    2  C   UNL     1      -9.174   6.095  73.022  1.00  0.00    -0.133 C  
HETATM    3  H1  UNL     1      -7.109   6.383  73.093  1.00  0.00     0.000 HD 
HETATM    4  H2  UNL     1      -7.634   4.725  72.802  1.00  0.00     0.000 HD 
HETATM    5  O   UNL     1     -10.080   5.280  72.872  1.00  0.00    -0.166 OA 
ENDROOT
BRANCH   2   6
HETATM    6  C   UNL     1      -9.416   7.575  73.232  1.00  0.00    -0.240 C  
BRANCH   6   7
HETATM    7  S   UNL     1      -9.042   8.472  71.700  1.00  0.00    -0.250 S  
HETATM    8  O   UNL     1      -7.727   7.932  71.202  1.00  0.00    -0.080 OA 
BRANCH   7   9
HETATM    9  C   UNL     1     -10.380   7.754  70.641  1.00  0.00    -0.202 C  
BRANCH   9  10
HETATM   10  C   UNL     1     -11.798   8.025  71.136  1.00  0.00    -0.307 A  
HETATM   11  C   UNL     1     -12.129   9.307  71.614  1.00  0.00    -0.451 A  
HETATM   12  C   UNL     1     -12.784   7.028  71.199  1.00  0.00    -0.361 A  
HETATM   13  C   UNL     1     -13.397   9.577  72.137  1.00  0.00    -0.545 A  
HETATM   14  C   UNL     1     -14.353   8.572  72.202  1.00  0.00    -0.529 A  
HETATM   15  C   UNL     1     -14.048   7.296  71.734  1.00  0.00    -0.485 A  
ENDBRANCH   9  10
BRANCH   9  16
HETATM   16  C   UNL     1     -10.169   8.163  69.182  1.00  0.00    -0.219 A  
HETATM   17  C   UNL     1      -9.590   9.874  67.547  1.00  0.00    -0.183 A  
HETATM   18  C   UNL     1     -10.278   7.693  66.790  1.00  0.00    -0.333 A  
HETATM   19  C   UNL     1      -9.734   9.464  68.875  1.00  0.00    -0.166 A  
HETATM   20  C   UNL     1     -10.430   7.284  68.115  1.00  0.00    -0.244 A  
HETATM   21  C   UNL     1      -9.863   8.989  66.505  1.00  0.00    -0.338 A  
ENDBRANCH   9  16
ENDBRANCH   7   9
ENDBRANCH   6   7
ENDBRANCH   2   6
TORSDOF 5
ENDMDL
MODEL      114
REMARK 921   NORMALIZED FREE ENERGY PREDICTED BY IDOCK:   -4.15 KCAL/MOL
REMARK 922        TOTAL FREE ENERGY PREDICTED BY IDOCK:   -6.37 KCAL/MOL
REMARK 923 INTER-LIGAND FREE ENERGY PREDICTED BY IDOCK:   -5.82 KCAL/MOL
REMARK 924 INTRA-LIGAND FREE ENERGY PREDICTED BY IDOCK:   -0.55 KCAL/MOL
REMARK 927      BINDING AFFINITY PREDICTED BY RF-SCORE:    0.00 PKD
ROOT
HETATM    1  N   UNL     1     -13.439  14.779  70.581  1.00  0.00    -0.587 N  
HETATM    2  C   UNL     1     -12.528  13.838  70.178  1.00  0.00    -0.267 C  
HETATM    3  H1  UNL     1     -13.575  15.639  70.048  1.00  0.00     0.000 HD 
HETATM    4  H2  UNL     1     -13.989  14.618  71.425  1.00  0.00     0.000 HD 
HETATM    5  O   UNL     1     -12.365  12.804  70.819  1.00  0.00    -0.368 OA 
ENDROOT
BRANCH   2   6
HETATM    6  C   UNL     1     -11.729  14.181  68.938  1.00  0.00    -0.334 C  
BRANCH   6   7
HETATM    7  S   UNL     1     -11.635  15.984  68.759  1.00  0.00    -0.279 S  
HETATM    8  O   UNL     1     -11.068  16.510  70.052  1.00  0.00    -0.345 OA 
BRANCH   7   9
HETATM    9  C   UNL     1     -10.290  16.052  67.488  1.00  0.00    -0.287 C  
BRANCH   9  10
HETATM   10  C   UNL     1      -9.864  17.461  67.088  1.00  0.00    -0.278 A  
HETATM   11  C   UNL     1     -10.779  18.522  67.219  1.00  0.00    -0.417 A  
HETATM   12  C   UNL     1      -8.609  17.745  66.527  1.00  0.00    -0.283 A  
HETATM   13  C   UNL     1     -10.449  19.816  66.802  1.00  0.00    -0.610 A  
HETATM   14  C   UNL     1      -9.206  20.070  66.237  1.00  0.00    -0.426 A  
HETATM   15  C   UNL     1      -8.284  19.036  66.098  1.00  0.00    -0.246 A  
ENDBRANCH   9  10
BRANCH   9  16
HETATM   16  C   UNL     1      -9.115  15.173  67.922  1.00  0.00    -0.179 A  
HETATM   17  C   UNL     1      -7.283  14.735  69.467  1.00  0.00    -0.160 A  
HETATM   18  C   UNL     1      -7.595  13.299  67.558  1.00  0.00    -0.169 A  
HETATM   19  C   UNL     1      -8.394  15.492  69.085  1.00  0.00    -0.253 A  
HETATM   20  C   UNL     1      -8.700  14.058  67.171  1.00  0.00    -0.234 A  
HETATM   21  C   UNL     1      -6.883  13.640  68.702  1.00  0.00    -0.097 A  
ENDBRANCH   9  16
ENDBRANCH   7   9
ENDBRANCH   6   7
ENDBRANCH   2   6
TORSDOF 5
ENDMDL
MODEL      115
REMARK 921   NORMALIZED FREE ENERGY PREDICTED BY IDOCK:   -4.15 KCAL/MOL
REMARK 922        TOTAL FREE ENERGY PREDICTED BY IDOCK:   -6.37 KCAL/MOL
REMARK 923 INTER-LIGAND FREE ENERGY PREDICTED BY IDOCK:   -5.44 KCAL/MOL
REMARK 924 INTRA-LIGAND FREE ENERGY PREDICTED BY IDOCK:   -0.93 KCAL/MOL
REMARK 927      BINDING AFFINITY PREDICTED BY RF-SCORE:    0.00 PKD
ROOT
HETATM    1  N   UNL     1     -12.570  13.890  62.901  1.00  0.00    -0.788 N  
HETATM    2  C   UNL     1     -12.603  12.717  63.606  1.00  0.00    -0.337 C  
HETATM    3  H1  UNL     1     -12.167  14.735  63.307  1.00  0.00     0.000 HD 
HETATM    4  H2  UNL     1     -12.954  13.921  61.956  1.00  0.00     0.000 HD 
HETATM    5  O   UNL     1     -13.087  11.701  63.117  1.00  0.00    -0.497 OA 
ENDROOT
BRANCH   2   6
HETATM    6  C   UNL     1     -12.048  12.777  65.014  1.00  0.00    -0.441 C  
BRANCH   6   7
HETATM    7  S   UNL     1     -10.542  13.788  65.028  1.00  0.00    -0.409 S  
HETATM    8  O   UNL     1     -10.989  15.217  64.866  1.00  0.00    -0.408 OA 
BRANCH   7   9
HETATM    9  C   UNL     1     -10.077  13.543  66.804  1.00  0.00    -0.268 C  
BRANCH   9  10
HETATM   10  C   UNL     1      -9.058  12.435  67.047  1.00  0.00    -0.207 A  
HETATM   11  C   UNL     1      -8.701  11.579  65.988  1.00  0.00    -0.095 A  
HETATM   12  C   UNL     1      -8.497  12.182  68.309  1.00  0.00    -0.176 A  
HETATM   13  C   UNL     1      -7.820  10.511  66.187  1.00  0.00    -0.145 A  
HETATM   14  C   UNL     1      -7.289  10.273  67.447  1.00  0.00    -0.093 A  
HETATM   15  C   UNL     1      -7.626  11.106  68.510  1.00  0.00    -0.120 A  
ENDBRANCH   9  10
BRANCH   9  16
HETATM   16  C   UNL     1      -9.668  14.879  67.426  1.00  0.00    -0.217 A  
HETATM   17  C   UNL     1      -8.025  16.660  67.677  1.00  0.00    -0.188 A  
HETATM   18  C   UNL     1     -10.055  16.728  68.971  1.00  0.00    -0.283 A  
HETATM   19  C   UNL     1      -8.442  15.469  67.076  1.00  0.00    -0.266 A  
HETATM   20  C   UNL     1     -10.470  15.535  68.378  1.00  0.00    -0.240 A  
HETATM   21  C   UNL     1      -8.831  17.288  68.625  1.00  0.00    -0.261 A  
ENDBRANCH   9  16
ENDBRANCH   7   9
ENDBRANCH   6   7
ENDBRANCH   2   6
TORSDOF 5
ENDMDL
MODEL      116
REMARK 921   NORMALIZED FREE ENERGY PREDICTED BY IDOCK:   -4.14 KCAL/MOL
REMARK 922        TOTAL FREE ENERGY PREDICTED BY IDOCK:   -6.35 KCAL/MOL
REMARK 923 INTER-LIGAND FREE ENERGY PREDICTED BY IDOCK:   -5.71 KCAL/MOL
REMARK 924 INTRA-LIGAND FREE ENERGY PREDICTED BY IDOCK:   -0.64 KCAL/MOL
REMARK 927      BINDING AFFINITY PREDICTED BY RF-SCORE:    0.00 PKD
ROOT
HETATM    1  N   UNL     1      -8.714  10.283  64.143  1.00  0.00    -0.191 N  
HETATM    2  C   UNL     1      -9.773  10.995  64.639  1.00  0.00    -0.266 C  
HETATM    3  H1  UNL     1      -8.427   9.402  64.571  1.00  0.00     0.000 HD 
HETATM    4  H2  UNL     1      -8.204  10.637  63.333  1.00  0.00     0.000 HD 
HETATM    5  O   UNL     1     -10.118  12.054  64.124  1.00  0.00    -0.301 OA 
ENDROOT
BRANCH   2   6
HETATM    6  C   UNL     1     -10.443  10.413  65.867  1.00  0.00    -0.125 C  
BRANCH   6   7
HETATM    7  S   UNL     1     -10.916  11.755  66.992  1.00  0.00    -0.300 S  
HETATM    8  O   UNL     1     -12.198  12.331  66.450  1.00  0.00    -0.613 OA 
BRANCH   7   9
HETATM    9  C   UNL     1     -11.344  10.722  68.468  1.00  0.00    -0.295 C  
BRANCH   9  10
HETATM   10  C   UNL     1     -10.241   9.769  68.919  1.00  0.00    -0.213 A  
HETATM   11  C   UNL     1      -9.000  10.293  69.325  1.00  0.00    -0.190 A  
HETATM   12  C   UNL     1     -10.384   8.373  68.890  1.00  0.00    -0.231 A  
HETATM   13  C   UNL     1      -7.942   9.451  69.683  1.00  0.00    -0.109 A  
HETATM   14  C   UNL     1      -8.102   8.073  69.632  1.00  0.00    -0.119 A  
HETATM   15  C   UNL     1      -9.323   7.531  69.235  1.00  0.00    -0.151 A  
ENDBRANCH   9  10
BRANCH   9  16
HETATM   16  C   UNL     1     -11.863  11.614  69.598  1.00  0.00    -0.419 A  
HETATM   17  C   UNL     1     -13.053  11.842  71.711  1.00  0.00    -0.465 A  
HETATM   18  C   UNL     1     -12.257  13.814  70.578  1.00  0.00    -0.440 A  
HETATM   19  C   UNL     1     -12.522  11.040  70.697  1.00  0.00    -0.465 A  
HETATM   20  C   UNL     1     -11.733  13.015  69.562  1.00  0.00    -0.381 A  
HETATM   21  C   UNL     1     -12.922  13.229  71.650  1.00  0.00    -0.441 A  
ENDBRANCH   9  16
ENDBRANCH   7   9
ENDBRANCH   6   7
ENDBRANCH   2   6
TORSDOF 5
ENDMDL
MODEL      117
REMARK 921   NORMALIZED FREE ENERGY PREDICTED BY IDOCK:   -4.14 KCAL/MOL
REMARK 922        TOTAL FREE ENERGY PREDICTED BY IDOCK:   -6.35 KCAL/MOL
REMARK 923 INTER-LIGAND FREE ENERGY PREDICTED BY IDOCK:   -6.47 KCAL/MOL
REMARK 924 INTRA-LIGAND FREE ENERGY PREDICTED BY IDOCK:    0.12 KCAL/MOL
REMARK 927      BINDING AFFINITY PREDICTED BY RF-SCORE:    0.00 PKD
ROOT
HETATM    1  N   UNL     1      -8.968  14.587  66.358  1.00  0.00    -0.469 N  
HETATM    2  C   UNL     1      -8.143  14.034  67.301  1.00  0.00    -0.156 C  
HETATM    3  H1  UNL     1      -9.982  14.505  66.436  1.00  0.00     0.000 HD 
HETATM    4  H2  UNL     1      -8.563  15.088  65.566  1.00  0.00     0.000 HD 
HETATM    5  O   UNL     1      -6.923  14.133  67.207  1.00  0.00    -0.189 OA 
ENDROOT
BRANCH   2   6
HETATM    6  C   UNL     1      -8.831  13.275  68.417  1.00  0.00    -0.124 C  
BRANCH   6   7
HETATM    7  S   UNL     1      -9.014  11.535  67.941  1.00  0.00    -0.166 S  
HETATM    8  O   UNL     1      -8.550  10.721  69.121  1.00  0.00    -0.150 OA 
BRANCH   7   9
HETATM    9  C   UNL     1     -10.864  11.465  67.904  1.00  0.00    -0.225 C  
BRANCH   9  10
HETATM   10  C   UNL     1     -11.543  11.919  69.193  1.00  0.00    -0.373 A  
HETATM   11  C   UNL     1     -12.101  10.957  70.055  1.00  0.00    -0.433 A  
HETATM   12  C   UNL     1     -11.698  13.271  69.535  1.00  0.00    -0.384 A  
HETATM   13  C   UNL     1     -12.789  11.335  71.212  1.00  0.00    -0.491 A  
HETATM   14  C   UNL     1     -12.942  12.680  71.522  1.00  0.00    -0.380 A  
HETATM   15  C   UNL     1     -12.398  13.650  70.685  1.00  0.00    -0.440 A  
ENDBRANCH   9  10
BRANCH   9  16
HETATM   16  C   UNL     1     -11.390  12.191  66.664  1.00  0.00    -0.405 A  
HETATM   17  C   UNL     1     -11.379  12.486  64.246  1.00  0.00    -0.417 A  
HETATM   18  C   UNL     1     -12.711  13.954  65.615  1.00  0.00    -0.534 A  
HETATM   19  C   UNL     1     -10.955  11.800  65.386  1.00  0.00    -0.352 A  
HETATM   20  C   UNL     1     -12.282  13.275  66.756  1.00  0.00    -0.340 A  
HETATM   21  C   UNL     1     -12.256  13.564  64.361  1.00  0.00    -0.440 A  
ENDBRANCH   9  16
ENDBRANCH   7   9
ENDBRANCH   6   7
ENDBRANCH   2   6
TORSDOF 5
ENDMDL
MODEL      118
REMARK 921   NORMALIZED FREE ENERGY PREDICTED BY IDOCK:   -4.14 KCAL/MOL
REMARK 922        TOTAL FREE ENERGY PREDICTED BY IDOCK:   -6.35 KCAL/MOL
REMARK 923 INTER-LIGAND FREE ENERGY PREDICTED BY IDOCK:   -5.78 KCAL/MOL
REMARK 924 INTRA-LIGAND FREE ENERGY PREDICTED BY IDOCK:   -0.58 KCAL/MOL
REMARK 927      BINDING AFFINITY PREDICTED BY RF-SCORE:    0.00 PKD
ROOT
HETATM    1  N   UNL     1     -11.163   5.611  66.291  1.00  0.00    -0.749 N  
HETATM    2  C   UNL     1     -10.794   6.556  67.211  1.00  0.00    -0.390 C  
HETATM    3  H1  UNL     1     -10.756   5.603  65.356  1.00  0.00     0.000 HD 
HETATM    4  H2  UNL     1     -11.854   4.904  66.545  1.00  0.00     0.000 HD 
HETATM    5  O   UNL     1     -11.284   6.565  68.337  1.00  0.00    -0.283 OA 
ENDROOT
BRANCH   2   6
HETATM    6  C   UNL     1      -9.794   7.588  66.734  1.00  0.00    -0.225 C  
BRANCH   6   7
HETATM    7  S   UNL     1     -10.282   9.228  67.336  1.00  0.00    -0.261 S  
HETATM    8  O   UNL     1      -9.455   9.491  68.567  1.00  0.00    -0.140 OA 
BRANCH   7   9
HETATM    9  C   UNL     1      -9.572  10.237  65.956  1.00  0.00    -0.206 C  
BRANCH   9  10
HETATM   10  C   UNL     1     -10.506  11.310  65.406  1.00  0.00    -0.326 A  
HETATM   11  C   UNL     1     -11.332  12.027  66.292  1.00  0.00    -0.415 A  
HETATM   12  C   UNL     1     -10.632  11.578  64.034  1.00  0.00    -0.437 A  
HETATM   13  C   UNL     1     -12.249  12.972  65.821  1.00  0.00    -0.511 A  
HETATM   14  C   UNL     1     -12.366  13.210  64.458  1.00  0.00    -0.447 A  
HETATM   15  C   UNL     1     -11.559  12.513  63.562  1.00  0.00    -0.584 A  
ENDBRANCH   9  10
BRANCH   9  16
HETATM   16  C   UNL     1      -8.203  10.788  66.362  1.00  0.00    -0.155 A  
HETATM   17  C   UNL     1      -6.870  12.569  67.354  1.00  0.00    -0.145 A  
HETATM   18  C   UNL     1      -5.766  10.655  66.394  1.00  0.00    -0.087 A  
HETATM   19  C   UNL     1      -8.114  12.023  67.026  1.00  0.00    -0.158 A  
HETATM   20  C   UNL     1      -7.007  10.111  66.060  1.00  0.00    -0.117 A  
HETATM   21  C   UNL     1      -5.697  11.886  67.036  1.00  0.00    -0.139 A  
ENDBRANCH   9  16
ENDBRANCH   7   9
ENDBRANCH   6   7
ENDBRANCH   2   6
TORSDOF 5
ENDMDL
MODEL      119
REMARK 921   NORMALIZED FREE ENERGY PREDICTED BY IDOCK:   -4.14 KCAL/MOL
REMARK 922        TOTAL FREE ENERGY PREDICTED BY IDOCK:   -6.35 KCAL/MOL
REMARK 923 INTER-LIGAND FREE ENERGY PREDICTED BY IDOCK:   -5.27 KCAL/MOL
REMARK 924 INTRA-LIGAND FREE ENERGY PREDICTED BY IDOCK:   -1.08 KCAL/MOL
REMARK 927      BINDING AFFINITY PREDICTED BY RF-SCORE:    0.00 PKD
ROOT
HETATM    1  N   UNL     1      -8.324   4.385  73.882  1.00  0.00    -0.099 N  
HETATM    2  C   UNL     1      -9.614   4.705  73.550  1.00  0.00    -0.124 C  
HETATM    3  H1  UNL     1      -7.641   5.113  74.093  1.00  0.00     0.000 HD 
HETATM    4  H2  UNL     1      -8.042   3.405  73.920  1.00  0.00     0.000 HD 
HETATM    5  O   UNL     1     -10.435   3.830  73.296  1.00  0.00    -0.155 OA 
ENDROOT
BRANCH   2   6
HETATM    6  C   UNL     1      -9.929   6.185  73.480  1.00  0.00    -0.191 C  
BRANCH   6   7
HETATM    7  S   UNL     1      -9.292   6.866  71.924  1.00  0.00    -0.139 S  
HETATM    8  O   UNL     1      -8.318   5.852  71.383  1.00  0.00    -0.124 OA 
BRANCH   7   9
HETATM    9  C   UNL     1     -10.846   6.739  70.925  1.00  0.00    -0.249 C  
BRANCH   9  10
HETATM   10  C   UNL     1     -12.006   7.584  71.443  1.00  0.00    -0.336 A  
HETATM   11  C   UNL     1     -13.311   7.057  71.411  1.00  0.00    -0.335 A  
HETATM   12  C   UNL     1     -11.843   8.902  71.897  1.00  0.00    -0.440 A  
HETATM   13  C   UNL     1     -14.409   7.823  71.816  1.00  0.00    -0.594 A  
HETATM   14  C   UNL     1     -14.225   9.130  72.248  1.00  0.00    -0.370 A  
HETATM   15  C   UNL     1     -12.943   9.672  72.289  1.00  0.00    -0.440 A  
ENDBRANCH   9  10
BRANCH   9  16
HETATM   16  C   UNL     1     -10.539   6.988  69.447  1.00  0.00    -0.248 A  
HETATM   17  C   UNL     1     -10.798   6.338  67.113  1.00  0.00    -0.460 A  
HETATM   18  C   UNL     1      -9.360   8.186  67.678  1.00  0.00    -0.160 A  
HETATM   19  C   UNL     1     -11.111   6.163  68.464  1.00  0.00    -0.352 A  
HETATM   20  C   UNL     1      -9.665   8.008  69.027  1.00  0.00    -0.159 A  
HETATM   21  C   UNL     1      -9.922   7.348  66.721  1.00  0.00    -0.300 A  
ENDBRANCH   9  16
ENDBRANCH   7   9
ENDBRANCH   6   7
ENDBRANCH   2   6
TORSDOF 5
ENDMDL
MODEL      120
REMARK 921   NORMALIZED FREE ENERGY PREDICTED BY IDOCK:   -4.11 KCAL/MOL
REMARK 922        TOTAL FREE ENERGY PREDICTED BY IDOCK:   -6.31 KCAL/MOL
REMARK 923 INTER-LIGAND FREE ENERGY PREDICTED BY IDOCK:   -5.63 KCAL/MOL
REMARK 924 INTRA-LIGAND FREE ENERGY PREDICTED BY IDOCK:   -0.68 KCAL/MOL
REMARK 927      BINDING AFFINITY PREDICTED BY RF-SCORE:    0.00 PKD
ROOT
HETATM    1  N   UNL     1      -6.790  10.693  64.697  1.00  0.00    -0.356 N  
HETATM    2  C   UNL     1      -7.520  10.249  65.768  1.00  0.00    -0.144 C  
HETATM    3  H1  UNL     1      -6.366  11.621  64.700  1.00  0.00     0.000 HD 
HETATM    4  H2  UNL     1      -6.669  10.087  63.885  1.00  0.00     0.000 HD 
HETATM    5  O   UNL     1      -8.029   9.132  65.764  1.00  0.00    -0.100 OA 
ENDROOT
BRANCH   2   6
HETATM    6  C   UNL     1      -7.681  11.230  66.910  1.00  0.00    -0.152 C  
BRANCH   6   7
HETATM    7  S   UNL     1      -9.402  11.218  67.480  1.00  0.00    -0.164 S  
HETATM    8  O   UNL     1      -9.351  11.157  68.984  1.00  0.00    -0.155 OA 
BRANCH   7   9
HETATM    9  C   UNL     1      -9.850  12.950  67.003  1.00  0.00    -0.233 C  
BRANCH   9  10
HETATM   10  C   UNL     1     -10.642  13.068  65.705  1.00  0.00    -0.297 A  
HETATM   11  C   UNL     1     -11.368  14.245  65.444  1.00  0.00    -0.329 A  
HETATM   12  C   UNL     1     -10.735  12.022  64.774  1.00  0.00    -0.352 A  
HETATM   13  C   UNL     1     -12.159  14.367  64.297  1.00  0.00    -0.461 A  
HETATM   14  C   UNL     1     -12.247  13.313  63.397  1.00  0.00    -0.476 A  
HETATM   15  C   UNL     1     -11.536  12.139  63.633  1.00  0.00    -0.575 A  
ENDBRANCH   9  10
BRANCH   9  16
HETATM   16  C   UNL     1     -10.523  13.659  68.180  1.00  0.00    -0.250 A  
HETATM   17  C   UNL     1     -10.457  15.369  69.915  1.00  0.00    -0.310 A  
HETATM   18  C   UNL     1     -12.336  13.867  69.801  1.00  0.00    -0.330 A  
HETATM   19  C   UNL     1      -9.884  14.745  68.803  1.00  0.00    -0.227 A  
HETATM   20  C   UNL     1     -11.763  13.238  68.695  1.00  0.00    -0.376 A  
HETATM   21  C   UNL     1     -11.681  14.928  70.414  1.00  0.00    -0.347 A  
ENDBRANCH   9  16
ENDBRANCH   7   9
ENDBRANCH   6   7
ENDBRANCH   2   6
TORSDOF 5
ENDMDL
MODEL      121
REMARK 921   NORMALIZED FREE ENERGY PREDICTED BY IDOCK:   -4.06 KCAL/MOL
REMARK 922        TOTAL FREE ENERGY PREDICTED BY IDOCK:   -6.25 KCAL/MOL
REMARK 923 INTER-LIGAND FREE ENERGY PREDICTED BY IDOCK:   -5.53 KCAL/MOL
REMARK 924 INTRA-LIGAND FREE ENERGY PREDICTED BY IDOCK:   -0.72 KCAL/MOL
REMARK 927      BINDING AFFINITY PREDICTED BY RF-SCORE:    0.00 PKD
ROOT
HETATM    1  N   UNL     1     -11.852  10.283  71.238  1.00  0.00    -0.360 N  
HETATM    2  C   UNL     1     -10.708   9.536  71.138  1.00  0.00    -0.338 C  
HETATM    3  H1  UNL     1     -12.224  10.782  70.429  1.00  0.00     0.000 HD 
HETATM    4  H2  UNL     1     -12.339  10.342  72.133  1.00  0.00     0.000 HD 
HETATM    5  O   UNL     1     -10.261   8.936  72.111  1.00  0.00    -0.321 OA 
ENDROOT
BRANCH   2   6
HETATM    6  C   UNL     1     -10.032   9.541  69.783  1.00  0.00    -0.213 C  
BRANCH   6   7
HETATM    7  S   UNL     1     -10.912  10.674  68.673  1.00  0.00    -0.266 S  
HETATM    8  O   UNL     1     -10.658  12.064  69.195  1.00  0.00    -0.150 OA 
BRANCH   7   9
HETATM    9  C   UNL     1      -9.858  10.438  67.168  1.00  0.00    -0.181 C  
BRANCH   9  10
HETATM   10  C   UNL     1      -9.442   8.995  66.902  1.00  0.00    -0.219 A  
HETATM   11  C   UNL     1     -10.433   8.003  66.774  1.00  0.00    -0.319 A  
HETATM   12  C   UNL     1      -8.099   8.590  66.841  1.00  0.00    -0.099 A  
HETATM   13  C   UNL     1     -10.091   6.659  66.595  1.00  0.00    -0.202 A  
HETATM   14  C   UNL     1      -8.756   6.280  66.552  1.00  0.00    -0.131 A  
HETATM   15  C   UNL     1      -7.758   7.244  66.675  1.00  0.00    -0.101 A  
ENDBRANCH   9  10
BRANCH   9  16
HETATM   16  C   UNL     1     -10.518  11.103  65.958  1.00  0.00    -0.312 A  
HETATM   17  C   UNL     1     -10.594  11.473  63.552  1.00  0.00    -0.487 A  
HETATM   18  C   UNL     1     -12.133  12.650  64.982  1.00  0.00    -0.497 A  
HETATM   19  C   UNL     1     -10.042  10.832  64.664  1.00  0.00    -0.410 A  
HETATM   20  C   UNL     1     -11.579  12.017  66.095  1.00  0.00    -0.371 A  
HETATM   21  C   UNL     1     -11.637  12.383  63.711  1.00  0.00    -0.553 A  
ENDBRANCH   9  16
ENDBRANCH   7   9
ENDBRANCH   6   7
ENDBRANCH   2   6
TORSDOF 5
ENDMDL
MODEL      122
REMARK 921   NORMALIZED FREE ENERGY PREDICTED BY IDOCK:   -4.06 KCAL/MOL
REMARK 922        TOTAL FREE ENERGY PREDICTED BY IDOCK:   -6.25 KCAL/MOL
REMARK 923 INTER-LIGAND FREE ENERGY PREDICTED BY IDOCK:   -5.34 KCAL/MOL
REMARK 924 INTRA-LIGAND FREE ENERGY PREDICTED BY IDOCK:   -0.91 KCAL/MOL
REMARK 927      BINDING AFFINITY PREDICTED BY RF-SCORE:    0.00 PKD
ROOT
HETATM    1  N   UNL     1      -8.402  14.218  68.850  1.00  0.00    -0.309 N  
HETATM    2  C   UNL     1      -8.456  15.557  69.134  1.00  0.00    -0.248 C  
HETATM    3  H1  UNL     1      -7.522  13.772  68.591  1.00  0.00     0.000 HD 
HETATM    4  H2  UNL     1      -9.254  13.659  68.898  1.00  0.00     0.000 HD 
HETATM    5  O   UNL     1      -9.515  16.093  69.446  1.00  0.00    -0.250 OA 
ENDROOT
BRANCH   2   6
HETATM    6  C   UNL     1      -7.152  16.314  68.998  1.00  0.00    -0.196 C  
BRANCH   6   7
HETATM    7  S   UNL     1      -6.783  16.571  67.240  1.00  0.00    -0.197 S  
HETATM    8  O   UNL     1      -7.959  16.023  66.475  1.00  0.00    -0.266 OA 
BRANCH   7   9
HETATM    9  C   UNL     1      -6.908  18.419  67.212  1.00  0.00    -0.198 C  
BRANCH   9  10
HETATM   10  C   UNL     1      -6.247  19.083  66.009  1.00  0.00    -0.220 A  
HETATM   11  C   UNL     1      -6.056  20.477  66.009  1.00  0.00    -0.241 A  
HETATM   12  C   UNL     1      -5.872  18.371  64.859  1.00  0.00    -0.162 A  
HETATM   13  C   UNL     1      -5.513  21.132  64.899  1.00  0.00    -0.227 A  
HETATM   14  C   UNL     1      -5.163  20.409  63.766  1.00  0.00    -0.223 A  
HETATM   15  C   UNL     1      -5.342  19.028  63.744  1.00  0.00    -0.291 A  
ENDBRANCH   9  10
BRANCH   9  16
HETATM   16  C   UNL     1      -8.364  18.847  67.406  1.00  0.00    -0.294 A  
HETATM   17  C   UNL     1     -10.614  19.095  66.507  1.00  0.00    -0.523 A  
HETATM   18  C   UNL     1     -10.129  19.893  68.727  1.00  0.00    -0.487 A  
HETATM   19  C   UNL     1      -9.294  18.659  66.370  1.00  0.00    -0.301 A  
HETATM   20  C   UNL     1      -8.809  19.464  68.590  1.00  0.00    -0.417 A  
HETATM   21  C   UNL     1     -11.031  19.714  67.684  1.00  0.00    -0.290 A  
ENDBRANCH   9  16
ENDBRANCH   7   9
ENDBRANCH   6   7
ENDBRANCH   2   6
TORSDOF 5
ENDMDL
MODEL      123
REMARK 921   NORMALIZED FREE ENERGY PREDICTED BY IDOCK:   -4.05 KCAL/MOL
REMARK 922        TOTAL FREE ENERGY PREDICTED BY IDOCK:   -6.24 KCAL/MOL
REMARK 923 INTER-LIGAND FREE ENERGY PREDICTED BY IDOCK:   -6.19 KCAL/MOL
REMARK 924 INTRA-LIGAND FREE ENERGY PREDICTED BY IDOCK:   -0.06 KCAL/MOL
REMARK 927      BINDING AFFINITY PREDICTED BY RF-SCORE:    0.00 PKD
ROOT
HETATM    1  N   UNL     1     -12.340  14.472  63.690  1.00  0.00    -1.104 N  
HETATM    2  C   UNL     1     -12.394  13.458  64.609  1.00  0.00    -0.382 C  
HETATM    3  H1  UNL     1     -12.423  15.447  63.979  1.00  0.00     0.000 HD 
HETATM    4  H2  UNL     1     -12.215  14.249  62.702  1.00  0.00     0.000 HD 
HETATM    5  O   UNL     1     -12.293  12.285  64.261  1.00  0.00    -0.431 OA 
ENDROOT
BRANCH   2   6
HETATM    6  C   UNL     1     -12.623  13.880  66.045  1.00  0.00    -0.423 C  
BRANCH   6   7
HETATM    7  S   UNL     1     -11.145  14.725  66.671  1.00  0.00    -0.335 S  
HETATM    8  O   UNL     1     -11.629  15.749  67.663  1.00  0.00    -0.197 OA 
BRANCH   7   9
HETATM    9  C   UNL     1     -10.421  13.314  67.628  1.00  0.00    -0.229 C  
BRANCH   9  10
HETATM   10  C   UNL     1      -8.928  13.439  67.914  1.00  0.00    -0.201 A  
HETATM   11  C   UNL     1      -8.331  14.713  67.923  1.00  0.00    -0.153 A  
HETATM   12  C   UNL     1      -8.096  12.325  68.109  1.00  0.00    -0.158 A  
HETATM   13  C   UNL     1      -6.954  14.865  68.116  1.00  0.00    -0.132 A  
HETATM   14  C   UNL     1      -6.149  13.747  68.292  1.00  0.00    -0.111 A  
HETATM   15  C   UNL     1      -6.718  12.476  68.289  1.00  0.00    -0.079 A  
ENDBRANCH   9  10
BRANCH   9  16
HETATM   16  C   UNL     1     -11.252  13.057  68.888  1.00  0.00    -0.326 A  
HETATM   17  C   UNL     1     -12.320  13.907  70.905  1.00  0.00    -0.451 A  
HETATM   18  C   UNL     1     -12.360  11.543  70.448  1.00  0.00    -0.390 A  
HETATM   19  C   UNL     1     -11.612  14.129  69.721  1.00  0.00    -0.351 A  
HETATM   20  C   UNL     1     -11.646  11.761  69.269  1.00  0.00    -0.378 A  
HETATM   21  C   UNL     1     -12.693  12.614  71.268  1.00  0.00    -0.354 A  
ENDBRANCH   9  16
ENDBRANCH   7   9
ENDBRANCH   6   7
ENDBRANCH   2   6
TORSDOF 5
ENDMDL
MODEL      124
REMARK 921   NORMALIZED FREE ENERGY PREDICTED BY IDOCK:   -4.05 KCAL/MOL
REMARK 922        TOTAL FREE ENERGY PREDICTED BY IDOCK:   -6.24 KCAL/MOL
REMARK 923 INTER-LIGAND FREE ENERGY PREDICTED BY IDOCK:   -5.44 KCAL/MOL
REMARK 924 INTRA-LIGAND FREE ENERGY PREDICTED BY IDOCK:   -0.79 KCAL/MOL
REMARK 927      BINDING AFFINITY PREDICTED BY RF-SCORE:    0.00 PKD
ROOT
HETATM    1  N   UNL     1     -12.881   9.574  70.560  1.00  0.00    -0.502 N  
HETATM    2  C   UNL     1     -12.785  10.908  70.853  1.00  0.00    -0.370 C  
HETATM    3  H1  UNL     1     -12.636   9.221  69.634  1.00  0.00     0.000 HD 
HETATM    4  H2  UNL     1     -13.202   8.923  71.277  1.00  0.00     0.000 HD 
HETATM    5  O   UNL     1     -13.080  11.332  71.967  1.00  0.00    -0.495 OA 
ENDROOT
BRANCH   2   6
HETATM    6  C   UNL     1     -12.340  11.804  69.716  1.00  0.00    -0.111 C  
BRANCH   6   7
HETATM    7  S   UNL     1     -10.994  10.999  68.804  1.00  0.00    -0.244 S  
HETATM    8  O   UNL     1     -11.647  10.157  67.738  1.00  0.00    -0.239 OA 
BRANCH   7   9
HETATM    9  C   UNL     1     -10.297  12.504  67.981  1.00  0.00    -0.222 C  
BRANCH   9  10
HETATM   10  C   UNL     1      -8.782  12.644  68.090  1.00  0.00    -0.190 A  
HETATM   11  C   UNL     1      -8.178  13.875  67.771  1.00  0.00    -0.173 A  
HETATM   12  C   UNL     1      -7.942  11.574  68.435  1.00  0.00    -0.143 A  
HETATM   13  C   UNL     1      -6.788  14.025  67.795  1.00  0.00    -0.187 A  
HETATM   14  C   UNL     1      -5.977  12.948  68.126  1.00  0.00    -0.087 A  
HETATM   15  C   UNL     1      -6.552  11.720  68.446  1.00  0.00    -0.055 A  
ENDBRANCH   9  10
BRANCH   9  16
HETATM   16  C   UNL     1     -10.804  12.594  66.540  1.00  0.00    -0.285 A  
HETATM   17  C   UNL     1     -10.376  12.390  64.150  1.00  0.00    -0.409 A  
HETATM   18  C   UNL     1     -12.528  13.163  64.909  1.00  0.00    -0.490 A  
HETATM   19  C   UNL     1      -9.950  12.260  65.475  1.00  0.00    -0.264 A  
HETATM   20  C   UNL     1     -12.102  13.040  66.232  1.00  0.00    -0.453 A  
HETATM   21  C   UNL     1     -11.664  12.843  63.868  1.00  0.00    -0.526 A  
ENDBRANCH   9  16
ENDBRANCH   7   9
ENDBRANCH   6   7
ENDBRANCH   2   6
TORSDOF 5
ENDMDL
MODEL      125
REMARK 921   NORMALIZED FREE ENERGY PREDICTED BY IDOCK:   -4.04 KCAL/MOL
REMARK 922        TOTAL FREE ENERGY PREDICTED BY IDOCK:   -6.22 KCAL/MOL
REMARK 923 INTER-LIGAND FREE ENERGY PREDICTED BY IDOCK:   -5.46 KCAL/MOL
REMARK 924 INTRA-LIGAND FREE ENERGY PREDICTED BY IDOCK:   -0.76 KCAL/MOL
REMARK 927      BINDING AFFINITY PREDICTED BY RF-SCORE:    0.00 PKD
ROOT
HETATM    1  N   UNL     1      -6.797   6.900  73.752  1.00  0.00    -0.071 N  
HETATM    2  C   UNL     1      -7.798   7.834  73.708  1.00  0.00    -0.164 C  
HETATM    3  H1  UNL     1      -6.821   6.077  73.150  1.00  0.00     0.000 HD 
HETATM    4  H2  UNL     1      -6.017   7.028  74.397  1.00  0.00     0.000 HD 
HETATM    5  O   UNL     1      -7.769   8.823  74.433  1.00  0.00    -0.411 OA 
ENDROOT
BRANCH   2   6
HETATM    6  C   UNL     1      -8.935   7.538  72.753  1.00  0.00    -0.148 C  
BRANCH   6   7
HETATM    7  S   UNL     1      -8.906   8.735  71.390  1.00  0.00    -0.215 S  
HETATM    8  O   UNL     1      -7.651   8.453  70.604  1.00  0.00    -0.062 OA 
BRANCH   7   9
HETATM    9  C   UNL     1     -10.335   8.066  70.421  1.00  0.00    -0.206 C  
BRANCH   9  10
HETATM   10  C   UNL     1     -11.702   8.313  71.052  1.00  0.00    -0.293 A  
HETATM   11  C   UNL     1     -12.602   7.241  71.191  1.00  0.00    -0.362 A  
HETATM   12  C   UNL     1     -12.137   9.588  71.448  1.00  0.00    -0.459 A  
HETATM   13  C   UNL     1     -13.888   7.438  71.704  1.00  0.00    -0.490 A  
HETATM   14  C   UNL     1     -14.302   8.711  72.076  1.00  0.00    -0.512 A  
HETATM   15  C   UNL     1     -13.428   9.788  71.948  1.00  0.00    -0.485 A  
ENDBRANCH   9  10
BRANCH   9  16
HETATM   16  C   UNL     1     -10.252   8.542  68.969  1.00  0.00    -0.218 A  
HETATM   17  C   UNL     1     -10.216   8.020  66.590  1.00  0.00    -0.315 A  
HETATM   18  C   UNL     1      -9.924  10.300  67.309  1.00  0.00    -0.233 A  
HETATM   19  C   UNL     1     -10.346   7.612  67.921  1.00  0.00    -0.270 A  
HETATM   20  C   UNL     1     -10.048   9.894  68.638  1.00  0.00    -0.191 A  
HETATM   21  C   UNL     1     -10.003   9.363  66.285  1.00  0.00    -0.353 A  
ENDBRANCH   9  16
ENDBRANCH   7   9
ENDBRANCH   6   7
ENDBRANCH   2   6
TORSDOF 5
ENDMDL
MODEL      126
REMARK 921   NORMALIZED FREE ENERGY PREDICTED BY IDOCK:   -4.01 KCAL/MOL
REMARK 922        TOTAL FREE ENERGY PREDICTED BY IDOCK:   -6.19 KCAL/MOL
REMARK 923 INTER-LIGAND FREE ENERGY PREDICTED BY IDOCK:   -5.79 KCAL/MOL
REMARK 924 INTRA-LIGAND FREE ENERGY PREDICTED BY IDOCK:   -0.40 KCAL/MOL
REMARK 927      BINDING AFFINITY PREDICTED BY RF-SCORE:    0.00 PKD
ROOT
HETATM    1  N   UNL     1     -13.301   7.736  71.034  1.00  0.00    -0.564 N  
HETATM    2  C   UNL     1     -13.103   8.850  71.805  1.00  0.00    -0.374 C  
HETATM    3  H1  UNL     1     -12.640   7.483  70.298  1.00  0.00     0.000 HD 
HETATM    4  H2  UNL     1     -14.120   7.150  71.196  1.00  0.00     0.000 HD 
HETATM    5  O   UNL     1     -13.898   9.153  72.690  1.00  0.00    -0.470 OA 
ENDROOT
BRANCH   2   6
HETATM    6  C   UNL     1     -11.883   9.680  71.465  1.00  0.00    -0.407 C  
BRANCH   6   7
HETATM    7  S   UNL     1     -12.285  10.818  70.110  1.00  0.00    -0.338 S  
HETATM    8  O   UNL     1     -12.337  12.197  70.715  1.00  0.00    -0.376 OA 
BRANCH   7   9
HETATM    9  C   UNL     1     -10.697  10.678  69.169  1.00  0.00    -0.228 C  
BRANCH   9  10
HETATM   10  C   UNL     1     -10.007   9.322  69.283  1.00  0.00    -0.180 A  
HETATM   11  C   UNL     1      -8.724   9.246  69.856  1.00  0.00    -0.189 A  
HETATM   12  C   UNL     1     -10.570   8.139  68.779  1.00  0.00    -0.149 A  
HETATM   13  C   UNL     1      -8.031   8.033  69.919  1.00  0.00    -0.111 A  
HETATM   14  C   UNL     1      -8.603   6.877  69.401  1.00  0.00    -0.133 A  
HETATM   15  C   UNL     1      -9.872   6.928  68.830  1.00  0.00    -0.147 A  
ENDBRANCH   9  10
BRANCH   9  16
HETATM   16  C   UNL     1     -10.906  11.123  67.720  1.00  0.00    -0.288 A  
HETATM   17  C   UNL     1     -10.326  10.927  65.362  1.00  0.00    -0.326 A  
HETATM   18  C   UNL     1     -11.916  12.597  66.059  1.00  0.00    -0.478 A  
HETATM   19  C   UNL     1     -10.191  10.497  66.685  1.00  0.00    -0.289 A  
HETATM   20  C   UNL     1     -11.777  12.174  67.381  1.00  0.00    -0.374 A  
HETATM   21  C   UNL     1     -11.187  11.978  65.050  1.00  0.00    -0.374 A  
ENDBRANCH   9  16
ENDBRANCH   7   9
ENDBRANCH   6   7
ENDBRANCH   2   6
TORSDOF 5
ENDMDL
MODEL      127
REMARK 921   NORMALIZED FREE ENERGY PREDICTED BY IDOCK:   -4.00 KCAL/MOL
REMARK 922        TOTAL FREE ENERGY PREDICTED BY IDOCK:   -6.17 KCAL/MOL
REMARK 923 INTER-LIGAND FREE ENERGY PREDICTED BY IDOCK:   -5.36 KCAL/MOL
REMARK 924 INTRA-LIGAND FREE ENERGY PREDICTED BY IDOCK:   -0.80 KCAL/MOL
REMARK 927      BINDING AFFINITY PREDICTED BY RF-SCORE:    0.00 PKD
ROOT
HETATM    1  N   UNL     1      -8.791   8.061  74.089  1.00  0.00    -0.395 N  
HETATM    2  C   UNL     1      -8.440   6.785  73.735  1.00  0.00    -0.127 C  
HETATM    3  H1  UNL     1      -8.771   8.818  73.405  1.00  0.00     0.000 HD 
HETATM    4  H2  UNL     1      -9.077   8.257  75.049  1.00  0.00     0.000 HD 
HETATM    5  O   UNL     1      -8.464   5.874  74.557  1.00  0.00    -0.114 OA 
ENDROOT
BRANCH   2   6
HETATM    6  C   UNL     1      -7.992   6.597  72.301  1.00  0.00    -0.100 C  
BRANCH   6   7
HETATM    7  S   UNL     1      -8.818   7.817  71.244  1.00  0.00    -0.136 S  
HETATM    8  O   UNL     1      -8.087   7.803  69.927  1.00  0.00    -0.115 OA 
BRANCH   7   9
HETATM    9  C   UNL     1     -10.420   6.918  71.006  1.00  0.00    -0.214 C  
BRANCH   9  10
HETATM   10  C   UNL     1     -11.666   7.762  71.255  1.00  0.00    -0.311 A  
HETATM   11  C   UNL     1     -11.543   9.160  71.363  1.00  0.00    -0.411 A  
HETATM   12  C   UNL     1     -12.938   7.200  71.447  1.00  0.00    -0.419 A  
HETATM   13  C   UNL     1     -12.650   9.962  71.655  1.00  0.00    -0.519 A  
HETATM   14  C   UNL     1     -13.897   9.383  71.855  1.00  0.00    -0.380 A  
HETATM   15  C   UNL     1     -14.043   8.001  71.752  1.00  0.00    -0.517 A  
ENDBRANCH   9  10
BRANCH   9  16
HETATM   16  C   UNL     1     -10.431   6.222  69.644  1.00  0.00    -0.295 A  
HETATM   17  C   UNL     1      -9.760   4.345  68.243  1.00  0.00    -0.171 A  
HETATM   18  C   UNL     1     -10.977   6.180  67.266  1.00  0.00    -0.418 A  
HETATM   19  C   UNL     1      -9.809   4.971  69.491  1.00  0.00    -0.281 A  
HETATM   20  C   UNL     1     -11.021   6.810  68.510  1.00  0.00    -0.258 A  
HETATM   21  C   UNL     1     -10.342   4.951  67.130  1.00  0.00    -0.181 A  
ENDBRANCH   9  16
ENDBRANCH   7   9
ENDBRANCH   6   7
ENDBRANCH   2   6
TORSDOF 5
ENDMDL
MODEL      128
REMARK 921   NORMALIZED FREE ENERGY PREDICTED BY IDOCK:   -3.99 KCAL/MOL
REMARK 922        TOTAL FREE ENERGY PREDICTED BY IDOCK:   -6.16 KCAL/MOL
REMARK 923 INTER-LIGAND FREE ENERGY PREDICTED BY IDOCK:   -5.59 KCAL/MOL
REMARK 924 INTRA-LIGAND FREE ENERGY PREDICTED BY IDOCK:   -0.57 KCAL/MOL
REMARK 927      BINDING AFFINITY PREDICTED BY RF-SCORE:    0.00 PKD
ROOT
HETATM    1  N   UNL     1      -6.794  13.057  69.709  1.00  0.00    -0.338 N  
HETATM    2  C   UNL     1      -6.786  14.390  70.023  1.00  0.00    -0.028 C  
HETATM    3  H1  UNL     1      -7.482  12.675  69.059  1.00  0.00     0.000 HD 
HETATM    4  H2  UNL     1      -6.103  12.436  70.131  1.00  0.00     0.000 HD 
HETATM    5  O   UNL     1      -5.959  14.849  70.805  1.00  0.00    -0.138 OA 
ENDROOT
BRANCH   2   6
HETATM    6  C   UNL     1      -7.875  15.226  69.382  1.00  0.00    -0.227 C  
BRANCH   6   7
HETATM    7  S   UNL     1      -7.240  15.979  67.859  1.00  0.00    -0.143 S  
HETATM    8  O   UNL     1      -6.495  14.894  67.127  1.00  0.00    -0.263 OA 
BRANCH   7   9
HETATM    9  C   UNL     1      -8.859  16.229  66.995  1.00  0.00    -0.205 C  
BRANCH   9  10
HETATM   10  C   UNL     1      -9.893  15.137  67.253  1.00  0.00    -0.228 A  
HETATM   11  C   UNL     1     -10.975  15.401  68.114  1.00  0.00    -0.297 A  
HETATM   12  C   UNL     1      -9.783  13.845  66.717  1.00  0.00    -0.282 A  
HETATM   13  C   UNL     1     -11.908  14.407  68.427  1.00  0.00    -0.354 A  
HETATM   14  C   UNL     1     -11.770  13.131  67.896  1.00  0.00    -0.398 A  
HETATM   15  C   UNL     1     -10.708  12.847  67.041  1.00  0.00    -0.273 A  
ENDBRANCH   9  10
BRANCH   9  16
HETATM   16  C   UNL     1      -9.392  17.636  67.279  1.00  0.00    -0.249 A  
HETATM   17  C   UNL     1      -9.615  19.526  68.799  1.00  0.00    -0.479 A  
HETATM   18  C   UNL     1     -10.730  19.582  66.664  1.00  0.00    -0.552 A  
HETATM   19  C   UNL     1      -9.091  18.266  68.498  1.00  0.00    -0.328 A  
HETATM   20  C   UNL     1     -10.213  18.320  66.365  1.00  0.00    -0.417 A  
HETATM   21  C   UNL     1     -10.435  20.183  67.883  1.00  0.00    -0.395 A  
ENDBRANCH   9  16
ENDBRANCH   7   9
ENDBRANCH   6   7
ENDBRANCH   2   6
TORSDOF 5
ENDMDL
MODEL      129
REMARK 921   NORMALIZED FREE ENERGY PREDICTED BY IDOCK:   -3.99 KCAL/MOL
REMARK 922        TOTAL FREE ENERGY PREDICTED BY IDOCK:   -6.16 KCAL/MOL
REMARK 923 INTER-LIGAND FREE ENERGY PREDICTED BY IDOCK:   -6.02 KCAL/MOL
REMARK 924 INTRA-LIGAND FREE ENERGY PREDICTED BY IDOCK:   -0.14 KCAL/MOL
REMARK 927      BINDING AFFINITY PREDICTED BY RF-SCORE:    0.00 PKD
ROOT
HETATM    1  N   UNL     1     -10.393   8.280  69.530  1.00  0.00    -0.215 N  
HETATM    2  C   UNL     1     -10.909   9.470  69.089  1.00  0.00    -0.173 C  
HETATM    3  H1  UNL     1      -9.844   7.684  68.910  1.00  0.00     0.000 HD 
HETATM    4  H2  UNL     1     -10.560   7.985  70.493  1.00  0.00     0.000 HD 
HETATM    5  O   UNL     1     -11.569  10.186  69.836  1.00  0.00    -0.253 OA 
ENDROOT
BRANCH   2   6
HETATM    6  C   UNL     1     -10.645   9.806  67.636  1.00  0.00    -0.276 C  
BRANCH   6   7
HETATM    7  S   UNL     1      -9.788  11.401  67.530  1.00  0.00    -0.180 S  
HETATM    8  O   UNL     1      -9.192  11.471  66.149  1.00  0.00    -0.211 OA 
BRANCH   7   9
HETATM    9  C   UNL     1     -11.277  12.502  67.556  1.00  0.00    -0.291 C  
BRANCH   9  10
HETATM   10  C   UNL     1     -11.165  13.702  68.490  1.00  0.00    -0.310 A  
HETATM   11  C   UNL     1     -12.273  14.073  69.274  1.00  0.00    -0.319 A  
HETATM   12  C   UNL     1     -10.015  14.505  68.561  1.00  0.00    -0.238 A  
HETATM   13  C   UNL     1     -12.233  15.205  70.094  1.00  0.00    -0.395 A  
HETATM   14  C   UNL     1     -11.089  15.992  70.137  1.00  0.00    -0.372 A  
HETATM   15  C   UNL     1      -9.980  15.645  69.371  1.00  0.00    -0.279 A  
ENDBRANCH   9  10
BRANCH   9  16
HETATM   16  C   UNL     1     -11.664  12.891  66.127  1.00  0.00    -0.451 A  
HETATM   17  C   UNL     1     -12.193  12.227  63.844  1.00  0.00    -0.608 A  
HETATM   18  C   UNL     1     -12.073  14.567  64.402  1.00  0.00    -0.492 A  
HETATM   19  C   UNL     1     -11.894  11.891  65.167  1.00  0.00    -0.187 A  
HETATM   20  C   UNL     1     -11.768  14.234  65.722  1.00  0.00    -0.359 A  
HETATM   21  C   UNL     1     -12.281  13.564  63.461  1.00  0.00    -0.410 A  
ENDBRANCH   9  16
ENDBRANCH   7   9
ENDBRANCH   6   7
ENDBRANCH   2   6
TORSDOF 5
ENDMDL
MODEL      130
REMARK 921   NORMALIZED FREE ENERGY PREDICTED BY IDOCK:   -3.98 KCAL/MOL
REMARK 922        TOTAL FREE ENERGY PREDICTED BY IDOCK:   -6.15 KCAL/MOL
REMARK 923 INTER-LIGAND FREE ENERGY PREDICTED BY IDOCK:   -5.30 KCAL/MOL
REMARK 924 INTRA-LIGAND FREE ENERGY PREDICTED BY IDOCK:   -0.86 KCAL/MOL
REMARK 927      BINDING AFFINITY PREDICTED BY RF-SCORE:    0.00 PKD
ROOT
HETATM    1  N   UNL     1      -7.866   5.447  73.987  1.00  0.00    -0.100 N  
HETATM    2  C   UNL     1      -8.706   4.584  73.336  1.00  0.00    -0.100 C  
HETATM    3  H1  UNL     1      -7.652   6.366  73.597  1.00  0.00     0.000 HD 
HETATM    4  H2  UNL     1      -7.447   5.169  74.876  1.00  0.00     0.000 HD 
HETATM    5  O   UNL     1      -8.962   3.479  73.806  1.00  0.00    -0.087 OA 
ENDROOT
BRANCH   2   6
HETATM    6  C   UNL     1      -9.246   5.066  72.006  1.00  0.00    -0.136 C  
BRANCH   6   7
HETATM    7  S   UNL     1     -10.762   6.024  72.281  1.00  0.00    -0.243 S  
HETATM    8  O   UNL     1     -10.697   6.524  73.700  1.00  0.00    -0.285 OA 
BRANCH   7   9
HETATM    9  C   UNL     1     -10.377   7.450  71.165  1.00  0.00    -0.201 C  
BRANCH   9  10
HETATM   10  C   UNL     1     -10.148   7.073  69.705  1.00  0.00    -0.194 A  
HETATM   11  C   UNL     1      -8.923   7.395  69.092  1.00  0.00    -0.135 A  
HETATM   12  C   UNL     1     -11.136   6.468  68.913  1.00  0.00    -0.371 A  
HETATM   13  C   UNL     1      -8.698   7.125  67.739  1.00  0.00    -0.125 A  
HETATM   14  C   UNL     1      -9.696   6.539  66.971  1.00  0.00    -0.188 A  
HETATM   15  C   UNL     1     -10.917   6.210  67.556  1.00  0.00    -0.404 A  
ENDBRANCH   9  10
BRANCH   9  16
HETATM   16  C   UNL     1     -11.427   8.550  71.340  1.00  0.00    -0.344 A  
HETATM   17  C   UNL     1     -12.163  10.833  70.917  1.00  0.00    -0.487 A  
HETATM   18  C   UNL     1     -13.492   9.400  72.325  1.00  0.00    -0.539 A  
HETATM   19  C   UNL     1     -11.244   9.798  70.722  1.00  0.00    -0.419 A  
HETATM   20  C   UNL     1     -12.572   8.368  72.138  1.00  0.00    -0.412 A  
HETATM   21  C   UNL     1     -13.285  10.634  71.719  1.00  0.00    -0.526 A  
ENDBRANCH   9  16
ENDBRANCH   7   9
ENDBRANCH   6   7
ENDBRANCH   2   6
TORSDOF 5
ENDMDL
MODEL      131
REMARK 921   NORMALIZED FREE ENERGY PREDICTED BY IDOCK:   -3.98 KCAL/MOL
REMARK 922        TOTAL FREE ENERGY PREDICTED BY IDOCK:   -6.15 KCAL/MOL
REMARK 923 INTER-LIGAND FREE ENERGY PREDICTED BY IDOCK:   -5.57 KCAL/MOL
REMARK 924 INTRA-LIGAND FREE ENERGY PREDICTED BY IDOCK:   -0.58 KCAL/MOL
REMARK 927      BINDING AFFINITY PREDICTED BY RF-SCORE:    0.00 PKD
ROOT
HETATM    1  N   UNL     1      -7.509   7.941  69.485  1.00  0.00    -0.091 N  
HETATM    2  C   UNL     1      -8.299   7.936  68.366  1.00  0.00    -0.124 C  
HETATM    3  H1  UNL     1      -7.096   8.808  69.831  1.00  0.00     0.000 HD 
HETATM    4  H2  UNL     1      -7.330   7.066  69.978  1.00  0.00     0.000 HD 
HETATM    5  O   UNL     1      -8.795   6.894  67.949  1.00  0.00    -0.124 OA 
ENDROOT
BRANCH   2   6
HETATM    6  C   UNL     1      -8.475   9.273  67.676  1.00  0.00    -0.116 C  
BRANCH   6   7
HETATM    7  S   UNL     1      -8.833  10.550  68.914  1.00  0.00    -0.165 S  
HETATM    8  O   UNL     1      -8.369  11.856  68.324  1.00  0.00    -0.149 OA 
BRANCH   7   9
HETATM    9  C   UNL     1     -10.681  10.511  68.805  1.00  0.00    -0.216 C  
BRANCH   9  10
HETATM   10  C   UNL     1     -11.386  10.075  70.086  1.00  0.00    -0.357 A  
HETATM   11  C   UNL     1     -10.690   9.286  71.021  1.00  0.00    -0.387 A  
HETATM   12  C   UNL     1     -12.731  10.372  70.352  1.00  0.00    -0.289 A  
HETATM   13  C   UNL     1     -11.320   8.812  72.177  1.00  0.00    -0.411 A  
HETATM   14  C   UNL     1     -12.656   9.107  72.412  1.00  0.00    -0.381 A  
HETATM   15  C   UNL     1     -13.364   9.886  71.501  1.00  0.00    -0.462 A  
ENDBRANCH   9  10
BRANCH   9  16
HETATM   16  C   UNL     1     -11.202  11.843  68.260  1.00  0.00    -0.317 A  
HETATM   17  C   UNL     1     -11.947  13.188  66.372  1.00  0.00    -0.462 A  
HETATM   18  C   UNL     1     -11.767  14.199  68.551  1.00  0.00    -0.380 A  
HETATM   19  C   UNL     1     -11.525  11.965  66.899  1.00  0.00    -0.390 A  
HETATM   20  C   UNL     1     -11.339  12.980  69.078  1.00  0.00    -0.340 A  
HETATM   21  C   UNL     1     -12.067  14.305  67.197  1.00  0.00    -0.412 A  
ENDBRANCH   9  16
ENDBRANCH   7   9
ENDBRANCH   6   7
ENDBRANCH   2   6
TORSDOF 5
ENDMDL
MODEL      132
REMARK 921   NORMALIZED FREE ENERGY PREDICTED BY IDOCK:   -3.96 KCAL/MOL
REMARK 922        TOTAL FREE ENERGY PREDICTED BY IDOCK:   -6.12 KCAL/MOL
REMARK 923 INTER-LIGAND FREE ENERGY PREDICTED BY IDOCK:   -5.46 KCAL/MOL
REMARK 924 INTRA-LIGAND FREE ENERGY PREDICTED BY IDOCK:   -0.66 KCAL/MOL
REMARK 927      BINDING AFFINITY PREDICTED BY RF-SCORE:    0.00 PKD
ROOT
HETATM    1  N   UNL     1      -7.683   5.065  68.026  1.00  0.00    -0.083 N  
HETATM    2  C   UNL     1      -8.692   5.300  68.921  1.00  0.00    -0.090 C  
HETATM    3  H1  UNL     1      -6.758   5.477  68.157  1.00  0.00     0.000 HD 
HETATM    4  H2  UNL     1      -7.857   4.470  67.216  1.00  0.00     0.000 HD 
HETATM    5  O   UNL     1      -9.803   4.805  68.763  1.00  0.00    -0.165 OA 
ENDROOT
BRANCH   2   6
HETATM    6  C   UNL     1      -8.353   6.229  70.069  1.00  0.00    -0.129 C  
BRANCH   6   7
HETATM    7  S   UNL     1      -9.130   7.844  69.790  1.00  0.00    -0.145 S  
HETATM    8  O   UNL     1      -9.466   7.906  68.323  1.00  0.00    -0.143 OA 
BRANCH   7   9
HETATM    9  C   UNL     1     -10.706   7.540  70.714  1.00  0.00    -0.229 C  
BRANCH   9  10
HETATM   10  C   UNL     1     -10.538   6.786  72.029  1.00  0.00    -0.239 A  
HETATM   11  C   UNL     1     -10.997   5.459  72.128  1.00  0.00    -0.265 A  
HETATM   12  C   UNL     1      -9.997   7.379  73.181  1.00  0.00    -0.318 A  
HETATM   13  C   UNL     1     -10.920   4.756  73.334  1.00  0.00    -0.396 A  
HETATM   14  C   UNL     1     -10.395   5.368  74.465  1.00  0.00    -0.272 A  
HETATM   15  C   UNL     1      -9.933   6.680  74.391  1.00  0.00    -0.359 A  
ENDBRANCH   9  10
BRANCH   9  16
HETATM   16  C   UNL     1     -11.481   8.851  70.872  1.00  0.00    -0.339 A  
HETATM   17  C   UNL     1     -11.756  11.205  70.308  1.00  0.00    -0.431 A  
HETATM   18  C   UNL     1     -13.220  10.195  71.932  1.00  0.00    -0.557 A  
HETATM   19  C   UNL     1     -11.097   9.984  70.135  1.00  0.00    -0.371 A  
HETATM   20  C   UNL     1     -12.559   8.977  71.767  1.00  0.00    -0.434 A  
HETATM   21  C   UNL     1     -12.815  11.310  71.207  1.00  0.00    -0.491 A  
ENDBRANCH   9  16
ENDBRANCH   7   9
ENDBRANCH   6   7
ENDBRANCH   2   6
TORSDOF 5
ENDMDL
MODEL      133
REMARK 921   NORMALIZED FREE ENERGY PREDICTED BY IDOCK:   -3.92 KCAL/MOL
REMARK 922        TOTAL FREE ENERGY PREDICTED BY IDOCK:   -6.06 KCAL/MOL
REMARK 923 INTER-LIGAND FREE ENERGY PREDICTED BY IDOCK:   -5.79 KCAL/MOL
REMARK 924 INTRA-LIGAND FREE ENERGY PREDICTED BY IDOCK:   -0.27 KCAL/MOL
REMARK 927      BINDING AFFINITY PREDICTED BY RF-SCORE:    0.00 PKD
ROOT
HETATM    1  N   UNL     1      -8.674  10.128  67.757  1.00  0.00    -0.122 N  
HETATM    2  C   UNL     1      -8.524  11.226  66.953  1.00  0.00    -0.152 C  
HETATM    3  H1  UNL     1      -9.455  10.059  68.411  1.00  0.00     0.000 HD 
HETATM    4  H2  UNL     1      -7.996   9.367  67.702  1.00  0.00     0.000 HD 
HETATM    5  O   UNL     1      -7.585  11.309  66.167  1.00  0.00    -0.088 OA 
ENDROOT
BRANCH   2   6
HETATM    6  C   UNL     1      -9.554  12.322  67.133  1.00  0.00    -0.200 C  
BRANCH   6   7
HETATM    7  S   UNL     1      -9.009  13.456  68.440  1.00  0.00    -0.086 S  
HETATM    8  O   UNL     1      -7.762  14.127  67.927  1.00  0.00    -0.127 OA 
BRANCH   7   9
HETATM    9  C   UNL     1     -10.394  14.679  68.322  1.00  0.00    -0.230 C  
BRANCH   9  10
HETATM   10  C   UNL     1     -11.062  14.754  66.952  1.00  0.00    -0.339 A  
HETATM   11  C   UNL     1     -12.189  13.953  66.688  1.00  0.00    -0.465 A  
HETATM   12  C   UNL     1     -10.562  15.546  65.906  1.00  0.00    -0.350 A  
HETATM   13  C   UNL     1     -12.789  13.945  65.426  1.00  0.00    -0.466 A  
HETATM   14  C   UNL     1     -12.269  14.725  64.402  1.00  0.00    -0.447 A  
HETATM   15  C   UNL     1     -11.155  15.527  64.640  1.00  0.00    -0.373 A  
ENDBRANCH   9  10
BRANCH   9  16
HETATM   16  C   UNL     1     -11.391  14.452  69.461  1.00  0.00    -0.318 A  
HETATM   17  C   UNL     1     -12.657  12.915  70.864  1.00  0.00    -0.355 A  
HETATM   18  C   UNL     1     -12.985  15.289  71.108  1.00  0.00    -0.521 A  
HETATM   19  C   UNL     1     -11.707  13.144  69.865  1.00  0.00    -0.327 A  
HETATM   20  C   UNL     1     -12.042  15.519  70.107  1.00  0.00    -0.404 A  
HETATM   21  C   UNL     1     -13.297  13.987  71.484  1.00  0.00    -0.422 A  
ENDBRANCH   9  16
ENDBRANCH   7   9
ENDBRANCH   6   7
ENDBRANCH   2   6
TORSDOF 5
ENDMDL
MODEL      134
REMARK 921   NORMALIZED FREE ENERGY PREDICTED BY IDOCK:   -3.91 KCAL/MOL
REMARK 922        TOTAL FREE ENERGY PREDICTED BY IDOCK:   -6.06 KCAL/MOL
REMARK 923 INTER-LIGAND FREE ENERGY PREDICTED BY IDOCK:   -5.94 KCAL/MOL
REMARK 924 INTRA-LIGAND FREE ENERGY PREDICTED BY IDOCK:   -0.11 KCAL/MOL
REMARK 927      BINDING AFFINITY PREDICTED BY RF-SCORE:    0.00 PKD
ROOT
HETATM    1  N   UNL     1      -9.938  20.225  66.330  1.00  0.00    -0.592 N  
HETATM    2  C   UNL     1     -10.491  19.025  65.968  1.00  0.00    -0.458 C  
HETATM    3  H1  UNL     1      -9.395  20.314  67.189  1.00  0.00     0.000 HD 
HETATM    4  H2  UNL     1     -10.070  21.041  65.731  1.00  0.00     0.000 HD 
HETATM    5  O   UNL     1     -11.144  18.918  64.934  1.00  0.00    -0.364 OA 
ENDROOT
BRANCH   2   6
HETATM    6  C   UNL     1     -10.278  17.881  66.937  1.00  0.00    -0.358 C  
BRANCH   6   7
HETATM    7  S   UNL     1      -9.100  16.699  66.227  1.00  0.00    -0.290 S  
HETATM    8  O   UNL     1      -7.944  17.513  65.706  1.00  0.00    -0.548 OA 
BRANCH   7   9
HETATM    9  C   UNL     1      -8.553  15.895  67.803  1.00  0.00    -0.159 C  
BRANCH   9  10
HETATM   10  C   UNL     1      -7.594  16.731  68.645  1.00  0.00    -0.222 A  
HETATM   11  C   UNL     1      -7.787  18.122  68.734  1.00  0.00    -0.268 A  
HETATM   12  C   UNL     1      -6.476  16.182  69.293  1.00  0.00    -0.182 A  
HETATM   13  C   UNL     1      -6.893  18.931  69.442  1.00  0.00    -0.247 A  
HETATM   14  C   UNL     1      -5.786  18.368  70.063  1.00  0.00    -0.241 A  
HETATM   15  C   UNL     1      -5.575  16.994  69.989  1.00  0.00    -0.225 A  
ENDBRANCH   9  10
BRANCH   9  16
HETATM   16  C   UNL     1      -9.771  15.407  68.591  1.00  0.00    -0.210 A  
HETATM   17  C   UNL     1     -11.745  13.987  68.734  1.00  0.00    -0.388 A  
HETATM   18  C   UNL     1     -11.264  15.533  70.518  1.00  0.00    -0.365 A  
HETATM   19  C   UNL     1     -10.597  14.405  68.055  1.00  0.00    -0.241 A  
HETATM   20  C   UNL     1     -10.121  15.956  69.838  1.00  0.00    -0.191 A  
HETATM   21  C   UNL     1     -12.079  14.552  69.963  1.00  0.00    -0.395 A  
ENDBRANCH   9  16
ENDBRANCH   7   9
ENDBRANCH   6   7
ENDBRANCH   2   6
TORSDOF 5
ENDMDL
MODEL      135
REMARK 921   NORMALIZED FREE ENERGY PREDICTED BY IDOCK:   -3.90 KCAL/MOL
REMARK 922        TOTAL FREE ENERGY PREDICTED BY IDOCK:   -6.05 KCAL/MOL
REMARK 923 INTER-LIGAND FREE ENERGY PREDICTED BY IDOCK:   -5.59 KCAL/MOL
REMARK 924 INTRA-LIGAND FREE ENERGY PREDICTED BY IDOCK:   -0.46 KCAL/MOL
REMARK 927      BINDING AFFINITY PREDICTED BY RF-SCORE:    0.00 PKD
ROOT
HETATM    1  N   UNL     1      -8.295   9.222  68.855  1.00  0.00    -0.118 N  
HETATM    2  C   UNL     1      -9.565   9.613  69.187  1.00  0.00    -0.174 C  
HETATM    3  H1  UNL     1      -7.609   9.898  68.517  1.00  0.00     0.000 HD 
HETATM    4  H2  UNL     1      -8.030   8.240  68.947  1.00  0.00     0.000 HD 
HETATM    5  O   UNL     1     -10.389   8.800  69.594  1.00  0.00    -0.203 OA 
ENDROOT
BRANCH   2   6
HETATM    6  C   UNL     1      -9.878  11.080  68.980  1.00  0.00    -0.149 C  
BRANCH   6   7
HETATM    7  S   UNL     1     -11.658  11.284  68.697  1.00  0.00    -0.326 S  
HETATM    8  O   UNL     1     -12.269  11.597  70.038  1.00  0.00    -0.296 OA 
BRANCH   7   9
HETATM    9  C   UNL     1     -11.592  12.861  67.729  1.00  0.00    -0.343 C  
BRANCH   9  10
HETATM   10  C   UNL     1     -10.493  13.827  68.161  1.00  0.00    -0.252 A  
HETATM   11  C   UNL     1     -10.710  14.670  69.267  1.00  0.00    -0.254 A  
HETATM   12  C   UNL     1      -9.284  13.965  67.461  1.00  0.00    -0.205 A  
HETATM   13  C   UNL     1      -9.755  15.614  69.655  1.00  0.00    -0.276 A  
HETATM   14  C   UNL     1      -8.572  15.742  68.939  1.00  0.00    -0.220 A  
HETATM   15  C   UNL     1      -8.334  14.918  67.841  1.00  0.00    -0.149 A  
ENDBRANCH   9  10
BRANCH   9  16
HETATM   16  C   UNL     1     -11.562  12.554  66.230  1.00  0.00    -0.449 A  
HETATM   17  C   UNL     1     -10.795  11.151  64.392  1.00  0.00    -0.340 A  
HETATM   18  C   UNL     1     -12.090  13.126  63.917  1.00  0.00    -0.536 A  
HETATM   19  C   UNL     1     -10.882  11.418  65.761  1.00  0.00    -0.290 A  
HETATM   20  C   UNL     1     -12.171  13.398  65.283  1.00  0.00    -0.478 A  
HETATM   21  C   UNL     1     -11.398  12.006  63.471  1.00  0.00    -0.528 A  
ENDBRANCH   9  16
ENDBRANCH   7   9
ENDBRANCH   6   7
ENDBRANCH   2   6
TORSDOF 5
ENDMDL
MODEL      136
REMARK 921   NORMALIZED FREE ENERGY PREDICTED BY IDOCK:   -3.90 KCAL/MOL
REMARK 922        TOTAL FREE ENERGY PREDICTED BY IDOCK:   -6.04 KCAL/MOL
REMARK 923 INTER-LIGAND FREE ENERGY PREDICTED BY IDOCK:   -5.54 KCAL/MOL
REMARK 924 INTRA-LIGAND FREE ENERGY PREDICTED BY IDOCK:   -0.51 KCAL/MOL
REMARK 927      BINDING AFFINITY PREDICTED BY RF-SCORE:    0.00 PKD
ROOT
HETATM    1  N   UNL     1      -9.767   8.938  67.001  1.00  0.00    -0.174 N  
HETATM    2  C   UNL     1     -10.275   9.472  68.156  1.00  0.00    -0.193 C  
HETATM    3  H1  UNL     1      -9.725   9.489  66.143  1.00  0.00     0.000 HD 
HETATM    4  H2  UNL     1      -9.426   7.976  66.999  1.00  0.00     0.000 HD 
HETATM    5  O   UNL     1     -10.325   8.810  69.188  1.00  0.00    -0.210 OA 
ENDROOT
BRANCH   2   6
HETATM    6  C   UNL     1     -10.795  10.891  68.054  1.00  0.00    -0.245 C  
BRANCH   6   7
HETATM    7  S   UNL     1      -9.396  12.042  67.964  1.00  0.00    -0.200 S  
HETATM    8  O   UNL     1      -8.401  11.429  67.015  1.00  0.00    -0.148 OA 
BRANCH   7   9
HETATM    9  C   UNL     1     -10.248  13.422  67.070  1.00  0.00    -0.249 C  
BRANCH   9  10
HETATM   10  C   UNL     1      -9.390  14.664  66.850  1.00  0.00    -0.258 A  
HETATM   11  C   UNL     1      -8.060  14.674  67.310  1.00  0.00    -0.230 A  
HETATM   12  C   UNL     1      -9.887  15.836  66.260  1.00  0.00    -0.320 A  
HETATM   13  C   UNL     1      -7.261  15.815  67.187  1.00  0.00    -0.241 A  
HETATM   14  C   UNL     1      -7.779  16.968  66.612  1.00  0.00    -0.302 A  
HETATM   15  C   UNL     1      -9.092  16.982  66.149  1.00  0.00    -0.239 A  
ENDBRANCH   9  10
BRANCH   9  16
HETATM   16  C   UNL     1     -10.880  12.896  65.779  1.00  0.00    -0.292 A  
HETATM   17  C   UNL     1     -12.864  12.539  64.410  1.00  0.00    -0.366 A  
HETATM   18  C   UNL     1     -10.736  11.697  63.659  1.00  0.00    -0.500 A  
HETATM   19  C   UNL     1     -12.258  13.062  65.556  1.00  0.00    -0.521 A  
HETATM   20  C   UNL     1     -10.130  12.212  64.806  1.00  0.00    -0.276 A  
HETATM   21  C   UNL     1     -12.103  11.856  63.463  1.00  0.00    -0.575 A  
ENDBRANCH   9  16
ENDBRANCH   7   9
ENDBRANCH   6   7
ENDBRANCH   2   6
TORSDOF 5
ENDMDL
MODEL      137
REMARK 921   NORMALIZED FREE ENERGY PREDICTED BY IDOCK:   -3.89 KCAL/MOL
REMARK 922        TOTAL FREE ENERGY PREDICTED BY IDOCK:   -6.03 KCAL/MOL
REMARK 923 INTER-LIGAND FREE ENERGY PREDICTED BY IDOCK:   -5.45 KCAL/MOL
REMARK 924 INTRA-LIGAND FREE ENERGY PREDICTED BY IDOCK:   -0.57 KCAL/MOL
REMARK 927      BINDING AFFINITY PREDICTED BY RF-SCORE:    0.00 PKD
ROOT
HETATM    1  N   UNL     1      -7.178   9.803  67.788  1.00  0.00    -0.087 N  
HETATM    2  C   UNL     1      -8.082   9.831  68.817  1.00  0.00    -0.102 C  
HETATM    3  H1  UNL     1      -7.390  10.242  66.892  1.00  0.00     0.000 HD 
HETATM    4  H2  UNL     1      -6.280   9.337  67.920  1.00  0.00     0.000 HD 
HETATM    5  O   UNL     1      -7.827   9.304  69.895  1.00  0.00    -0.084 OA 
ENDROOT
BRANCH   2   6
HETATM    6  C   UNL     1      -9.403  10.508  68.516  1.00  0.00    -0.168 C  
BRANCH   6   7
HETATM    7  S   UNL     1      -9.112  12.255  68.122  1.00  0.00    -0.189 S  
HETATM    8  O   UNL     1      -8.594  12.290  66.708  1.00  0.00    -0.194 OA 
BRANCH   7   9
HETATM    9  C   UNL     1     -10.876  12.815  68.087  1.00  0.00    -0.228 C  
BRANCH   9  10
HETATM   10  C   UNL     1     -11.184  14.005  68.991  1.00  0.00    -0.311 A  
HETATM   11  C   UNL     1     -10.237  15.037  69.119  1.00  0.00    -0.241 A  
HETATM   12  C   UNL     1     -12.354  14.091  69.761  1.00  0.00    -0.344 A  
HETATM   13  C   UNL     1     -10.453  16.113  69.987  1.00  0.00    -0.215 A  
HETATM   14  C   UNL     1     -11.612  16.169  70.750  1.00  0.00    -0.382 A  
HETATM   15  C   UNL     1     -12.564  15.159  70.639  1.00  0.00    -0.450 A  
ENDBRANCH   9  10
BRANCH   9  16
HETATM   16  C   UNL     1     -11.329  13.029  66.641  1.00  0.00    -0.366 A  
HETATM   17  C   UNL     1     -12.170  14.519  64.907  1.00  0.00    -0.409 A  
HETATM   18  C   UNL     1     -11.883  12.176  64.423  1.00  0.00    -0.436 A  
HETATM   19  C   UNL     1     -11.700  14.313  66.207  1.00  0.00    -0.404 A  
HETATM   20  C   UNL     1     -11.421  11.968  65.723  1.00  0.00    -0.377 A  
HETATM   21  C   UNL     1     -12.263  13.451  64.017  1.00  0.00    -0.466 A  
ENDBRANCH   9  16
ENDBRANCH   7   9
ENDBRANCH   6   7
ENDBRANCH   2   6
TORSDOF 5
ENDMDL
MODEL      138
REMARK 921   NORMALIZED FREE ENERGY PREDICTED BY IDOCK:   -3.88 KCAL/MOL
REMARK 922        TOTAL FREE ENERGY PREDICTED BY IDOCK:   -6.02 KCAL/MOL
REMARK 923 INTER-LIGAND FREE ENERGY PREDICTED BY IDOCK:   -5.48 KCAL/MOL
REMARK 924 INTRA-LIGAND FREE ENERGY PREDICTED BY IDOCK:   -0.53 KCAL/MOL
REMARK 927      BINDING AFFINITY PREDICTED BY RF-SCORE:    0.00 PKD
ROOT
HETATM    1  N   UNL     1     -10.713  19.308  65.952  1.00  0.00    -0.436 N  
HETATM    2  C   UNL     1     -10.367  19.045  67.251  1.00  0.00    -0.424 C  
HETATM    3  H1  UNL     1     -10.591  18.604  65.224  1.00  0.00     0.000 HD 
HETATM    4  H2  UNL     1     -11.099  20.220  65.709  1.00  0.00     0.000 HD 
HETATM    5  O   UNL     1     -10.514  19.892  68.127  1.00  0.00    -0.424 OA 
ENDROOT
BRANCH   2   6
HETATM    6  C   UNL     1      -9.764  17.680  67.510  1.00  0.00    -0.280 C  
BRANCH   6   7
HETATM    7  S   UNL     1     -10.819  16.403  66.771  1.00  0.00    -0.008 S  
HETATM    8  O   UNL     1     -10.398  16.286  65.329  1.00  0.00    -0.552 OA 
BRANCH   7   9
HETATM    9  C   UNL     1     -10.134  14.939  67.675  1.00  0.00    -0.227 C  
BRANCH   9  10
HETATM   10  C   UNL     1      -8.675  15.078  68.098  1.00  0.00    -0.165 A  
HETATM   11  C   UNL     1      -8.369  15.363  69.441  1.00  0.00    -0.250 A  
HETATM   12  C   UNL     1      -7.610  14.998  67.187  1.00  0.00    -0.174 A  
HETATM   13  C   UNL     1      -7.049  15.563  69.856  1.00  0.00    -0.047 A  
HETATM   14  C   UNL     1      -6.012  15.492  68.934  1.00  0.00    -0.102 A  
HETATM   15  C   UNL     1      -6.290  15.210  67.599  1.00  0.00    -0.164 A  
ENDBRANCH   9  10
BRANCH   9  16
HETATM   16  C   UNL     1     -11.059  14.562  68.835  1.00  0.00    -0.273 A  
HETATM   17  C   UNL     1     -12.443  15.243  70.720  1.00  0.00    -0.457 A  
HETATM   18  C   UNL     1     -12.131  12.899  70.263  1.00  0.00    -0.377 A  
HETATM   19  C   UNL     1     -11.642  15.569  69.622  1.00  0.00    -0.359 A  
HETATM   20  C   UNL     1     -11.325  13.222  69.171  1.00  0.00    -0.336 A  
HETATM   21  C   UNL     1     -12.686  13.908  71.041  1.00  0.00    -0.428 A  
ENDBRANCH   9  16
ENDBRANCH   7   9
ENDBRANCH   6   7
ENDBRANCH   2   6
TORSDOF 5
ENDMDL
MODEL      139
REMARK 921   NORMALIZED FREE ENERGY PREDICTED BY IDOCK:   -3.87 KCAL/MOL
REMARK 922        TOTAL FREE ENERGY PREDICTED BY IDOCK:   -6.01 KCAL/MOL
REMARK 923 INTER-LIGAND FREE ENERGY PREDICTED BY IDOCK:   -4.99 KCAL/MOL
REMARK 924 INTRA-LIGAND FREE ENERGY PREDICTED BY IDOCK:   -1.02 KCAL/MOL
REMARK 927      BINDING AFFINITY PREDICTED BY RF-SCORE:    0.00 PKD
ROOT
HETATM    1  N   UNL     1     -10.949   4.826  65.638  1.00  0.00    -0.875 N  
HETATM    2  C   UNL     1      -9.648   5.008  66.024  1.00  0.00    -0.168 C  
HETATM    3  H1  UNL     1     -11.631   5.581  65.720  1.00  0.00     0.000 HD 
HETATM    4  H2  UNL     1     -11.241   3.924  65.261  1.00  0.00     0.000 HD 
HETATM    5  O   UNL     1      -8.828   4.101  65.924  1.00  0.00    -0.116 OA 
ENDROOT
BRANCH   2   6
HETATM    6  C   UNL     1      -9.316   6.365  66.608  1.00  0.00    -0.153 C  
BRANCH   6   7
HETATM    7  S   UNL     1     -10.702   6.940  67.628  1.00  0.00    -0.278 S  
HETATM    8  O   UNL     1     -11.114   5.770  68.483  1.00  0.00    -0.210 OA 
BRANCH   7   9
HETATM    9  C   UNL     1      -9.766   8.120  68.704  1.00  0.00    -0.153 C  
BRANCH   9  10
HETATM   10  C   UNL     1      -9.800   9.572  68.237  1.00  0.00    -0.174 A  
HETATM   11  C   UNL     1      -8.887  10.494  68.781  1.00  0.00    -0.158 A  
HETATM   12  C   UNL     1     -10.751  10.055  67.325  1.00  0.00    -0.309 A  
HETATM   13  C   UNL     1      -8.928  11.846  68.428  1.00  0.00    -0.163 A  
HETATM   14  C   UNL     1      -9.888  12.304  67.535  1.00  0.00    -0.193 A  
HETATM   15  C   UNL     1     -10.801  11.409  66.982  1.00  0.00    -0.331 A  
ENDBRANCH   9  10
BRANCH   9  16
HETATM   16  C   UNL     1     -10.196   7.952  70.163  1.00  0.00    -0.202 A  
HETATM   17  C   UNL     1     -11.715   8.522  71.980  1.00  0.00    -0.431 A  
HETATM   18  C   UNL     1      -9.842   7.069  72.411  1.00  0.00    -0.172 A  
HETATM   19  C   UNL     1     -11.338   8.618  70.638  1.00  0.00    -0.277 A  
HETATM   20  C   UNL     1      -9.460   7.169  71.072  1.00  0.00    -0.159 A  
HETATM   21  C   UNL     1     -10.965   7.749  72.866  1.00  0.00    -0.467 A  
ENDBRANCH   9  16
ENDBRANCH   7   9
ENDBRANCH   6   7
ENDBRANCH   2   6
TORSDOF 5
ENDMDL
MODEL      140
REMARK 921   NORMALIZED FREE ENERGY PREDICTED BY IDOCK:   -3.87 KCAL/MOL
REMARK 922        TOTAL FREE ENERGY PREDICTED BY IDOCK:   -6.00 KCAL/MOL
REMARK 923 INTER-LIGAND FREE ENERGY PREDICTED BY IDOCK:   -5.14 KCAL/MOL
REMARK 924 INTRA-LIGAND FREE ENERGY PREDICTED BY IDOCK:   -0.86 KCAL/MOL
REMARK 927      BINDING AFFINITY PREDICTED BY RF-SCORE:    0.00 PKD
ROOT
HETATM    1  N   UNL     1      -7.089  12.786  69.518  1.00  0.00    -0.324 N  
HETATM    2  C   UNL     1      -6.830  11.530  69.038  1.00  0.00    -0.107 C  
HETATM    3  H1  UNL     1      -7.279  12.940  70.509  1.00  0.00     0.000 HD 
HETATM    4  H2  UNL     1      -7.093  13.580  68.876  1.00  0.00     0.000 HD 
HETATM    5  O   UNL     1      -6.602  11.345  67.846  1.00  0.00    -0.057 OA 
ENDROOT
BRANCH   2   6
HETATM    6  C   UNL     1      -6.885  10.410  70.055  1.00  0.00    -0.151 C  
BRANCH   6   7
HETATM    7  S   UNL     1      -7.940   9.074  69.428  1.00  0.00    -0.103 S  
HETATM    8  O   UNL     1      -7.675   7.877  70.303  1.00  0.00    -0.084 OA 
BRANCH   7   9
HETATM    9  C   UNL     1      -9.580   9.779  69.923  1.00  0.00    -0.235 C  
BRANCH   9  10
HETATM   10  C   UNL     1     -10.306  10.539  68.817  1.00  0.00    -0.208 A  
HETATM   11  C   UNL     1     -10.041  10.221  67.472  1.00  0.00    -0.239 A  
HETATM   12  C   UNL     1     -11.191  11.597  69.077  1.00  0.00    -0.323 A  
HETATM   13  C   UNL     1     -10.636  10.937  66.429  1.00  0.00    -0.289 A  
HETATM   14  C   UNL     1     -11.498  11.989  66.711  1.00  0.00    -0.410 A  
HETATM   15  C   UNL     1     -11.776  12.322  68.034  1.00  0.00    -0.417 A  
ENDBRANCH   9  10
BRANCH   9  16
HETATM   16  C   UNL     1     -10.443   8.693  70.569  1.00  0.00    -0.237 A  
HETATM   17  C   UNL     1     -11.502   7.761  72.554  1.00  0.00    -0.428 A  
HETATM   18  C   UNL     1     -11.651   6.575  70.463  1.00  0.00    -0.455 A  
HETATM   19  C   UNL     1     -10.763   8.772  71.934  1.00  0.00    -0.429 A  
HETATM   20  C   UNL     1     -10.907   7.580  69.843  1.00  0.00    -0.250 A  
HETATM   21  C   UNL     1     -11.944   6.662  71.819  1.00  0.00    -0.391 A  
ENDBRANCH   9  16
ENDBRANCH   7   9
ENDBRANCH   6   7
ENDBRANCH   2   6
TORSDOF 5
ENDMDL
MODEL      141
REMARK 921   NORMALIZED FREE ENERGY PREDICTED BY IDOCK:   -3.86 KCAL/MOL
REMARK 922        TOTAL FREE ENERGY PREDICTED BY IDOCK:   -5.99 KCAL/MOL
REMARK 923 INTER-LIGAND FREE ENERGY PREDICTED BY IDOCK:   -5.48 KCAL/MOL
REMARK 924 INTRA-LIGAND FREE ENERGY PREDICTED BY IDOCK:   -0.52 KCAL/MOL
REMARK 927      BINDING AFFINITY PREDICTED BY RF-SCORE:    0.00 PKD
ROOT
HETATM    1  N   UNL     1      -8.262   8.368  72.470  1.00  0.00    -0.158 N  
HETATM    2  C   UNL     1      -8.870   7.726  73.516  1.00  0.00    -0.255 C  
HETATM    3  H1  UNL     1      -8.799   8.672  71.658  1.00  0.00     0.000 HD 
HETATM    4  H2  UNL     1      -7.258   8.544  72.504  1.00  0.00     0.000 HD 
HETATM    5  O   UNL     1      -8.224   7.361  74.494  1.00  0.00    -0.171 OA 
ENDROOT
BRANCH   2   6
HETATM    6  C   UNL     1     -10.355   7.471  73.361  1.00  0.00    -0.350 C  
BRANCH   6   7
HETATM    7  S   UNL     1     -10.611   5.904  72.485  1.00  0.00    -0.231 S  
HETATM    8  O   UNL     1     -11.640   5.138  73.275  1.00  0.00    -0.297 OA 
BRANCH   7   9
HETATM    9  C   UNL     1     -11.449   6.579  70.978  1.00  0.00    -0.336 C  
BRANCH   9  10
HETATM   10  C   UNL     1     -11.872   8.040  71.086  1.00  0.00    -0.307 A  
HETATM   11  C   UNL     1     -12.979   8.382  71.885  1.00  0.00    -0.381 A  
HETATM   12  C   UNL     1     -11.242   9.069  70.367  1.00  0.00    -0.275 A  
HETATM   13  C   UNL     1     -13.438   9.700  71.958  1.00  0.00    -0.514 A  
HETATM   14  C   UNL     1     -12.808  10.699  71.227  1.00  0.00    -0.535 A  
HETATM   15  C   UNL     1     -11.710  10.385  70.430  1.00  0.00    -0.419 A  
ENDBRANCH   9  10
BRANCH   9  16
HETATM   16  C   UNL     1     -10.603   6.291  69.735  1.00  0.00    -0.323 A  
HETATM   17  C   UNL     1      -8.420   5.884  68.734  1.00  0.00    -0.111 A  
HETATM   18  C   UNL     1     -10.363   6.040  67.320  1.00  0.00    -0.275 A  
HETATM   19  C   UNL     1      -9.218   6.091  69.862  1.00  0.00    -0.159 A  
HETATM   20  C   UNL     1     -11.161   6.254  68.445  1.00  0.00    -0.272 A  
HETATM   21  C   UNL     1      -8.992   5.860  67.464  1.00  0.00    -0.107 A  
ENDBRANCH   9  16
ENDBRANCH   7   9
ENDBRANCH   6   7
ENDBRANCH   2   6
TORSDOF 5
ENDMDL
MODEL      142
REMARK 921   NORMALIZED FREE ENERGY PREDICTED BY IDOCK:   -3.86 KCAL/MOL
REMARK 922        TOTAL FREE ENERGY PREDICTED BY IDOCK:   -5.99 KCAL/MOL
REMARK 923 INTER-LIGAND FREE ENERGY PREDICTED BY IDOCK:   -5.16 KCAL/MOL
REMARK 924 INTRA-LIGAND FREE ENERGY PREDICTED BY IDOCK:   -0.84 KCAL/MOL
REMARK 927      BINDING AFFINITY PREDICTED BY RF-SCORE:    0.00 PKD
ROOT
HETATM    1  N   UNL     1      -8.020   8.447  70.378  1.00  0.00    -0.095 N  
HETATM    2  C   UNL     1      -8.177   9.781  70.108  1.00  0.00    -0.179 C  
HETATM    3  H1  UNL     1      -8.799   7.796  70.273  1.00  0.00     0.000 HD 
HETATM    4  H2  UNL     1      -7.112   8.099  70.688  1.00  0.00     0.000 HD 
HETATM    5  O   UNL     1      -7.240  10.563  70.234  1.00  0.00    -0.226 OA 
ENDROOT
BRANCH   2   6
HETATM    6  C   UNL     1      -9.568  10.211  69.694  1.00  0.00    -0.210 C  
BRANCH   6   7
HETATM    7  S   UNL     1      -9.702  10.168  67.886  1.00  0.00    -0.148 S  
HETATM    8  O   UNL     1     -10.803   9.190  67.565  1.00  0.00    -0.242 OA 
BRANCH   7   9
HETATM    9  C   UNL     1     -10.374  11.874  67.630  1.00  0.00    -0.200 C  
BRANCH   9  10
HETATM   10  C   UNL     1      -9.415  12.999  68.005  1.00  0.00    -0.217 A  
HETATM   11  C   UNL     1      -8.046  12.866  67.707  1.00  0.00    -0.166 A  
HETATM   12  C   UNL     1      -9.825  14.148  68.699  1.00  0.00    -0.206 A  
HETATM   13  C   UNL     1      -7.124  13.845  68.093  1.00  0.00    -0.118 A  
HETATM   14  C   UNL     1      -7.551  14.967  68.791  1.00  0.00    -0.135 A  
HETATM   15  C   UNL     1      -8.902  15.120  69.096  1.00  0.00    -0.221 A  
ENDBRANCH   9  10
BRANCH   9  16
HETATM   16  C   UNL     1     -10.930  12.010  66.211  1.00  0.00    -0.340 A  
HETATM   17  C   UNL     1     -12.656  12.839  64.705  1.00  0.00    -0.518 A  
HETATM   18  C   UNL     1     -10.870  11.480  63.829  1.00  0.00    -0.486 A  
HETATM   19  C   UNL     1     -12.102  12.750  65.985  1.00  0.00    -0.458 A  
HETATM   20  C   UNL     1     -10.320  11.384  65.108  1.00  0.00    -0.344 A  
HETATM   21  C   UNL     1     -12.041  12.202  63.628  1.00  0.00    -0.648 A  
ENDBRANCH   9  16
ENDBRANCH   7   9
ENDBRANCH   6   7
ENDBRANCH   2   6
TORSDOF 5
ENDMDL
MODEL      143
REMARK 921   NORMALIZED FREE ENERGY PREDICTED BY IDOCK:   -3.85 KCAL/MOL
REMARK 922        TOTAL FREE ENERGY PREDICTED BY IDOCK:   -5.98 KCAL/MOL
REMARK 923 INTER-LIGAND FREE ENERGY PREDICTED BY IDOCK:   -5.40 KCAL/MOL
REMARK 924 INTRA-LIGAND FREE ENERGY PREDICTED BY IDOCK:   -0.58 KCAL/MOL
REMARK 927      BINDING AFFINITY PREDICTED BY RF-SCORE:    0.00 PKD
ROOT
HETATM    1  N   UNL     1     -11.368   6.568  67.446  1.00  0.00    -0.758 N  
HETATM    2  C   UNL     1     -10.321   7.117  68.137  1.00  0.00    -0.196 C  
HETATM    3  H1  UNL     1     -12.255   7.066  67.355  1.00  0.00     0.000 HD 
HETATM    4  H2  UNL     1     -11.262   5.649  67.016  1.00  0.00     0.000 HD 
HETATM    5  O   UNL     1      -9.255   6.518  68.245  1.00  0.00    -0.119 OA 
ENDROOT
BRANCH   2   6
HETATM    6  C   UNL     1     -10.584   8.464  68.775  1.00  0.00    -0.125 C  
BRANCH   6   7
HETATM    7  S   UNL     1      -9.122   8.985  69.714  1.00  0.00    -0.169 S  
HETATM    8  O   UNL     1      -8.929  10.450  69.420  1.00  0.00    -0.194 OA 
BRANCH   7   9
HETATM    9  C   UNL     1      -9.837   8.844  71.416  1.00  0.00    -0.306 C  
BRANCH   9  10
HETATM   10  C   UNL     1     -11.349   8.643  71.456  1.00  0.00    -0.358 A  
HETATM   11  C   UNL     1     -12.191   9.765  71.560  1.00  0.00    -0.493 A  
HETATM   12  C   UNL     1     -11.947   7.373  71.459  1.00  0.00    -0.337 A  
HETATM   13  C   UNL     1     -13.578   9.620  71.666  1.00  0.00    -0.402 A  
HETATM   14  C   UNL     1     -14.146   8.353  71.681  1.00  0.00    -0.487 A  
HETATM   15  C   UNL     1     -13.332   7.227  71.578  1.00  0.00    -0.435 A  
ENDBRANCH   9  10
BRANCH   9  16
HETATM   16  C   UNL     1      -9.072   7.789  72.218  1.00  0.00    -0.201 A  
HETATM   17  C   UNL     1      -8.456   6.832  74.372  1.00  0.00    -0.174 A  
HETATM   18  C   UNL     1      -7.487   5.939  72.357  1.00  0.00    -0.099 A  
HETATM   19  C   UNL     1      -9.191   7.751  73.618  1.00  0.00    -0.344 A  
HETATM   20  C   UNL     1      -8.213   6.860  71.602  1.00  0.00    -0.109 A  
HETATM   21  C   UNL     1      -7.604   5.928  73.742  1.00  0.00    -0.096 A  
ENDBRANCH   9  16
ENDBRANCH   7   9
ENDBRANCH   6   7
ENDBRANCH   2   6
TORSDOF 5
ENDMDL
MODEL      144
REMARK 921   NORMALIZED FREE ENERGY PREDICTED BY IDOCK:   -3.82 KCAL/MOL
REMARK 922        TOTAL FREE ENERGY PREDICTED BY IDOCK:   -5.93 KCAL/MOL
REMARK 923 INTER-LIGAND FREE ENERGY PREDICTED BY IDOCK:   -5.34 KCAL/MOL
REMARK 924 INTRA-LIGAND FREE ENERGY PREDICTED BY IDOCK:   -0.60 KCAL/MOL
REMARK 927      BINDING AFFINITY PREDICTED BY RF-SCORE:    0.00 PKD
ROOT
HETATM    1  N   UNL     1      -7.940  10.650  64.741  1.00  0.00    -0.343 N  
HETATM    2  C   UNL     1      -9.260  10.683  64.379  1.00  0.00    -0.234 C  
HETATM    3  H1  UNL     1      -7.666  10.575  65.721  1.00  0.00     0.000 HD 
HETATM    4  H2  UNL     1      -7.219  10.700  64.020  1.00  0.00     0.000 HD 
HETATM    5  O   UNL     1      -9.589  10.772  63.200  1.00  0.00    -0.290 OA 
ENDROOT
BRANCH   2   6
HETATM    6  C   UNL     1     -10.258  10.644  65.518  1.00  0.00    -0.262 C  
BRANCH   6   7
HETATM    7  S   UNL     1     -10.841  12.325  65.868  1.00  0.00    -0.282 S  
HETATM    8  O   UNL     1     -12.021  12.563  64.962  1.00  0.00    -0.386 OA 
BRANCH   7   9
HETATM    9  C   UNL     1     -11.495  12.026  67.575  1.00  0.00    -0.333 C  
BRANCH   9  10
HETATM   10  C   UNL     1     -10.717  10.992  68.382  1.00  0.00    -0.240 A  
HETATM   11  C   UNL     1      -9.328  11.149  68.547  1.00  0.00    -0.190 A  
HETATM   12  C   UNL     1     -11.315   9.843  68.923  1.00  0.00    -0.060 A  
HETATM   13  C   UNL     1      -8.568  10.190  69.225  1.00  0.00    -0.180 A  
HETATM   14  C   UNL     1      -9.180   9.054  69.739  1.00  0.00    -0.172 A  
HETATM   15  C   UNL     1     -10.553   8.878  69.589  1.00  0.00    -0.230 A  
ENDBRANCH   9  10
BRANCH   9  16
HETATM   16  C   UNL     1     -11.663  13.357  68.311  1.00  0.00    -0.391 A  
HETATM   17  C   UNL     1     -11.345  15.771  68.377  1.00  0.00    -0.372 A  
HETATM   18  C   UNL     1     -12.289  14.646  70.287  1.00  0.00    -0.406 A  
HETATM   19  C   UNL     1     -11.253  14.553  67.699  1.00  0.00    -0.335 A  
HETATM   20  C   UNL     1     -12.191  13.428  69.614  1.00  0.00    -0.279 A  
HETATM   21  C   UNL     1     -11.862  15.817  69.671  1.00  0.00    -0.352 A  
ENDBRANCH   9  16
ENDBRANCH   7   9
ENDBRANCH   6   7
ENDBRANCH   2   6
TORSDOF 5
ENDMDL
MODEL      145
REMARK 921   NORMALIZED FREE ENERGY PREDICTED BY IDOCK:   -3.81 KCAL/MOL
REMARK 922        TOTAL FREE ENERGY PREDICTED BY IDOCK:   -5.93 KCAL/MOL
REMARK 923 INTER-LIGAND FREE ENERGY PREDICTED BY IDOCK:   -5.35 KCAL/MOL
REMARK 924 INTRA-LIGAND FREE ENERGY PREDICTED BY IDOCK:   -0.58 KCAL/MOL
REMARK 927      BINDING AFFINITY PREDICTED BY RF-SCORE:    0.00 PKD
ROOT
HETATM    1  N   UNL     1      -7.705  15.380  66.712  1.00  0.00    -0.264 N  
HETATM    2  C   UNL     1      -8.012  14.645  67.827  1.00  0.00    -0.156 C  
HETATM    3  H1  UNL     1      -8.221  15.253  65.842  1.00  0.00     0.000 HD 
HETATM    4  H2  UNL     1      -6.950  16.065  66.753  1.00  0.00     0.000 HD 
HETATM    5  O   UNL     1      -7.391  14.799  68.874  1.00  0.00    -0.114 OA 
ENDROOT
BRANCH   2   6
HETATM    6  C   UNL     1      -9.119  13.625  67.661  1.00  0.00    -0.207 C  
BRANCH   6   7
HETATM    7  S   UNL     1      -8.401  12.024  67.201  1.00  0.00    -0.184 S  
HETATM    8  O   UNL     1      -7.825  11.438  68.464  1.00  0.00    -0.126 OA 
BRANCH   7   9
HETATM    9  C   UNL     1      -9.978  11.125  66.835  1.00  0.00    -0.198 C  
BRANCH   9  10
HETATM   10  C   UNL     1     -10.755  11.665  65.638  1.00  0.00    -0.330 A  
HETATM   11  C   UNL     1     -11.868  12.498  65.856  1.00  0.00    -0.489 A  
HETATM   12  C   UNL     1     -10.450  11.315  64.313  1.00  0.00    -0.419 A  
HETATM   13  C   UNL     1     -12.645  12.960  64.790  1.00  0.00    -0.493 A  
HETATM   14  C   UNL     1     -12.333  12.589  63.489  1.00  0.00    -0.623 A  
HETATM   15  C   UNL     1     -11.235  11.766  63.248  1.00  0.00    -0.357 A  
ENDBRANCH   9  10
BRANCH   9  16
HETATM   16  C   UNL     1      -9.714   9.620  66.746  1.00  0.00    -0.252 A  
HETATM   17  C   UNL     1      -8.301   7.780  66.006  1.00  0.00    -0.134 A  
HETATM   18  C   UNL     1     -10.401   7.303  67.084  1.00  0.00    -0.367 A  
HETATM   19  C   UNL     1      -8.534   9.150  66.147  1.00  0.00    -0.136 A  
HETATM   20  C   UNL     1     -10.639   8.671  67.220  1.00  0.00    -0.308 A  
HETATM   21  C   UNL     1      -9.235   6.857  66.473  1.00  0.00    -0.195 A  
ENDBRANCH   9  16
ENDBRANCH   7   9
ENDBRANCH   6   7
ENDBRANCH   2   6
TORSDOF 5
ENDMDL
MODEL      146
REMARK 921   NORMALIZED FREE ENERGY PREDICTED BY IDOCK:   -3.81 KCAL/MOL
REMARK 922        TOTAL FREE ENERGY PREDICTED BY IDOCK:   -5.93 KCAL/MOL
REMARK 923 INTER-LIGAND FREE ENERGY PREDICTED BY IDOCK:   -5.19 KCAL/MOL
REMARK 924 INTRA-LIGAND FREE ENERGY PREDICTED BY IDOCK:   -0.74 KCAL/MOL
REMARK 927      BINDING AFFINITY PREDICTED BY RF-SCORE:    0.00 PKD
ROOT
HETATM    1  N   UNL     1     -10.012  14.193  68.033  1.00  0.00    -0.221 N  
HETATM    2  C   UNL     1     -11.169  13.946  67.344  1.00  0.00    -0.312 C  
HETATM    3  H1  UNL     1      -9.795  13.689  68.893  1.00  0.00     0.000 HD 
HETATM    4  H2  UNL     1      -9.356  14.892  67.681  1.00  0.00     0.000 HD 
HETATM    5  O   UNL     1     -11.429  14.553  66.309  1.00  0.00    -0.347 OA 
ENDROOT
BRANCH   2   6
HETATM    6  C   UNL     1     -12.100  12.925  67.962  1.00  0.00    -0.152 C  
BRANCH   6   7
HETATM    7  S   UNL     1     -11.359  12.274  69.485  1.00  0.00    -0.134 S  
HETATM    8  O   UNL     1     -12.370  12.498  70.579  1.00  0.00    -0.332 OA 
BRANCH   7   9
HETATM    9  C   UNL     1     -11.395  10.475  69.047  1.00  0.00    -0.257 C  
BRANCH   9  10
HETATM   10  C   UNL     1     -10.363  10.053  68.006  1.00  0.00    -0.238 A  
HETATM   11  C   UNL     1      -9.159  10.772  67.896  1.00  0.00    -0.150 A  
HETATM   12  C   UNL     1     -10.585   9.006  67.097  1.00  0.00    -0.291 A  
HETATM   13  C   UNL     1      -8.216  10.458  66.912  1.00  0.00    -0.124 A  
HETATM   14  C   UNL     1      -8.464   9.428  66.014  1.00  0.00    -0.132 A  
HETATM   15  C   UNL     1      -9.649   8.701  66.104  1.00  0.00    -0.305 A  
ENDBRANCH   9  10
BRANCH   9  16
HETATM   16  C   UNL     1     -11.343   9.626  70.319  1.00  0.00    -0.311 A  
HETATM   17  C   UNL     1     -12.506   8.532  72.159  1.00  0.00    -0.437 A  
HETATM   18  C   UNL     1     -10.098   8.490  72.084  1.00  0.00    -0.393 A  
HETATM   19  C   UNL     1     -12.535   9.258  70.965  1.00  0.00    -0.276 A  
HETATM   20  C   UNL     1     -10.125   9.221  70.896  1.00  0.00    -0.373 A  
HETATM   21  C   UNL     1     -11.288   8.150  72.718  1.00  0.00    -0.406 A  
ENDBRANCH   9  16
ENDBRANCH   7   9
ENDBRANCH   6   7
ENDBRANCH   2   6
TORSDOF 5
ENDMDL
MODEL      147
REMARK 921   NORMALIZED FREE ENERGY PREDICTED BY IDOCK:   -3.78 KCAL/MOL
REMARK 922        TOTAL FREE ENERGY PREDICTED BY IDOCK:   -5.89 KCAL/MOL
REMARK 923 INTER-LIGAND FREE ENERGY PREDICTED BY IDOCK:   -4.99 KCAL/MOL
REMARK 924 INTRA-LIGAND FREE ENERGY PREDICTED BY IDOCK:   -0.90 KCAL/MOL
REMARK 927      BINDING AFFINITY PREDICTED BY RF-SCORE:    0.00 PKD
ROOT
HETATM    1  N   UNL     1      -8.718   6.989  65.063  1.00  0.00    -0.357 N  
HETATM    2  C   UNL     1      -7.902   7.779  64.298  1.00  0.00    -0.138 C  
HETATM    3  H1  UNL     1      -9.727   6.977  64.914  1.00  0.00     0.000 HD 
HETATM    4  H2  UNL     1      -8.310   6.403  65.793  1.00  0.00     0.000 HD 
HETATM    5  O   UNL     1      -6.688   7.793  64.477  1.00  0.00    -0.051 OA 
ENDROOT
BRANCH   2   6
HETATM    6  C   UNL     1      -8.598   8.644  63.268  1.00  0.00    -0.011 C  
BRANCH   6   7
HETATM    7  S   UNL     1      -8.447  10.389  63.742  1.00  0.00    -0.138 S  
HETATM    8  O   UNL     1      -8.743  11.192  62.502  1.00  0.00    -0.287 OA 
BRANCH   7   9
HETATM    9  C   UNL     1      -9.931  10.492  64.844  1.00  0.00    -0.334 C  
BRANCH   9  10
HETATM   10  C   UNL     1      -9.649  10.216  66.318  1.00  0.00    -0.245 A  
HETATM   11  C   UNL     1     -10.708   9.838  67.165  1.00  0.00    -0.273 A  
HETATM   12  C   UNL     1      -8.380  10.384  66.894  1.00  0.00    -0.124 A  
HETATM   13  C   UNL     1     -10.503   9.640  68.534  1.00  0.00    -0.241 A  
HETATM   14  C   UNL     1      -9.242   9.826  69.083  1.00  0.00    -0.177 A  
HETATM   15  C   UNL     1      -8.178  10.199  68.265  1.00  0.00    -0.110 A  
ENDBRANCH   9  10
BRANCH   9  16
HETATM   16  C   UNL     1     -10.664  11.815  64.614  1.00  0.00    -0.363 A  
HETATM   17  C   UNL     1     -12.396  13.079  63.458  1.00  0.00    -0.500 A  
HETATM   18  C   UNL     1     -10.913  14.215  64.979  1.00  0.00    -0.391 A  
HETATM   19  C   UNL     1     -11.751  11.868  63.725  1.00  0.00    -0.554 A  
HETATM   20  C   UNL     1     -10.263  13.009  65.241  1.00  0.00    -0.294 A  
HETATM   21  C   UNL     1     -11.976  14.252  64.083  1.00  0.00    -0.401 A  
ENDBRANCH   9  16
ENDBRANCH   7   9
ENDBRANCH   6   7
ENDBRANCH   2   6
TORSDOF 5
ENDMDL
MODEL      148
REMARK 921   NORMALIZED FREE ENERGY PREDICTED BY IDOCK:   -3.77 KCAL/MOL
REMARK 922        TOTAL FREE ENERGY PREDICTED BY IDOCK:   -5.88 KCAL/MOL
REMARK 923 INTER-LIGAND FREE ENERGY PREDICTED BY IDOCK:   -5.74 KCAL/MOL
REMARK 924 INTRA-LIGAND FREE ENERGY PREDICTED BY IDOCK:   -0.14 KCAL/MOL
REMARK 927      BINDING AFFINITY PREDICTED BY RF-SCORE:    0.00 PKD
ROOT
HETATM    1  N   UNL     1     -11.862  16.448  71.962  1.00  0.00    -0.639 N  
HETATM    2  C   UNL     1     -11.943  15.912  70.704  1.00  0.00    -0.348 C  
HETATM    3  H1  UNL     1     -11.173  17.168  72.181  1.00  0.00     0.000 HD 
HETATM    4  H2  UNL     1     -12.499  16.124  72.690  1.00  0.00     0.000 HD 
HETATM    5  O   UNL     1     -12.773  15.046  70.440  1.00  0.00    -0.351 OA 
ENDROOT
BRANCH   2   6
HETATM    6  C   UNL     1     -10.931  16.424  69.701  1.00  0.00    -0.329 C  
BRANCH   6   7
HETATM    7  S   UNL     1     -10.565  15.122  68.493  1.00  0.00    -0.245 S  
HETATM    8  O   UNL     1     -11.787  14.996  67.621  1.00  0.00    -0.328 OA 
BRANCH   7   9
HETATM    9  C   UNL     1      -9.272  16.023  67.519  1.00  0.00    -0.211 C  
BRANCH   9  10
HETATM   10  C   UNL     1      -9.499  17.526  67.398  1.00  0.00    -0.255 A  
HETATM   11  C   UNL     1      -8.694  18.408  68.143  1.00  0.00    -0.318 A  
HETATM   12  C   UNL     1     -10.527  18.079  66.619  1.00  0.00    -0.332 A  
HETATM   13  C   UNL     1      -8.912  19.789  68.110  1.00  0.00    -0.367 A  
HETATM   14  C   UNL     1      -9.945  20.312  67.343  1.00  0.00    -0.567 A  
HETATM   15  C   UNL     1     -10.754  19.459  66.597  1.00  0.00    -0.529 A  
ENDBRANCH   9  10
BRANCH   9  16
HETATM   16  C   UNL     1      -7.880  15.669  68.046  1.00  0.00    -0.135 A  
HETATM   17  C   UNL     1      -6.484  14.634  69.754  1.00  0.00    -0.159 A  
HETATM   18  C   UNL     1      -5.446  15.811  67.927  1.00  0.00    -0.148 A  
HETATM   19  C   UNL     1      -7.747  14.918  69.226  1.00  0.00    -0.166 A  
HETATM   20  C   UNL     1      -6.706  16.102  67.402  1.00  0.00    -0.218 A  
HETATM   21  C   UNL     1      -5.335  15.082  69.105  1.00  0.00    -0.094 A  
ENDBRANCH   9  16
ENDBRANCH   7   9
ENDBRANCH   6   7
ENDBRANCH   2   6
TORSDOF 5
ENDMDL
MODEL      149
REMARK 921   NORMALIZED FREE ENERGY PREDICTED BY IDOCK:   -3.77 KCAL/MOL
REMARK 922        TOTAL FREE ENERGY PREDICTED BY IDOCK:   -5.88 KCAL/MOL
REMARK 923 INTER-LIGAND FREE ENERGY PREDICTED BY IDOCK:   -6.52 KCAL/MOL
REMARK 924 INTRA-LIGAND FREE ENERGY PREDICTED BY IDOCK:    0.64 KCAL/MOL
REMARK 927      BINDING AFFINITY PREDICTED BY RF-SCORE:    0.00 PKD
ROOT
HETATM    1  N   UNL     1      -7.971  13.049  69.016  1.00  0.00    -0.323 N  
HETATM    2  C   UNL     1      -8.322  12.762  67.723  1.00  0.00    -0.177 C  
HETATM    3  H1  UNL     1      -8.362  13.859  69.498  1.00  0.00     0.000 HD 
HETATM    4  H2  UNL     1      -7.308  12.446  69.503  1.00  0.00     0.000 HD 
HETATM    5  O   UNL     1      -7.851  11.788  67.144  1.00  0.00    -0.152 OA 
ENDROOT
BRANCH   2   6
HETATM    6  C   UNL     1      -9.279  13.735  67.068  1.00  0.00    -0.251 C  
BRANCH   6   7
HETATM    7  S   UNL     1     -10.731  13.965  68.131  1.00  0.00    -0.257 S  
HETATM    8  O   UNL     1     -11.427  15.206  67.637  1.00  0.00    -0.332 OA 
BRANCH   7   9
HETATM    9  C   UNL     1     -11.713  12.505  67.555  1.00  0.00    -0.374 C  
BRANCH   9  10
HETATM   10  C   UNL     1     -11.607  12.216  66.060  1.00  0.00    -0.420 A  
HETATM   11  C   UNL     1     -10.699  11.241  65.608  1.00  0.00    -0.279 A  
HETATM   12  C   UNL     1     -12.334  12.930  65.095  1.00  0.00    -0.547 A  
HETATM   13  C   UNL     1     -10.525  10.993  64.243  1.00  0.00    -0.427 A  
HETATM   14  C   UNL     1     -11.245  11.722  63.306  1.00  0.00    -0.357 A  
HETATM   15  C   UNL     1     -12.150  12.691  63.730  1.00  0.00    -0.604 A  
ENDBRANCH   9  10
BRANCH   9  16
HETATM   16  C   UNL     1     -11.395  11.285  68.423  1.00  0.00    -0.348 A  
HETATM   17  C   UNL     1     -11.337  10.233  70.619  1.00  0.00    -0.431 A  
HETATM   18  C   UNL     1     -10.467   9.047  68.711  1.00  0.00    -0.230 A  
HETATM   19  C   UNL     1     -11.672  11.314  69.800  1.00  0.00    -0.422 A  
HETATM   20  C   UNL     1     -10.794  10.128  67.893  1.00  0.00    -0.336 A  
HETATM   21  C   UNL     1     -10.733   9.100  70.075  1.00  0.00    -0.254 A  
ENDBRANCH   9  16
ENDBRANCH   7   9
ENDBRANCH   6   7
ENDBRANCH   2   6
TORSDOF 5
ENDMDL
MODEL      150
REMARK 921   NORMALIZED FREE ENERGY PREDICTED BY IDOCK:   -3.76 KCAL/MOL
REMARK 922        TOTAL FREE ENERGY PREDICTED BY IDOCK:   -5.86 KCAL/MOL
REMARK 923 INTER-LIGAND FREE ENERGY PREDICTED BY IDOCK:   -5.43 KCAL/MOL
REMARK 924 INTRA-LIGAND FREE ENERGY PREDICTED BY IDOCK:   -0.43 KCAL/MOL
REMARK 927      BINDING AFFINITY PREDICTED BY RF-SCORE:    0.00 PKD
ROOT
HETATM    1  N   UNL     1     -12.245  14.407  63.746  1.00  0.00    -1.040 N  
HETATM    2  C   UNL     1     -12.294  13.293  64.542  1.00  0.00    -0.368 C  
HETATM    3  H1  UNL     1     -11.352  14.826  63.485  1.00  0.00     0.000 HD 
HETATM    4  H2  UNL     1     -13.113  14.823  63.408  1.00  0.00     0.000 HD 
HETATM    5  O   UNL     1     -13.369  12.789  64.855  1.00  0.00    -0.736 OA 
ENDROOT
BRANCH   2   6
HETATM    6  C   UNL     1     -10.959  12.769  65.028  1.00  0.00    -0.289 C  
BRANCH   6   7
HETATM    7  S   UNL     1     -10.468  13.664  66.527  1.00  0.00    -0.285 S  
HETATM    8  O   UNL     1     -11.571  13.449  67.531  1.00  0.00    -0.304 OA 
BRANCH   7   9
HETATM    9  C   UNL     1      -9.044  12.589  67.021  1.00  0.00    -0.213 C  
BRANCH   9  10
HETATM   10  C   UNL     1      -8.171  13.160  68.135  1.00  0.00    -0.160 A  
HETATM   11  C   UNL     1      -8.478  14.424  68.673  1.00  0.00    -0.156 A  
HETATM   12  C   UNL     1      -7.024  12.507  68.612  1.00  0.00    -0.091 A  
HETATM   13  C   UNL     1      -7.666  15.011  69.648  1.00  0.00    -0.115 A  
HETATM   14  C   UNL     1      -6.528  14.352  70.095  1.00  0.00    -0.134 A  
HETATM   15  C   UNL     1      -6.204  13.100  69.577  1.00  0.00    -0.116 A  
ENDBRANCH   9  10
BRANCH   9  16
HETATM   16  C   UNL     1      -9.536  11.171  67.316  1.00  0.00    -0.182 A  
HETATM   17  C   UNL     1      -9.791   8.852  66.615  1.00  0.00    -0.332 A  
HETATM   18  C   UNL     1     -10.743   9.570  68.708  1.00  0.00    -0.218 A  
HETATM   19  C   UNL     1      -9.300  10.140  66.390  1.00  0.00    -0.209 A  
HETATM   20  C   UNL     1     -10.259  10.859  68.482  1.00  0.00    -0.197 A  
HETATM   21  C   UNL     1     -10.514   8.567  67.773  1.00  0.00    -0.287 A  
ENDBRANCH   9  16
ENDBRANCH   7   9
ENDBRANCH   6   7
ENDBRANCH   2   6
TORSDOF 5
ENDMDL
MODEL      151
REMARK 921   NORMALIZED FREE ENERGY PREDICTED BY IDOCK:   -3.75 KCAL/MOL
REMARK 922        TOTAL FREE ENERGY PREDICTED BY IDOCK:   -5.85 KCAL/MOL
REMARK 923 INTER-LIGAND FREE ENERGY PREDICTED BY IDOCK:   -5.25 KCAL/MOL
REMARK 924 INTRA-LIGAND FREE ENERGY PREDICTED BY IDOCK:   -0.60 KCAL/MOL
REMARK 927      BINDING AFFINITY PREDICTED BY RF-SCORE:    0.00 PKD
ROOT
HETATM    1  N   UNL     1      -6.796   8.054  67.858  1.00  0.00    -0.071 N  
HETATM    2  C   UNL     1      -7.775   8.013  66.901  1.00  0.00    -0.099 C  
HETATM    3  H1  UNL     1      -6.821   8.748  68.605  1.00  0.00     0.000 HD 
HETATM    4  H2  UNL     1      -6.031   7.380  67.823  1.00  0.00     0.000 HD 
HETATM    5  O   UNL     1      -7.745   7.178  66.003  1.00  0.00    -0.092 OA 
ENDROOT
BRANCH   2   6
HETATM    6  C   UNL     1      -8.848   9.077  67.009  1.00  0.00    -0.119 C  
BRANCH   6   7
HETATM    7  S   UNL     1      -9.995   8.647  68.346  1.00  0.00    -0.189 S  
HETATM    8  O   UNL     1      -9.220   7.785  69.309  1.00  0.00    -0.146 OA 
BRANCH   7   9
HETATM    9  C   UNL     1     -10.157  10.328  69.105  1.00  0.00    -0.218 C  
BRANCH   9  10
HETATM   10  C   UNL     1     -10.344  11.463  68.103  1.00  0.00    -0.206 A  
HETATM   11  C   UNL     1     -11.396  11.395  67.172  1.00  0.00    -0.327 A  
HETATM   12  C   UNL     1      -9.467  12.556  68.021  1.00  0.00    -0.209 A  
HETATM   13  C   UNL     1     -11.562  12.382  66.195  1.00  0.00    -0.452 A  
HETATM   14  C   UNL     1     -10.673  13.447  66.124  1.00  0.00    -0.288 A  
HETATM   15  C   UNL     1      -9.624  13.536  67.036  1.00  0.00    -0.248 A  
ENDBRANCH   9  10
BRANCH   9  16
HETATM   16  C   UNL     1     -11.233  10.309  70.194  1.00  0.00    -0.387 A  
HETATM   17  C   UNL     1     -12.569   9.056  71.799  1.00  0.00    -0.434 A  
HETATM   18  C   UNL     1     -12.963  11.415  71.512  1.00  0.00    -0.505 A  
HETATM   19  C   UNL     1     -11.551   9.104  70.843  1.00  0.00    -0.350 A  
HETATM   20  C   UNL     1     -11.952  11.464  70.552  1.00  0.00    -0.451 A  
HETATM   21  C   UNL     1     -13.276  10.210  72.131  1.00  0.00    -0.463 A  
ENDBRANCH   9  16
ENDBRANCH   7   9
ENDBRANCH   6   7
ENDBRANCH   2   6
TORSDOF 5
ENDMDL
MODEL      152
REMARK 921   NORMALIZED FREE ENERGY PREDICTED BY IDOCK:   -3.73 KCAL/MOL
REMARK 922        TOTAL FREE ENERGY PREDICTED BY IDOCK:   -5.83 KCAL/MOL
REMARK 923 INTER-LIGAND FREE ENERGY PREDICTED BY IDOCK:   -5.36 KCAL/MOL
REMARK 924 INTRA-LIGAND FREE ENERGY PREDICTED BY IDOCK:   -0.47 KCAL/MOL
REMARK 927      BINDING AFFINITY PREDICTED BY RF-SCORE:    0.00 PKD
ROOT
HETATM    1  N   UNL     1     -12.073  12.021  63.191  1.00  0.00    -0.765 N  
HETATM    2  C   UNL     1     -12.251  12.492  64.465  1.00  0.00    -0.453 C  
HETATM    3  H1  UNL     1     -11.138  11.904  62.801  1.00  0.00     0.000 HD 
HETATM    4  H2  UNL     1     -12.888  11.785  62.624  1.00  0.00     0.000 HD 
HETATM    5  O   UNL     1     -13.376  12.634  64.934  1.00  0.00    -0.741 OA 
ENDROOT
BRANCH   2   6
HETATM    6  C   UNL     1     -10.987  12.856  65.216  1.00  0.00    -0.283 C  
BRANCH   6   7
HETATM    7  S   UNL     1     -10.962  11.994  66.812  1.00  0.00    -0.300 S  
HETATM    8  O   UNL     1     -10.073  10.791  66.631  1.00  0.00    -0.203 OA 
BRANCH   7   9
HETATM    9  C   UNL     1     -10.011  13.255  67.778  1.00  0.00    -0.223 C  
BRANCH   9  10
HETATM   10  C   UNL     1     -10.720  13.766  69.028  1.00  0.00    -0.209 A  
HETATM   11  C   UNL     1     -11.536  12.888  69.766  1.00  0.00    -0.288 A  
HETATM   12  C   UNL     1     -10.648  15.103  69.450  1.00  0.00    -0.258 A  
HETATM   13  C   UNL     1     -12.255  13.334  70.880  1.00  0.00    -0.346 A  
HETATM   14  C   UNL     1     -12.179  14.665  71.270  1.00  0.00    -0.410 A  
HETATM   15  C   UNL     1     -11.377  15.551  70.556  1.00  0.00    -0.372 A  
ENDBRANCH   9  10
BRANCH   9  16
HETATM   16  C   UNL     1      -8.598  12.741  68.060  1.00  0.00    -0.186 A  
HETATM   17  C   UNL     1      -6.211  12.794  67.574  1.00  0.00    -0.159 A  
HETATM   18  C   UNL     1      -7.060  11.211  69.179  1.00  0.00    -0.116 A  
HETATM   19  C   UNL     1      -7.502  13.289  67.371  1.00  0.00    -0.134 A  
HETATM   20  C   UNL     1      -8.351  11.699  68.973  1.00  0.00     0.134 A  
HETATM   21  C   UNL     1      -5.991  11.754  68.476  1.00  0.00    -0.049 A  
ENDBRANCH   9  16
ENDBRANCH   7   9
ENDBRANCH   6   7
ENDBRANCH   2   6
TORSDOF 5
ENDMDL
MODEL      153
REMARK 921   NORMALIZED FREE ENERGY PREDICTED BY IDOCK:   -3.70 KCAL/MOL
REMARK 922        TOTAL FREE ENERGY PREDICTED BY IDOCK:   -5.78 KCAL/MOL
REMARK 923 INTER-LIGAND FREE ENERGY PREDICTED BY IDOCK:   -5.78 KCAL/MOL
REMARK 924 INTRA-LIGAND FREE ENERGY PREDICTED BY IDOCK:   -0.00 KCAL/MOL
REMARK 927      BINDING AFFINITY PREDICTED BY RF-SCORE:    0.00 PKD
ROOT
HETATM    1  N   UNL     1      -5.719  17.620  70.444  1.00  0.00    -0.212 N  
HETATM    2  C   UNL     1      -6.182  17.661  69.156  1.00  0.00    -0.226 C  
HETATM    3  H1  UNL     1      -6.154  17.013  71.139  1.00  0.00     0.000 HD 
HETATM    4  H2  UNL     1      -4.928  18.206  70.713  1.00  0.00     0.000 HD 
HETATM    5  O   UNL     1      -5.659  18.391  68.320  1.00  0.00    -0.171 OA 
ENDROOT
BRANCH   2   6
HETATM    6  C   UNL     1      -7.384  16.789  68.859  1.00  0.00    -0.235 C  
BRANCH   6   7
HETATM    7  S   UNL     1      -7.112  15.891  67.307  1.00  0.00    -0.203 S  
HETATM    8  O   UNL     1      -7.074  14.428  67.664  1.00  0.00    -0.160 OA 
BRANCH   7   9
HETATM    9  C   UNL     1      -8.750  16.232  66.514  1.00  0.00    -0.292 C  
BRANCH   9  10
HETATM   10  C   UNL     1      -9.872  15.292  66.940  1.00  0.00    -0.242 A  
HETATM   11  C   UNL     1     -10.214  15.198  68.302  1.00  0.00    -0.223 A  
HETATM   12  C   UNL     1     -10.548  14.456  66.037  1.00  0.00    -0.304 A  
HETATM   13  C   UNL     1     -11.191  14.300  68.742  1.00  0.00    -0.286 A  
HETATM   14  C   UNL     1     -11.836  13.473  67.832  1.00  0.00    -0.397 A  
HETATM   15  C   UNL     1     -11.516  13.548  66.479  1.00  0.00    -0.365 A  
ENDBRANCH   9  10
BRANCH   9  16
HETATM   16  C   UNL     1      -9.113  17.710  66.679  1.00  0.00    -0.280 A  
HETATM   17  C   UNL     1     -10.737  19.411  67.312  1.00  0.00    -0.603 A  
HETATM   18  C   UNL     1      -8.611  20.081  66.398  1.00  0.00    -0.350 A  
HETATM   19  C   UNL     1     -10.365  18.069  67.206  1.00  0.00    -0.387 A  
HETATM   20  C   UNL     1      -8.240  18.741  66.285  1.00  0.00    -0.270 A  
HETATM   21  C   UNL     1      -9.861  20.417  66.906  1.00  0.00    -0.572 A  
ENDBRANCH   9  16
ENDBRANCH   7   9
ENDBRANCH   6   7
ENDBRANCH   2   6
TORSDOF 5
ENDMDL
MODEL      154
REMARK 921   NORMALIZED FREE ENERGY PREDICTED BY IDOCK:   -3.67 KCAL/MOL
REMARK 922        TOTAL FREE ENERGY PREDICTED BY IDOCK:   -5.74 KCAL/MOL
REMARK 923 INTER-LIGAND FREE ENERGY PREDICTED BY IDOCK:   -5.61 KCAL/MOL
REMARK 924 INTRA-LIGAND FREE ENERGY PREDICTED BY IDOCK:   -0.13 KCAL/MOL
REMARK 927      BINDING AFFINITY PREDICTED BY RF-SCORE:    0.00 PKD
ROOT
HETATM    1  N   UNL     1      -8.555   8.147  69.990  1.00  0.00    -0.128 N  
HETATM    2  C   UNL     1      -7.820   9.210  69.536  1.00  0.00    -0.082 C  
HETATM    3  H1  UNL     1      -9.573   8.200  70.048  1.00  0.00     0.000 HD 
HETATM    4  H2  UNL     1      -8.080   7.290  70.274  1.00  0.00     0.000 HD 
HETATM    5  O   UNL     1      -6.596   9.146  69.466  1.00  0.00    -0.042 OA 
ENDROOT
BRANCH   2   6
HETATM    6  C   UNL     1      -8.608  10.452  69.176  1.00  0.00    -0.164 C  
BRANCH   6   7
HETATM    7  S   UNL     1      -9.450  10.195  67.589  1.00  0.00    -0.149 S  
HETATM    8  O   UNL     1     -10.551   9.201  67.849  1.00  0.00    -0.240 OA 
BRANCH   7   9
HETATM    9  C   UNL     1     -10.229  11.868  67.432  1.00  0.00    -0.196 C  
BRANCH   9  10
HETATM   10  C   UNL     1     -10.995  12.093  66.132  1.00  0.00    -0.335 A  
HETATM   11  C   UNL     1     -10.647  11.351  64.988  1.00  0.00    -0.359 A  
HETATM   12  C   UNL     1     -12.002  13.062  66.001  1.00  0.00    -0.498 A  
HETATM   13  C   UNL     1     -11.280  11.573  63.761  1.00  0.00    -0.456 A  
HETATM   14  C   UNL     1     -12.263  12.548  63.653  1.00  0.00    -0.642 A  
HETATM   15  C   UNL     1     -12.626  13.294  64.771  1.00  0.00    -0.398 A  
ENDBRANCH   9  10
BRANCH   9  16
HETATM   16  C   UNL     1     -11.063  12.176  68.678  1.00  0.00    -0.297 A  
HETATM   17  C   UNL     1     -11.767  13.759  70.390  1.00  0.00    -0.242 A  
HETATM   18  C   UNL     1     -12.533  11.477  70.496  1.00  0.00    -0.367 A  
HETATM   19  C   UNL     1     -11.058  13.472  69.221  1.00  0.00    -0.230 A  
HETATM   20  C   UNL     1     -11.820  11.187  69.332  1.00  0.00    -0.415 A  
HETATM   21  C   UNL     1     -12.503  12.761  71.028  1.00  0.00    -0.369 A  
ENDBRANCH   9  16
ENDBRANCH   7   9
ENDBRANCH   6   7
ENDBRANCH   2   6
TORSDOF 5
ENDMDL
MODEL      155
REMARK 921   NORMALIZED FREE ENERGY PREDICTED BY IDOCK:   -3.64 KCAL/MOL
REMARK 922        TOTAL FREE ENERGY PREDICTED BY IDOCK:   -5.70 KCAL/MOL
REMARK 923 INTER-LIGAND FREE ENERGY PREDICTED BY IDOCK:   -5.18 KCAL/MOL
REMARK 924 INTRA-LIGAND FREE ENERGY PREDICTED BY IDOCK:   -0.52 KCAL/MOL
REMARK 927      BINDING AFFINITY PREDICTED BY RF-SCORE:    0.00 PKD
ROOT
HETATM    1  N   UNL     1      -7.827   9.094  67.098  1.00  0.00    -0.102 N  
HETATM    2  C   UNL     1      -7.937  10.410  67.463  1.00  0.00    -0.106 C  
HETATM    3  H1  UNL     1      -8.423   8.381  67.519  1.00  0.00     0.000 HD 
HETATM    4  H2  UNL     1      -7.138   8.823  66.395  1.00  0.00     0.000 HD 
HETATM    5  O   UNL     1      -7.220  11.267  66.956  1.00  0.00    -0.113 OA 
ENDROOT
BRANCH   2   6
HETATM    6  C   UNL     1      -8.956  10.712  68.542  1.00  0.00    -0.156 C  
BRANCH   6   7
HETATM    7  S   UNL     1     -10.605  10.840  67.798  1.00  0.00    -0.248 S  
HETATM    8  O   UNL     1     -10.645   9.832  66.679  1.00  0.00    -0.189 OA 
BRANCH   7   9
HETATM    9  C   UNL     1     -11.585  10.150  69.210  1.00  0.00    -0.055 C  
BRANCH   9  10
HETATM   10  C   UNL     1     -10.864   9.076  70.020  1.00  0.00    -0.247 A  
HETATM   11  C   UNL     1     -10.228   9.431  71.224  1.00  0.00    -0.340 A  
HETATM   12  C   UNL     1     -10.749   7.746  69.586  1.00  0.00    -0.223 A  
HETATM   13  C   UNL     1      -9.502   8.491  71.962  1.00  0.00    -0.364 A  
HETATM   14  C   UNL     1      -9.390   7.184  71.505  1.00  0.00    -0.156 A  
HETATM   15  C   UNL     1     -10.012   6.809  70.317  1.00  0.00    -0.192 A  
ENDBRANCH   9  10
BRANCH   9  16
HETATM   16  C   UNL     1     -12.128  11.288  70.076  1.00  0.00    -0.425 A  
HETATM   17  C   UNL     1     -12.259  13.671  70.564  1.00  0.00    -0.438 A  
HETATM   18  C   UNL     1     -13.350  12.098  72.027  1.00  0.00    -0.470 A  
HETATM   19  C   UNL     1     -11.821  12.621  69.753  1.00  0.00    -0.379 A  
HETATM   20  C   UNL     1     -12.907  11.048  71.222  1.00  0.00    -0.528 A  
HETATM   21  C   UNL     1     -13.022  13.409  71.701  1.00  0.00    -0.445 A  
ENDBRANCH   9  16
ENDBRANCH   7   9
ENDBRANCH   6   7
ENDBRANCH   2   6
TORSDOF 5
ENDMDL
MODEL      156
REMARK 921   NORMALIZED FREE ENERGY PREDICTED BY IDOCK:   -3.63 KCAL/MOL
REMARK 922        TOTAL FREE ENERGY PREDICTED BY IDOCK:   -5.69 KCAL/MOL
REMARK 923 INTER-LIGAND FREE ENERGY PREDICTED BY IDOCK:   -5.11 KCAL/MOL
REMARK 924 INTRA-LIGAND FREE ENERGY PREDICTED BY IDOCK:   -0.58 KCAL/MOL
REMARK 927      BINDING AFFINITY PREDICTED BY RF-SCORE:    0.00 PKD
ROOT
HETATM    1  N   UNL     1     -12.109  12.111  63.110  1.00  0.00    -0.743 N  
HETATM    2  C   UNL     1     -12.178  12.567  64.400  1.00  0.00    -0.449 C  
HETATM    3  H1  UNL     1     -11.297  11.587  62.782  1.00  0.00     0.000 HD 
HETATM    4  H2  UNL     1     -12.879  12.299  62.468  1.00  0.00     0.000 HD 
HETATM    5  O   UNL     1     -13.154  13.198  64.794  1.00  0.00    -0.728 OA 
ENDROOT
BRANCH   2   6
HETATM    6  C   UNL     1     -10.971  12.277  65.268  1.00  0.00    -0.307 C  
BRANCH   6   7
HETATM    7  S   UNL     1     -10.403  10.581  64.966  1.00  0.00    -0.147 S  
HETATM    8  O   UNL     1      -9.369  10.667  63.875  1.00  0.00    -0.221 OA 
BRANCH   7   9
HETATM    9  C   UNL     1      -9.509  10.315  66.566  1.00  0.00    -0.171 C  
BRANCH   9  10
HETATM   10  C   UNL     1      -9.930   9.063  67.330  1.00  0.00    -0.275 A  
HETATM   11  C   UNL     1     -10.270   7.900  66.615  1.00  0.00    -0.303 A  
HETATM   12  C   UNL     1     -10.059   9.033  68.727  1.00  0.00    -0.214 A  
HETATM   13  C   UNL     1     -10.723   6.753  67.274  1.00  0.00    -0.423 A  
HETATM   14  C   UNL     1     -10.856   6.751  68.656  1.00  0.00    -0.277 A  
HETATM   15  C   UNL     1     -10.525   7.890  69.385  1.00  0.00    -0.222 A  
ENDBRANCH   9  10
BRANCH   9  16
HETATM   16  C   UNL     1      -7.998  10.398  66.341  1.00  0.00    -0.130 A  
HETATM   17  C   UNL     1      -5.900  11.604  66.618  1.00  0.00    -0.108 A  
HETATM   18  C   UNL     1      -5.932   9.553  65.355  1.00  0.00    -0.064 A  
HETATM   19  C   UNL     1      -7.270  11.481  66.862  1.00  0.00    -0.137 A  
HETATM   20  C   UNL     1      -7.301   9.432  65.591  1.00  0.00    -0.092 A  
HETATM   21  C   UNL     1      -5.231  10.641  65.864  1.00  0.00    -0.103 A  
ENDBRANCH   9  16
ENDBRANCH   7   9
ENDBRANCH   6   7
ENDBRANCH   2   6
TORSDOF 5
ENDMDL
MODEL      157
REMARK 921   NORMALIZED FREE ENERGY PREDICTED BY IDOCK:   -3.62 KCAL/MOL
REMARK 922        TOTAL FREE ENERGY PREDICTED BY IDOCK:   -5.68 KCAL/MOL
REMARK 923 INTER-LIGAND FREE ENERGY PREDICTED BY IDOCK:   -5.55 KCAL/MOL
REMARK 924 INTRA-LIGAND FREE ENERGY PREDICTED BY IDOCK:   -0.13 KCAL/MOL
REMARK 927      BINDING AFFINITY PREDICTED BY RF-SCORE:    0.00 PKD
ROOT
HETATM    1  N   UNL     1      -6.566  12.510  69.700  1.00  0.00    -0.319 N  
HETATM    2  C   UNL     1      -7.296  11.537  69.070  1.00  0.00    -0.094 C  
HETATM    3  H1  UNL     1      -6.533  13.461  69.332  1.00  0.00     0.000 HD 
HETATM    4  H2  UNL     1      -6.048  12.281  70.548  1.00  0.00     0.000 HD 
HETATM    5  O   UNL     1      -7.336  10.393  69.512  1.00  0.00    -0.112 OA 
ENDROOT
BRANCH   2   6
HETATM    6  C   UNL     1      -7.998  11.959  67.796  1.00  0.00    -0.144 C  
BRANCH   6   7
HETATM    7  S   UNL     1      -9.266  13.197  68.185  1.00  0.00    -0.205 S  
HETATM    8  O   UNL     1      -9.110  14.299  67.170  1.00  0.00    -0.207 OA 
BRANCH   7   9
HETATM    9  C   UNL     1     -10.756  12.205  67.712  1.00  0.00    -0.209 C  
BRANCH   9  10
HETATM   10  C   UNL     1     -11.038  12.156  66.213  1.00  0.00    -0.353 A  
HETATM   11  C   UNL     1     -12.273  12.622  65.727  1.00  0.00    -0.427 A  
HETATM   12  C   UNL     1     -10.138  11.601  65.289  1.00  0.00    -0.305 A  
HETATM   13  C   UNL     1     -12.595  12.534  64.369  1.00  0.00    -0.497 A  
HETATM   14  C   UNL     1     -11.695  11.969  63.475  1.00  0.00    -0.566 A  
HETATM   15  C   UNL     1     -10.466  11.501  63.933  1.00  0.00    -0.439 A  
ENDBRANCH   9  10
BRANCH   9  16
HETATM   16  C   UNL     1     -10.686  10.817  68.352  1.00  0.00    -0.255 A  
HETATM   17  C   UNL     1     -10.408   8.409  68.114  1.00  0.00    -0.255 A  
HETATM   18  C   UNL     1     -10.898   9.337  70.281  1.00  0.00    -0.286 A  
HETATM   19  C   UNL     1     -10.419   9.690  67.557  1.00  0.00    -0.321 A  
HETATM   20  C   UNL     1     -10.917  10.617  69.726  1.00  0.00    -0.340 A  
HETATM   21  C   UNL     1     -10.649   8.233  69.475  1.00  0.00    -0.216 A  
ENDBRANCH   9  16
ENDBRANCH   7   9
ENDBRANCH   6   7
ENDBRANCH   2   6
TORSDOF 5
ENDMDL
MODEL      158
REMARK 921   NORMALIZED FREE ENERGY PREDICTED BY IDOCK:   -3.60 KCAL/MOL
REMARK 922        TOTAL FREE ENERGY PREDICTED BY IDOCK:   -5.66 KCAL/MOL
REMARK 923 INTER-LIGAND FREE ENERGY PREDICTED BY IDOCK:   -4.85 KCAL/MOL
REMARK 924 INTRA-LIGAND FREE ENERGY PREDICTED BY IDOCK:   -0.80 KCAL/MOL
REMARK 927      BINDING AFFINITY PREDICTED BY RF-SCORE:    0.00 PKD
ROOT
HETATM    1  N   UNL     1     -12.467   7.042  72.143  1.00  0.00    -0.512 N  
HETATM    2  C   UNL     1     -11.109   7.205  72.080  1.00  0.00    -0.248 C  
HETATM    3  H1  UNL     1     -13.097   7.836  72.022  1.00  0.00     0.000 HD 
HETATM    4  H2  UNL     1     -12.855   6.114  72.313  1.00  0.00     0.000 HD 
HETATM    5  O   UNL     1     -10.352   6.250  72.226  1.00  0.00    -0.187 OA 
ENDROOT
BRANCH   2   6
HETATM    6  C   UNL     1     -10.623   8.624  71.865  1.00  0.00    -0.340 C  
BRANCH   6   7
HETATM    7  S   UNL     1     -11.546   9.377  70.497  1.00  0.00    -0.197 S  
HETATM    8  O   UNL     1     -11.846  10.793  70.916  1.00  0.00    -0.326 OA 
BRANCH   7   9
HETATM    9  C   UNL     1     -10.172   9.440  69.256  1.00  0.00    -0.202 C  
BRANCH   9  10
HETATM   10  C   UNL     1     -10.046   8.195  68.383  1.00  0.00    -0.226 A  
HETATM   11  C   UNL     1      -9.127   8.189  67.318  1.00  0.00    -0.156 A  
HETATM   12  C   UNL     1     -10.858   7.063  68.553  1.00  0.00    -0.187 A  
HETATM   13  C   UNL     1      -9.028   7.093  66.455  1.00  0.00    -0.178 A  
HETATM   14  C   UNL     1      -9.852   5.990  66.634  1.00  0.00    -0.202 A  
HETATM   15  C   UNL     1     -10.769   5.973  67.682  1.00  0.00    -0.377 A  
ENDBRANCH   9  10
BRANCH   9  16
HETATM   16  C   UNL     1     -10.260  10.733  68.444  1.00  0.00    -0.192 A  
HETATM   17  C   UNL     1      -9.459  12.992  68.005  1.00  0.00    -0.217 A  
HETATM   18  C   UNL     1     -11.339  12.137  66.765  1.00  0.00    -0.398 A  
HETATM   19  C   UNL     1      -9.359  11.782  68.697  1.00  0.00    -0.096 A  
HETATM   20  C   UNL     1     -11.245  10.931  67.459  1.00  0.00    -0.364 A  
HETATM   21  C   UNL     1     -10.449  13.170  67.041  1.00  0.00    -0.248 A  
ENDBRANCH   9  16
ENDBRANCH   7   9
ENDBRANCH   6   7
ENDBRANCH   2   6
TORSDOF 5
ENDMDL
MODEL      159
REMARK 921   NORMALIZED FREE ENERGY PREDICTED BY IDOCK:   -3.60 KCAL/MOL
REMARK 922        TOTAL FREE ENERGY PREDICTED BY IDOCK:   -5.65 KCAL/MOL
REMARK 923 INTER-LIGAND FREE ENERGY PREDICTED BY IDOCK:   -5.20 KCAL/MOL
REMARK 924 INTRA-LIGAND FREE ENERGY PREDICTED BY IDOCK:   -0.46 KCAL/MOL
REMARK 927      BINDING AFFINITY PREDICTED BY RF-SCORE:    0.00 PKD
ROOT
HETATM    1  N   UNL     1      -8.095   4.823  69.811  1.00  0.00    -0.068 N  
HETATM    2  C   UNL     1      -8.295   5.892  70.644  1.00  0.00    -0.124 C  
HETATM    3  H1  UNL     1      -7.729   4.954  68.868  1.00  0.00     0.000 HD 
HETATM    4  H2  UNL     1      -8.316   3.882  70.139  1.00  0.00     0.000 HD 
HETATM    5  O   UNL     1      -8.736   5.734  71.778  1.00  0.00    -0.134 OA 
ENDROOT
BRANCH   2   6
HETATM    6  C   UNL     1      -7.979   7.252  70.059  1.00  0.00    -0.117 C  
BRANCH   6   7
HETATM    7  S   UNL     1      -8.293   8.534  71.304  1.00  0.00    -0.170 S  
HETATM    8  O   UNL     1      -7.001   9.289  71.472  1.00  0.00    -0.283 OA 
BRANCH   7   9
HETATM    9  C   UNL     1      -9.437   9.595  70.306  1.00  0.00    -0.248 C  
BRANCH   9  10
HETATM   10  C   UNL     1      -9.446   9.291  68.811  1.00  0.00    -0.150 A  
HETATM   11  C   UNL     1     -10.378   8.369  68.300  1.00  0.00    -0.244 A  
HETATM   12  C   UNL     1      -8.515   9.844  67.918  1.00  0.00    -0.121 A  
HETATM   13  C   UNL     1     -10.376   8.014  66.947  1.00  0.00    -0.408 A  
HETATM   14  C   UNL     1      -9.436   8.564  66.085  1.00  0.00    -0.286 A  
HETATM   15  C   UNL     1      -8.504   9.479  66.568  1.00  0.00    -0.130 A  
ENDBRANCH   9  10
BRANCH   9  16
HETATM   16  C   UNL     1     -10.836   9.583  70.926  1.00  0.00    -0.407 A  
HETATM   17  C   UNL     1     -12.988  10.673  71.267  1.00  0.00    -0.513 A  
HETATM   18  C   UNL     1     -12.522   8.591  72.385  1.00  0.00    -0.416 A  
HETATM   19  C   UNL     1     -11.727  10.637  70.665  1.00  0.00    -0.454 A  
HETATM   20  C   UNL     1     -11.260   8.557  71.791  1.00  0.00    -0.379 A  
HETATM   21  C   UNL     1     -13.384   9.651  72.128  1.00  0.00    -0.545 A  
ENDBRANCH   9  16
ENDBRANCH   7   9
ENDBRANCH   6   7
ENDBRANCH   2   6
TORSDOF 5
ENDMDL
MODEL      160
REMARK 921   NORMALIZED FREE ENERGY PREDICTED BY IDOCK:   -3.57 KCAL/MOL
REMARK 922        TOTAL FREE ENERGY PREDICTED BY IDOCK:   -5.61 KCAL/MOL
REMARK 923 INTER-LIGAND FREE ENERGY PREDICTED BY IDOCK:   -5.40 KCAL/MOL
REMARK 924 INTRA-LIGAND FREE ENERGY PREDICTED BY IDOCK:   -0.21 KCAL/MOL
REMARK 927      BINDING AFFINITY PREDICTED BY RF-SCORE:    0.00 PKD
ROOT
HETATM    1  N   UNL     1      -8.490   7.410  68.855  1.00  0.00    -0.129 N  
HETATM    2  C   UNL     1      -9.646   7.058  69.500  1.00  0.00    -0.153 C  
HETATM    3  H1  UNL     1      -8.427   8.285  68.333  1.00  0.00     0.000 HD 
HETATM    4  H2  UNL     1      -7.681   6.790  68.897  1.00  0.00     0.000 HD 
HETATM    5  O   UNL     1      -9.721   6.006  70.128  1.00  0.00    -0.161 OA 
ENDROOT
BRANCH   2   6
HETATM    6  C   UNL     1     -10.806   8.019  69.348  1.00  0.00    -0.094 C  
BRANCH   6   7
HETATM    7  S   UNL     1     -10.585   9.417  70.482  1.00  0.00    -0.296 S  
HETATM    8  O   UNL     1      -9.134   9.812  70.392  1.00  0.00    -0.229 OA 
BRANCH   7   9
HETATM    9  C   UNL     1     -11.568  10.675  69.542  1.00  0.00    -0.288 C  
BRANCH   9  10
HETATM   10  C   UNL     1     -12.126  11.811  70.394  1.00  0.00    -0.440 A  
HETATM   11  C   UNL     1     -12.901  11.508  71.528  1.00  0.00    -0.485 A  
HETATM   12  C   UNL     1     -11.956  13.164  70.061  1.00  0.00    -0.391 A  
HETATM   13  C   UNL     1     -13.484  12.520  72.297  1.00  0.00    -0.490 A  
HETATM   14  C   UNL     1     -13.314  13.851  71.940  1.00  0.00    -0.496 A  
HETATM   15  C   UNL     1     -12.551  14.176  70.821  1.00  0.00    -0.432 A  
ENDBRANCH   9  10
BRANCH   9  16
HETATM   16  C   UNL     1     -10.767  11.170  68.336  1.00  0.00    -0.234 A  
HETATM   17  C   UNL     1     -10.522  11.367  65.920  1.00  0.00    -0.309 A  
HETATM   18  C   UNL     1      -8.777  12.192  67.361  1.00  0.00    -0.177 A  
HETATM   19  C   UNL     1     -11.265  10.974  67.037  1.00  0.00    -0.255 A  
HETATM   20  C   UNL     1      -9.514  11.793  68.477  1.00  0.00    -0.165 A  
HETATM   21  C   UNL     1      -9.278  11.974  66.083  1.00  0.00    -0.181 A  
ENDBRANCH   9  16
ENDBRANCH   7   9
ENDBRANCH   6   7
ENDBRANCH   2   6
TORSDOF 5
ENDMDL
MODEL      161
REMARK 921   NORMALIZED FREE ENERGY PREDICTED BY IDOCK:   -3.55 KCAL/MOL
REMARK 922        TOTAL FREE ENERGY PREDICTED BY IDOCK:   -5.59 KCAL/MOL
REMARK 923 INTER-LIGAND FREE ENERGY PREDICTED BY IDOCK:   -5.19 KCAL/MOL
REMARK 924 INTRA-LIGAND FREE ENERGY PREDICTED BY IDOCK:   -0.41 KCAL/MOL
REMARK 927      BINDING AFFINITY PREDICTED BY RF-SCORE:    0.00 PKD
ROOT
HETATM    1  N   UNL     1     -12.942   9.974  70.224  1.00  0.00    -0.571 N  
HETATM    2  C   UNL     1     -12.431  11.220  70.475  1.00  0.00    -0.310 C  
HETATM    3  H1  UNL     1     -12.492   9.347  69.557  1.00  0.00     0.000 HD 
HETATM    4  H2  UNL     1     -13.785   9.669  70.712  1.00  0.00     0.000 HD 
HETATM    5  O   UNL     1     -12.972  11.974  71.277  1.00  0.00    -0.334 OA 
ENDROOT
BRANCH   2   6
HETATM    6  C   UNL     1     -11.202  11.602  69.676  1.00  0.00    -0.177 C  
BRANCH   6   7
HETATM    7  S   UNL     1     -11.407  11.062  67.956  1.00  0.00    -0.294 S  
HETATM    8  O   UNL     1     -11.085  12.256  67.096  1.00  0.00    -0.250 OA 
BRANCH   7   9
HETATM    9  C   UNL     1      -9.965   9.904  67.871  1.00  0.00    -0.160 C  
BRANCH   9  10
HETATM   10  C   UNL     1     -10.287   8.459  68.237  1.00  0.00    -0.244 A  
HETATM   11  C   UNL     1     -10.037   8.006  69.546  1.00  0.00    -0.196 A  
HETATM   12  C   UNL     1     -10.768   7.527  67.304  1.00  0.00    -0.365 A  
HETATM   13  C   UNL     1     -10.257   6.672  69.904  1.00  0.00    -0.214 A  
HETATM   14  C   UNL     1     -10.720   5.765  68.959  1.00  0.00    -0.354 A  
HETATM   15  C   UNL     1     -10.976   6.191  67.658  1.00  0.00    -0.400 A  
ENDBRANCH   9  10
BRANCH   9  16
HETATM   16  C   UNL     1      -9.268  10.036  66.515  1.00  0.00    -0.182 A  
HETATM   17  C   UNL     1      -9.416  10.209  64.089  1.00  0.00    -0.353 A  
HETATM   18  C   UNL     1      -7.252  10.088  65.141  1.00  0.00    -0.139 A  
HETATM   19  C   UNL     1     -10.033  10.145  65.342  1.00  0.00    -0.377 A  
HETATM   20  C   UNL     1      -7.866  10.017  66.392  1.00  0.00    -0.113 A  
HETATM   21  C   UNL     1      -8.026  10.179  63.990  1.00  0.00    -0.154 A  
ENDBRANCH   9  16
ENDBRANCH   7   9
ENDBRANCH   6   7
ENDBRANCH   2   6
TORSDOF 5
ENDMDL
MODEL      162
REMARK 921   NORMALIZED FREE ENERGY PREDICTED BY IDOCK:   -3.54 KCAL/MOL
REMARK 922        TOTAL FREE ENERGY PREDICTED BY IDOCK:   -5.57 KCAL/MOL
REMARK 923 INTER-LIGAND FREE ENERGY PREDICTED BY IDOCK:   -5.54 KCAL/MOL
REMARK 924 INTRA-LIGAND FREE ENERGY PREDICTED BY IDOCK:   -0.03 KCAL/MOL
REMARK 927      BINDING AFFINITY PREDICTED BY RF-SCORE:    0.00 PKD
ROOT
HETATM    1  N   UNL     1      -6.887  12.064  69.658  1.00  0.00    -0.339 N  
HETATM    2  C   UNL     1      -6.563  13.091  68.811  1.00  0.00    -0.096 C  
HETATM    3  H1  UNL     1      -7.448  12.231  70.494  1.00  0.00     0.000 HD 
HETATM    4  H2  UNL     1      -6.563  11.119  69.451  1.00  0.00     0.000 HD 
HETATM    5  O   UNL     1      -5.889  12.889  67.806  1.00  0.00    -0.111 OA 
ENDROOT
BRANCH   2   6
HETATM    6  C   UNL     1      -7.053  14.464  69.221  1.00  0.00    -0.124 C  
BRANCH   6   7
HETATM    7  S   UNL     1      -7.631  15.362  67.755  1.00  0.00    -0.166 S  
HETATM    8  O   UNL     1      -8.342  14.353  66.892  1.00  0.00    -0.185 OA 
BRANCH   7   9
HETATM    9  C   UNL     1      -8.922  16.404  68.578  1.00  0.00    -0.224 C  
BRANCH   9  10
HETATM   10  C   UNL     1      -9.311  17.662  67.807  1.00  0.00    -0.255 A  
HETATM   11  C   UNL     1      -8.329  18.350  67.070  1.00  0.00    -0.257 A  
HETATM   12  C   UNL     1     -10.602  18.211  67.850  1.00  0.00    -0.389 A  
HETATM   13  C   UNL     1      -8.630  19.542  66.403  1.00  0.00    -0.384 A  
HETATM   14  C   UNL     1      -9.911  20.074  66.471  1.00  0.00    -0.603 A  
HETATM   15  C   UNL     1     -10.899  19.410  67.195  1.00  0.00    -0.561 A  
ENDBRANCH   9  10
BRANCH   9  16
HETATM   16  C   UNL     1     -10.127  15.541  68.959  1.00  0.00    -0.234 A  
HETATM   17  C   UNL     1     -11.588  14.621  70.678  1.00  0.00    -0.305 A  
HETATM   18  C   UNL     1     -11.907  13.975  68.379  1.00  0.00    -0.397 A  
HETATM   19  C   UNL     1     -10.526  15.449  70.303  1.00  0.00    -0.264 A  
HETATM   20  C   UNL     1     -10.842  14.795  68.004  1.00  0.00    -0.261 A  
HETATM   21  C   UNL     1     -12.276  13.883  69.716  1.00  0.00    -0.388 A  
ENDBRANCH   9  16
ENDBRANCH   7   9
ENDBRANCH   6   7
ENDBRANCH   2   6
TORSDOF 5
ENDMDL
MODEL      163
REMARK 921   NORMALIZED FREE ENERGY PREDICTED BY IDOCK:   -3.52 KCAL/MOL
REMARK 922        TOTAL FREE ENERGY PREDICTED BY IDOCK:   -5.56 KCAL/MOL
REMARK 923 INTER-LIGAND FREE ENERGY PREDICTED BY IDOCK:   -5.25 KCAL/MOL
REMARK 924 INTRA-LIGAND FREE ENERGY PREDICTED BY IDOCK:   -0.30 KCAL/MOL
REMARK 927      BINDING AFFINITY PREDICTED BY RF-SCORE:    0.00 PKD
ROOT
HETATM    1  N   UNL     1      -9.378   7.894  70.338  1.00  0.00    -0.159 N  
HETATM    2  C   UNL     1      -9.699   8.734  69.306  1.00  0.00    -0.172 C  
HETATM    3  H1  UNL     1      -9.203   8.257  71.275  1.00  0.00     0.000 HD 
HETATM    4  H2  UNL     1      -9.314   6.889  70.168  1.00  0.00     0.000 HD 
HETATM    5  O   UNL     1      -9.911   8.297  68.179  1.00  0.00    -0.161 OA 
ENDROOT
BRANCH   2   6
HETATM    6  C   UNL     1      -9.731  10.211  69.642  1.00  0.00    -0.221 C  
BRANCH   6   7
HETATM    7  S   UNL     1     -11.066  11.014  68.712  1.00  0.00    -0.264 S  
HETATM    8  O   UNL     1     -11.604  12.106  69.600  1.00  0.00    -0.298 OA 
BRANCH   7   9
HETATM    9  C   UNL     1     -10.029  11.815  67.404  1.00  0.00    -0.184 C  
BRANCH   9  10
HETATM   10  C   UNL     1     -10.786  12.191  66.134  1.00  0.00    -0.317 A  
HETATM   11  C   UNL     1     -10.206  11.925  64.880  1.00  0.00    -0.310 A  
HETATM   12  C   UNL     1     -12.022  12.856  66.154  1.00  0.00    -0.491 A  
HETATM   13  C   UNL     1     -10.837  12.312  63.694  1.00  0.00    -0.522 A  
HETATM   14  C   UNL     1     -12.053  12.982  63.740  1.00  0.00    -0.574 A  
HETATM   15  C   UNL     1     -12.647  13.256  64.969  1.00  0.00    -0.483 A  
ENDBRANCH   9  10
BRANCH   9  16
HETATM   16  C   UNL     1      -9.245  12.986  68.001  1.00  0.00    -0.212 A  
HETATM   17  C   UNL     1      -7.137  13.906  68.803  1.00  0.00    -0.109 A  
HETATM   18  C   UNL     1      -9.149  15.219  68.979  1.00  0.00    -0.225 A  
HETATM   19  C   UNL     1      -7.860  12.869  68.206  1.00  0.00    -0.142 A  
HETATM   20  C   UNL     1      -9.874  14.183  68.390  1.00  0.00    -0.231 A  
HETATM   21  C   UNL     1      -7.782  15.079  69.190  1.00  0.00    -0.179 A  
ENDBRANCH   9  16
ENDBRANCH   7   9
ENDBRANCH   6   7
ENDBRANCH   2   6
TORSDOF 5
ENDMDL
MODEL      164
REMARK 921   NORMALIZED FREE ENERGY PREDICTED BY IDOCK:   -3.52 KCAL/MOL
REMARK 922        TOTAL FREE ENERGY PREDICTED BY IDOCK:   -5.55 KCAL/MOL
REMARK 923 INTER-LIGAND FREE ENERGY PREDICTED BY IDOCK:   -4.84 KCAL/MOL
REMARK 924 INTRA-LIGAND FREE ENERGY PREDICTED BY IDOCK:   -0.71 KCAL/MOL
REMARK 927      BINDING AFFINITY PREDICTED BY RF-SCORE:    0.00 PKD
ROOT
HETATM    1  N   UNL     1     -10.028   7.251  70.017  1.00  0.00    -0.183 N  
HETATM    2  C   UNL     1     -10.117   8.028  68.892  1.00  0.00    -0.201 C  
HETATM    3  H1  UNL     1      -9.914   7.674  70.939  1.00  0.00     0.000 HD 
HETATM    4  H2  UNL     1     -10.078   6.235  69.933  1.00  0.00     0.000 HD 
HETATM    5  O   UNL     1     -10.254   7.519  67.784  1.00  0.00    -0.177 OA 
ENDROOT
BRANCH   2   6
HETATM    6  C   UNL     1      -9.993   9.521  69.110  1.00  0.00    -0.183 C  
BRANCH   6   7
HETATM    7  S   UNL     1     -11.155  10.390  68.022  1.00  0.00    -0.271 S  
HETATM    8  O   UNL     1     -11.909  11.360  68.894  1.00  0.00    -0.316 OA 
BRANCH   7   9
HETATM    9  C   UNL     1      -9.921  11.361  67.041  1.00  0.00    -0.201 C  
BRANCH   9  10
HETATM   10  C   UNL     1      -8.933  10.515  66.244  1.00  0.00    -0.174 A  
HETATM   11  C   UNL     1      -9.360   9.890  65.057  1.00  0.00    -0.323 A  
HETATM   12  C   UNL     1      -7.620  10.272  66.675  1.00  0.00    -0.110 A  
HETATM   13  C   UNL     1      -8.505   9.054  64.333  1.00  0.00    -0.190 A  
HETATM   14  C   UNL     1      -7.214   8.817  64.787  1.00  0.00    -0.091 A  
HETATM   15  C   UNL     1      -6.769   9.425  65.959  1.00  0.00    -0.081 A  
ENDBRANCH   9  10
BRANCH   9  16
HETATM   16  C   UNL     1     -10.640  12.406  66.184  1.00  0.00    -0.283 A  
HETATM   17  C   UNL     1     -10.584  14.509  64.956  1.00  0.00    -0.458 A  
HETATM   18  C   UNL     1     -12.661  13.304  65.151  1.00  0.00    -0.512 A  
HETATM   19  C   UNL     1      -9.932  13.515  65.692  1.00  0.00    -0.252 A  
HETATM   20  C   UNL     1     -12.014  12.315  65.892  1.00  0.00    -0.358 A  
HETATM   21  C   UNL     1     -11.947  14.404  64.687  1.00  0.00    -0.475 A  
ENDBRANCH   9  16
ENDBRANCH   7   9
ENDBRANCH   6   7
ENDBRANCH   2   6
TORSDOF 5
ENDMDL
MODEL      165
REMARK 921   NORMALIZED FREE ENERGY PREDICTED BY IDOCK:   -3.51 KCAL/MOL
REMARK 922        TOTAL FREE ENERGY PREDICTED BY IDOCK:   -5.54 KCAL/MOL
REMARK 923 INTER-LIGAND FREE ENERGY PREDICTED BY IDOCK:   -5.10 KCAL/MOL
REMARK 924 INTRA-LIGAND FREE ENERGY PREDICTED BY IDOCK:   -0.43 KCAL/MOL
REMARK 927      BINDING AFFINITY PREDICTED BY RF-SCORE:    0.00 PKD
ROOT
HETATM    1  N   UNL     1     -12.149  13.653  69.469  1.00  0.00    -0.326 N  
HETATM    2  C   UNL     1     -11.421  12.601  68.981  1.00  0.00    -0.303 C  
HETATM    3  H1  UNL     1     -13.059  13.503  69.906  1.00  0.00     0.000 HD 
HETATM    4  H2  UNL     1     -11.777  14.601  69.394  1.00  0.00     0.000 HD 
HETATM    5  O   UNL     1     -10.327  12.782  68.455  1.00  0.00    -0.236 OA 
ENDROOT
BRANCH   2   6
HETATM    6  C   UNL     1     -12.070  11.238  69.098  1.00  0.00    -0.279 C  
BRANCH   6   7
HETATM    7  S   UNL     1     -11.573  10.464  70.662  1.00  0.00    -0.354 S  
HETATM    8  O   UNL     1     -12.794  10.469  71.544  1.00  0.00    -0.390 OA 
BRANCH   7   9
HETATM    9  C   UNL     1     -11.339   8.737  70.037  1.00  0.00    -0.032 C  
BRANCH   9  10
HETATM   10  C   UNL     1     -10.293   8.594  68.936  1.00  0.00    -0.228 A  
HETATM   11  C   UNL     1      -8.958   8.316  69.283  1.00  0.00    -0.147 A  
HETATM   12  C   UNL     1     -10.588   8.793  67.578  1.00  0.00    -0.298 A  
HETATM   13  C   UNL     1      -7.958   8.243  68.308  1.00  0.00    -0.119 A  
HETATM   14  C   UNL     1      -8.271   8.457  66.972  1.00  0.00    -0.107 A  
HETATM   15  C   UNL     1      -9.586   8.733  66.605  1.00  0.00    -0.283 A  
ENDBRANCH   9  10
BRANCH   9  16
HETATM   16  C   UNL     1     -11.104   7.784  71.211  1.00  0.00    -0.271 A  
HETATM   17  C   UNL     1     -11.496   5.626  72.271  1.00  0.00    -0.278 A  
HETATM   18  C   UNL     1     -10.216   7.303  73.433  1.00  0.00    -0.394 A  
HETATM   19  C   UNL     1     -11.652   6.490  71.184  1.00  0.00    -0.390 A  
HETATM   20  C   UNL     1     -10.376   8.170  72.352  1.00  0.00    -0.382 A  
HETATM   21  C   UNL     1     -10.780   6.033  73.395  1.00  0.00    -0.282 A  
ENDBRANCH   9  16
ENDBRANCH   7   9
ENDBRANCH   6   7
ENDBRANCH   2   6
TORSDOF 5
ENDMDL
MODEL      166
REMARK 921   NORMALIZED FREE ENERGY PREDICTED BY IDOCK:   -3.51 KCAL/MOL
REMARK 922        TOTAL FREE ENERGY PREDICTED BY IDOCK:   -5.53 KCAL/MOL
REMARK 923 INTER-LIGAND FREE ENERGY PREDICTED BY IDOCK:   -5.52 KCAL/MOL
REMARK 924 INTRA-LIGAND FREE ENERGY PREDICTED BY IDOCK:   -0.01 KCAL/MOL
REMARK 927      BINDING AFFINITY PREDICTED BY RF-SCORE:    0.00 PKD
ROOT
HETATM    1  N   UNL     1      -7.054  13.069  69.068  1.00  0.00    -0.232 N  
HETATM    2  C   UNL     1      -8.036  12.940  68.122  1.00  0.00    -0.158 C  
HETATM    3  H1  UNL     1      -6.800  13.985  69.439  1.00  0.00     0.000 HD 
HETATM    4  H2  UNL     1      -6.569  12.237  69.406  1.00  0.00     0.000 HD 
HETATM    5  O   UNL     1      -8.341  11.838  67.676  1.00  0.00    -0.133 OA 
ENDROOT
BRANCH   2   6
HETATM    6  C   UNL     1      -8.672  14.231  67.650  1.00  0.00    -0.191 C  
BRANCH   6   7
HETATM    7  S   UNL     1      -9.980  14.719  68.808  1.00  0.00    -0.234 S  
HETATM    8  O   UNL     1      -9.331  15.620  69.826  1.00  0.00    -0.270 OA 
BRANCH   7   9
HETATM    9  C   UNL     1     -10.963  15.788  67.659  1.00  0.00    -0.302 C  
BRANCH   9  10
HETATM   10  C   UNL     1     -10.321  17.134  67.336  1.00  0.00    -0.333 A  
HETATM   11  C   UNL     1      -9.113  17.167  66.614  1.00  0.00    -0.280 A  
HETATM   12  C   UNL     1     -10.848  18.355  67.784  1.00  0.00    -0.268 A  
HETATM   13  C   UNL     1      -8.459  18.376  66.354  1.00  0.00    -0.264 A  
HETATM   14  C   UNL     1      -8.993  19.570  66.820  1.00  0.00    -0.386 A  
HETATM   15  C   UNL     1     -10.188  19.562  67.536  1.00  0.00    -0.546 A  
ENDBRANCH   9  10
BRANCH   9  16
HETATM   16  C   UNL     1     -11.349  14.995  66.408  1.00  0.00    -0.275 A  
HETATM   17  C   UNL     1     -11.802  14.943  64.015  1.00  0.00    -0.056 A  
HETATM   18  C   UNL     1     -12.095  12.941  65.323  1.00  0.00    -0.496 A  
HETATM   19  C   UNL     1     -11.396  15.636  65.159  1.00  0.00    -0.198 A  
HETATM   20  C   UNL     1     -11.698  13.633  66.467  1.00  0.00    -0.414 A  
HETATM   21  C   UNL     1     -12.153  13.596  64.098  1.00  0.00    -0.484 A  
ENDBRANCH   9  16
ENDBRANCH   7   9
ENDBRANCH   6   7
ENDBRANCH   2   6
TORSDOF 5
ENDMDL
MODEL      167
REMARK 921   NORMALIZED FREE ENERGY PREDICTED BY IDOCK:   -3.50 KCAL/MOL
REMARK 922        TOTAL FREE ENERGY PREDICTED BY IDOCK:   -5.52 KCAL/MOL
REMARK 923 INTER-LIGAND FREE ENERGY PREDICTED BY IDOCK:   -5.72 KCAL/MOL
REMARK 924 INTRA-LIGAND FREE ENERGY PREDICTED BY IDOCK:    0.19 KCAL/MOL
REMARK 927      BINDING AFFINITY PREDICTED BY RF-SCORE:    0.00 PKD
ROOT
HETATM    1  N   UNL     1     -10.585  17.177  66.139  1.00  0.00    -0.258 N  
HETATM    2  C   UNL     1     -10.732  16.378  65.036  1.00  0.00    -0.259 C  
HETATM    3  H1  UNL     1      -9.905  16.950  66.864  1.00  0.00     0.000 HD 
HETATM    4  H2  UNL     1     -11.164  18.012  66.236  1.00  0.00     0.000 HD 
HETATM    5  O   UNL     1     -11.551  16.652  64.164  1.00  0.00    -1.102 OA 
ENDROOT
BRANCH   2   6
HETATM    6  C   UNL     1      -9.860  15.140  64.997  1.00  0.00    -0.020 C  
BRANCH   6   7
HETATM    7  S   UNL     1     -10.882  13.672  65.297  1.00  0.00    -0.340 S  
HETATM    8  O   UNL     1     -10.471  12.651  64.268  1.00  0.00    -0.347 OA 
BRANCH   7   9
HETATM    9  C   UNL     1     -10.142  13.163  66.917  1.00  0.00    -0.245 C  
BRANCH   9  10
HETATM   10  C   UNL     1     -10.600  13.991  68.114  1.00  0.00    -0.252 A  
HETATM   11  C   UNL     1      -9.654  14.742  68.836  1.00  0.00    -0.210 A  
HETATM   12  C   UNL     1     -11.925  13.991  68.575  1.00  0.00    -0.383 A  
HETATM   13  C   UNL     1     -10.021  15.462  69.977  1.00  0.00    -0.166 A  
HETATM   14  C   UNL     1     -11.336  15.435  70.423  1.00  0.00    -0.350 A  
HETATM   15  C   UNL     1     -12.290  14.700  69.724  1.00  0.00    -0.306 A  
ENDBRANCH   9  10
BRANCH   9  16
HETATM   16  C   UNL     1     -10.325  11.658  67.126  1.00  0.00    -0.247 A  
HETATM   17  C   UNL     1     -10.244   9.392  66.235  1.00  0.00    -0.284 A  
HETATM   18  C   UNL     1     -11.025   9.756  68.485  1.00  0.00    -0.195 A  
HETATM   19  C   UNL     1     -10.029  10.765  66.083  1.00  0.00    -0.283 A  
HETATM   20  C   UNL     1     -10.819  11.127  68.332  1.00  0.00    -0.248 A  
HETATM   21  C   UNL     1     -10.743   8.889  67.435  1.00  0.00    -0.225 A  
ENDBRANCH   9  16
ENDBRANCH   7   9
ENDBRANCH   6   7
ENDBRANCH   2   6
TORSDOF 5
ENDMDL
MODEL      168
REMARK 921   NORMALIZED FREE ENERGY PREDICTED BY IDOCK:   -3.49 KCAL/MOL
REMARK 922        TOTAL FREE ENERGY PREDICTED BY IDOCK:   -5.51 KCAL/MOL
REMARK 923 INTER-LIGAND FREE ENERGY PREDICTED BY IDOCK:   -4.90 KCAL/MOL
REMARK 924 INTRA-LIGAND FREE ENERGY PREDICTED BY IDOCK:   -0.61 KCAL/MOL
REMARK 927      BINDING AFFINITY PREDICTED BY RF-SCORE:    0.00 PKD
ROOT
HETATM    1  N   UNL     1      -7.640   3.813  68.739  1.00  0.00    -0.054 N  
HETATM    2  C   UNL     1      -8.638   4.544  69.328  1.00  0.00    -0.078 C  
HETATM    3  H1  UNL     1      -6.723   4.224  68.563  1.00  0.00     0.000 HD 
HETATM    4  H2  UNL     1      -7.816   2.844  68.472  1.00  0.00     0.000 HD 
HETATM    5  O   UNL     1      -9.741   4.050  69.539  1.00  0.00    -0.202 OA 
ENDROOT
BRANCH   2   6
HETATM    6  C   UNL     1      -8.298   5.984  69.651  1.00  0.00    -0.119 C  
BRANCH   6   7
HETATM    7  S   UNL     1      -8.443   6.992  68.150  1.00  0.00    -0.129 S  
HETATM    8  O   UNL     1      -8.458   6.029  66.992  1.00  0.00    -0.109 OA 
BRANCH   7   9
HETATM    9  C   UNL     1     -10.176   7.592  68.402  1.00  0.00    -0.198 C  
BRANCH   9  10
HETATM   10  C   UNL     1     -10.609   7.691  69.862  1.00  0.00    -0.237 A  
HETATM   11  C   UNL     1     -11.710   6.936  70.308  1.00  0.00    -0.344 A  
HETATM   12  C   UNL     1      -9.995   8.558  70.780  1.00  0.00    -0.230 A  
HETATM   13  C   UNL     1     -12.178   7.048  71.621  1.00  0.00    -0.395 A  
HETATM   14  C   UNL     1     -11.564   7.923  72.507  1.00  0.00    -0.443 A  
HETATM   15  C   UNL     1     -10.472   8.680  72.088  1.00  0.00    -0.411 A  
ENDBRANCH   9  10
BRANCH   9  16
HETATM   16  C   UNL     1     -10.399   8.891  67.624  1.00  0.00    -0.313 A  
HETATM   17  C   UNL     1     -10.018  10.227  65.623  1.00  0.00    -0.347 A  
HETATM   18  C   UNL     1     -11.240  11.176  67.470  1.00  0.00    -0.369 A  
HETATM   19  C   UNL     1      -9.875   9.029  66.328  1.00  0.00    -0.361 A  
HETATM   20  C   UNL     1     -11.091   9.983  68.178  1.00  0.00    -0.252 A  
HETATM   21  C   UNL     1     -10.699  11.301  66.195  1.00  0.00    -0.307 A  
ENDBRANCH   9  16
ENDBRANCH   7   9
ENDBRANCH   6   7
ENDBRANCH   2   6
TORSDOF 5
ENDMDL
MODEL      169
REMARK 921   NORMALIZED FREE ENERGY PREDICTED BY IDOCK:   -3.47 KCAL/MOL
REMARK 922        TOTAL FREE ENERGY PREDICTED BY IDOCK:   -5.49 KCAL/MOL
REMARK 923 INTER-LIGAND FREE ENERGY PREDICTED BY IDOCK:   -5.00 KCAL/MOL
REMARK 924 INTRA-LIGAND FREE ENERGY PREDICTED BY IDOCK:   -0.49 KCAL/MOL
REMARK 927      BINDING AFFINITY PREDICTED BY RF-SCORE:    0.00 PKD
ROOT
HETATM    1  N   UNL     1     -13.679   8.124  70.963  1.00  0.00    -0.553 N  
HETATM    2  C   UNL     1     -13.604   8.896  72.092  1.00  0.00    -0.453 C  
HETATM    3  H1  UNL     1     -13.051   8.285  70.175  1.00  0.00     0.000 HD 
HETATM    4  H2  UNL     1     -14.373   7.378  70.909  1.00  0.00     0.000 HD 
HETATM    5  O   UNL     1     -14.359   8.703  73.039  1.00  0.00    -0.395 OA 
ENDROOT
BRANCH   2   6
HETATM    6  C   UNL     1     -12.572  10.005  72.065  1.00  0.00    -0.290 C  
BRANCH   6   7
HETATM    7  S   UNL     1     -11.904  10.170  70.387  1.00  0.00    -0.282 S  
HETATM    8  O   UNL     1     -11.715  11.645  70.148  1.00  0.00    -0.323 OA 
BRANCH   7   9
HETATM    9  C   UNL     1     -10.233   9.434  70.696  1.00  0.00    -0.288 C  
BRANCH   9  10
HETATM   10  C   UNL     1     -10.225   8.262  71.672  1.00  0.00    -0.286 A  
HETATM   11  C   UNL     1      -9.778   8.465  72.991  1.00  0.00    -0.185 A  
HETATM   12  C   UNL     1     -10.586   6.958  71.298  1.00  0.00    -0.244 A  
HETATM   13  C   UNL     1      -9.693   7.403  73.897  1.00  0.00    -0.287 A  
HETATM   14  C   UNL     1     -10.043   6.119  73.500  1.00  0.00    -0.218 A  
HETATM   15  C   UNL     1     -10.489   5.894  72.200  1.00  0.00    -0.250 A  
ENDBRANCH   9  10
BRANCH   9  16
HETATM   16  C   UNL     1      -9.551   9.108  69.365  1.00  0.00    -0.165 A  
HETATM   17  C   UNL     1      -7.529   9.029  68.010  1.00  0.00    -0.084 A  
HETATM   18  C   UNL     1      -9.644   8.436  67.021  1.00  0.00    -0.248 A  
HETATM   19  C   UNL     1      -8.162   9.267  69.233  1.00  0.00    -0.108 A  
HETATM   20  C   UNL     1     -10.279   8.680  68.239  1.00  0.00    -0.237 A  
HETATM   21  C   UNL     1      -8.270   8.616  66.904  1.00  0.00    -0.105 A  
ENDBRANCH   9  16
ENDBRANCH   7   9
ENDBRANCH   6   7
ENDBRANCH   2   6
TORSDOF 5
ENDMDL
MODEL      170
REMARK 921   NORMALIZED FREE ENERGY PREDICTED BY IDOCK:   -3.46 KCAL/MOL
REMARK 922        TOTAL FREE ENERGY PREDICTED BY IDOCK:   -5.47 KCAL/MOL
REMARK 923 INTER-LIGAND FREE ENERGY PREDICTED BY IDOCK:   -5.43 KCAL/MOL
REMARK 924 INTRA-LIGAND FREE ENERGY PREDICTED BY IDOCK:   -0.05 KCAL/MOL
REMARK 927      BINDING AFFINITY PREDICTED BY RF-SCORE:    0.00 PKD
ROOT
HETATM    1  N   UNL     1     -13.381  14.861  70.709  1.00  0.00    -0.605 N  
HETATM    2  C   UNL     1     -12.704  13.842  70.092  1.00  0.00    -0.091 C  
HETATM    3  H1  UNL     1     -13.417  15.793  70.294  1.00  0.00     0.000 HD 
HETATM    4  H2  UNL     1     -13.857  14.686  71.594  1.00  0.00     0.000 HD 
HETATM    5  O   UNL     1     -12.662  12.721  70.591  1.00  0.00    -0.200 OA 
ENDROOT
BRANCH   2   6
HETATM    6  C   UNL     1     -11.995  14.205  68.804  1.00  0.00    -0.332 C  
BRANCH   6   7
HETATM    7  S   UNL     1     -11.244  15.847  68.970  1.00  0.00    -0.349 S  
HETATM    8  O   UNL     1     -10.122  15.703  69.965  1.00  0.00    -0.293 OA 
BRANCH   7   9
HETATM    9  C   UNL     1     -10.487  15.961  67.283  1.00  0.00    -0.310 C  
BRANCH   9  10
HETATM   10  C   UNL     1      -9.298  16.911  67.183  1.00  0.00    -0.241 A  
HETATM   11  C   UNL     1      -9.286  18.087  67.956  1.00  0.00    -0.273 A  
HETATM   12  C   UNL     1      -8.229  16.700  66.297  1.00  0.00    -0.365 A  
HETATM   13  C   UNL     1      -8.246  19.015  67.844  1.00  0.00    -0.311 A  
HETATM   14  C   UNL     1      -7.207  18.792  66.951  1.00  0.00    -0.223 A  
HETATM   15  C   UNL     1      -7.197  17.635  66.175  1.00  0.00    -0.352 A  
ENDBRANCH   9  10
BRANCH   9  16
HETATM   16  C   UNL     1     -10.179  14.560  66.753  1.00  0.00    -0.266 A  
HETATM   17  C   UNL     1      -8.787  12.560  66.796  1.00  0.00    -0.177 A  
HETATM   18  C   UNL     1     -10.574  12.728  65.189  1.00  0.00    -0.324 A  
HETATM   19  C   UNL     1      -9.120  13.818  67.305  1.00  0.00    -0.232 A  
HETATM   20  C   UNL     1     -10.904  13.987  65.692  1.00  0.00    -0.295 A  
HETATM   21  C   UNL     1      -9.513  12.017  65.737  1.00  0.00    -0.186 A  
ENDBRANCH   9  16
ENDBRANCH   7   9
ENDBRANCH   6   7
ENDBRANCH   2   6
TORSDOF 5
ENDMDL
MODEL      171
REMARK 921   NORMALIZED FREE ENERGY PREDICTED BY IDOCK:   -3.45 KCAL/MOL
REMARK 922        TOTAL FREE ENERGY PREDICTED BY IDOCK:   -5.46 KCAL/MOL
REMARK 923 INTER-LIGAND FREE ENERGY PREDICTED BY IDOCK:   -5.16 KCAL/MOL
REMARK 924 INTRA-LIGAND FREE ENERGY PREDICTED BY IDOCK:   -0.30 KCAL/MOL
REMARK 927      BINDING AFFINITY PREDICTED BY RF-SCORE:    0.00 PKD
ROOT
HETATM    1  N   UNL     1      -5.952  15.904  68.472  1.00  0.00    -0.100 N  
HETATM    2  C   UNL     1      -7.045  15.615  69.245  1.00  0.00    -0.189 C  
HETATM    3  H1  UNL     1      -6.058  16.346  67.558  1.00  0.00     0.000 HD 
HETATM    4  H2  UNL     1      -5.018  15.676  68.814  1.00  0.00     0.000 HD 
HETATM    5  O   UNL     1      -6.917  15.084  70.344  1.00  0.00    -0.036 OA 
ENDROOT
BRANCH   2   6
HETATM    6  C   UNL     1      -8.391  15.952  68.638  1.00  0.00    -0.195 C  
BRANCH   6   7
HETATM    7  S   UNL     1      -8.633  14.980  67.126  1.00  0.00    -0.236 S  
HETATM    8  O   UNL     1      -8.360  13.545  67.495  1.00  0.00    -0.161 OA 
BRANCH   7   9
HETATM    9  C   UNL     1     -10.468  15.181  66.975  1.00  0.00    -0.282 C  
BRANCH   9  10
HETATM   10  C   UNL     1     -11.110  14.349  65.869  1.00  0.00    -0.319 A  
HETATM   11  C   UNL     1     -12.512  14.328  65.747  1.00  0.00    -0.421 A  
HETATM   12  C   UNL     1     -10.366  13.542  64.995  1.00  0.00    -0.379 A  
HETATM   13  C   UNL     1     -13.142  13.528  64.789  1.00  0.00     0.114 A  
HETATM   14  C   UNL     1     -12.385  12.727  63.944  1.00  0.00    -0.510 A  
HETATM   15  C   UNL     1     -10.996  12.732  64.046  1.00  0.00    -0.454 A  
ENDBRANCH   9  10
BRANCH   9  16
HETATM   16  C   UNL     1     -11.130  14.975  68.339  1.00  0.00    -0.284 A  
HETATM   17  C   UNL     1     -12.139  15.922  70.344  1.00  0.00    -0.313 A  
HETATM   18  C   UNL     1     -11.838  13.538  70.180  1.00  0.00    -0.348 A  
HETATM   19  C   UNL     1     -11.583  16.085  69.072  1.00  0.00    -0.350 A  
HETATM   20  C   UNL     1     -11.276  13.699  68.913  1.00  0.00    -0.309 A  
HETATM   21  C   UNL     1     -12.264  14.649  70.898  1.00  0.00    -0.391 A  
ENDBRANCH   9  16
ENDBRANCH   7   9
ENDBRANCH   6   7
ENDBRANCH   2   6
TORSDOF 5
ENDMDL
MODEL      172
REMARK 921   NORMALIZED FREE ENERGY PREDICTED BY IDOCK:   -3.44 KCAL/MOL
REMARK 922        TOTAL FREE ENERGY PREDICTED BY IDOCK:   -5.45 KCAL/MOL
REMARK 923 INTER-LIGAND FREE ENERGY PREDICTED BY IDOCK:   -4.53 KCAL/MOL
REMARK 924 INTRA-LIGAND FREE ENERGY PREDICTED BY IDOCK:   -0.92 KCAL/MOL
REMARK 927      BINDING AFFINITY PREDICTED BY RF-SCORE:    0.00 PKD
ROOT
HETATM    1  N   UNL     1     -10.753  19.450  67.615  1.00  0.00    -0.453 N  
HETATM    2  C   UNL     1     -10.546  18.353  66.820  1.00  0.00    -0.333 C  
HETATM    3  H1  UNL     1     -11.040  19.345  68.588  1.00  0.00     0.000 HD 
HETATM    4  H2  UNL     1     -10.618  20.384  67.228  1.00  0.00     0.000 HD 
HETATM    5  O   UNL     1     -10.200  18.479  65.649  1.00  0.00    -0.552 OA 
ENDROOT
BRANCH   2   6
HETATM    6  C   UNL     1     -10.810  17.010  67.467  1.00  0.00    -0.203 C  
BRANCH   6   7
HETATM    7  S   UNL     1      -9.728  16.810  68.909  1.00  0.00    -0.243 S  
HETATM    8  O   UNL     1     -10.084  15.483  69.527  1.00  0.00    -0.243 OA 
BRANCH   7   9
HETATM    9  C   UNL     1      -8.124  16.596  68.007  1.00  0.00    -0.180 C  
BRANCH   9  10
HETATM   10  C   UNL     1      -7.222  17.826  68.013  1.00  0.00    -0.218 A  
HETATM   11  C   UNL     1      -7.460  18.852  68.945  1.00  0.00    -0.338 A  
HETATM   12  C   UNL     1      -6.191  18.016  67.079  1.00  0.00    -0.185 A  
HETATM   13  C   UNL     1      -6.697  20.024  68.940  1.00  0.00    -0.333 A  
HETATM   14  C   UNL     1      -5.692  20.197  67.997  1.00  0.00    -0.240 A  
HETATM   15  C   UNL     1      -5.438  19.194  67.065  1.00  0.00    -0.163 A  
ENDBRANCH   9  10
BRANCH   9  16
HETATM   16  C   UNL     1      -7.414  15.331  68.496  1.00  0.00    -0.121 A  
HETATM   17  C   UNL     1      -6.909  12.966  68.207  1.00  0.00    -0.093 A  
HETATM   18  C   UNL     1      -6.094  14.124  70.156  1.00  0.00    -0.158 A  
HETATM   19  C   UNL     1      -7.502  14.145  67.748  1.00  0.00    -0.174 A  
HETATM   20  C   UNL     1      -6.692  15.301  69.703  1.00  0.00    -0.181 A  
HETATM   21  C   UNL     1      -6.206  12.956  69.411  1.00  0.00    -0.114 A  
ENDBRANCH   9  16
ENDBRANCH   7   9
ENDBRANCH   6   7
ENDBRANCH   2   6
TORSDOF 5
ENDMDL
MODEL      173
REMARK 921   NORMALIZED FREE ENERGY PREDICTED BY IDOCK:   -3.44 KCAL/MOL
REMARK 922        TOTAL FREE ENERGY PREDICTED BY IDOCK:   -5.44 KCAL/MOL
REMARK 923 INTER-LIGAND FREE ENERGY PREDICTED BY IDOCK:   -5.45 KCAL/MOL
REMARK 924 INTRA-LIGAND FREE ENERGY PREDICTED BY IDOCK:    0.01 KCAL/MOL
REMARK 927      BINDING AFFINITY PREDICTED BY RF-SCORE:    0.00 PKD
ROOT
HETATM    1  N   UNL     1      -8.592   9.696  68.001  1.00  0.00    -0.119 N  
HETATM    2  C   UNL     1      -8.948  10.630  67.065  1.00  0.00    -0.137 C  
HETATM    3  H1  UNL     1      -9.178   9.523  68.819  1.00  0.00     0.000 HD 
HETATM    4  H2  UNL     1      -7.729   9.164  67.880  1.00  0.00     0.000 HD 
HETATM    5  O   UNL     1      -8.243  10.836  66.081  1.00  0.00    -0.154 OA 
ENDROOT
BRANCH   2   6
HETATM    6  C   UNL     1     -10.222  11.397  67.349  1.00  0.00    -0.193 C  
BRANCH   6   7
HETATM    7  S   UNL     1      -9.810  12.998  68.096  1.00  0.00    -0.228 S  
HETATM    8  O   UNL     1      -8.441  13.365  67.586  1.00  0.00    -0.161 OA 
BRANCH   7   9
HETATM    9  C   UNL     1     -11.044  14.038  67.189  1.00  0.00    -0.303 C  
BRANCH   9  10
HETATM   10  C   UNL     1     -10.745  15.534  67.198  1.00  0.00    -0.315 A  
HETATM   11  C   UNL     1     -10.641  16.209  68.428  1.00  0.00    -0.286 A  
HETATM   12  C   UNL     1     -10.630  16.293  66.023  1.00  0.00    -0.288 A  
HETATM   13  C   UNL     1     -10.432  17.591  68.478  1.00  0.00    -0.361 A  
HETATM   14  C   UNL     1     -10.336  18.324  67.302  1.00  0.00    -0.407 A  
HETATM   15  C   UNL     1     -10.436  17.677  66.073  1.00  0.00    -0.278 A  
ENDBRANCH   9  10
BRANCH   9  16
HETATM   16  C   UNL     1     -11.263  13.481  65.780  1.00  0.00    -0.308 A  
HETATM   17  C   UNL     1     -12.754  12.503  64.120  1.00  0.00    -0.417 A  
HETATM   18  C   UNL     1     -10.417  12.775  63.603  1.00  0.00    -0.239 A  
HETATM   19  C   UNL     1     -12.545  13.067  65.382  1.00  0.00    -0.481 A  
HETATM   20  C   UNL     1     -10.205  13.332  64.864  1.00  0.00    -0.313 A  
HETATM   21  C   UNL     1     -11.690  12.356  63.232  1.00  0.00    -0.466 A  
ENDBRANCH   9  16
ENDBRANCH   7   9
ENDBRANCH   6   7
ENDBRANCH   2   6
TORSDOF 5
ENDMDL
MODEL      174
REMARK 921   NORMALIZED FREE ENERGY PREDICTED BY IDOCK:   -3.41 KCAL/MOL
REMARK 922        TOTAL FREE ENERGY PREDICTED BY IDOCK:   -5.41 KCAL/MOL
REMARK 923 INTER-LIGAND FREE ENERGY PREDICTED BY IDOCK:   -4.89 KCAL/MOL
REMARK 924 INTRA-LIGAND FREE ENERGY PREDICTED BY IDOCK:   -0.52 KCAL/MOL
REMARK 927      BINDING AFFINITY PREDICTED BY RF-SCORE:    0.00 PKD
ROOT
HETATM    1  N   UNL     1     -11.054   6.067  73.488  1.00  0.00    -0.445 N  
HETATM    2  C   UNL     1     -10.106   5.844  72.525  1.00  0.00    -0.179 C  
HETATM    3  H1  UNL     1     -12.039   5.867  73.311  1.00  0.00     0.000 HD 
HETATM    4  H2  UNL     1     -10.771   6.439  74.396  1.00  0.00     0.000 HD 
HETATM    5  O   UNL     1      -8.922   6.085  72.738  1.00  0.00    -0.125 OA 
ENDROOT
BRANCH   2   6
HETATM    6  C   UNL     1     -10.623   5.331  71.197  1.00  0.00    -0.173 C  
BRANCH   6   7
HETATM    7  S   UNL     1     -11.618   6.619  70.396  1.00  0.00    -0.377 S  
HETATM    8  O   UNL     1     -12.869   6.764  71.223  1.00  0.00    -0.326 OA 
BRANCH   7   9
HETATM    9  C   UNL     1     -10.526   8.066  70.772  1.00  0.00    -0.206 C  
BRANCH   9  10
HETATM   10  C   UNL     1      -9.258   8.143  69.927  1.00  0.00    -0.151 A  
HETATM   11  C   UNL     1      -8.135   8.829  70.428  1.00  0.00    -0.118 A  
HETATM   12  C   UNL     1      -9.175   7.611  68.631  1.00  0.00    -0.141 A  
HETATM   13  C   UNL     1      -6.977   8.978  69.659  1.00  0.00    -0.054 A  
HETATM   14  C   UNL     1      -6.924   8.456  68.373  1.00  0.00    -0.069 A  
HETATM   15  C   UNL     1      -8.022   7.772  67.857  1.00  0.00    -0.125 A  
ENDBRANCH   9  10
BRANCH   9  16
HETATM   16  C   UNL     1     -11.343   9.360  70.742  1.00  0.00    -0.363 A  
HETATM   17  C   UNL     1     -11.836  11.505  69.699  1.00  0.00    -0.421 A  
HETATM   18  C   UNL     1     -12.981  10.879  71.724  1.00  0.00    -0.557 A  
HETATM   19  C   UNL     1     -11.140  10.293  69.712  1.00  0.00    -0.340 A  
HETATM   20  C   UNL     1     -12.282   9.672  71.742  1.00  0.00    -0.464 A  
HETATM   21  C   UNL     1     -12.754  11.798  70.706  1.00  0.00    -0.256 A  
ENDBRANCH   9  16
ENDBRANCH   7   9
ENDBRANCH   6   7
ENDBRANCH   2   6
TORSDOF 5
ENDMDL
MODEL      175
REMARK 921   NORMALIZED FREE ENERGY PREDICTED BY IDOCK:   -3.41 KCAL/MOL
REMARK 922        TOTAL FREE ENERGY PREDICTED BY IDOCK:   -5.41 KCAL/MOL
REMARK 923 INTER-LIGAND FREE ENERGY PREDICTED BY IDOCK:   -4.71 KCAL/MOL
REMARK 924 INTRA-LIGAND FREE ENERGY PREDICTED BY IDOCK:   -0.69 KCAL/MOL
REMARK 927      BINDING AFFINITY PREDICTED BY RF-SCORE:    0.00 PKD
ROOT
HETATM    1  N   UNL     1      -7.580  14.118  69.787  1.00  0.00    -0.278 N  
HETATM    2  C   UNL     1      -6.414  14.805  69.996  1.00  0.00    -0.169 C  
HETATM    3  H1  UNL     1      -8.343  14.531  69.251  1.00  0.00     0.000 HD 
HETATM    4  H2  UNL     1      -7.687  13.179  70.173  1.00  0.00     0.000 HD 
HETATM    5  O   UNL     1      -5.495  14.308  70.641  1.00  0.00    -0.116 OA 
ENDROOT
BRANCH   2   6
HETATM    6  C   UNL     1      -6.361  16.206  69.423  1.00  0.00    -0.179 C  
BRANCH   6   7
HETATM    7  S   UNL     1      -5.668  16.147  67.747  1.00  0.00    -0.150 S  
HETATM    8  O   UNL     1      -5.720  14.704  67.316  1.00  0.00    -0.295 OA 
BRANCH   7   9
HETATM    9  C   UNL     1      -7.030  17.044  66.868  1.00  0.00    -0.216 C  
BRANCH   9  10
HETATM   10  C   UNL     1      -8.430  16.755  67.401  1.00  0.00    -0.203 A  
HETATM   11  C   UNL     1      -9.144  15.650  66.902  1.00  0.00    -0.260 A  
HETATM   12  C   UNL     1      -9.075  17.585  68.331  1.00  0.00    -0.276 A  
HETATM   13  C   UNL     1     -10.453  15.388  67.317  1.00  0.00    -0.282 A  
HETATM   14  C   UNL     1     -11.077  16.232  68.227  1.00  0.00    -0.346 A  
HETATM   15  C   UNL     1     -10.390  17.332  68.735  1.00  0.00    -0.358 A  
ENDBRANCH   9  10
BRANCH   9  16
HETATM   16  C   UNL     1      -6.713  18.539  66.801  1.00  0.00    -0.211 A  
HETATM   17  C   UNL     1      -5.867  20.554  67.878  1.00  0.00    -0.281 A  
HETATM   18  C   UNL     1      -6.784  20.693  65.655  1.00  0.00    -0.206 A  
HETATM   19  C   UNL     1      -6.112  19.178  67.899  1.00  0.00    -0.218 A  
HETATM   20  C   UNL     1      -7.036  19.321  65.676  1.00  0.00    -0.278 A  
HETATM   21  C   UNL     1      -6.204  21.311  66.758  1.00  0.00    -0.392 A  
ENDBRANCH   9  16
ENDBRANCH   7   9
ENDBRANCH   6   7
ENDBRANCH   2   6
TORSDOF 5
ENDMDL
MODEL      176
REMARK 921   NORMALIZED FREE ENERGY PREDICTED BY IDOCK:   -3.41 KCAL/MOL
REMARK 922        TOTAL FREE ENERGY PREDICTED BY IDOCK:   -5.41 KCAL/MOL
REMARK 923 INTER-LIGAND FREE ENERGY PREDICTED BY IDOCK:   -4.52 KCAL/MOL
REMARK 924 INTRA-LIGAND FREE ENERGY PREDICTED BY IDOCK:   -0.88 KCAL/MOL
REMARK 927      BINDING AFFINITY PREDICTED BY RF-SCORE:    0.00 PKD
ROOT
HETATM    1  N   UNL     1     -12.188  13.470  67.298  1.00  0.00    -0.318 N  
HETATM    2  C   UNL     1     -11.785  12.920  68.486  1.00  0.00    -0.339 C  
HETATM    3  H1  UNL     1     -12.701  12.917  66.611  1.00  0.00     0.000 HD 
HETATM    4  H2  UNL     1     -11.972  14.447  67.097  1.00  0.00     0.000 HD 
HETATM    5  O   UNL     1     -11.168  13.585  69.312  1.00  0.00    -0.261 OA 
ENDROOT
BRANCH   2   6
HETATM    6  C   UNL     1     -12.113  11.454  68.680  1.00  0.00    -0.145 C  
BRANCH   6   7
HETATM    7  S   UNL     1     -10.789  10.439  67.968  1.00  0.00    -0.287 S  
HETATM    8  O   UNL     1      -9.867  11.387  67.247  1.00  0.00    -0.187 OA 
BRANCH   7   9
HETATM    9  C   UNL     1      -9.960   9.943  69.548  1.00  0.00    -0.222 C  
BRANCH   9  10
HETATM   10  C   UNL     1     -10.724   8.910  70.371  1.00  0.00    -0.261 A  
HETATM   11  C   UNL     1     -10.993   7.646  69.814  1.00  0.00    -0.178 A  
HETATM   12  C   UNL     1     -11.235   9.184  71.649  1.00  0.00    -0.447 A  
HETATM   13  C   UNL     1     -11.746   6.695  70.510  1.00  0.00    -0.453 A  
HETATM   14  C   UNL     1     -12.254   6.994  71.768  1.00  0.00    -0.387 A  
HETATM   15  C   UNL     1     -12.000   8.239  72.339  1.00  0.00    -0.447 A  
ENDBRANCH   9  10
BRANCH   9  16
HETATM   16  C   UNL     1      -8.511   9.534  69.273  1.00  0.00    -0.139 A  
HETATM   17  C   UNL     1      -6.140   9.738  69.793  1.00  0.00    -0.043 A  
HETATM   18  C   UNL     1      -6.836   8.349  67.952  1.00  0.00    -0.067 A  
HETATM   19  C   UNL     1      -7.474  10.054  70.065  1.00  0.00    -0.181 A  
HETATM   20  C   UNL     1      -8.167   8.669  68.217  1.00  0.00    -0.122 A  
HETATM   21  C   UNL     1      -5.821   8.887  68.736  1.00  0.00    -0.041 A  
ENDBRANCH   9  16
ENDBRANCH   7   9
ENDBRANCH   6   7
ENDBRANCH   2   6
TORSDOF 5
ENDMDL
MODEL      177
REMARK 921   NORMALIZED FREE ENERGY PREDICTED BY IDOCK:   -3.38 KCAL/MOL
REMARK 922        TOTAL FREE ENERGY PREDICTED BY IDOCK:   -5.37 KCAL/MOL
REMARK 923 INTER-LIGAND FREE ENERGY PREDICTED BY IDOCK:   -4.89 KCAL/MOL
REMARK 924 INTRA-LIGAND FREE ENERGY PREDICTED BY IDOCK:   -0.48 KCAL/MOL
REMARK 927      BINDING AFFINITY PREDICTED BY RF-SCORE:    0.00 PKD
ROOT
HETATM    1  N   UNL     1      -7.247  15.198  67.354  1.00  0.00    -0.203 N  
HETATM    2  C   UNL     1      -7.350  14.350  68.425  1.00  0.00    -0.117 C  
HETATM    3  H1  UNL     1      -7.807  15.051  66.514  1.00  0.00     0.000 HD 
HETATM    4  H2  UNL     1      -6.603  15.988  67.397  1.00  0.00     0.000 HD 
HETATM    5  O   UNL     1      -6.677  14.527  69.436  1.00  0.00    -0.124 OA 
ENDROOT
BRANCH   2   6
HETATM    6  C   UNL     1      -8.301  13.184  68.255  1.00  0.00    -0.152 C  
BRANCH   6   7
HETATM    7  S   UNL     1      -7.849  12.248  66.768  1.00  0.00     0.138 S  
HETATM    8  O   UNL     1      -6.805  11.250  67.195  1.00  0.00    -0.095 OA 
BRANCH   7   9
HETATM    9  C   UNL     1      -9.442  11.330  66.541  1.00  0.00    -0.193 C  
BRANCH   9  10
HETATM   10  C   UNL     1     -10.216  11.071  67.830  1.00  0.00    -0.207 A  
HETATM   11  C   UNL     1      -9.744  10.102  68.736  1.00  0.00    -0.174 A  
HETATM   12  C   UNL     1     -11.426  11.714  68.132  1.00  0.00    -0.382 A  
HETATM   13  C   UNL     1     -10.458   9.789  69.896  1.00  0.00    -0.298 A  
HETATM   14  C   UNL     1     -11.661  10.428  70.167  1.00  0.00    -0.394 A  
HETATM   15  C   UNL     1     -12.148  11.390  69.286  1.00  0.00    -0.356 A  
ENDBRANCH   9  10
BRANCH   9  16
HETATM   16  C   UNL     1     -10.288  12.009  65.462  1.00  0.00    -0.298 A  
HETATM   17  C   UNL     1     -11.163  14.049  64.460  1.00  0.00    -0.358 A  
HETATM   18  C   UNL     1     -11.850  11.910  63.590  1.00  0.00    -0.573 A  
HETATM   19  C   UNL     1     -10.351  13.411  65.401  1.00  0.00    -0.321 A  
HETATM   20  C   UNL     1     -11.046  11.271  64.534  1.00  0.00    -0.245 A  
HETATM   21  C   UNL     1     -11.913  13.299  63.556  1.00  0.00    -0.537 A  
ENDBRANCH   9  16
ENDBRANCH   7   9
ENDBRANCH   6   7
ENDBRANCH   2   6
TORSDOF 5
ENDMDL
MODEL      178
REMARK 921   NORMALIZED FREE ENERGY PREDICTED BY IDOCK:   -3.38 KCAL/MOL
REMARK 922        TOTAL FREE ENERGY PREDICTED BY IDOCK:   -5.37 KCAL/MOL
REMARK 923 INTER-LIGAND FREE ENERGY PREDICTED BY IDOCK:   -5.28 KCAL/MOL
REMARK 924 INTRA-LIGAND FREE ENERGY PREDICTED BY IDOCK:   -0.09 KCAL/MOL
REMARK 927      BINDING AFFINITY PREDICTED BY RF-SCORE:    0.00 PKD
ROOT
HETATM    1  N   UNL     1     -12.134  15.111  68.633  1.00  0.00    -0.586 N  
HETATM    2  C   UNL     1     -11.695  14.720  67.396  1.00  0.00    -0.350 C  
HETATM    3  H1  UNL     1     -12.625  14.460  69.246  1.00  0.00     0.000 HD 
HETATM    4  H2  UNL     1     -11.966  16.068  68.947  1.00  0.00     0.000 HD 
HETATM    5  O   UNL     1     -11.104  15.504  66.660  1.00  0.00    -0.293 OA 
ENDROOT
BRANCH   2   6
HETATM    6  C   UNL     1     -12.025  13.296  66.999  1.00  0.00    -0.365 C  
BRANCH   6   7
HETATM    7  S   UNL     1     -11.537  12.168  68.333  1.00  0.00    -0.345 S  
HETATM    8  O   UNL     1     -12.268  10.875  68.084  1.00  0.00    -0.503 OA 
BRANCH   7   9
HETATM    9  C   UNL     1      -9.771  11.919  67.835  1.00  0.00    -0.192 C  
BRANCH   9  10
HETATM   10  C   UNL     1      -8.937  11.115  68.827  1.00  0.00    -0.136 A  
HETATM   11  C   UNL     1      -7.561  11.383  68.950  1.00  0.00    -0.114 A  
HETATM   12  C   UNL     1      -9.469  10.062  69.589  1.00  0.00    -0.247 A  
HETATM   13  C   UNL     1      -6.750  10.624  69.800  1.00  0.00    -0.130 A  
HETATM   14  C   UNL     1      -7.296   9.579  70.533  1.00  0.00    -0.147 A  
HETATM   15  C   UNL     1      -8.656   9.295  70.429  1.00  0.00    -0.250 A  
ENDBRANCH   9  10
BRANCH   9  16
HETATM   16  C   UNL     1      -9.703  11.366  66.410  1.00  0.00    -0.231 A  
HETATM   17  C   UNL     1      -9.927  11.720  64.010  1.00  0.00    -0.320 A  
HETATM   18  C   UNL     1      -9.443   9.512  64.844  1.00  0.00    -0.230 A  
HETATM   19  C   UNL     1      -9.929  12.218  65.316  1.00  0.00    -0.250 A  
HETATM   20  C   UNL     1      -9.451  10.006  66.149  1.00  0.00    -0.242 A  
HETATM   21  C   UNL     1      -9.685  10.367  63.775  1.00  0.00    -0.351 A  
ENDBRANCH   9  16
ENDBRANCH   7   9
ENDBRANCH   6   7
ENDBRANCH   2   6
TORSDOF 5
ENDMDL
MODEL      179
REMARK 921   NORMALIZED FREE ENERGY PREDICTED BY IDOCK:   -3.38 KCAL/MOL
REMARK 922        TOTAL FREE ENERGY PREDICTED BY IDOCK:   -5.37 KCAL/MOL
REMARK 923 INTER-LIGAND FREE ENERGY PREDICTED BY IDOCK:   -4.54 KCAL/MOL
REMARK 924 INTRA-LIGAND FREE ENERGY PREDICTED BY IDOCK:   -0.83 KCAL/MOL
REMARK 927      BINDING AFFINITY PREDICTED BY RF-SCORE:    0.00 PKD
ROOT
HETATM    1  N   UNL     1      -9.873  13.775  67.976  1.00  0.00    -0.232 N  
HETATM    2  C   UNL     1     -11.164  13.554  68.377  1.00  0.00    -0.278 C  
HETATM    3  H1  UNL     1      -9.121  13.148  68.262  1.00  0.00     0.000 HD 
HETATM    4  H2  UNL     1      -9.661  14.578  67.384  1.00  0.00     0.000 HD 
HETATM    5  O   UNL     1     -12.069  14.307  68.033  1.00  0.00    -0.338 OA 
ENDROOT
BRANCH   2   6
HETATM    6  C   UNL     1     -11.377  12.363  69.288  1.00  0.00    -0.254 C  
BRANCH   6   7
HETATM    7  S   UNL     1     -11.478  10.850  68.292  1.00  0.00    -0.264 S  
HETATM    8  O   UNL     1     -11.248  11.266  66.863  1.00  0.00    -0.298 OA 
BRANCH   7   9
HETATM    9  C   UNL     1      -9.929  10.034  68.895  1.00  0.00    -0.192 C  
BRANCH   9  10
HETATM   10  C   UNL     1     -10.075   9.292  70.221  1.00  0.00    -0.262 A  
HETATM   11  C   UNL     1     -11.217   9.513  71.013  1.00  0.00    -0.432 A  
HETATM   12  C   UNL     1      -9.083   8.438  70.727  1.00  0.00    -0.180 A  
HETATM   13  C   UNL     1     -11.358   8.903  72.263  1.00  0.00    -0.288 A  
HETATM   14  C   UNL     1     -10.357   8.073  72.749  1.00  0.00    -0.408 A  
HETATM   15  C   UNL     1      -9.218   7.839  71.983  1.00  0.00    -0.189 A  
ENDBRANCH   9  10
BRANCH   9  16
HETATM   16  C   UNL     1      -9.330   9.165  67.787  1.00  0.00    -0.152 A  
HETATM   17  C   UNL     1      -9.561   7.321  66.213  1.00  0.00    -0.103 A  
HETATM   18  C   UNL     1      -7.455   8.476  66.387  1.00  0.00    -0.087 A  
HETATM   19  C   UNL     1     -10.108   8.162  67.186  1.00  0.00    -0.334 A  
HETATM   20  C   UNL     1      -7.996   9.312  67.363  1.00  0.00    -0.106 A  
HETATM   21  C   UNL     1      -8.235   7.477  65.815  1.00  0.00    -0.137 A  
ENDBRANCH   9  16
ENDBRANCH   7   9
ENDBRANCH   6   7
ENDBRANCH   2   6
TORSDOF 5
ENDMDL
MODEL      180
REMARK 921   NORMALIZED FREE ENERGY PREDICTED BY IDOCK:   -3.38 KCAL/MOL
REMARK 922        TOTAL FREE ENERGY PREDICTED BY IDOCK:   -5.37 KCAL/MOL
REMARK 923 INTER-LIGAND FREE ENERGY PREDICTED BY IDOCK:   -5.32 KCAL/MOL
REMARK 924 INTRA-LIGAND FREE ENERGY PREDICTED BY IDOCK:   -0.05 KCAL/MOL
REMARK 927      BINDING AFFINITY PREDICTED BY RF-SCORE:    0.00 PKD
ROOT
HETATM    1  N   UNL     1     -12.780  10.592  69.794  1.00  0.00    -0.456 N  
HETATM    2  C   UNL     1     -12.592  10.476  71.145  1.00  0.00    -0.417 C  
HETATM    3  H1  UNL     1     -12.149  10.136  69.135  1.00  0.00     0.000 HD 
HETATM    4  H2  UNL     1     -13.563  11.143  69.440  1.00  0.00     0.000 HD 
HETATM    5  O   UNL     1     -13.352  11.025  71.937  1.00  0.00    -0.422 OA 
ENDROOT
BRANCH   2   6
HETATM    6  C   UNL     1     -11.382   9.674  71.576  1.00  0.00    -0.350 C  
BRANCH   6   7
HETATM    7  S   UNL     1     -11.902   8.002  72.048  1.00  0.00    -0.348 S  
HETATM    8  O   UNL     1     -13.138   7.698  71.243  1.00  0.00    -0.307 OA 
BRANCH   7   9
HETATM    9  C   UNL     1     -10.495   7.065  71.292  1.00  0.00    -0.206 C  
BRANCH   9  10
HETATM   10  C   UNL     1     -10.396   7.182  69.774  1.00  0.00    -0.224 A  
HETATM   11  C   UNL     1     -10.329   8.458  69.183  1.00  0.00    -0.229 A  
HETATM   12  C   UNL     1     -10.433   6.068  68.921  1.00  0.00    -0.309 A  
HETATM   13  C   UNL     1     -10.303   8.610  67.793  1.00  0.00    -0.303 A  
HETATM   14  C   UNL     1     -10.355   7.493  66.969  1.00  0.00    -0.395 A  
HETATM   15  C   UNL     1     -10.421   6.220  67.532  1.00  0.00    -0.295 A  
ENDBRANCH   9  10
BRANCH   9  16
HETATM   16  C   UNL     1      -9.188   7.418  72.005  1.00  0.00    -0.155 A  
HETATM   17  C   UNL     1      -8.023   8.095  74.034  1.00  0.00    -0.290 A  
HETATM   18  C   UNL     1      -6.789   7.865  71.979  1.00  0.00    -0.066 A  
HETATM   19  C   UNL     1      -9.197   7.715  73.378  1.00  0.00    -0.311 A  
HETATM   20  C   UNL     1      -7.961   7.492  71.320  1.00  0.00    -0.095 A  
HETATM   21  C   UNL     1      -6.820   8.172  73.335  1.00  0.00    -0.138 A  
ENDBRANCH   9  16
ENDBRANCH   7   9
ENDBRANCH   6   7
ENDBRANCH   2   6
TORSDOF 5
ENDMDL
MODEL      181
REMARK 921   NORMALIZED FREE ENERGY PREDICTED BY IDOCK:   -3.37 KCAL/MOL
REMARK 922        TOTAL FREE ENERGY PREDICTED BY IDOCK:   -5.36 KCAL/MOL
REMARK 923 INTER-LIGAND FREE ENERGY PREDICTED BY IDOCK:   -4.59 KCAL/MOL
REMARK 924 INTRA-LIGAND FREE ENERGY PREDICTED BY IDOCK:   -0.77 KCAL/MOL
REMARK 927      BINDING AFFINITY PREDICTED BY RF-SCORE:    0.00 PKD
ROOT
HETATM    1  N   UNL     1     -11.518   6.620  67.014  1.00  0.00    -0.754 N  
HETATM    2  C   UNL     1     -10.553   5.656  66.894  1.00  0.00    -0.296 C  
HETATM    3  H1  UNL     1     -11.480   7.309  67.766  1.00  0.00     0.000 HD 
HETATM    4  H2  UNL     1     -12.286   6.650  66.342  1.00  0.00     0.000 HD 
HETATM    5  O   UNL     1     -10.598   4.828  65.989  1.00  0.00    -0.311 OA 
ENDROOT
BRANCH   2   6
HETATM    6  C   UNL     1      -9.476   5.663  67.958  1.00  0.00    -0.110 C  
BRANCH   6   7
HETATM    7  S   UNL     1     -10.015   4.660  69.370  1.00  0.00    -0.118 S  
HETATM    8  O   UNL     1      -9.104   3.461  69.412  1.00  0.00    -0.104 OA 
BRANCH   7   9
HETATM    9  C   UNL     1      -9.491   5.809  70.725  1.00  0.00    -0.165 C  
BRANCH   9  10
HETATM   10  C   UNL     1     -10.484   6.925  71.032  1.00  0.00    -0.235 A  
HETATM   11  C   UNL     1     -11.862   6.685  70.876  1.00  0.00    -0.434 A  
HETATM   12  C   UNL     1     -10.084   8.217  71.407  1.00  0.00    -0.257 A  
HETATM   13  C   UNL     1     -12.801   7.700  71.085  1.00  0.00    -0.223 A  
HETATM   14  C   UNL     1     -12.380   8.975  71.442  1.00  0.00    -0.380 A  
HETATM   15  C   UNL     1     -11.022   9.236  71.603  1.00  0.00    -0.433 A  
ENDBRANCH   9  10
BRANCH   9  16
HETATM   16  C   UNL     1      -9.089   5.008  71.965  1.00  0.00    -0.153 A  
HETATM   17  C   UNL     1      -7.413   4.427  73.634  1.00  0.00    -0.077 A  
HETATM   18  C   UNL     1      -9.540   3.297  73.645  1.00  0.00    -0.137 A  
HETATM   19  C   UNL     1      -7.819   5.191  72.536  1.00  0.00    -0.101 A  
HETATM   20  C   UNL     1      -9.944   4.053  72.545  1.00  0.00    -0.222 A  
HETATM   21  C   UNL     1      -8.272   3.480  74.187  1.00  0.00    -0.078 A  
ENDBRANCH   9  16
ENDBRANCH   7   9
ENDBRANCH   6   7
ENDBRANCH   2   6
TORSDOF 5
ENDMDL
MODEL      182
REMARK 921   NORMALIZED FREE ENERGY PREDICTED BY IDOCK:   -3.36 KCAL/MOL
REMARK 922        TOTAL FREE ENERGY PREDICTED BY IDOCK:   -5.35 KCAL/MOL
REMARK 923 INTER-LIGAND FREE ENERGY PREDICTED BY IDOCK:   -4.63 KCAL/MOL
REMARK 924 INTRA-LIGAND FREE ENERGY PREDICTED BY IDOCK:   -0.72 KCAL/MOL
REMARK 927      BINDING AFFINITY PREDICTED BY RF-SCORE:    0.00 PKD
ROOT
HETATM    1  N   UNL     1      -8.562  15.070  69.776  1.00  0.00    -0.440 N  
HETATM    2  C   UNL     1      -9.023  14.758  68.525  1.00  0.00    -0.182 C  
HETATM    3  H1  UNL     1      -7.570  14.995  70.003  1.00  0.00     0.000 HD 
HETATM    4  H2  UNL     1      -9.219  15.383  70.491  1.00  0.00     0.000 HD 
HETATM    5  O   UNL     1     -10.216  14.850  68.252  1.00  0.00    -0.218 OA 
ENDROOT
BRANCH   2   6
HETATM    6  C   UNL     1      -7.982  14.265  67.542  1.00  0.00    -0.188 C  
BRANCH   6   7
HETATM    7  S   UNL     1      -7.785  12.470  67.720  1.00  0.00    -0.157 S  
HETATM    8  O   UNL     1      -7.644  12.203  69.196  1.00  0.00     0.014 OA 
BRANCH   7   9
HETATM    9  C   UNL     1      -9.495  11.966  67.220  1.00  0.00    -0.175 C  
BRANCH   9  10
HETATM   10  C   UNL     1      -9.647  11.606  65.745  1.00  0.00    -0.255 A  
HETATM   11  C   UNL     1     -10.716  12.148  65.008  1.00  0.00    -0.338 A  
HETATM   12  C   UNL     1      -8.798  10.697  65.094  1.00  0.00    -0.207 A  
HETATM   13  C   UNL     1     -10.927  11.792  63.673  1.00  0.00    -0.513 A  
HETATM   14  C   UNL     1     -10.083  10.880  63.054  1.00  0.00    -0.251 A  
HETATM   15  C   UNL     1      -9.017  10.330  63.763  1.00  0.00    -0.260 A  
ENDBRANCH   9  10
BRANCH   9  16
HETATM   16  C   UNL     1     -10.014  10.875  68.159  1.00  0.00    -0.188 A  
HETATM   17  C   UNL     1     -11.288  10.242  70.136  1.00  0.00    -0.388 A  
HETATM   18  C   UNL     1     -10.098   8.552  68.900  1.00  0.00    -0.213 A  
HETATM   19  C   UNL     1     -10.850  11.216  69.235  1.00  0.00    -0.277 A  
HETATM   20  C   UNL     1      -9.654   9.524  68.003  1.00  0.00    -0.155 A  
HETATM   21  C   UNL     1     -10.911   8.911  69.969  1.00  0.00    -0.239 A  
ENDBRANCH   9  16
ENDBRANCH   7   9
ENDBRANCH   6   7
ENDBRANCH   2   6
TORSDOF 5
ENDMDL
MODEL      183
REMARK 921   NORMALIZED FREE ENERGY PREDICTED BY IDOCK:   -3.33 KCAL/MOL
REMARK 922        TOTAL FREE ENERGY PREDICTED BY IDOCK:   -5.31 KCAL/MOL
REMARK 923 INTER-LIGAND FREE ENERGY PREDICTED BY IDOCK:   -4.40 KCAL/MOL
REMARK 924 INTRA-LIGAND FREE ENERGY PREDICTED BY IDOCK:   -0.90 KCAL/MOL
REMARK 927      BINDING AFFINITY PREDICTED BY RF-SCORE:    0.00 PKD
ROOT
HETATM    1  N   UNL     1      -7.636   5.124  69.851  1.00  0.00    -0.063 N  
HETATM    2  C   UNL     1      -8.691   4.299  70.140  1.00  0.00    -0.074 C  
HETATM    3  H1  UNL     1      -7.701   6.130  70.004  1.00  0.00     0.000 HD 
HETATM    4  H2  UNL     1      -6.774   4.726  69.478  1.00  0.00     0.000 HD 
HETATM    5  O   UNL     1      -8.613   3.088  69.956  1.00  0.00    -0.055 OA 
ENDROOT
BRANCH   2   6
HETATM    6  C   UNL     1      -9.943   4.981  70.650  1.00  0.00    -0.230 C  
BRANCH   6   7
HETATM    7  S   UNL     1     -10.267   6.467  69.662  1.00  0.00    -0.197 S  
HETATM    8  O   UNL     1     -11.556   6.213  68.924  1.00  0.00    -0.172 OA 
BRANCH   7   9
HETATM    9  C   UNL     1     -10.637   7.633  71.052  1.00  0.00    -0.217 C  
BRANCH   9  10
HETATM   10  C   UNL     1      -9.584   7.662  72.156  1.00  0.00    -0.207 A  
HETATM   11  C   UNL     1      -9.948   7.306  73.467  1.00  0.00    -0.366 A  
HETATM   12  C   UNL     1      -8.266   8.094  71.937  1.00  0.00    -0.180 A  
HETATM   13  C   UNL     1      -9.030   7.383  74.519  1.00  0.00    -0.122 A  
HETATM   14  C   UNL     1      -7.735   7.826  74.281  1.00  0.00    -0.221 A  
HETATM   15  C   UNL     1      -7.351   8.183  72.990  1.00  0.00    -0.161 A  
ENDBRANCH   9  10
BRANCH   9  16
HETATM   16  C   UNL     1     -10.962   9.022  70.498  1.00  0.00    -0.295 A  
HETATM   17  C   UNL     1     -12.110  11.157  70.733  1.00  0.00    -0.458 A  
HETATM   18  C   UNL     1     -10.864  10.695  68.724  1.00  0.00    -0.269 A  
HETATM   19  C   UNL     1     -11.756   9.906  71.247  1.00  0.00    -0.472 A  
HETATM   20  C   UNL     1     -10.516   9.443  69.232  1.00  0.00    -0.230 A  
HETATM   21  C   UNL     1     -11.666  11.550  69.472  1.00  0.00    -0.413 A  
ENDBRANCH   9  16
ENDBRANCH   7   9
ENDBRANCH   6   7
ENDBRANCH   2   6
TORSDOF 5
ENDMDL
MODEL      184
REMARK 921   NORMALIZED FREE ENERGY PREDICTED BY IDOCK:   -3.33 KCAL/MOL
REMARK 922        TOTAL FREE ENERGY PREDICTED BY IDOCK:   -5.30 KCAL/MOL
REMARK 923 INTER-LIGAND FREE ENERGY PREDICTED BY IDOCK:   -4.32 KCAL/MOL
REMARK 924 INTRA-LIGAND FREE ENERGY PREDICTED BY IDOCK:   -0.98 KCAL/MOL
REMARK 927      BINDING AFFINITY PREDICTED BY RF-SCORE:    0.00 PKD
ROOT
HETATM    1  N   UNL     1     -12.615   6.274  72.232  1.00  0.00    -0.516 N  
HETATM    2  C   UNL     1     -11.288   6.004  72.027  1.00  0.00    -0.290 C  
HETATM    3  H1  UNL     1     -13.246   6.429  71.445  1.00  0.00     0.000 HD 
HETATM    4  H2  UNL     1     -12.978   6.319  73.184  1.00  0.00     0.000 HD 
HETATM    5  O   UNL     1     -10.529   5.817  72.973  1.00  0.00    -0.196 OA 
ENDROOT
BRANCH   2   6
HETATM    6  C   UNL     1     -10.831   5.997  70.583  1.00  0.00    -0.297 C  
BRANCH   6   7
HETATM    7  S   UNL     1     -11.018   7.659  69.881  1.00  0.00    -0.149 S  
HETATM    8  O   UNL     1     -10.646   8.626  70.975  1.00  0.00    -0.203 OA 
BRANCH   7   9
HETATM    9  C   UNL     1      -9.608   7.599  68.682  1.00  0.00    -0.152 C  
BRANCH   9  10
HETATM   10  C   UNL     1      -9.600   6.376  67.770  1.00  0.00    -0.123 A  
HETATM   11  C   UNL     1      -8.430   5.601  67.666  1.00  0.00    -0.102 A  
HETATM   12  C   UNL     1     -10.697   6.017  66.971  1.00  0.00    -0.412 A  
HETATM   13  C   UNL     1      -8.362   4.511  66.792  1.00  0.00    -0.105 A  
HETATM   14  C   UNL     1      -9.454   4.184  66.000  1.00  0.00    -0.182 A  
HETATM   15  C   UNL     1     -10.623   4.936  66.087  1.00  0.00    -0.322 A  
ENDBRANCH   9  10
BRANCH   9  16
HETATM   16  C   UNL     1      -9.519   8.919  67.913  1.00  0.00    -0.160 A  
HETATM   17  C   UNL     1     -10.629  10.844  66.916  1.00  0.00    -0.312 A  
HETATM   18  C   UNL     1      -8.248  10.586  66.664  1.00  0.00    -0.129 A  
HETATM   19  C   UNL     1     -10.683   9.665  67.665  1.00  0.00    -0.324 A  
HETATM   20  C   UNL     1      -8.300   9.405  67.406  1.00  0.00    -0.125 A  
HETATM   21  C   UNL     1      -9.413  11.302  66.414  1.00  0.00    -0.221 A  
ENDBRANCH   9  16
ENDBRANCH   7   9
ENDBRANCH   6   7
ENDBRANCH   2   6
TORSDOF 5
ENDMDL
MODEL      185
REMARK 921   NORMALIZED FREE ENERGY PREDICTED BY IDOCK:   -3.32 KCAL/MOL
REMARK 922        TOTAL FREE ENERGY PREDICTED BY IDOCK:   -5.30 KCAL/MOL
REMARK 923 INTER-LIGAND FREE ENERGY PREDICTED BY IDOCK:   -4.42 KCAL/MOL
REMARK 924 INTRA-LIGAND FREE ENERGY PREDICTED BY IDOCK:   -0.88 KCAL/MOL
REMARK 927      BINDING AFFINITY PREDICTED BY RF-SCORE:    0.00 PKD
ROOT
HETATM    1  N   UNL     1      -6.281   8.249  67.971  1.00  0.00    -0.050 N  
HETATM    2  C   UNL     1      -7.031   7.799  66.917  1.00  0.00    -0.073 C  
HETATM    3  H1  UNL     1      -6.678   8.884  68.665  1.00  0.00     0.000 HD 
HETATM    4  H2  UNL     1      -5.311   7.945  68.065  1.00  0.00     0.000 HD 
HETATM    5  O   UNL     1      -6.554   7.035  66.084  1.00  0.00    -0.049 OA 
ENDROOT
BRANCH   2   6
HETATM    6  C   UNL     1      -8.445   8.335  66.838  1.00  0.00    -0.118 C  
BRANCH   6   7
HETATM    7  S   UNL     1      -9.460   7.555  68.124  1.00  0.00    -0.144 S  
HETATM    8  O   UNL     1      -8.543   6.640  68.892  1.00  0.00    -0.125 OA 
BRANCH   7   9
HETATM    9  C   UNL     1      -9.760   9.055  69.168  1.00  0.00    -0.167 C  
BRANCH   9  10
HETATM   10  C   UNL     1      -9.916  10.355  68.384  1.00  0.00    -0.177 A  
HETATM   11  C   UNL     1      -8.972  11.384  68.559  1.00  0.00    -0.158 A  
HETATM   12  C   UNL     1     -11.005  10.604  67.534  1.00  0.00    -0.371 A  
HETATM   13  C   UNL     1      -9.115  12.614  67.910  1.00  0.00    -0.200 A  
HETATM   14  C   UNL     1     -10.208  12.842  67.084  1.00  0.00    -0.239 A  
HETATM   15  C   UNL     1     -11.155  11.838  66.895  1.00  0.00    -0.361 A  
ENDBRANCH   9  10
BRANCH   9  16
HETATM   16  C   UNL     1     -10.917   8.797  70.135  1.00  0.00    -0.236 A  
HETATM   17  C   UNL     1     -12.498   9.641  71.785  1.00  0.00    -0.487 A  
HETATM   18  C   UNL     1     -12.451   7.285  71.282  1.00  0.00    -0.402 A  
HETATM   19  C   UNL     1     -11.479   9.865  70.856  1.00  0.00    -0.456 A  
HETATM   20  C   UNL     1     -11.428   7.506  70.359  1.00  0.00    -0.219 A  
HETATM   21  C   UNL     1     -12.982   8.351  71.999  1.00  0.00    -0.388 A  
ENDBRANCH   9  16
ENDBRANCH   7   9
ENDBRANCH   6   7
ENDBRANCH   2   6
TORSDOF 5
ENDMDL
MODEL      186
REMARK 921   NORMALIZED FREE ENERGY PREDICTED BY IDOCK:   -3.32 KCAL/MOL
REMARK 922        TOTAL FREE ENERGY PREDICTED BY IDOCK:   -5.29 KCAL/MOL
REMARK 923 INTER-LIGAND FREE ENERGY PREDICTED BY IDOCK:   -5.10 KCAL/MOL
REMARK 924 INTRA-LIGAND FREE ENERGY PREDICTED BY IDOCK:   -0.18 KCAL/MOL
REMARK 927      BINDING AFFINITY PREDICTED BY RF-SCORE:    0.00 PKD
ROOT
HETATM    1  N   UNL     1     -13.211  14.675  70.234  1.00  0.00    -0.515 N  
HETATM    2  C   UNL     1     -12.096  14.657  69.438  1.00  0.00    -0.280 C  
HETATM    3  H1  UNL     1     -14.066  14.196  69.950  1.00  0.00     0.000 HD 
HETATM    4  H2  UNL     1     -13.186  15.175  71.124  1.00  0.00     0.000 HD 
HETATM    5  O   UNL     1     -11.068  15.233  69.781  1.00  0.00    -0.248 OA 
ENDROOT
BRANCH   2   6
HETATM    6  C   UNL     1     -12.238  13.927  68.119  1.00  0.00    -0.150 C  
BRANCH   6   7
HETATM    7  S   UNL     1     -11.241  12.412  68.156  1.00  0.00    -0.289 S  
HETATM    8  O   UNL     1     -12.211  11.269  68.298  1.00  0.00    -0.611 OA 
BRANCH   7   9
HETATM    9  C   UNL     1     -10.657  12.439  66.399  1.00  0.00    -0.244 C  
BRANCH   9  10
HETATM   10  C   UNL     1     -10.820  13.782  65.695  1.00  0.00    -0.287 A  
HETATM   11  C   UNL     1     -10.065  14.886  66.131  1.00  0.00    -0.316 A  
HETATM   12  C   UNL     1     -11.745  13.990  64.660  1.00  0.00    -0.417 A  
HETATM   13  C   UNL     1     -10.232  16.150  65.555  1.00  0.00    -0.360 A  
HETATM   14  C   UNL     1     -11.164  16.335  64.542  1.00  0.00    -0.218 A  
HETATM   15  C   UNL     1     -11.922  15.257  64.093  1.00  0.00    -0.145 A  
ENDBRANCH   9  10
BRANCH   9  16
HETATM   16  C   UNL     1      -9.233  11.887  66.313  1.00  0.00    -0.218 A  
HETATM   17  C   UNL     1      -7.648  10.318  65.333  1.00  0.00    -0.146 A  
HETATM   18  C   UNL     1      -6.925  11.787  67.100  1.00  0.00    -0.145 A  
HETATM   19  C   UNL     1      -8.928  10.874  65.388  1.00  0.00    -0.209 A  
HETATM   20  C   UNL     1      -8.205  12.339  67.161  1.00  0.00    -0.179 A  
HETATM   21  C   UNL     1      -6.647  10.773  66.190  1.00  0.00    -0.127 A  
ENDBRANCH   9  16
ENDBRANCH   7   9
ENDBRANCH   6   7
ENDBRANCH   2   6
TORSDOF 5
ENDMDL
MODEL      187
REMARK 921   NORMALIZED FREE ENERGY PREDICTED BY IDOCK:   -3.32 KCAL/MOL
REMARK 922        TOTAL FREE ENERGY PREDICTED BY IDOCK:   -5.29 KCAL/MOL
REMARK 923 INTER-LIGAND FREE ENERGY PREDICTED BY IDOCK:   -4.89 KCAL/MOL
REMARK 924 INTRA-LIGAND FREE ENERGY PREDICTED BY IDOCK:   -0.39 KCAL/MOL
REMARK 927      BINDING AFFINITY PREDICTED BY RF-SCORE:    0.00 PKD
ROOT
HETATM    1  N   UNL     1      -6.715   7.186  72.469  1.00  0.00    -0.063 N  
HETATM    2  C   UNL     1      -6.380   8.105  71.511  1.00  0.00    -0.043 C  
HETATM    3  H1  UNL     1      -7.444   6.492  72.297  1.00  0.00     0.000 HD 
HETATM    4  H2  UNL     1      -6.230   7.194  73.366  1.00  0.00     0.000 HD 
HETATM    5  O   UNL     1      -5.503   8.939  71.717  1.00  0.00    -0.041 OA 
ENDROOT
BRANCH   2   6
HETATM    6  C   UNL     1      -7.180   8.043  70.227  1.00  0.00    -0.053 C  
BRANCH   6   7
HETATM    7  S   UNL     1      -8.437   9.351  70.233  1.00  0.00    -0.222 S  
HETATM    8  O   UNL     1      -8.555   9.834  68.811  1.00  0.00    -0.119 OA 
BRANCH   7   9
HETATM    9  C   UNL     1      -9.915   8.295  70.592  1.00  0.00    -0.183 C  
BRANCH   9  10
HETATM   10  C   UNL     1     -11.171   9.069  70.980  1.00  0.00    -0.361 A  
HETATM   11  C   UNL     1     -11.301  10.414  70.589  1.00  0.00    -0.411 A  
HETATM   12  C   UNL     1     -12.189   8.516  71.772  1.00  0.00    -0.388 A  
HETATM   13  C   UNL     1     -12.406  11.177  70.980  1.00  0.00    -0.487 A  
HETATM   14  C   UNL     1     -13.394  10.613  71.776  1.00  0.00    -0.437 A  
HETATM   15  C   UNL     1     -13.288   9.283  72.174  1.00  0.00    -0.537 A  
ENDBRANCH   9  10
BRANCH   9  16
HETATM   16  C   UNL     1     -10.148   7.314  69.440  1.00  0.00    -0.183 A  
HETATM   17  C   UNL     1      -9.984   5.055  68.545  1.00  0.00    -0.207 A  
HETATM   18  C   UNL     1     -10.803   6.832  67.140  1.00  0.00    -0.462 A  
HETATM   19  C   UNL     1      -9.832   5.955  69.603  1.00  0.00    -0.215 A  
HETATM   20  C   UNL     1     -10.645   7.734  68.192  1.00  0.00    -0.182 A  
HETATM   21  C   UNL     1     -10.468   5.494  67.314  1.00  0.00    -0.300 A  
ENDBRANCH   9  16
ENDBRANCH   7   9
ENDBRANCH   6   7
ENDBRANCH   2   6
TORSDOF 5
ENDMDL
MODEL      188
REMARK 921   NORMALIZED FREE ENERGY PREDICTED BY IDOCK:   -3.32 KCAL/MOL
REMARK 922        TOTAL FREE ENERGY PREDICTED BY IDOCK:   -5.29 KCAL/MOL
REMARK 923 INTER-LIGAND FREE ENERGY PREDICTED BY IDOCK:   -4.29 KCAL/MOL
REMARK 924 INTRA-LIGAND FREE ENERGY PREDICTED BY IDOCK:   -0.99 KCAL/MOL
REMARK 927      BINDING AFFINITY PREDICTED BY RF-SCORE:    0.00 PKD
ROOT
HETATM    1  N   UNL     1     -13.155   9.907  70.679  1.00  0.00    -0.591 N  
HETATM    2  C   UNL     1     -13.121   9.234  71.871  1.00  0.00    -0.415 C  
HETATM    3  H1  UNL     1     -12.313  10.012  70.112  1.00  0.00     0.000 HD 
HETATM    4  H2  UNL     1     -14.034  10.310  70.353  1.00  0.00     0.000 HD 
HETATM    5  O   UNL     1     -14.134   9.108  72.553  1.00  0.00    -0.472 OA 
ENDROOT
BRANCH   2   6
HETATM    6  C   UNL     1     -11.765   8.707  72.293  1.00  0.00    -0.358 C  
BRANCH   6   7
HETATM    7  S   UNL     1     -11.589   6.986  71.748  1.00  0.00    -0.296 S  
HETATM    8  O   UNL     1     -12.511   6.817  70.569  1.00  0.00    -0.273 OA 
BRANCH   7   9
HETATM    9  C   UNL     1      -9.859   7.092  71.096  1.00  0.00    -0.179 C  
BRANCH   9  10
HETATM   10  C   UNL     1      -8.790   7.318  72.161  1.00  0.00    -0.143 A  
HETATM   11  C   UNL     1      -7.621   8.027  71.827  1.00  0.00    -0.095 A  
HETATM   12  C   UNL     1      -8.888   6.791  73.459  1.00  0.00    -0.149 A  
HETATM   13  C   UNL     1      -6.590   8.198  72.756  1.00  0.00    -0.093 A  
HETATM   14  C   UNL     1      -6.702   7.656  74.029  1.00  0.00    -0.100 A  
HETATM   15  C   UNL     1      -7.850   6.951  74.383  1.00  0.00    -0.133 A  
ENDBRANCH   9  10
BRANCH   9  16
HETATM   16  C   UNL     1      -9.563   5.889  70.198  1.00  0.00    -0.198 A  
HETATM   17  C   UNL     1      -8.665   4.996  68.118  1.00  0.00    -0.106 A  
HETATM   18  C   UNL     1      -9.739   3.511  69.681  1.00  0.00    -0.091 A  
HETATM   19  C   UNL     1      -8.893   6.074  68.977  1.00  0.00    -0.121 A  
HETATM   20  C   UNL     1      -9.974   4.587  70.537  1.00  0.00    -0.278 A  
HETATM   21  C   UNL     1      -9.089   3.716  68.469  1.00  0.00    -0.201 A  
ENDBRANCH   9  16
ENDBRANCH   7   9
ENDBRANCH   6   7
ENDBRANCH   2   6
TORSDOF 5
ENDMDL
MODEL      189
REMARK 921   NORMALIZED FREE ENERGY PREDICTED BY IDOCK:   -3.30 KCAL/MOL
REMARK 922        TOTAL FREE ENERGY PREDICTED BY IDOCK:   -5.27 KCAL/MOL
REMARK 923 INTER-LIGAND FREE ENERGY PREDICTED BY IDOCK:   -5.04 KCAL/MOL
REMARK 924 INTRA-LIGAND FREE ENERGY PREDICTED BY IDOCK:   -0.23 KCAL/MOL
REMARK 927      BINDING AFFINITY PREDICTED BY RF-SCORE:    0.00 PKD
ROOT
HETATM    1  N   UNL     1      -9.044   3.709  69.738  1.00  0.00    -0.108 N  
HETATM    2  C   UNL     1      -9.495   4.643  70.633  1.00  0.00    -0.172 C  
HETATM    3  H1  UNL     1      -8.455   3.980  68.950  1.00  0.00     0.000 HD 
HETATM    4  H2  UNL     1      -9.300   2.729  69.861  1.00  0.00     0.000 HD 
HETATM    5  O   UNL     1     -10.203   4.316  71.581  1.00  0.00    -0.170 OA 
ENDROOT
BRANCH   2   6
HETATM    6  C   UNL     1      -9.099   6.076  70.348  1.00  0.00    -0.149 C  
BRANCH   6   7
HETATM    7  S   UNL     1     -10.207   6.771  69.091  1.00  0.00    -0.190 S  
HETATM    8  O   UNL     1     -11.600   6.339  69.467  1.00  0.00    -0.423 OA 
BRANCH   7   9
HETATM    9  C   UNL     1     -10.032   8.558  69.545  1.00  0.00    -0.193 C  
BRANCH   9  10
HETATM   10  C   UNL     1      -9.834   9.499  68.361  1.00  0.00    -0.175 A  
HETATM   11  C   UNL     1     -10.298   9.115  67.089  1.00  0.00    -0.337 A  
HETATM   12  C   UNL     1      -9.145  10.717  68.466  1.00  0.00    -0.170 A  
HETATM   13  C   UNL     1     -10.078   9.920  65.967  1.00  0.00    -0.314 A  
HETATM   14  C   UNL     1      -9.381  11.115  66.092  1.00  0.00    -0.227 A  
HETATM   15  C   UNL     1      -8.913  11.515  67.341  1.00  0.00    -0.156 A  
ENDBRANCH   9  10
BRANCH   9  16
HETATM   16  C   UNL     1     -11.186   8.981  70.458  1.00  0.00    -0.301 A  
HETATM   17  C   UNL     1     -12.977  10.545  70.985  1.00  0.00    -0.475 A  
HETATM   18  C   UNL     1     -12.512   8.723  72.490  1.00  0.00    -0.368 A  
HETATM   19  C   UNL     1     -11.957  10.110  70.135  1.00  0.00    -0.262 A  
HETATM   20  C   UNL     1     -11.488   8.291  71.646  1.00  0.00    -0.333 A  
HETATM   21  C   UNL     1     -13.253   9.852  72.163  1.00  0.00    -0.511 A  
ENDBRANCH   9  16
ENDBRANCH   7   9
ENDBRANCH   6   7
ENDBRANCH   2   6
TORSDOF 5
ENDMDL
MODEL      190
REMARK 921   NORMALIZED FREE ENERGY PREDICTED BY IDOCK:   -3.28 KCAL/MOL
REMARK 922        TOTAL FREE ENERGY PREDICTED BY IDOCK:   -5.24 KCAL/MOL
REMARK 923 INTER-LIGAND FREE ENERGY PREDICTED BY IDOCK:   -5.05 KCAL/MOL
REMARK 924 INTRA-LIGAND FREE ENERGY PREDICTED BY IDOCK:   -0.19 KCAL/MOL
REMARK 927      BINDING AFFINITY PREDICTED BY RF-SCORE:    0.00 PKD
ROOT
HETATM    1  N   UNL     1     -10.210  19.669  69.252  1.00  0.00    -0.628 N  
HETATM    2  C   UNL     1     -10.144  18.765  68.226  1.00  0.00    -0.383 C  
HETATM    3  H1  UNL     1     -10.298  19.358  70.220  1.00  0.00     0.000 HD 
HETATM    4  H2  UNL     1     -10.171  20.668  69.047  1.00  0.00     0.000 HD 
HETATM    5  O   UNL     1     -10.038  19.140  67.062  1.00  0.00    -0.324 OA 
ENDROOT
BRANCH   2   6
HETATM    6  C   UNL     1     -10.251  17.307  68.622  1.00  0.00    -0.351 C  
BRANCH   6   7
HETATM    7  S   UNL     1      -8.743  16.433  68.121  1.00  0.00    -0.196 S  
HETATM    8  O   UNL     1      -7.820  16.463  69.311  1.00  0.00    -0.238 OA 
BRANCH   7   9
HETATM    9  C   UNL     1      -9.454  14.727  68.006  1.00  0.00    -0.204 C  
BRANCH   9  10
HETATM   10  C   UNL     1     -10.395  14.508  66.825  1.00  0.00    -0.269 A  
HETATM   11  C   UNL     1     -10.282  15.333  65.691  1.00  0.00    -0.398 A  
HETATM   12  C   UNL     1     -11.424  13.554  66.840  1.00  0.00    -0.374 A  
HETATM   13  C   UNL     1     -11.167  15.208  64.615  1.00  0.00    -0.352 A  
HETATM   14  C   UNL     1     -12.187  14.266  64.659  1.00  0.00    -0.470 A  
HETATM   15  C   UNL     1     -12.318  13.438  65.771  1.00  0.00    -0.513 A  
ENDBRANCH   9  10
BRANCH   9  16
HETATM   16  C   UNL     1      -8.334  13.687  68.078  1.00  0.00    -0.170 A  
HETATM   17  C   UNL     1      -6.448  12.716  69.275  1.00  0.00    -0.106 A  
HETATM   18  C   UNL     1      -7.010  11.895  67.082  1.00  0.00    -0.142 A  
HETATM   19  C   UNL     1      -7.511  13.620  69.215  1.00  0.00     0.188 A  
HETATM   20  C   UNL     1      -8.069  12.802  67.017  1.00  0.00    -0.072 A  
HETATM   21  C   UNL     1      -6.197  11.855  68.208  1.00  0.00    -0.050 A  
ENDBRANCH   9  16
ENDBRANCH   7   9
ENDBRANCH   6   7
ENDBRANCH   2   6
TORSDOF 5
ENDMDL
MODEL      191
REMARK 921   NORMALIZED FREE ENERGY PREDICTED BY IDOCK:   -3.25 KCAL/MOL
REMARK 922        TOTAL FREE ENERGY PREDICTED BY IDOCK:   -5.20 KCAL/MOL
REMARK 923 INTER-LIGAND FREE ENERGY PREDICTED BY IDOCK:   -4.36 KCAL/MOL
REMARK 924 INTRA-LIGAND FREE ENERGY PREDICTED BY IDOCK:   -0.85 KCAL/MOL
REMARK 927      BINDING AFFINITY PREDICTED BY RF-SCORE:    0.00 PKD
ROOT
HETATM    1  N   UNL     1      -8.590   5.865  67.193  1.00  0.00    -0.107 N  
HETATM    2  C   UNL     1      -9.837   6.028  67.738  1.00  0.00    -0.119 C  
HETATM    3  H1  UNL     1      -8.255   6.487  66.457  1.00  0.00     0.000 HD 
HETATM    4  H2  UNL     1      -7.989   5.112  67.528  1.00  0.00     0.000 HD 
HETATM    5  O   UNL     1     -10.240   5.281  68.624  1.00  0.00    -0.179 OA 
ENDROOT
BRANCH   2   6
HETATM    6  C   UNL     1     -10.673   7.145  67.150  1.00  0.00    -0.352 C  
BRANCH   6   7
HETATM    7  S   UNL     1     -10.339   8.687  68.046  1.00  0.00    -0.206 S  
HETATM    8  O   UNL     1      -8.938   8.569  68.587  1.00  0.00    -0.139 OA 
BRANCH   7   9
HETATM    9  C   UNL     1     -10.284   9.830  66.591  1.00  0.00    -0.226 C  
BRANCH   9  10
HETATM   10  C   UNL     1     -10.813  11.235  66.865  1.00  0.00    -0.333 A  
HETATM   11  C   UNL     1     -11.044  11.639  68.193  1.00  0.00    -0.298 A  
HETATM   12  C   UNL     1     -11.147  12.134  65.840  1.00  0.00    -0.360 A  
HETATM   13  C   UNL     1     -11.590  12.893  68.483  1.00  0.00    -0.358 A  
HETATM   14  C   UNL     1     -11.925  13.761  67.452  1.00  0.00    -0.423 A  
HETATM   15  C   UNL     1     -11.705  13.383  66.129  1.00  0.00    -0.405 A  
ENDBRANCH   9  10
BRANCH   9  16
HETATM   16  C   UNL     1      -8.882   9.829  65.978  1.00  0.00    -0.170 A  
HETATM   17  C   UNL     1      -6.572  10.603  66.024  1.00  0.00    -0.128 A  
HETATM   18  C   UNL     1      -7.321   9.209  64.207  1.00  0.00    -0.104 A  
HETATM   19  C   UNL     1      -7.845  10.545  66.599  1.00  0.00    -0.125 A  
HETATM   20  C   UNL     1      -8.594   9.156  64.776  1.00  0.00    -0.209 A  
HETATM   21  C   UNL     1      -6.311   9.937  64.828  1.00  0.00    -0.115 A  
ENDBRANCH   9  16
ENDBRANCH   7   9
ENDBRANCH   6   7
ENDBRANCH   2   6
TORSDOF 5
ENDMDL
MODEL      192
REMARK 921   NORMALIZED FREE ENERGY PREDICTED BY IDOCK:   -3.25 KCAL/MOL
REMARK 922        TOTAL FREE ENERGY PREDICTED BY IDOCK:   -5.20 KCAL/MOL
REMARK 923 INTER-LIGAND FREE ENERGY PREDICTED BY IDOCK:   -4.74 KCAL/MOL
REMARK 924 INTRA-LIGAND FREE ENERGY PREDICTED BY IDOCK:   -0.46 KCAL/MOL
REMARK 927      BINDING AFFINITY PREDICTED BY RF-SCORE:    0.00 PKD
ROOT
HETATM    1  N   UNL     1      -7.106   9.546  69.277  1.00  0.00    -0.056 N  
HETATM    2  C   UNL     1      -8.124   8.634  69.192  1.00  0.00    -0.116 C  
HETATM    3  H1  UNL     1      -6.998  10.278  68.575  1.00  0.00     0.000 HD 
HETATM    4  H2  UNL     1      -6.446   9.492  70.053  1.00  0.00     0.000 HD 
HETATM    5  O   UNL     1      -8.254   7.753  70.037  1.00  0.00    -0.117 OA 
ENDROOT
BRANCH   2   6
HETATM    6  C   UNL     1      -9.030   8.766  67.985  1.00  0.00    -0.140 C  
BRANCH   6   7
HETATM    7  S   UNL     1     -10.377   9.920  68.363  1.00  0.00    -0.208 S  
HETATM    8  O   UNL     1     -10.335  10.148  69.852  1.00  0.00    -0.250 OA 
BRANCH   7   9
HETATM    9  C   UNL     1      -9.671  11.424  67.546  1.00  0.00    -0.178 C  
BRANCH   9  10
HETATM   10  C   UNL     1      -9.868  11.479  66.034  1.00  0.00    -0.255 A  
HETATM   11  C   UNL     1     -10.955  12.200  65.505  1.00  0.00    -0.343 A  
HETATM   12  C   UNL     1      -9.045  10.783  65.135  1.00  0.00    -0.225 A  
HETATM   13  C   UNL     1     -11.208  12.221  64.130  1.00  0.00    -0.430 A  
HETATM   14  C   UNL     1     -10.389  11.513  63.261  1.00  0.00    -0.435 A  
HETATM   15  C   UNL     1      -9.307  10.792  63.761  1.00  0.00    -0.295 A  
ENDBRANCH   9  10
BRANCH   9  16
HETATM   16  C   UNL     1     -10.162  12.686  68.259  1.00  0.00    -0.240 A  
HETATM   17  C   UNL     1     -11.973  13.927  69.316  1.00  0.00    -0.402 A  
HETATM   18  C   UNL     1      -9.815  14.966  69.057  1.00  0.00    -0.220 A  
HETATM   19  C   UNL     1     -11.489  12.762  68.714  1.00  0.00    -0.347 A  
HETATM   20  C   UNL     1      -9.333  13.807  68.449  1.00  0.00    -0.190 A  
HETATM   21  C   UNL     1     -11.136  15.029  69.485  1.00  0.00    -0.292 A  
ENDBRANCH   9  16
ENDBRANCH   7   9
ENDBRANCH   6   7
ENDBRANCH   2   6
TORSDOF 5
ENDMDL
MODEL      193
REMARK 921   NORMALIZED FREE ENERGY PREDICTED BY IDOCK:   -3.24 KCAL/MOL
REMARK 922        TOTAL FREE ENERGY PREDICTED BY IDOCK:   -5.19 KCAL/MOL
REMARK 923 INTER-LIGAND FREE ENERGY PREDICTED BY IDOCK:   -4.94 KCAL/MOL
REMARK 924 INTRA-LIGAND FREE ENERGY PREDICTED BY IDOCK:   -0.25 KCAL/MOL
REMARK 927      BINDING AFFINITY PREDICTED BY RF-SCORE:    0.00 PKD
ROOT
HETATM    1  N   UNL     1     -11.453  14.621  71.720  1.00  0.00    -0.414 N  
HETATM    2  C   UNL     1     -11.675  15.324  70.566  1.00  0.00    -0.318 C  
HETATM    3  H1  UNL     1     -10.588  14.098  71.857  1.00  0.00     0.000 HD 
HETATM    4  H2  UNL     1     -12.162  14.621  72.454  1.00  0.00     0.000 HD 
HETATM    5  O   UNL     1     -12.715  15.954  70.401  1.00  0.00    -0.372 OA 
ENDROOT
BRANCH   2   6
HETATM    6  C   UNL     1     -10.585  15.234  69.518  1.00  0.00    -0.267 C  
BRANCH   6   7
HETATM    7  S   UNL     1     -11.329  15.296  67.865  1.00  0.00    -0.316 S  
HETATM    8  O   UNL     1     -11.169  16.713  67.380  1.00  0.00    -0.082 OA 
BRANCH   7   9
HETATM    9  C   UNL     1     -10.083  14.254  66.976  1.00  0.00    -0.260 C  
BRANCH   9  10
HETATM   10  C   UNL     1      -8.629  14.612  67.269  1.00  0.00    -0.231 A  
HETATM   11  C   UNL     1      -7.834  13.719  68.011  1.00  0.00    -0.152 A  
HETATM   12  C   UNL     1      -8.055  15.834  66.886  1.00  0.00    -0.292 A  
HETATM   13  C   UNL     1      -6.518  14.038  68.357  1.00  0.00    -0.103 A  
HETATM   14  C   UNL     1      -5.976  15.260  67.978  1.00  0.00    -0.157 A  
HETATM   15  C   UNL     1      -6.743  16.160  67.243  1.00  0.00    -0.233 A  
ENDBRANCH   9  10
BRANCH   9  16
HETATM   16  C   UNL     1     -10.389  12.771  67.195  1.00  0.00    -0.237 A  
HETATM   17  C   UNL     1     -10.226  10.462  66.435  1.00  0.00    -0.292 A  
HETATM   18  C   UNL     1     -11.483  10.971  68.426  1.00  0.00    -0.378 A  
HETATM   19  C   UNL     1      -9.909  11.815  66.284  1.00  0.00    -0.245 A  
HETATM   20  C   UNL     1     -11.174  12.322  68.273  1.00  0.00    -0.315 A  
HETATM   21  C   UNL     1     -11.014  10.041  67.505  1.00  0.00    -0.276 A  
ENDBRANCH   9  16
ENDBRANCH   7   9
ENDBRANCH   6   7
ENDBRANCH   2   6
TORSDOF 5
ENDMDL
MODEL      194
REMARK 921   NORMALIZED FREE ENERGY PREDICTED BY IDOCK:   -3.23 KCAL/MOL
REMARK 922        TOTAL FREE ENERGY PREDICTED BY IDOCK:   -5.18 KCAL/MOL
REMARK 923 INTER-LIGAND FREE ENERGY PREDICTED BY IDOCK:   -5.28 KCAL/MOL
REMARK 924 INTRA-LIGAND FREE ENERGY PREDICTED BY IDOCK:    0.10 KCAL/MOL
REMARK 927      BINDING AFFINITY PREDICTED BY RF-SCORE:    0.00 PKD
ROOT
HETATM    1  N   UNL     1     -12.956  14.505  71.678  1.00  0.00    -0.319 N  
HETATM    2  C   UNL     1     -12.638  13.471  70.837  1.00  0.00    -0.337 C  
HETATM    3  H1  UNL     1     -12.517  15.420  71.573  1.00  0.00     0.000 HD 
HETATM    4  H2  UNL     1     -13.642  14.358  72.419  1.00  0.00     0.000 HD 
HETATM    5  O   UNL     1     -13.166  12.371  70.962  1.00  0.00    -0.039 OA 
ENDROOT
BRANCH   2   6
HETATM    6  C   UNL     1     -11.581  13.770  69.794  1.00  0.00    -0.257 C  
BRANCH   6   7
HETATM    7  S   UNL     1     -11.906  15.393  69.051  1.00  0.00    -0.304 S  
HETATM    8  O   UNL     1     -11.410  16.418  70.037  1.00  0.00    -0.312 OA 
BRANCH   7   9
HETATM    9  C   UNL     1     -10.675  15.301  67.671  1.00  0.00    -0.282 C  
BRANCH   9  10
HETATM   10  C   UNL     1      -9.248  14.986  68.110  1.00  0.00    -0.183 A  
HETATM   11  C   UNL     1      -8.629  15.797  69.079  1.00  0.00    -0.236 A  
HETATM   12  C   UNL     1      -8.489  13.951  67.541  1.00  0.00    -0.200 A  
HETATM   13  C   UNL     1      -7.301  15.582  69.460  1.00  0.00    -0.203 A  
HETATM   14  C   UNL     1      -6.565  14.560  68.874  1.00  0.00    -0.095 A  
HETATM   15  C   UNL     1      -7.157  13.744  67.913  1.00  0.00    -0.161 A  
ENDBRANCH   9  10
BRANCH   9  16
HETATM   16  C   UNL     1     -11.185  14.361  66.577  1.00  0.00    -0.340 A  
HETATM   17  C   UNL     1     -11.760  12.108  65.848  1.00  0.00    -0.393 A  
HETATM   18  C   UNL     1     -11.885  13.931  64.279  1.00  0.00    -0.441 A  
HETATM   19  C   UNL     1     -11.350  12.992  66.850  1.00  0.00    -0.352 A  
HETATM   20  C   UNL     1     -11.469  14.814  65.275  1.00  0.00    -0.352 A  
HETATM   21  C   UNL     1     -12.026  12.578  64.563  1.00  0.00    -0.472 A  
ENDBRANCH   9  16
ENDBRANCH   7   9
ENDBRANCH   6   7
ENDBRANCH   2   6
TORSDOF 5
ENDMDL
MODEL      195
REMARK 921   NORMALIZED FREE ENERGY PREDICTED BY IDOCK:   -3.22 KCAL/MOL
REMARK 922        TOTAL FREE ENERGY PREDICTED BY IDOCK:   -5.17 KCAL/MOL
REMARK 923 INTER-LIGAND FREE ENERGY PREDICTED BY IDOCK:   -4.54 KCAL/MOL
REMARK 924 INTRA-LIGAND FREE ENERGY PREDICTED BY IDOCK:   -0.63 KCAL/MOL
REMARK 927      BINDING AFFINITY PREDICTED BY RF-SCORE:    0.00 PKD
ROOT
HETATM    1  N   UNL     1      -6.993   9.663  67.807  1.00  0.00    -0.079 N  
HETATM    2  C   UNL     1      -8.022  10.275  68.473  1.00  0.00    -0.107 C  
HETATM    3  H1  UNL     1      -6.371  10.196  67.200  1.00  0.00     0.000 HD 
HETATM    4  H2  UNL     1      -6.846   8.660  67.921  1.00  0.00     0.000 HD 
HETATM    5  O   UNL     1      -8.770   9.633  69.204  1.00  0.00    -0.135 OA 
ENDROOT
BRANCH   2   6
HETATM    6  C   UNL     1      -8.188  11.757  68.211  1.00  0.00    -0.157 C  
BRANCH   6   7
HETATM    7  S   UNL     1      -8.545  12.025  66.453  1.00  0.00     0.042 S  
HETATM    8  O   UNL     1      -9.009  10.700  65.907  1.00  0.00    -0.163 OA 
BRANCH   7   9
HETATM    9  C   UNL     1     -10.037  13.104  66.649  1.00  0.00    -0.264 C  
BRANCH   9  10
HETATM   10  C   UNL     1     -10.870  12.819  67.895  1.00  0.00    -0.242 A  
HETATM   11  C   UNL     1     -11.028  13.825  68.865  1.00  0.00    -0.281 A  
HETATM   12  C   UNL     1     -11.442  11.564  68.155  1.00  0.00    -0.385 A  
HETATM   13  C   UNL     1     -11.728  13.583  70.051  1.00  0.00    -0.311 A  
HETATM   14  C   UNL     1     -12.274  12.329  70.293  1.00  0.00    -0.342 A  
HETATM   15  C   UNL     1     -12.131  11.317  69.347  1.00  0.00    -0.384 A  
ENDBRANCH   9  10
BRANCH   9  16
HETATM   16  C   UNL     1      -9.639  14.576  66.521  1.00  0.00    -0.311 A  
HETATM   17  C   UNL     1     -10.199  16.849  65.847  1.00  0.00    -0.330 A  
HETATM   18  C   UNL     1      -7.991  16.369  66.682  1.00  0.00    -0.323 A  
HETATM   19  C   UNL     1     -10.563  15.511  66.025  1.00  0.00    -0.333 A  
HETATM   20  C   UNL     1      -8.350  15.032  66.853  1.00  0.00    -0.247 A  
HETATM   21  C   UNL     1      -8.914  17.277  66.174  1.00  0.00    -0.189 A  
ENDBRANCH   9  16
ENDBRANCH   7   9
ENDBRANCH   6   7
ENDBRANCH   2   6
TORSDOF 5
ENDMDL
MODEL      196
REMARK 921   NORMALIZED FREE ENERGY PREDICTED BY IDOCK:   -3.21 KCAL/MOL
REMARK 922        TOTAL FREE ENERGY PREDICTED BY IDOCK:   -5.15 KCAL/MOL
REMARK 923 INTER-LIGAND FREE ENERGY PREDICTED BY IDOCK:   -4.76 KCAL/MOL
REMARK 924 INTRA-LIGAND FREE ENERGY PREDICTED BY IDOCK:   -0.38 KCAL/MOL
REMARK 927      BINDING AFFINITY PREDICTED BY RF-SCORE:    0.00 PKD
ROOT
HETATM    1  N   UNL     1     -12.790   6.926  72.406  1.00  0.00    -0.473 N  
HETATM    2  C   UNL     1     -11.705   6.300  71.854  1.00  0.00    -0.316 C  
HETATM    3  H1  UNL     1     -13.202   7.749  71.963  1.00  0.00     0.000 HD 
HETATM    4  H2  UNL     1     -13.194   6.566  73.271  1.00  0.00     0.000 HD 
HETATM    5  O   UNL     1     -11.210   5.311  72.386  1.00  0.00    -0.231 OA 
ENDROOT
BRANCH   2   6
HETATM    6  C   UNL     1     -11.149   6.929  70.593  1.00  0.00    -0.278 C  
BRANCH   6   7
HETATM    7  S   UNL     1     -11.491   8.710  70.605  1.00  0.00    -0.181 S  
HETATM    8  O   UNL     1     -10.893   9.249  71.879  1.00  0.00    -0.351 OA 
BRANCH   7   9
HETATM    9  C   UNL     1     -10.376   9.201  69.211  1.00  0.00    -0.216 C  
BRANCH   9  10
HETATM   10  C   UNL     1     -10.891  10.361  68.363  1.00  0.00    -0.289 A  
HETATM   11  C   UNL     1     -10.672  10.349  66.973  1.00  0.00    -0.298 A  
HETATM   12  C   UNL     1     -11.524  11.484  68.916  1.00  0.00    -0.352 A  
HETATM   13  C   UNL     1     -11.069  11.423  66.170  1.00  0.00    -0.259 A  
HETATM   14  C   UNL     1     -11.682  12.531  66.742  1.00  0.00    -0.453 A  
HETATM   15  C   UNL     1     -11.910  12.564  68.115  1.00  0.00    -0.371 A  
ENDBRANCH   9  10
BRANCH   9  16
HETATM   16  C   UNL     1      -8.955   9.426  69.732  1.00  0.00    -0.199 A  
HETATM   17  C   UNL     1      -6.967  10.828  69.862  1.00  0.00    -0.127 A  
HETATM   18  C   UNL     1      -6.954   8.652  70.894  1.00  0.00    -0.064 A  
HETATM   19  C   UNL     1      -8.285  10.627  69.444  1.00  0.00    -0.089 A  
HETATM   20  C   UNL     1      -8.268   8.447  70.472  1.00  0.00    -0.113 A  
HETATM   21  C   UNL     1      -6.302   9.840  70.585  1.00  0.00    -0.105 A  
ENDBRANCH   9  16
ENDBRANCH   7   9
ENDBRANCH   6   7
ENDBRANCH   2   6
TORSDOF 5
ENDMDL
MODEL      197
REMARK 921   NORMALIZED FREE ENERGY PREDICTED BY IDOCK:   -3.20 KCAL/MOL
REMARK 922        TOTAL FREE ENERGY PREDICTED BY IDOCK:   -5.14 KCAL/MOL
REMARK 923 INTER-LIGAND FREE ENERGY PREDICTED BY IDOCK:   -5.35 KCAL/MOL
REMARK 924 INTRA-LIGAND FREE ENERGY PREDICTED BY IDOCK:    0.21 KCAL/MOL
REMARK 927      BINDING AFFINITY PREDICTED BY RF-SCORE:    0.00 PKD
ROOT
HETATM    1  N   UNL     1      -6.451   8.033  71.783  1.00  0.00    -0.041 N  
HETATM    2  C   UNL     1      -7.379   7.363  72.536  1.00  0.00    -0.073 C  
HETATM    3  H1  UNL     1      -6.680   8.368  70.847  1.00  0.00     0.000 HD 
HETATM    4  H2  UNL     1      -5.519   8.199  72.163  1.00  0.00     0.000 HD 
HETATM    5  O   UNL     1      -7.104   6.960  73.662  1.00  0.00    -0.075 OA 
ENDROOT
BRANCH   2   6
HETATM    6  C   UNL     1      -8.720   7.127  71.875  1.00  0.00    -0.120 C  
BRANCH   6   7
HETATM    7  S   UNL     1      -9.680   5.944  72.860  1.00  0.00    -0.155 S  
HETATM    8  O   UNL     1     -10.141   6.688  74.087  1.00  0.00    -0.306 OA 
BRANCH   7   9
HETATM    9  C   UNL     1     -11.135   5.778  71.726  1.00  0.00    -0.238 C  
BRANCH   9  10
HETATM   10  C   UNL     1     -12.124   6.937  71.786  1.00  0.00    -0.385 A  
HETATM   11  C   UNL     1     -11.650   8.237  72.044  1.00  0.00    -0.403 A  
HETATM   12  C   UNL     1     -13.511   6.761  71.656  1.00  0.00    -0.191 A  
HETATM   13  C   UNL     1     -12.530   9.316  72.171  1.00  0.00    -0.421 A  
HETATM   14  C   UNL     1     -13.899   9.114  72.054  1.00  0.00    -0.480 A  
HETATM   15  C   UNL     1     -14.392   7.837  71.797  1.00  0.00    -0.594 A  
ENDBRANCH   9  10
BRANCH   9  16
HETATM   16  C   UNL     1     -10.658   5.471  70.305  1.00  0.00    -0.357 A  
HETATM   17  C   UNL     1     -10.776   5.914  67.912  1.00  0.00    -0.336 A  
HETATM   18  C   UNL     1      -9.367   4.137  68.722  1.00  0.00    -0.222 A  
HETATM   19  C   UNL     1     -11.156   6.217  69.223  1.00  0.00    -0.463 A  
HETATM   20  C   UNL     1      -9.750   4.432  70.030  1.00  0.00    -0.286 A  
HETATM   21  C   UNL     1      -9.883   4.874  67.662  1.00  0.00    -0.205 A  
ENDBRANCH   9  16
ENDBRANCH   7   9
ENDBRANCH   6   7
ENDBRANCH   2   6
TORSDOF 5
ENDMDL
MODEL      198
REMARK 921   NORMALIZED FREE ENERGY PREDICTED BY IDOCK:   -3.20 KCAL/MOL
REMARK 922        TOTAL FREE ENERGY PREDICTED BY IDOCK:   -5.13 KCAL/MOL
REMARK 923 INTER-LIGAND FREE ENERGY PREDICTED BY IDOCK:   -4.72 KCAL/MOL
REMARK 924 INTRA-LIGAND FREE ENERGY PREDICTED BY IDOCK:   -0.41 KCAL/MOL
REMARK 927      BINDING AFFINITY PREDICTED BY RF-SCORE:    0.00 PKD
ROOT
HETATM    1  N   UNL     1      -9.738   7.450  71.081  1.00  0.00    -0.164 N  
HETATM    2  C   UNL     1     -10.163   8.195  70.014  1.00  0.00    -0.202 C  
HETATM    3  H1  UNL     1      -9.299   7.894  71.889  1.00  0.00     0.000 HD 
HETATM    4  H2  UNL     1      -9.862   6.437  71.069  1.00  0.00     0.000 HD 
HETATM    5  O   UNL     1     -10.691   7.662  69.043  1.00  0.00    -0.202 OA 
ENDROOT
BRANCH   2   6
HETATM    6  C   UNL     1      -9.901   9.684  70.102  1.00  0.00    -0.262 C  
BRANCH   6   7
HETATM    7  S   UNL     1     -11.111  10.573  69.083  1.00  0.00    -0.265 S  
HETATM    8  O   UNL     1     -11.800  11.551  69.998  1.00  0.00    -0.310 OA 
BRANCH   7   9
HETATM    9  C   UNL     1      -9.922  11.528  68.034  1.00  0.00    -0.189 C  
BRANCH   9  10
HETATM   10  C   UNL     1      -9.702  10.953  66.638  1.00  0.00    -0.222 A  
HETATM   11  C   UNL     1      -9.393   9.588  66.494  1.00  0.00    -0.220 A  
HETATM   12  C   UNL     1      -9.729  11.744  65.478  1.00  0.00    -0.248 A  
HETATM   13  C   UNL     1      -9.121   9.037  65.238  1.00  0.00    -0.226 A  
HETATM   14  C   UNL     1      -9.140   9.842  64.106  1.00  0.00    -0.289 A  
HETATM   15  C   UNL     1      -9.443  11.196  64.224  1.00  0.00    -0.242 A  
ENDBRANCH   9  10
BRANCH   9  16
HETATM   16  C   UNL     1     -10.310  13.008  68.017  1.00  0.00    -0.237 A  
HETATM   17  C   UNL     1      -9.798  15.317  68.600  1.00  0.00    -0.211 A  
HETATM   18  C   UNL     1     -11.901  14.797  67.545  1.00  0.00    -0.326 A  
HETATM   19  C   UNL     1      -9.437  13.967  68.555  1.00  0.00    -0.191 A  
HETATM   20  C   UNL     1     -11.544  13.449  67.506  1.00  0.00    -0.382 A  
HETATM   21  C   UNL     1     -11.030  15.731  68.097  1.00  0.00    -0.330 A  
ENDBRANCH   9  16
ENDBRANCH   7   9
ENDBRANCH   6   7
ENDBRANCH   2   6
TORSDOF 5
ENDMDL
MODEL      199
REMARK 921   NORMALIZED FREE ENERGY PREDICTED BY IDOCK:   -3.19 KCAL/MOL
REMARK 922        TOTAL FREE ENERGY PREDICTED BY IDOCK:   -5.12 KCAL/MOL
REMARK 923 INTER-LIGAND FREE ENERGY PREDICTED BY IDOCK:   -4.92 KCAL/MOL
REMARK 924 INTRA-LIGAND FREE ENERGY PREDICTED BY IDOCK:   -0.21 KCAL/MOL
REMARK 927      BINDING AFFINITY PREDICTED BY RF-SCORE:    0.00 PKD
ROOT
HETATM    1  N   UNL     1      -7.102   7.805  73.182  1.00  0.00    -0.081 N  
HETATM    2  C   UNL     1      -7.016   8.437  71.970  1.00  0.00    -0.091 C  
HETATM    3  H1  UNL     1      -7.488   6.863  73.257  1.00  0.00     0.000 HD 
HETATM    4  H2  UNL     1      -6.775   8.282  74.023  1.00  0.00     0.000 HD 
HETATM    5  O   UNL     1      -6.551   9.569  71.881  1.00  0.00    -0.298 OA 
ENDROOT
BRANCH   2   6
HETATM    6  C   UNL     1      -7.562   7.668  70.785  1.00  0.00    -0.080 C  
BRANCH   6   7
HETATM    7  S   UNL     1      -7.841   8.808  69.402  1.00  0.00    -0.097 S  
HETATM    8  O   UNL     1      -8.206   7.955  68.215  1.00  0.00    -0.121 OA 
BRANCH   7   9
HETATM    9  C   UNL     1      -9.396   9.600  70.023  1.00  0.00    -0.241 C  
BRANCH   9  10
HETATM   10  C   UNL     1     -10.061  10.556  69.037  1.00  0.00    -0.230 A  
HETATM   11  C   UNL     1     -11.224  11.247  69.423  1.00  0.00    -0.345 A  
HETATM   12  C   UNL     1      -9.599  10.735  67.723  1.00  0.00    -0.176 A  
HETATM   13  C   UNL     1     -11.900  12.082  68.528  1.00  0.00    -0.369 A  
HETATM   14  C   UNL     1     -11.433  12.232  67.229  1.00  0.00    -0.426 A  
HETATM   15  C   UNL     1     -10.283  11.559  66.824  1.00  0.00    -0.254 A  
ENDBRANCH   9  10
BRANCH   9  16
HETATM   16  C   UNL     1     -10.352   8.530  70.554  1.00  0.00    -0.226 A  
HETATM   17  C   UNL     1     -11.652   6.505  70.174  1.00  0.00    -0.466 A  
HETATM   18  C   UNL     1     -11.806   7.634  72.297  1.00  0.00    -0.354 A  
HETATM   19  C   UNL     1     -10.736   7.461  69.727  1.00  0.00    -0.252 A  
HETATM   20  C   UNL     1     -10.897   8.593  71.850  1.00  0.00    -0.419 A  
HETATM   21  C   UNL     1     -12.188   6.593  71.458  1.00  0.00    -0.391 A  
ENDBRANCH   9  16
ENDBRANCH   7   9
ENDBRANCH   6   7
ENDBRANCH   2   6
TORSDOF 5
ENDMDL
MODEL      200
REMARK 921   NORMALIZED FREE ENERGY PREDICTED BY IDOCK:   -3.18 KCAL/MOL
REMARK 922        TOTAL FREE ENERGY PREDICTED BY IDOCK:   -5.12 KCAL/MOL
REMARK 923 INTER-LIGAND FREE ENERGY PREDICTED BY IDOCK:   -4.51 KCAL/MOL
REMARK 924 INTRA-LIGAND FREE ENERGY PREDICTED BY IDOCK:   -0.60 KCAL/MOL
REMARK 927      BINDING AFFINITY PREDICTED BY RF-SCORE:    0.00 PKD
ROOT
HETATM    1  N   UNL     1      -9.313   7.065  66.072  1.00  0.00    -0.379 N  
HETATM    2  C   UNL     1      -8.445   6.911  67.120  1.00  0.00    -0.121 C  
HETATM    3  H1  UNL     1     -10.225   7.504  66.207  1.00  0.00     0.000 HD 
HETATM    4  H2  UNL     1      -9.045   6.736  65.144  1.00  0.00     0.000 HD 
HETATM    5  O   UNL     1      -7.349   6.384  66.958  1.00  0.00    -0.079 OA 
ENDROOT
BRANCH   2   6
HETATM    6  C   UNL     1      -8.944   7.391  68.467  1.00  0.00    -0.128 C  
BRANCH   6   7
HETATM    7  S   UNL     1     -10.745   7.190  68.552  1.00  0.00    -0.108 S  
HETATM    8  O   UNL     1     -11.041   5.801  68.048  1.00  0.00    -0.178 OA 
BRANCH   7   9
HETATM    9  C   UNL     1     -10.921   7.166  70.395  1.00  0.00    -0.265 C  
BRANCH   9  10
HETATM   10  C   UNL     1      -9.606   7.031  71.158  1.00  0.00    -0.165 A  
HETATM   11  C   UNL     1      -9.018   5.761  71.301  1.00  0.00    -0.147 A  
HETATM   12  C   UNL     1      -8.979   8.117  71.788  1.00  0.00    -0.216 A  
HETATM   13  C   UNL     1      -7.849   5.585  72.048  1.00  0.00    -0.106 A  
HETATM   14  C   UNL     1      -7.254   6.672  72.674  1.00  0.00    -0.080 A  
HETATM   15  C   UNL     1      -7.817   7.940  72.546  1.00  0.00    -0.150 A  
ENDBRANCH   9  10
BRANCH   9  16
HETATM   16  C   UNL     1     -11.759   8.360  70.855  1.00  0.00    -0.269 A  
HETATM   17  C   UNL     1     -12.321  10.723  70.671  1.00  0.00    -0.465 A  
HETATM   18  C   UNL     1     -13.387   9.379  72.362  1.00  0.00    -0.503 A  
HETATM   19  C   UNL     1     -11.606   9.608  70.227  1.00  0.00    -0.255 A  
HETATM   20  C   UNL     1     -12.669   8.265  71.925  1.00  0.00    -0.373 A  
HETATM   21  C   UNL     1     -13.210  10.609  71.739  1.00  0.00    -0.526 A  
ENDBRANCH   9  16
ENDBRANCH   7   9
ENDBRANCH   6   7
ENDBRANCH   2   6
TORSDOF 5
ENDMDL
MODEL      201
REMARK 921   NORMALIZED FREE ENERGY PREDICTED BY IDOCK:   -3.18 KCAL/MOL
REMARK 922        TOTAL FREE ENERGY PREDICTED BY IDOCK:   -5.11 KCAL/MOL
REMARK 923 INTER-LIGAND FREE ENERGY PREDICTED BY IDOCK:   -4.20 KCAL/MOL
REMARK 924 INTRA-LIGAND FREE ENERGY PREDICTED BY IDOCK:   -0.91 KCAL/MOL
REMARK 927      BINDING AFFINITY PREDICTED BY RF-SCORE:    0.00 PKD
ROOT
HETATM    1  N   UNL     1      -8.935  11.056  66.028  1.00  0.00    -0.192 N  
HETATM    2  C   UNL     1      -9.434  10.011  65.296  1.00  0.00    -0.263 C  
HETATM    3  H1  UNL     1      -8.936  11.029  67.048  1.00  0.00     0.000 HD 
HETATM    4  H2  UNL     1      -8.556  11.872  65.546  1.00  0.00     0.000 HD 
HETATM    5  O   UNL     1      -9.432  10.043  64.069  1.00  0.00    -0.279 OA 
ENDROOT
BRANCH   2   6
HETATM    6  C   UNL     1     -10.012   8.862  66.095  1.00  0.00    -0.220 C  
BRANCH   6   7
HETATM    7  S   UNL     1      -9.994   9.282  67.859  1.00  0.00    -0.199 S  
HETATM    8  O   UNL     1     -11.242  10.085  68.118  1.00  0.00    -0.232 OA 
BRANCH   7   9
HETATM    9  C   UNL     1     -10.269   7.582  68.538  1.00  0.00    -0.197 C  
BRANCH   9  10
HETATM   10  C   UNL     1      -9.108   6.615  68.324  1.00  0.00    -0.123 A  
HETATM   11  C   UNL     1      -7.803   7.124  68.182  1.00  0.00    -0.118 A  
HETATM   12  C   UNL     1      -9.287   5.229  68.195  1.00  0.00    -0.139 A  
HETATM   13  C   UNL     1      -6.722   6.278  67.920  1.00  0.00    -0.064 A  
HETATM   14  C   UNL     1      -6.925   4.911  67.782  1.00  0.00    -0.061 A  
HETATM   15  C   UNL     1      -8.207   4.384  67.919  1.00  0.00    -0.095 A  
ENDBRANCH   9  10
BRANCH   9  16
HETATM   16  C   UNL     1     -10.713   7.667  70.000  1.00  0.00    -0.245 A  
HETATM   17  C   UNL     1     -10.312   8.454  72.270  1.00  0.00    -0.403 A  
HETATM   18  C   UNL     1     -12.212   7.042  71.821  1.00  0.00    -0.387 A  
HETATM   19  C   UNL     1      -9.955   8.410  70.920  1.00  0.00    -0.230 A  
HETATM   20  C   UNL     1     -11.853   6.992  70.474  1.00  0.00    -0.337 A  
HETATM   21  C   UNL     1     -11.440   7.768  72.720  1.00  0.00    -0.415 A  
ENDBRANCH   9  16
ENDBRANCH   7   9
ENDBRANCH   6   7
ENDBRANCH   2   6
TORSDOF 5
ENDMDL
MODEL      202
REMARK 921   NORMALIZED FREE ENERGY PREDICTED BY IDOCK:   -3.10 KCAL/MOL
REMARK 922        TOTAL FREE ENERGY PREDICTED BY IDOCK:   -5.01 KCAL/MOL
REMARK 923 INTER-LIGAND FREE ENERGY PREDICTED BY IDOCK:   -5.57 KCAL/MOL
REMARK 924 INTRA-LIGAND FREE ENERGY PREDICTED BY IDOCK:    0.56 KCAL/MOL
REMARK 927      BINDING AFFINITY PREDICTED BY RF-SCORE:    0.00 PKD
ROOT
HETATM    1  N   UNL     1     -13.440   9.948  70.478  1.00  0.00    -0.547 N  
HETATM    2  C   UNL     1     -12.685  11.012  70.895  1.00  0.00    -0.358 C  
HETATM    3  H1  UNL     1     -13.119   9.340  69.723  1.00  0.00     0.000 HD 
HETATM    4  H2  UNL     1     -14.337   9.759  70.927  1.00  0.00     0.000 HD 
HETATM    5  O   UNL     1     -13.072  11.742  71.802  1.00  0.00    -0.463 OA 
ENDROOT
BRANCH   2   6
HETATM    6  C   UNL     1     -11.390  11.238  70.143  1.00  0.00    -0.164 C  
BRANCH   6   7
HETATM    7  S   UNL     1     -11.649  12.491  68.858  1.00  0.00    -0.335 S  
HETATM    8  O   UNL     1     -10.632  13.574  69.110  1.00  0.00    -0.157 OA 
BRANCH   7   9
HETATM    9  C   UNL     1     -11.065  11.502  67.405  1.00  0.00    -0.282 C  
BRANCH   9  10
HETATM   10  C   UNL     1     -11.497  12.050  66.048  1.00  0.00    -0.399 A  
HETATM   11  C   UNL     1     -11.219  11.309  64.884  1.00  0.00    -0.107 A  
HETATM   12  C   UNL     1     -12.109  13.304  65.894  1.00  0.00    -0.493 A  
HETATM   13  C   UNL     1     -11.539  11.806  63.617  1.00  0.00    -0.521 A  
HETATM   14  C   UNL     1     -12.131  13.055  63.489  1.00  0.00    -0.617 A  
HETATM   15  C   UNL     1     -12.417  13.807  64.626  1.00  0.00    -0.356 A  
ENDBRANCH   9  10
BRANCH   9  16
HETATM   16  C   UNL     1      -9.556  11.269  67.503  1.00  0.00    -0.181 A  
HETATM   17  C   UNL     1      -7.612  10.651  68.834  1.00  0.00    -0.113 A  
HETATM   18  C   UNL     1      -7.311  11.357  66.551  1.00  0.00    -0.063 A  
HETATM   19  C   UNL     1      -8.994  10.815  68.708  1.00  0.00    -0.171 A  
HETATM   20  C   UNL     1      -8.690  11.528  66.425  1.00  0.00    -0.179 A  
HETATM   21  C   UNL     1      -6.771  10.923  67.757  1.00  0.00    -0.064 A  
ENDBRANCH   9  16
ENDBRANCH   7   9
ENDBRANCH   6   7
ENDBRANCH   2   6
TORSDOF 5
ENDMDL
MODEL      203
REMARK 921   NORMALIZED FREE ENERGY PREDICTED BY IDOCK:   -3.08 KCAL/MOL
REMARK 922        TOTAL FREE ENERGY PREDICTED BY IDOCK:   -4.98 KCAL/MOL
REMARK 923 INTER-LIGAND FREE ENERGY PREDICTED BY IDOCK:   -4.70 KCAL/MOL
REMARK 924 INTRA-LIGAND FREE ENERGY PREDICTED BY IDOCK:   -0.28 KCAL/MOL
REMARK 927      BINDING AFFINITY PREDICTED BY RF-SCORE:    0.00 PKD
ROOT
HETATM    1  N   UNL     1     -12.030  10.765  70.453  1.00  0.00    -0.326 N  
HETATM    2  C   UNL     1     -11.816  12.050  70.030  1.00  0.00    -0.314 C  
HETATM    3  H1  UNL     1     -11.495   9.988  70.063  1.00  0.00     0.000 HD 
HETATM    4  H2  UNL     1     -12.735  10.581  71.167  1.00  0.00     0.000 HD 
HETATM    5  O   UNL     1     -12.459  12.983  70.500  1.00  0.00    -0.305 OA 
ENDROOT
BRANCH   2   6
HETATM    6  C   UNL     1     -10.780  12.222  68.939  1.00  0.00    -0.172 C  
BRANCH   6   7
HETATM    7  S   UNL     1     -10.371  10.602  68.233  1.00  0.00    -0.189 S  
HETATM    8  O   UNL     1     -11.669  10.008  67.751  1.00  0.00     0.009 OA 
BRANCH   7   9
HETATM    9  C   UNL     1      -9.437  11.191  66.746  1.00  0.00    -0.184 C  
BRANCH   9  10
HETATM   10  C   UNL     1      -8.550  10.136  66.092  1.00  0.00    -0.147 A  
HETATM   11  C   UNL     1      -7.266  10.496  65.642  1.00  0.00    -0.124 A  
HETATM   12  C   UNL     1      -8.981   8.821  65.856  1.00  0.00    -0.240 A  
HETATM   13  C   UNL     1      -6.448   9.575  64.980  1.00  0.00    -0.084 A  
HETATM   14  C   UNL     1      -6.902   8.284  64.745  1.00  0.00    -0.067 A  
HETATM   15  C   UNL     1      -8.169   7.905  65.182  1.00  0.00    -0.143 A  
ENDBRANCH   9  10
BRANCH   9  16
HETATM   16  C   UNL     1     -10.395  11.861  65.759  1.00  0.00    -0.285 A  
HETATM   17  C   UNL     1     -11.437  11.917  63.557  1.00  0.00    -0.523 A  
HETATM   18  C   UNL     1     -11.886  13.688  65.128  1.00  0.00    -0.364 A  
HETATM   19  C   UNL     1     -10.610  11.290  64.493  1.00  0.00    -0.401 A  
HETATM   20  C   UNL     1     -11.055  13.067  66.061  1.00  0.00    -0.301 A  
HETATM   21  C   UNL     1     -12.073  13.117  63.874  1.00  0.00    -0.536 A  
ENDBRANCH   9  16
ENDBRANCH   7   9
ENDBRANCH   6   7
ENDBRANCH   2   6
TORSDOF 5
ENDMDL
MODEL      204
REMARK 921   NORMALIZED FREE ENERGY PREDICTED BY IDOCK:   -3.06 KCAL/MOL
REMARK 922        TOTAL FREE ENERGY PREDICTED BY IDOCK:   -4.95 KCAL/MOL
REMARK 923 INTER-LIGAND FREE ENERGY PREDICTED BY IDOCK:   -3.96 KCAL/MOL
REMARK 924 INTRA-LIGAND FREE ENERGY PREDICTED BY IDOCK:   -0.99 KCAL/MOL
REMARK 927      BINDING AFFINITY PREDICTED BY RF-SCORE:    0.00 PKD
ROOT
HETATM    1  N   UNL     1      -9.277   4.532  68.743  1.00  0.00    -0.121 N  
HETATM    2  C   UNL     1      -8.552   5.658  68.457  1.00  0.00    -0.107 C  
HETATM    3  H1  UNL     1     -10.075   4.262  68.168  1.00  0.00     0.000 HD 
HETATM    4  H2  UNL     1      -9.015   3.954  69.543  1.00  0.00     0.000 HD 
HETATM    5  O   UNL     1      -7.591   5.983  69.149  1.00  0.00    -0.087 OA 
ENDROOT
BRANCH   2   6
HETATM    6  C   UNL     1      -9.038   6.474  67.278  1.00  0.00    -0.117 C  
BRANCH   6   7
HETATM    7  S   UNL     1     -10.512   7.415  67.761  1.00  0.00    -0.226 S  
HETATM    8  O   UNL     1     -11.446   6.434  68.419  1.00  0.00    -0.205 OA 
BRANCH   7   9
HETATM    9  C   UNL     1      -9.743   8.441  69.097  1.00  0.00    -0.171 C  
BRANCH   9  10
HETATM   10  C   UNL     1      -8.709   9.451  68.608  1.00  0.00    -0.131 A  
HETATM   11  C   UNL     1      -7.678   9.857  69.475  1.00  0.00    -0.135 A  
HETATM   12  C   UNL     1      -8.773  10.052  67.341  1.00  0.00    -0.125 A  
HETATM   13  C   UNL     1      -6.749  10.829  69.088  1.00  0.00    -0.074 A  
HETATM   14  C   UNL     1      -6.841  11.420  67.835  1.00  0.00    -0.072 A  
HETATM   15  C   UNL     1      -7.853  11.033  66.959  1.00  0.00    -0.137 A  
ENDBRANCH   9  10
BRANCH   9  16
HETATM   16  C   UNL     1     -10.834   9.074  69.963  1.00  0.00    -0.247 A  
HETATM   17  C   UNL     1     -12.417  10.885  70.351  1.00  0.00    -0.411 A  
HETATM   18  C   UNL     1     -12.178   9.144  71.999  1.00  0.00    -0.443 A  
HETATM   19  C   UNL     1     -11.460  10.261  69.546  1.00  0.00    -0.273 A  
HETATM   20  C   UNL     1     -11.217   8.524  71.200  1.00  0.00    -0.317 A  
HETATM   21  C   UNL     1     -12.775  10.327  71.577  1.00  0.00    -0.557 A  
ENDBRANCH   9  16
ENDBRANCH   7   9
ENDBRANCH   6   7
ENDBRANCH   2   6
TORSDOF 5
ENDMDL
MODEL      205
REMARK 921   NORMALIZED FREE ENERGY PREDICTED BY IDOCK:   -3.03 KCAL/MOL
REMARK 922        TOTAL FREE ENERGY PREDICTED BY IDOCK:   -4.91 KCAL/MOL
REMARK 923 INTER-LIGAND FREE ENERGY PREDICTED BY IDOCK:   -4.35 KCAL/MOL
REMARK 924 INTRA-LIGAND FREE ENERGY PREDICTED BY IDOCK:   -0.57 KCAL/MOL
REMARK 927      BINDING AFFINITY PREDICTED BY RF-SCORE:    0.00 PKD
ROOT
HETATM    1  N   UNL     1      -7.448   4.734  69.447  1.00  0.00    -0.052 N  
HETATM    2  C   UNL     1      -8.298   3.791  68.932  1.00  0.00    -0.073 C  
HETATM    3  H1  UNL     1      -7.807   5.536  69.967  1.00  0.00     0.000 HD 
HETATM    4  H2  UNL     1      -6.442   4.634  69.310  1.00  0.00     0.000 HD 
HETATM    5  O   UNL     1      -7.865   2.827  68.308  1.00  0.00    -0.055 OA 
ENDROOT
BRANCH   2   6
HETATM    6  C   UNL     1      -9.775   4.044  69.150  1.00  0.00    -0.107 C  
BRANCH   6   7
HETATM    7  S   UNL     1     -10.064   5.827  69.322  1.00  0.00    -0.228 S  
HETATM    8  O   UNL     1     -11.043   6.205  68.241  1.00  0.00    -0.333 OA 
BRANCH   7   9
HETATM    9  C   UNL     1     -10.988   5.789  70.927  1.00  0.00    -0.235 C  
BRANCH   9  10
HETATM   10  C   UNL     1     -10.123   5.517  72.153  1.00  0.00    -0.231 A  
HETATM   11  C   UNL     1      -9.294   6.539  72.653  1.00  0.00    -0.145 A  
HETATM   12  C   UNL     1     -10.063   4.262  72.779  1.00  0.00    -0.214 A  
HETATM   13  C   UNL     1      -8.438   6.311  73.735  1.00  0.00    -0.124 A  
HETATM   14  C   UNL     1      -8.385   5.057  74.329  1.00  0.00    -0.105 A  
HETATM   15  C   UNL     1      -9.197   4.030  73.852  1.00  0.00    -0.097 A  
ENDBRANCH   9  10
BRANCH   9  16
HETATM   16  C   UNL     1     -11.845   7.049  71.067  1.00  0.00    -0.395 A  
HETATM   17  C   UNL     1     -12.029   9.477  71.001  1.00  0.00    -0.407 A  
HETATM   18  C   UNL     1     -13.941   8.159  71.640  1.00  0.00    -0.463 A  
HETATM   19  C   UNL     1     -11.279   8.312  70.823  1.00  0.00    -0.284 A  
HETATM   20  C   UNL     1     -13.192   6.995  71.470  1.00  0.00    -0.382 A  
HETATM   21  C   UNL     1     -13.359   9.401  71.411  1.00  0.00    -0.417 A  
ENDBRANCH   9  16
ENDBRANCH   7   9
ENDBRANCH   6   7
ENDBRANCH   2   6
TORSDOF 5
ENDMDL
MODEL      206
REMARK 921   NORMALIZED FREE ENERGY PREDICTED BY IDOCK:   -3.03 KCAL/MOL
REMARK 922        TOTAL FREE ENERGY PREDICTED BY IDOCK:   -4.91 KCAL/MOL
REMARK 923 INTER-LIGAND FREE ENERGY PREDICTED BY IDOCK:   -4.57 KCAL/MOL
REMARK 924 INTRA-LIGAND FREE ENERGY PREDICTED BY IDOCK:   -0.34 KCAL/MOL
REMARK 927      BINDING AFFINITY PREDICTED BY RF-SCORE:    0.00 PKD
ROOT
HETATM    1  N   UNL     1     -10.208  11.784  69.195  1.00  0.00    -0.418 N  
HETATM    2  C   UNL     1     -11.272  11.122  69.748  1.00  0.00    -0.245 C  
HETATM    3  H1  UNL     1      -9.319  11.309  69.036  1.00  0.00     0.000 HD 
HETATM    4  H2  UNL     1     -10.305  12.767  68.939  1.00  0.00     0.000 HD 
HETATM    5  O   UNL     1     -12.341  11.695  69.939  1.00  0.00    -0.239 OA 
ENDROOT
BRANCH   2   6
HETATM    6  C   UNL     1     -11.024   9.679  70.134  1.00  0.00    -0.275 C  
BRANCH   6   7
HETATM    7  S   UNL     1     -10.423   8.761  68.690  1.00  0.00    -0.144 S  
HETATM    8  O   UNL     1      -8.922   8.890  68.698  1.00  0.00    -0.137 OA 
BRANCH   7   9
HETATM    9  C   UNL     1     -10.843   7.054  69.270  1.00  0.00    -0.214 C  
BRANCH   9  10
HETATM   10  C   UNL     1     -10.352   5.933  68.358  1.00  0.00    -0.261 A  
HETATM   11  C   UNL     1     -10.573   6.025  66.972  1.00  0.00    -0.385 A  
HETATM   12  C   UNL     1      -9.739   4.769  68.848  1.00  0.00    -0.244 A  
HETATM   13  C   UNL     1     -10.197   4.990  66.110  1.00  0.00    -0.288 A  
HETATM   14  C   UNL     1      -9.605   3.841  66.619  1.00  0.00    -0.197 A  
HETATM   15  C   UNL     1      -9.376   3.728  67.988  1.00  0.00    -0.232 A  
ENDBRANCH   9  10
BRANCH   9  16
HETATM   16  C   UNL     1     -10.407   6.874  70.726  1.00  0.00    -0.223 A  
HETATM   17  C   UNL     1      -8.637   6.880  72.400  1.00  0.00    -0.128 A  
HETATM   18  C   UNL     1     -10.874   6.251  73.039  1.00  0.00    -0.286 A  
HETATM   19  C   UNL     1      -9.067   7.094  71.088  1.00  0.00    -0.152 A  
HETATM   20  C   UNL     1     -11.303   6.457  71.727  1.00  0.00    -0.337 A  
HETATM   21  C   UNL     1      -9.540   6.457  73.375  1.00  0.00    -0.163 A  
ENDBRANCH   9  16
ENDBRANCH   7   9
ENDBRANCH   6   7
ENDBRANCH   2   6
TORSDOF 5
ENDMDL
MODEL      207
REMARK 921   NORMALIZED FREE ENERGY PREDICTED BY IDOCK:   -3.00 KCAL/MOL
REMARK 922        TOTAL FREE ENERGY PREDICTED BY IDOCK:   -4.88 KCAL/MOL
REMARK 923 INTER-LIGAND FREE ENERGY PREDICTED BY IDOCK:   -3.98 KCAL/MOL
REMARK 924 INTRA-LIGAND FREE ENERGY PREDICTED BY IDOCK:   -0.90 KCAL/MOL
REMARK 927      BINDING AFFINITY PREDICTED BY RF-SCORE:    0.00 PKD
ROOT
HETATM    1  N   UNL     1     -13.057  10.295  70.352  1.00  0.00    -0.546 N  
HETATM    2  C   UNL     1     -13.076   9.503  71.469  1.00  0.00    -0.389 C  
HETATM    3  H1  UNL     1     -12.189  10.463  69.842  1.00  0.00     0.000 HD 
HETATM    4  H2  UNL     1     -13.923  10.725  70.025  1.00  0.00     0.000 HD 
HETATM    5  O   UNL     1     -14.120   9.302  72.082  1.00  0.00    -0.375 OA 
ENDROOT
BRANCH   2   6
HETATM    6  C   UNL     1     -11.738   8.942  71.903  1.00  0.00    -0.369 C  
BRANCH   6   7
HETATM    7  S   UNL     1     -11.253   7.600  70.784  1.00  0.00    -0.268 S  
HETATM    8  O   UNL     1     -10.922   8.246  69.464  1.00  0.00    -0.171 OA 
BRANCH   7   9
HETATM    9  C   UNL     1      -9.655   7.141  71.600  1.00  0.00    -0.155 C  
BRANCH   9  10
HETATM   10  C   UNL     1      -9.761   6.007  72.614  1.00  0.00    -0.166 A  
HETATM   11  C   UNL     1      -8.770   5.871  73.604  1.00  0.00    -0.125 A  
HETATM   12  C   UNL     1     -10.777   5.039  72.569  1.00  0.00    -0.271 A  
HETATM   13  C   UNL     1      -8.796   4.807  74.511  1.00  0.00    -0.111 A  
HETATM   14  C   UNL     1      -9.803   3.854  74.438  1.00  0.00    -0.172 A  
HETATM   15  C   UNL     1     -10.795   3.968  73.467  1.00  0.00    -0.336 A  
ENDBRANCH   9  10
BRANCH   9  16
HETATM   16  C   UNL     1      -8.578   6.898  70.541  1.00  0.00    -0.142 A  
HETATM   17  C   UNL     1      -6.823   7.772  69.095  1.00  0.00    -0.049 A  
HETATM   18  C   UNL     1      -7.427   5.444  68.954  1.00  0.00    -0.075 A  
HETATM   19  C   UNL     1      -7.773   7.963  70.102  1.00  0.00    -0.088 A  
HETATM   20  C   UNL     1      -8.381   5.634  69.954  1.00  0.00    -0.117 A  
HETATM   21  C   UNL     1      -6.652   6.514  68.520  1.00  0.00    -0.051 A  
ENDBRANCH   9  16
ENDBRANCH   7   9
ENDBRANCH   6   7
ENDBRANCH   2   6
TORSDOF 5
ENDMDL
MODEL      208
REMARK 921   NORMALIZED FREE ENERGY PREDICTED BY IDOCK:   -2.87 KCAL/MOL
REMARK 922        TOTAL FREE ENERGY PREDICTED BY IDOCK:   -4.71 KCAL/MOL
REMARK 923 INTER-LIGAND FREE ENERGY PREDICTED BY IDOCK:   -4.45 KCAL/MOL
REMARK 924 INTRA-LIGAND FREE ENERGY PREDICTED BY IDOCK:   -0.27 KCAL/MOL
REMARK 927      BINDING AFFINITY PREDICTED BY RF-SCORE:    0.00 PKD
ROOT
HETATM    1  N   UNL     1     -11.286   5.557  66.012  1.00  0.00    -0.742 N  
HETATM    2  C   UNL     1     -10.641   5.875  67.178  1.00  0.00    -0.299 C  
HETATM    3  H1  UNL     1     -11.651   6.287  65.400  1.00  0.00     0.000 HD 
HETATM    4  H2  UNL     1     -11.403   4.577  65.752  1.00  0.00     0.000 HD 
HETATM    5  O   UNL     1     -10.201   4.997  67.914  1.00  0.00    -0.148 OA 
ENDROOT
BRANCH   2   6
HETATM    6  C   UNL     1     -10.551   7.351  67.502  1.00  0.00    -0.269 C  
BRANCH   6   7
HETATM    7  S   UNL     1      -8.830   7.902  67.343  1.00  0.00    -0.128 S  
HETATM    8  O   UNL     1      -8.785   8.815  66.147  1.00  0.00    -0.142 OA 
BRANCH   7   9
HETATM    9  C   UNL     1      -8.751   8.960  68.861  1.00  0.00    -0.136 C  
BRANCH   9  10
HETATM   10  C   UNL     1     -10.025   9.746  69.155  1.00  0.00    -0.195 A  
HETATM   11  C   UNL     1     -10.349  10.859  68.357  1.00  0.00    -0.196 A  
HETATM   12  C   UNL     1     -10.869   9.449  70.236  1.00  0.00    -0.303 A  
HETATM   13  C   UNL     1     -11.472  11.645  68.634  1.00  0.00    -0.349 A  
HETATM   14  C   UNL     1     -12.285  11.339  69.718  1.00  0.00    -0.343 A  
HETATM   15  C   UNL     1     -11.984  10.242  70.522  1.00  0.00    -0.415 A  
ENDBRANCH   9  10
BRANCH   9  16
HETATM   16  C   UNL     1      -8.272   8.130  70.053  1.00  0.00    -0.120 A  
HETATM   17  C   UNL     1      -7.546   5.989  70.961  1.00  0.00    -0.097 A  
HETATM   18  C   UNL     1      -7.801   7.878  72.435  1.00  0.00    -0.144 A  
HETATM   19  C   UNL     1      -7.930   6.779  69.874  1.00  0.00    -0.120 A  
HETATM   20  C   UNL     1      -8.192   8.666  71.352  1.00  0.00    -0.205 A  
HETATM   21  C   UNL     1      -7.483   6.538  72.241  1.00  0.00    -0.095 A  
ENDBRANCH   9  16
ENDBRANCH   7   9
ENDBRANCH   6   7
ENDBRANCH   2   6
TORSDOF 5
ENDMDL
MODEL      209
REMARK 921   NORMALIZED FREE ENERGY PREDICTED BY IDOCK:   -2.86 KCAL/MOL
REMARK 922        TOTAL FREE ENERGY PREDICTED BY IDOCK:   -4.70 KCAL/MOL
REMARK 923 INTER-LIGAND FREE ENERGY PREDICTED BY IDOCK:   -4.46 KCAL/MOL
REMARK 924 INTRA-LIGAND FREE ENERGY PREDICTED BY IDOCK:   -0.25 KCAL/MOL
REMARK 927      BINDING AFFINITY PREDICTED BY RF-SCORE:    0.00 PKD
ROOT
HETATM    1  N   UNL     1     -11.335   8.164  69.777  1.00  0.00    -0.453 N  
HETATM    2  C   UNL     1     -10.756   9.395  69.942  1.00  0.00    -0.234 C  
HETATM    3  H1  UNL     1     -11.926   7.967  68.969  1.00  0.00     0.000 HD 
HETATM    4  H2  UNL     1     -11.172   7.434  70.472  1.00  0.00     0.000 HD 
HETATM    5  O   UNL     1     -10.045   9.632  70.914  1.00  0.00    -0.279 OA 
ENDROOT
BRANCH   2   6
HETATM    6  C   UNL     1     -11.086  10.427  68.884  1.00  0.00    -0.247 C  
BRANCH   6   7
HETATM    7  S   UNL     1      -9.559  10.963  68.065  1.00  0.00    -0.167 S  
HETATM    8  O   UNL     1      -8.566   9.845  68.246  1.00  0.00    -0.113 OA 
BRANCH   7   9
HETATM    9  C   UNL     1     -10.163  10.900  66.316  1.00  0.00    -0.247 C  
BRANCH   9  10
HETATM   10  C   UNL     1     -10.834  12.180  65.828  1.00  0.00    -0.319 A  
HETATM   11  C   UNL     1     -10.041  13.219  65.306  1.00  0.00    -0.254 A  
HETATM   12  C   UNL     1     -12.216  12.402  65.934  1.00  0.00    -0.220 A  
HETATM   13  C   UNL     1     -10.611  14.433  64.909  1.00  0.00    -0.456 A  
HETATM   14  C   UNL     1     -11.979  14.635  65.036  1.00  0.00    -0.364 A  
HETATM   15  C   UNL     1     -12.784  13.620  65.549  1.00  0.00    -0.514 A  
ENDBRANCH   9  10
BRANCH   9  16
HETATM   16  C   UNL     1      -9.040  10.424  65.392  1.00  0.00    -0.221 A  
HETATM   17  C   UNL     1      -6.711  10.546  64.687  1.00  0.00     0.056 A  
HETATM   18  C   UNL     1      -8.243   9.132  63.481  1.00  0.00    -0.178 A  
HETATM   19  C   UNL     1      -7.738  10.925  65.557  1.00  0.00     0.057 A  
HETATM   20  C   UNL     1      -9.271   9.514  64.344  1.00  0.00    -0.192 A  
HETATM   21  C   UNL     1      -6.965   9.651  63.649  1.00  0.00    -0.111 A  
ENDBRANCH   9  16
ENDBRANCH   7   9
ENDBRANCH   6   7
ENDBRANCH   2   6
TORSDOF 5
ENDMDL
MODEL      210
REMARK 921   NORMALIZED FREE ENERGY PREDICTED BY IDOCK:   -2.85 KCAL/MOL
REMARK 922        TOTAL FREE ENERGY PREDICTED BY IDOCK:   -4.69 KCAL/MOL
REMARK 923 INTER-LIGAND FREE ENERGY PREDICTED BY IDOCK:   -3.79 KCAL/MOL
REMARK 924 INTRA-LIGAND FREE ENERGY PREDICTED BY IDOCK:   -0.89 KCAL/MOL
REMARK 927      BINDING AFFINITY PREDICTED BY RF-SCORE:    0.00 PKD
ROOT
HETATM    1  N   UNL     1     -13.022   6.630  72.047  1.00  0.00    -0.523 N  
HETATM    2  C   UNL     1     -11.748   6.180  72.272  1.00  0.00    -0.302 C  
HETATM    3  H1  UNL     1     -13.197   7.420  71.425  1.00  0.00     0.000 HD 
HETATM    4  H2  UNL     1     -13.807   6.170  72.509  1.00  0.00     0.000 HD 
HETATM    5  O   UNL     1     -11.538   5.230  73.020  1.00  0.00    -0.313 OA 
ENDROOT
BRANCH   2   6
HETATM    6  C   UNL     1     -10.644   6.949  71.577  1.00  0.00    -0.217 C  
BRANCH   6   7
HETATM    7  S   UNL     1     -10.861   6.829  69.780  1.00  0.00    -0.294 S  
HETATM    8  O   UNL     1     -10.778   8.235  69.248  1.00  0.00    -0.211 OA 
BRANCH   7   9
HETATM    9  C   UNL     1      -9.263   5.982  69.378  1.00  0.00    -0.132 C  
BRANCH   9  10
HETATM   10  C   UNL     1      -8.823   4.937  70.399  1.00  0.00    -0.135 A  
HETATM   11  C   UNL     1      -7.669   5.168  71.170  1.00  0.00    -0.096 A  
HETATM   12  C   UNL     1      -9.485   3.710  70.563  1.00  0.00    -0.255 A  
HETATM   13  C   UNL     1      -7.196   4.207  72.069  1.00  0.00    -0.059 A  
HETATM   14  C   UNL     1      -7.859   2.995  72.204  1.00  0.00    -0.055 A  
HETATM   15  C   UNL     1      -9.004   2.743  71.452  1.00  0.00    -0.153 A  
ENDBRANCH   9  10
BRANCH   9  16
HETATM   16  C   UNL     1      -9.304   5.441  67.948  1.00  0.00    -0.123 A  
HETATM   17  C   UNL     1     -10.595   4.797  65.985  1.00  0.00    -0.300 A  
HETATM   18  C   UNL     1      -8.210   4.463  65.998  1.00  0.00    -0.109 A  
HETATM   19  C   UNL     1     -10.531   5.342  67.271  1.00  0.00    -0.236 A  
HETATM   20  C   UNL     1      -8.144   5.000  67.284  1.00  0.00    -0.107 A  
HETATM   21  C   UNL     1      -9.435   4.357  65.350  1.00  0.00    -0.175 A  
ENDBRANCH   9  16
ENDBRANCH   7   9
ENDBRANCH   6   7
ENDBRANCH   2   6
TORSDOF 5
ENDMDL
MODEL      211
REMARK 921   NORMALIZED FREE ENERGY PREDICTED BY IDOCK:   -2.81 KCAL/MOL
REMARK 922        TOTAL FREE ENERGY PREDICTED BY IDOCK:   -4.63 KCAL/MOL
REMARK 923 INTER-LIGAND FREE ENERGY PREDICTED BY IDOCK:   -3.94 KCAL/MOL
REMARK 924 INTRA-LIGAND FREE ENERGY PREDICTED BY IDOCK:   -0.69 KCAL/MOL
REMARK 927      BINDING AFFINITY PREDICTED BY RF-SCORE:    0.00 PKD
ROOT
HETATM    1  N   UNL     1      -8.118   5.456  66.352  1.00  0.00    -0.105 N  
HETATM    2  C   UNL     1      -7.284   6.482  66.712  1.00  0.00    -0.077 C  
HETATM    3  H1  UNL     1      -8.950   5.630  65.787  1.00  0.00     0.000 HD 
HETATM    4  H2  UNL     1      -7.904   4.505  66.652  1.00  0.00     0.000 HD 
HETATM    5  O   UNL     1      -6.284   6.272  67.390  1.00  0.00    -0.026 OA 
ENDROOT
BRANCH   2   6
HETATM    6  C   UNL     1      -7.704   7.864  66.256  1.00  0.00    -0.092 C  
BRANCH   6   7
HETATM    7  S   UNL     1      -7.866   8.953  67.698  1.00  0.00    -0.102 S  
HETATM    8  O   UNL     1      -7.798  10.363  67.175  1.00  0.00    -0.108 OA 
BRANCH   7   9
HETATM    9  C   UNL     1      -9.635   8.589  68.105  1.00  0.00    -0.143 C  
BRANCH   9  10
HETATM   10  C   UNL     1      -9.835   7.595  69.244  1.00  0.00    -0.168 A  
HETATM   11  C   UNL     1      -8.804   7.404  70.182  1.00  0.00    -0.147 A  
HETATM   12  C   UNL     1     -10.988   6.804  69.369  1.00  0.00    -0.321 A  
HETATM   13  C   UNL     1      -8.922   6.455  71.203  1.00  0.00    -0.146 A  
HETATM   14  C   UNL     1     -10.066   5.674  71.298  1.00  0.00    -0.261 A  
HETATM   15  C   UNL     1     -11.101   5.846  70.382  1.00  0.00    -0.353 A  
ENDBRANCH   9  10
BRANCH   9  16
HETATM   16  C   UNL     1     -10.404   9.896  68.310  1.00  0.00    -0.232 A  
HETATM   17  C   UNL     1     -11.521  11.843  67.362  1.00  0.00    -0.393 A  
HETATM   18  C   UNL     1     -11.298  11.649  69.753  1.00  0.00    -0.276 A  
HETATM   19  C   UNL     1     -10.867  10.619  67.198  1.00  0.00    -0.328 A  
HETATM   20  C   UNL     1     -10.639  10.430  69.590  1.00  0.00    -0.289 A  
HETATM   21  C   UNL     1     -11.735  12.358  68.640  1.00  0.00    -0.372 A  
ENDBRANCH   9  16
ENDBRANCH   7   9
ENDBRANCH   6   7
ENDBRANCH   2   6
TORSDOF 5
ENDMDL
MODEL      212
REMARK 921   NORMALIZED FREE ENERGY PREDICTED BY IDOCK:   -2.79 KCAL/MOL
REMARK 922        TOTAL FREE ENERGY PREDICTED BY IDOCK:   -4.61 KCAL/MOL
REMARK 923 INTER-LIGAND FREE ENERGY PREDICTED BY IDOCK:   -4.62 KCAL/MOL
REMARK 924 INTRA-LIGAND FREE ENERGY PREDICTED BY IDOCK:    0.01 KCAL/MOL
REMARK 927      BINDING AFFINITY PREDICTED BY RF-SCORE:    0.00 PKD
ROOT
HETATM    1  N   UNL     1     -10.746   8.730  69.768  1.00  0.00    -0.228 N  
HETATM    2  C   UNL     1      -9.733   9.653  69.771  1.00  0.00    -0.224 C  
HETATM    3  H1  UNL     1     -11.444   8.721  69.024  1.00  0.00     0.000 HD 
HETATM    4  H2  UNL     1     -10.802   8.042  70.519  1.00  0.00     0.000 HD 
HETATM    5  O   UNL     1      -8.893   9.664  70.666  1.00  0.00    -0.200 OA 
ENDROOT
BRANCH   2   6
HETATM    6  C   UNL     1      -9.754  10.659  68.640  1.00  0.00    -0.178 C  
BRANCH   6   7
HETATM    7  S   UNL     1      -9.110   9.885  67.131  1.00  0.00    -0.138 S  
HETATM    8  O   UNL     1     -10.272   9.168  66.493  1.00  0.00    -0.278 OA 
BRANCH   7   9
HETATM    9  C   UNL     1      -8.800  11.428  66.155  1.00  0.00    -0.184 C  
BRANCH   9  10
HETATM   10  C   UNL     1     -10.012  11.952  65.390  1.00  0.00    -0.281 A  
HETATM   11  C   UNL     1     -11.126  12.429  66.105  1.00  0.00    -0.340 A  
HETATM   12  C   UNL     1     -10.097  11.922  63.989  1.00  0.00    -0.361 A  
HETATM   13  C   UNL     1     -12.281  12.857  65.443  1.00  0.00    -0.528 A  
HETATM   14  C   UNL     1     -12.348  12.805  64.057  1.00  0.00    -0.492 A  
HETATM   15  C   UNL     1     -11.257  12.337  63.328  1.00  0.00    -0.399 A  
ENDBRANCH   9  10
BRANCH   9  16
HETATM   16  C   UNL     1      -8.152  12.489  67.047  1.00  0.00    -0.105 A  
HETATM   17  C   UNL     1      -6.274  13.211  68.421  1.00  0.00    -0.083 A  
HETATM   18  C   UNL     1      -8.233  14.604  68.263  1.00  0.00    -0.146 A  
HETATM   19  C   UNL     1      -6.861  12.280  67.559  1.00  0.00    -0.135 A  
HETATM   20  C   UNL     1      -8.823  13.672  67.408  1.00  0.00    -0.221 A  
HETATM   21  C   UNL     1      -6.962  14.371  68.774  1.00  0.00    -0.100 A  
ENDBRANCH   9  16
ENDBRANCH   7   9
ENDBRANCH   6   7
ENDBRANCH   2   6
TORSDOF 5
ENDMDL
MODEL      213
REMARK 921   NORMALIZED FREE ENERGY PREDICTED BY IDOCK:   -2.77 KCAL/MOL
REMARK 922        TOTAL FREE ENERGY PREDICTED BY IDOCK:   -4.58 KCAL/MOL
REMARK 923 INTER-LIGAND FREE ENERGY PREDICTED BY IDOCK:   -3.87 KCAL/MOL
REMARK 924 INTRA-LIGAND FREE ENERGY PREDICTED BY IDOCK:   -0.71 KCAL/MOL
REMARK 927      BINDING AFFINITY PREDICTED BY RF-SCORE:    0.00 PKD
ROOT
HETATM    1  N   UNL     1     -10.433   8.857  72.093  1.00  0.00    -0.317 N  
HETATM    2  C   UNL     1      -9.138   8.693  71.679  1.00  0.00    -0.247 C  
HETATM    3  H1  UNL     1     -11.212   8.686  71.457  1.00  0.00     0.000 HD 
HETATM    4  H2  UNL     1     -10.622   9.154  73.051  1.00  0.00     0.000 HD 
HETATM    5  O   UNL     1      -8.201   8.898  72.445  1.00  0.00    -0.384 OA 
ENDROOT
BRANCH   2   6
HETATM    6  C   UNL     1      -8.953   8.291  70.231  1.00  0.00    -0.142 C  
BRANCH   6   7
HETATM    7  S   UNL     1      -8.996   6.483  70.095  1.00  0.00    -0.155 S  
HETATM    8  O   UNL     1     -10.036   6.008  71.077  1.00  0.00    -0.180 OA 
BRANCH   7   9
HETATM    9  C   UNL     1      -9.731   6.364  68.400  1.00  0.00    -0.131 C  
BRANCH   9  10
HETATM   10  C   UNL     1      -9.333   7.492  67.453  1.00  0.00    -0.164 A  
HETATM   11  C   UNL     1     -10.325   8.353  66.949  1.00  0.00    -0.378 A  
HETATM   12  C   UNL     1      -8.016   7.677  67.003  1.00  0.00    -0.116 A  
HETATM   13  C   UNL     1     -10.010   9.357  66.028  1.00  0.00    -0.352 A  
HETATM   14  C   UNL     1      -8.703   9.512  65.587  1.00  0.00    -0.173 A  
HETATM   15  C   UNL     1      -7.704   8.673  66.072  1.00  0.00    -0.100 A  
ENDBRANCH   9  10
BRANCH   9  16
HETATM   16  C   UNL     1      -9.474   4.974  67.814  1.00  0.00    -0.159 A  
HETATM   17  C   UNL     1      -9.402   3.493  65.881  1.00  0.00    -0.159 A  
HETATM   18  C   UNL     1      -8.985   2.597  68.079  1.00  0.00    -0.202 A  
HETATM   19  C   UNL     1      -9.577   4.767  66.429  1.00  0.00    -0.182 A  
HETATM   20  C   UNL     1      -9.167   3.867  68.627  1.00  0.00    -0.211 A  
HETATM   21  C   UNL     1      -9.108   2.409  66.707  1.00  0.00    -0.118 A  
ENDBRANCH   9  16
ENDBRANCH   7   9
ENDBRANCH   6   7
ENDBRANCH   2   6
TORSDOF 5
ENDMDL
MODEL      214
REMARK 921   NORMALIZED FREE ENERGY PREDICTED BY IDOCK:   -2.72 KCAL/MOL
REMARK 922        TOTAL FREE ENERGY PREDICTED BY IDOCK:   -4.52 KCAL/MOL
REMARK 923 INTER-LIGAND FREE ENERGY PREDICTED BY IDOCK:   -3.63 KCAL/MOL
REMARK 924 INTRA-LIGAND FREE ENERGY PREDICTED BY IDOCK:   -0.89 KCAL/MOL
REMARK 927      BINDING AFFINITY PREDICTED BY RF-SCORE:    0.00 PKD
ROOT
HETATM    1  N   UNL     1     -13.787   7.543  71.130  1.00  0.00    -0.634 N  
HETATM    2  C   UNL     1     -12.491   7.117  71.250  1.00  0.00    -0.386 C  
HETATM    3  H1  UNL     1     -14.074   8.135  70.350  1.00  0.00     0.000 HD 
HETATM    4  H2  UNL     1     -14.475   7.265  71.830  1.00  0.00     0.000 HD 
HETATM    5  O   UNL     1     -12.146   6.404  72.188  1.00  0.00    -0.326 OA 
ENDROOT
BRANCH   2   6
HETATM    6  C   UNL     1     -11.532   7.612  70.188  1.00  0.00    -0.066 C  
BRANCH   6   7
HETATM    7  S   UNL     1     -10.996   6.218  69.159  1.00  0.00    -0.390 S  
HETATM    8  O   UNL     1     -11.114   6.676  67.729  1.00  0.00    -0.285 OA 
BRANCH   7   9
HETATM    9  C   UNL     1      -9.199   6.235  69.607  1.00  0.00    -0.141 C  
BRANCH   9  10
HETATM   10  C   UNL     1      -8.804   5.236  70.690  1.00  0.00    -0.148 A  
HETATM   11  C   UNL     1      -9.682   4.185  71.013  1.00  0.00    -0.260 A  
HETATM   12  C   UNL     1      -7.621   5.353  71.436  1.00  0.00    -0.102 A  
HETATM   13  C   UNL     1      -9.386   3.287  72.044  1.00  0.00    -0.188 A  
HETATM   14  C   UNL     1      -8.216   3.431  72.778  1.00  0.00    -0.080 A  
HETATM   15  C   UNL     1      -7.332   4.463  72.476  1.00  0.00    -0.073 A  
ENDBRANCH   9  10
BRANCH   9  16
HETATM   16  C   UNL     1      -8.344   6.116  68.344  1.00  0.00    -0.114 A  
HETATM   17  C   UNL     1      -6.922   7.167  66.668  1.00  0.00    -0.077 A  
HETATM   18  C   UNL     1      -7.495   4.837  66.447  1.00  0.00    -0.086 A  
HETATM   19  C   UNL     1      -7.661   7.241  67.851  1.00  0.00    -0.113 A  
HETATM   20  C   UNL     1      -8.240   4.912  67.624  1.00  0.00    -0.105 A  
HETATM   21  C   UNL     1      -6.840   5.965  65.965  1.00  0.00    -0.061 A  
ENDBRANCH   9  16
ENDBRANCH   7   9
ENDBRANCH   6   7
ENDBRANCH   2   6
TORSDOF 5
ENDMDL
MODEL      215
REMARK 921   NORMALIZED FREE ENERGY PREDICTED BY IDOCK:   -2.72 KCAL/MOL
REMARK 922        TOTAL FREE ENERGY PREDICTED BY IDOCK:   -4.51 KCAL/MOL
REMARK 923 INTER-LIGAND FREE ENERGY PREDICTED BY IDOCK:   -3.81 KCAL/MOL
REMARK 924 INTRA-LIGAND FREE ENERGY PREDICTED BY IDOCK:   -0.71 KCAL/MOL
REMARK 927      BINDING AFFINITY PREDICTED BY RF-SCORE:    0.00 PKD
ROOT
HETATM    1  N   UNL     1     -11.494   6.423  67.513  1.00  0.00    -0.675 N  
HETATM    2  C   UNL     1     -10.447   5.557  67.342  1.00  0.00    -0.219 C  
HETATM    3  H1  UNL     1     -11.374   7.296  68.027  1.00  0.00     0.000 HD 
HETATM    4  H2  UNL     1     -12.408   6.193  67.121  1.00  0.00     0.000 HD 
HETATM    5  O   UNL     1     -10.592   4.507  66.723  1.00  0.00    -0.072 OA 
ENDROOT
BRANCH   2   6
HETATM    6  C   UNL     1      -9.141   5.963  67.992  1.00  0.00    -0.117 C  
BRANCH   6   7
HETATM    7  S   UNL     1      -9.316   5.890  69.796  1.00  0.00    -0.150 S  
HETATM    8  O   UNL     1      -8.292   4.898  70.282  1.00  0.00    -0.082 OA 
BRANCH   7   9
HETATM    9  C   UNL     1      -8.686   7.586  70.191  1.00  0.00    -0.142 C  
BRANCH   9  10
HETATM   10  C   UNL     1      -9.493   8.724  69.574  1.00  0.00    -0.165 A  
HETATM   11  C   UNL     1     -10.721   9.093  70.154  1.00  0.00    -0.263 A  
HETATM   12  C   UNL     1      -9.097   9.387  68.402  1.00  0.00    -0.128 A  
HETATM   13  C   UNL     1     -11.521  10.087  69.581  1.00  0.00    -0.210 A  
HETATM   14  C   UNL     1     -11.116  10.720  68.413  1.00  0.00    -0.323 A  
HETATM   15  C   UNL     1      -9.904  10.371  67.821  1.00  0.00    -0.193 A  
ENDBRANCH   9  10
BRANCH   9  16
HETATM   16  C   UNL     1      -8.500   7.736  71.702  1.00  0.00    -0.128 A  
HETATM   17  C   UNL     1      -7.150   8.492  73.584  1.00  0.00    -0.073 A  
HETATM   18  C   UNL     1      -9.205   7.306  73.999  1.00  0.00    -0.292 A  
HETATM   19  C   UNL     1      -7.366   8.395  72.206  1.00  0.00    -0.126 A  
HETATM   20  C   UNL     1      -9.419   7.202  72.624  1.00  0.00    -0.174 A  
HETATM   21  C   UNL     1      -8.069   7.947  74.479  1.00  0.00    -0.275 A  
ENDBRANCH   9  16
ENDBRANCH   7   9
ENDBRANCH   6   7
ENDBRANCH   2   6
TORSDOF 5
ENDMDL
MODEL      216
REMARK 921   NORMALIZED FREE ENERGY PREDICTED BY IDOCK:   -2.71 KCAL/MOL
REMARK 922        TOTAL FREE ENERGY PREDICTED BY IDOCK:   -4.50 KCAL/MOL
REMARK 923 INTER-LIGAND FREE ENERGY PREDICTED BY IDOCK:   -4.56 KCAL/MOL
REMARK 924 INTRA-LIGAND FREE ENERGY PREDICTED BY IDOCK:    0.06 KCAL/MOL
REMARK 927      BINDING AFFINITY PREDICTED BY RF-SCORE:    0.00 PKD
ROOT
HETATM    1  N   UNL     1     -13.783   9.664  70.475  1.00  0.00    -0.371 N  
HETATM    2  C   UNL     1     -12.936  10.540  71.101  1.00  0.00    -0.411 C  
HETATM    3  H1  UNL     1     -13.434   9.003  69.780  1.00  0.00     0.000 HD 
HETATM    4  H2  UNL     1     -14.777   9.672  70.706  1.00  0.00     0.000 HD 
HETATM    5  O   UNL     1     -13.357  11.335  71.936  1.00  0.00    -0.429 OA 
ENDROOT
BRANCH   2   6
HETATM    6  C   UNL     1     -11.487  10.484  70.664  1.00  0.00    -0.327 C  
BRANCH   6   7
HETATM    7  S   UNL     1     -11.377  10.829  68.887  1.00  0.00    -0.295 S  
HETATM    8  O   UNL     1     -10.207  11.760  68.707  1.00  0.00    -0.211 OA 
BRANCH   7   9
HETATM    9  C   UNL     1     -10.846   9.146  68.325  1.00  0.00    -0.051 C  
BRANCH   9  10
HETATM   10  C   UNL     1     -10.008   9.136  67.050  1.00  0.00    -0.294 A  
HETATM   11  C   UNL     1      -9.239   8.000  66.739  1.00  0.00    -0.206 A  
HETATM   12  C   UNL     1      -9.916  10.244  66.193  1.00  0.00    -0.300 A  
HETATM   13  C   UNL     1      -8.408   7.975  65.614  1.00  0.00    -0.146 A  
HETATM   14  C   UNL     1      -8.321   9.089  64.789  1.00  0.00    -0.181 A  
HETATM   15  C   UNL     1      -9.074  10.224  65.076  1.00  0.00    -0.244 A  
ENDBRANCH   9  10
BRANCH   9  16
HETATM   16  C   UNL     1     -10.184   8.393  69.481  1.00  0.00    -0.207 A  
HETATM   17  C   UNL     1      -8.299   8.122  71.001  1.00  0.00    -0.129 A  
HETATM   18  C   UNL     1     -10.114   6.540  71.068  1.00  0.00    -0.208 A  
HETATM   19  C   UNL     1      -8.946   8.830  69.984  1.00  0.00    -0.162 A  
HETATM   20  C   UNL     1     -10.759   7.241  70.048  1.00  0.00    -0.261 A  
HETATM   21  C   UNL     1      -8.882   6.977  71.541  1.00  0.00    -0.128 A  
ENDBRANCH   9  16
ENDBRANCH   7   9
ENDBRANCH   6   7
ENDBRANCH   2   6
TORSDOF 5
ENDMDL
MODEL      217
REMARK 921   NORMALIZED FREE ENERGY PREDICTED BY IDOCK:   -2.62 KCAL/MOL
REMARK 922        TOTAL FREE ENERGY PREDICTED BY IDOCK:   -4.39 KCAL/MOL
REMARK 923 INTER-LIGAND FREE ENERGY PREDICTED BY IDOCK:   -4.35 KCAL/MOL
REMARK 924 INTRA-LIGAND FREE ENERGY PREDICTED BY IDOCK:   -0.04 KCAL/MOL
REMARK 927      BINDING AFFINITY PREDICTED BY RF-SCORE:    0.00 PKD
ROOT
HETATM    1  N   UNL     1      -6.139   8.161  70.950  1.00  0.00    -0.033 N  
HETATM    2  C   UNL     1      -6.948   8.370  72.036  1.00  0.00    -0.091 C  
HETATM    3  H1  UNL     1      -6.375   7.459  70.248  1.00  0.00     0.000 HD 
HETATM    4  H2  UNL     1      -5.289   8.714  70.842  1.00  0.00     0.000 HD 
HETATM    5  O   UNL     1      -6.664   9.214  72.880  1.00  0.00    -0.313 OA 
ENDROOT
BRANCH   2   6
HETATM    6  C   UNL     1      -8.166   7.475  72.134  1.00  0.00    -0.103 C  
BRANCH   6   7
HETATM    7  S   UNL     1      -9.647   8.418  71.680  1.00  0.00    -0.247 S  
HETATM    8  O   UNL     1      -9.226   9.374  70.595  1.00  0.00    -0.244 OA 
BRANCH   7   9
HETATM    9  C   UNL     1     -10.598   7.045  70.880  1.00  0.00    -0.217 C  
BRANCH   9  10
HETATM   10  C   UNL     1     -10.264   6.813  69.409  1.00  0.00    -0.204 A  
HETATM   11  C   UNL     1      -8.945   7.011  68.961  1.00  0.00    -0.133 A  
HETATM   12  C   UNL     1     -11.235   6.468  68.455  1.00  0.00    -0.287 A  
HETATM   13  C   UNL     1      -8.613   6.873  67.610  1.00  0.00    -0.121 A  
HETATM   14  C   UNL     1      -9.592   6.545  66.682  1.00  0.00    -0.201 A  
HETATM   15  C   UNL     1     -10.905   6.343  67.102  1.00  0.00    -0.467 A  
ENDBRANCH   9  10
BRANCH   9  16
HETATM   16  C   UNL     1     -10.492   5.773  71.724  1.00  0.00    -0.281 A  
HETATM   17  C   UNL     1      -9.645   3.506  72.003  1.00  0.00    -0.212 A  
HETATM   18  C   UNL     1     -11.116   4.437  73.669  1.00  0.00    -0.361 A  
HETATM   19  C   UNL     1      -9.709   4.697  71.274  1.00  0.00    -0.251 A  
HETATM   20  C   UNL     1     -11.186   5.624  72.939  1.00  0.00    -0.338 A  
HETATM   21  C   UNL     1     -10.349   3.376  73.199  1.00  0.00    -0.244 A  
ENDBRANCH   9  16
ENDBRANCH   7   9
ENDBRANCH   6   7
ENDBRANCH   2   6
TORSDOF 5
ENDMDL
MODEL      218
REMARK 921   NORMALIZED FREE ENERGY PREDICTED BY IDOCK:   -2.51 KCAL/MOL
REMARK 922        TOTAL FREE ENERGY PREDICTED BY IDOCK:   -4.24 KCAL/MOL
REMARK 923 INTER-LIGAND FREE ENERGY PREDICTED BY IDOCK:   -3.49 KCAL/MOL
REMARK 924 INTRA-LIGAND FREE ENERGY PREDICTED BY IDOCK:   -0.75 KCAL/MOL
REMARK 927      BINDING AFFINITY PREDICTED BY RF-SCORE:    0.00 PKD
ROOT
HETATM    1  N   UNL     1      -6.185   9.982  68.835  1.00  0.00    -0.044 N  
HETATM    2  C   UNL     1      -6.824   8.774  68.749  1.00  0.00    -0.062 C  
HETATM    3  H1  UNL     1      -6.295  10.687  68.105  1.00  0.00     0.000 HD 
HETATM    4  H2  UNL     1      -5.591  10.181  69.641  1.00  0.00     0.000 HD 
HETATM    5  O   UNL     1      -6.692   7.927  69.627  1.00  0.00    -0.041 OA 
ENDROOT
BRANCH   2   6
HETATM    6  C   UNL     1      -7.651   8.552  67.499  1.00  0.00    -0.098 C  
BRANCH   6   7
HETATM    7  S   UNL     1      -9.198   9.490  67.623  1.00  0.00    -0.123 S  
HETATM    8  O   UNL     1      -9.247  10.046  69.022  1.00  0.00    -0.158 OA 
BRANCH   7   9
HETATM    9  C   UNL     1      -8.754  10.880  66.482  1.00  0.00    -0.163 C  
BRANCH   9  10
HETATM   10  C   UNL     1      -8.483  10.459  65.041  1.00  0.00    -0.180 A  
HETATM   11  C   UNL     1      -7.175  10.548  64.530  1.00  0.00     0.086 A  
HETATM   12  C   UNL     1      -9.499  10.041  64.168  1.00  0.00    -0.314 A  
HETATM   13  C   UNL     1      -6.897  10.234  63.197  1.00  0.00    -0.112 A  
HETATM   14  C   UNL     1      -7.921   9.837  62.347  1.00  0.00    -0.130 A  
HETATM   15  C   UNL     1      -9.223   9.740  62.830  1.00  0.00    -0.241 A  
ENDBRANCH   9  10
BRANCH   9  16
HETATM   16  C   UNL     1      -9.792  11.999  66.592  1.00  0.00    -0.220 A  
HETATM   17  C   UNL     1     -12.089  12.763  66.316  1.00  0.00    -0.400 A  
HETATM   18  C   UNL     1     -10.395  14.325  67.017  1.00  0.00    -0.267 A  
HETATM   19  C   UNL     1     -11.137  11.741  66.277  1.00  0.00    -0.364 A  
HETATM   20  C   UNL     1      -9.441  13.308  66.972  1.00  0.00    -0.243 A  
HETATM   21  C   UNL     1     -11.717  14.055  66.685  1.00  0.00    -0.420 A  
ENDBRANCH   9  16
ENDBRANCH   7   9
ENDBRANCH   6   7
ENDBRANCH   2   6
TORSDOF 5
ENDMDL
MODEL      219
REMARK 921   NORMALIZED FREE ENERGY PREDICTED BY IDOCK:   -2.34 KCAL/MOL
REMARK 922        TOTAL FREE ENERGY PREDICTED BY IDOCK:   -4.03 KCAL/MOL
REMARK 923 INTER-LIGAND FREE ENERGY PREDICTED BY IDOCK:   -3.39 KCAL/MOL
REMARK 924 INTRA-LIGAND FREE ENERGY PREDICTED BY IDOCK:   -0.64 KCAL/MOL
REMARK 927      BINDING AFFINITY PREDICTED BY RF-SCORE:    0.00 PKD
ROOT
HETATM    1  N   UNL     1     -10.561   8.694  71.115  1.00  0.00    -0.214 N  
HETATM    2  C   UNL     1      -9.270   8.236  71.134  1.00  0.00    -0.162 C  
HETATM    3  H1  UNL     1     -10.789   9.601  70.706  1.00  0.00     0.000 HD 
HETATM    4  H2  UNL     1     -11.305   8.121  71.514  1.00  0.00     0.000 HD 
HETATM    5  O   UNL     1      -8.996   7.145  71.625  1.00  0.00    -0.133 OA 
ENDROOT
BRANCH   2   6
HETATM    6  C   UNL     1      -8.229   9.171  70.556  1.00  0.00    -0.180 C  
BRANCH   6   7
HETATM    7  S   UNL     1      -7.619   8.501  68.985  1.00  0.00    -0.096 S  
HETATM    8  O   UNL     1      -7.304   7.049  69.236  1.00  0.00    -0.086 OA 
BRANCH   7   9
HETATM    9  C   UNL     1      -9.206   8.573  68.034  1.00  0.00    -0.136 C  
BRANCH   9  10
HETATM   10  C   UNL     1      -9.432   9.876  67.273  1.00  0.00    -0.181 A  
HETATM   11  C   UNL     1      -8.366  10.783  67.123  1.00  0.00    -0.126 A  
HETATM   12  C   UNL     1     -10.685  10.250  66.763  1.00  0.00    -0.216 A  
HETATM   13  C   UNL     1      -8.550  12.016  66.490  1.00  0.00    -0.100 A  
HETATM   14  C   UNL     1      -9.802  12.370  66.005  1.00  0.00    -0.268 A  
HETATM   15  C   UNL     1     -10.872  11.489  66.142  1.00  0.00    -0.330 A  
ENDBRANCH   9  10
BRANCH   9  16
HETATM   16  C   UNL     1      -9.342   7.333  67.148  1.00  0.00    -0.170 A  
HETATM   17  C   UNL     1     -10.459   5.226  66.649  1.00  0.00    -0.345 A  
HETATM   18  C   UNL     1      -8.570   5.912  65.321  1.00  0.00    -0.119 A  
HETATM   19  C   UNL     1     -10.353   6.393  67.410  1.00  0.00    -0.257 A  
HETATM   20  C   UNL     1      -8.458   7.075  66.085  1.00  0.00    -0.136 A  
HETATM   21  C   UNL     1      -9.566   4.985  65.606  1.00  0.00    -0.138 A  
ENDBRANCH   9  16
ENDBRANCH   7   9
ENDBRANCH   6   7
ENDBRANCH   2   6
TORSDOF 5
ENDMDL
MODEL      220
REMARK 921   NORMALIZED FREE ENERGY PREDICTED BY IDOCK:   -2.22 KCAL/MOL
REMARK 922        TOTAL FREE ENERGY PREDICTED BY IDOCK:   -3.87 KCAL/MOL
REMARK 923 INTER-LIGAND FREE ENERGY PREDICTED BY IDOCK:   -3.90 KCAL/MOL
REMARK 924 INTRA-LIGAND FREE ENERGY PREDICTED BY IDOCK:    0.03 KCAL/MOL
REMARK 927      BINDING AFFINITY PREDICTED BY RF-SCORE:    0.00 PKD
ROOT
HETATM    1  N   UNL     1      -7.669  14.013  68.901  1.00  0.00    -0.254 N  
HETATM    2  C   UNL     1      -7.658  13.734  67.560  1.00  0.00    -0.173 C  
HETATM    3  H1  UNL     1      -7.241  13.375  69.573  1.00  0.00     0.000 HD 
HETATM    4  H2  UNL     1      -8.112  14.870  69.234  1.00  0.00     0.000 HD 
HETATM    5  O   UNL     1      -8.173  14.502  66.753  1.00  0.00    -0.120 OA 
ENDROOT
BRANCH   2   6
HETATM    6  C   UNL     1      -7.015  12.422  67.164  1.00  0.00    -0.077 C  
BRANCH   6   7
HETATM    7  S   UNL     1      -7.553  11.117  68.303  1.00  0.00    -0.119 S  
HETATM    8  O   UNL     1      -8.275  11.808  69.430  1.00  0.00     0.322 OA 
BRANCH   7   9
HETATM    9  C   UNL     1      -8.830  10.330  67.217  1.00  0.00    -0.132 C  
BRANCH   9  10
HETATM   10  C   UNL     1      -9.354   8.988  67.720  1.00  0.00    -0.156 A  
HETATM   11  C   UNL     1      -9.952   8.096  66.811  1.00  0.00    -0.349 A  
HETATM   12  C   UNL     1      -9.326   8.621  69.075  1.00  0.00    -0.146 A  
HETATM   13  C   UNL     1     -10.503   6.886  67.243  1.00  0.00    -0.357 A  
HETATM   14  C   UNL     1     -10.477   6.550  68.591  1.00  0.00    -0.252 A  
HETATM   15  C   UNL     1      -9.889   7.417  69.509  1.00  0.00    -0.165 A  
ENDBRANCH   9  10
BRANCH   9  16
HETATM   16  C   UNL     1      -9.946  11.331  66.912  1.00  0.00    -0.238 A  
HETATM   17  C   UNL     1     -11.901  12.581  67.651  1.00  0.00    -0.381 A  
HETATM   18  C   UNL     1     -11.189  12.742  65.356  1.00  0.00    -0.327 A  
HETATM   19  C   UNL     1     -10.842  11.712  67.925  1.00  0.00    -0.255 A  
HETATM   20  C   UNL     1     -10.134  11.869  65.625  1.00  0.00    -0.274 A  
HETATM   21  C   UNL     1     -12.076  13.094  66.367  1.00  0.00    -0.447 A  
ENDBRANCH   9  16
ENDBRANCH   7   9
ENDBRANCH   6   7
ENDBRANCH   2   6
TORSDOF 5
ENDMDL
MODEL      221
REMARK 921   NORMALIZED FREE ENERGY PREDICTED BY IDOCK:   -2.09 KCAL/MOL
REMARK 922        TOTAL FREE ENERGY PREDICTED BY IDOCK:   -3.71 KCAL/MOL
REMARK 923 INTER-LIGAND FREE ENERGY PREDICTED BY IDOCK:   -4.42 KCAL/MOL
REMARK 924 INTRA-LIGAND FREE ENERGY PREDICTED BY IDOCK:    0.71 KCAL/MOL
REMARK 927      BINDING AFFINITY PREDICTED BY RF-SCORE:    0.00 PKD
ROOT
HETATM    1  N   UNL     1     -11.119  17.904  67.011  1.00  0.00     0.080 N  
HETATM    2  C   UNL     1     -10.980  16.739  66.304  1.00  0.00     0.149 C  
HETATM    3  H1  UNL     1     -11.408  17.892  67.990  1.00  0.00     0.000 HD 
HETATM    4  H2  UNL     1     -10.932  18.796  66.553  1.00  0.00     0.000 HD 
HETATM    5  O   UNL     1     -10.633  16.754  65.127  1.00  0.00    -0.663 OA 
ENDROOT
BRANCH   2   6
HETATM    6  C   UNL     1     -11.319  15.468  67.054  1.00  0.00    -0.106 C  
BRANCH   6   7
HETATM    7  S   UNL     1      -9.900  14.339  67.003  1.00  0.00    -0.260 S  
HETATM    8  O   UNL     1      -8.869  14.993  66.122  1.00  0.00    -0.217 OA 
BRANCH   7   9
HETATM    9  C   UNL     1      -9.345  14.536  68.759  1.00  0.00    -0.177 C  
BRANCH   9  10
HETATM   10  C   UNL     1      -8.201  15.526  68.957  1.00  0.00    -0.227 A  
HETATM   11  C   UNL     1      -8.391  16.878  68.615  1.00  0.00    -0.261 A  
HETATM   12  C   UNL     1      -6.931  15.138  69.410  1.00  0.00    -0.178 A  
HETATM   13  C   UNL     1      -7.348  17.803  68.720  1.00  0.00    -0.271 A  
HETATM   14  C   UNL     1      -6.096  17.394  69.157  1.00  0.00    -0.216 A  
HETATM   15  C   UNL     1      -5.884  16.061  69.502  1.00  0.00    -0.140 A  
ENDBRANCH   9  10
BRANCH   9  16
HETATM   16  C   UNL     1     -10.548  14.825  69.659  1.00  0.00    -0.167 A  
HETATM   17  C   UNL     1     -11.674  16.287  71.249  1.00  0.00    -0.396 A  
HETATM   18  C   UNL     1     -12.659  14.162  70.688  1.00  0.00    -0.421 A  
HETATM   19  C   UNL     1     -10.611  16.030  70.378  1.00  0.00    -0.127 A  
HETATM   20  C   UNL     1     -11.596  13.900  69.823  1.00  0.00    -0.335 A  
HETATM   21  C   UNL     1     -12.696  15.353  71.405  1.00  0.00    -0.488 A  
ENDBRANCH   9  16
ENDBRANCH   7   9
ENDBRANCH   6   7
ENDBRANCH   2   6
TORSDOF 5
ENDMDL
MODEL      222
REMARK 921   NORMALIZED FREE ENERGY PREDICTED BY IDOCK:   -2.03 KCAL/MOL
REMARK 922        TOTAL FREE ENERGY PREDICTED BY IDOCK:   -3.63 KCAL/MOL
REMARK 923 INTER-LIGAND FREE ENERGY PREDICTED BY IDOCK:   -4.32 KCAL/MOL
REMARK 924 INTRA-LIGAND FREE ENERGY PREDICTED BY IDOCK:    0.70 KCAL/MOL
REMARK 927      BINDING AFFINITY PREDICTED BY RF-SCORE:    0.00 PKD
ROOT
HETATM    1  N   UNL     1      -9.768   7.953  70.834  1.00  0.00    -0.164 N  
HETATM    2  C   UNL     1      -8.788   8.885  71.055  1.00  0.00    -0.230 C  
HETATM    3  H1  UNL     1     -10.368   8.010  70.011  1.00  0.00     0.000 HD 
HETATM    4  H2  UNL     1      -9.899   7.192  71.501  1.00  0.00     0.000 HD 
HETATM    5  O   UNL     1      -8.066   8.817  72.045  1.00  0.00    -0.315 OA 
ENDROOT
BRANCH   2   6
HETATM    6  C   UNL     1      -8.695  10.000  70.035  1.00  0.00    -0.083 C  
BRANCH   6   7
HETATM    7  S   UNL     1      -7.490   9.549  68.755  1.00  0.00    -0.076 S  
HETATM    8  O   UNL     1      -7.096   8.121  69.028  1.00  0.00    -0.059 OA 
BRANCH   7   9
HETATM    9  C   UNL     1      -8.639   9.546  67.302  1.00  0.00    -0.128 C  
BRANCH   9  10
HETATM   10  C   UNL     1      -9.220   8.180  66.953  1.00  0.00    -0.198 A  
HETATM   11  C   UNL     1     -10.567   7.905  67.253  1.00  0.00    -0.365 A  
HETATM   12  C   UNL     1      -8.449   7.146  66.398  1.00  0.00    -0.130 A  
HETATM   13  C   UNL     1     -11.119   6.644  67.009  1.00  0.00    -0.395 A  
HETATM   14  C   UNL     1     -10.334   5.632  66.472  1.00  0.00    -0.287 A  
HETATM   15  C   UNL     1      -8.998   5.881  66.166  1.00  0.00    -0.157 A  
ENDBRANCH   9  10
BRANCH   9  16
HETATM   16  C   UNL     1      -9.711  10.624  67.481  1.00  0.00    -0.189 A  
HETATM   17  C   UNL     1     -10.521  12.873  67.013  1.00  0.00    -0.244 A  
HETATM   18  C   UNL     1     -11.761  11.452  68.512  1.00  0.00    -0.386 A  
HETATM   19  C   UNL     1      -9.583  11.856  66.818  1.00  0.00    -0.214 A  
HETATM   20  C   UNL     1     -10.821  10.438  68.324  1.00  0.00    -0.299 A  
HETATM   21  C   UNL     1     -11.609  12.671  67.861  1.00  0.00    -0.401 A  
ENDBRANCH   9  16
ENDBRANCH   7   9
ENDBRANCH   6   7
ENDBRANCH   2   6
TORSDOF 5
ENDMDL
MODEL      223
REMARK 921   NORMALIZED FREE ENERGY PREDICTED BY IDOCK:   -1.84 KCAL/MOL
REMARK 922        TOTAL FREE ENERGY PREDICTED BY IDOCK:   -3.38 KCAL/MOL
REMARK 923 INTER-LIGAND FREE ENERGY PREDICTED BY IDOCK:   -3.42 KCAL/MOL
REMARK 924 INTRA-LIGAND FREE ENERGY PREDICTED BY IDOCK:    0.04 KCAL/MOL
REMARK 927      BINDING AFFINITY PREDICTED BY RF-SCORE:    0.00 PKD
ROOT
HETATM    1  N   UNL     1     -10.870  17.888  67.120  1.00  0.00    -0.221 N  
HETATM    2  C   UNL     1     -11.012  16.844  66.246  1.00  0.00     0.171 C  
HETATM    3  H1  UNL     1     -10.975  17.749  68.126  1.00  0.00     0.000 HD 
HETATM    4  H2  UNL     1     -10.655  18.819  66.762  1.00  0.00     0.000 HD 
HETATM    5  O   UNL     1     -10.884  17.012  65.037  1.00  0.00    -0.678 OA 
ENDROOT
BRANCH   2   6
HETATM    6  C   UNL     1     -11.370  15.509  66.865  1.00  0.00    -0.079 C  
BRANCH   6   7
HETATM    7  S   UNL     1     -10.320  14.211  66.155  1.00  0.00    -0.309 S  
HETATM    8  O   UNL     1      -9.158  14.915  65.503  1.00  0.00     0.129 OA 
BRANCH   7   9
HETATM    9  C   UNL     1      -9.711  13.470  67.738  1.00  0.00    -0.226 C  
BRANCH   9  10
HETATM   10  C   UNL     1      -9.963  11.971  67.877  1.00  0.00    -0.199 A  
HETATM   11  C   UNL     1      -9.506  11.098  66.873  1.00  0.00    -0.203 A  
HETATM   12  C   UNL     1     -10.693  11.419  68.941  1.00  0.00    -0.248 A  
HETATM   13  C   UNL     1      -9.773   9.727  66.931  1.00  0.00    -0.243 A  
HETATM   14  C   UNL     1     -10.510   9.205  67.986  1.00  0.00    -0.276 A  
HETATM   15  C   UNL     1     -10.972  10.050  68.992  1.00  0.00    -0.249 A  
ENDBRANCH   9  10
BRANCH   9  16
HETATM   16  C   UNL     1      -8.247  13.853  67.966  1.00  0.00    -0.161 A  
HETATM   17  C   UNL     1      -5.886  13.261  67.876  1.00  0.00    -0.135 A  
HETATM   18  C   UNL     1      -6.542  15.390  68.794  1.00  0.00    -0.106 A  
HETATM   19  C   UNL     1      -7.225  12.953  67.623  1.00  0.00    -0.147 A  
HETATM   20  C   UNL     1      -7.880  15.081  68.548  1.00  0.00    -0.137 A  
HETATM   21  C   UNL     1      -5.545  14.479  68.463  1.00  0.00    -0.098 A  
ENDBRANCH   9  16
ENDBRANCH   7   9
ENDBRANCH   6   7
ENDBRANCH   2   6
TORSDOF 5
ENDMDL
MODEL      224
REMARK 921   NORMALIZED FREE ENERGY PREDICTED BY IDOCK:   -0.56 KCAL/MOL
REMARK 922        TOTAL FREE ENERGY PREDICTED BY IDOCK:   -1.72 KCAL/MOL
REMARK 923 INTER-LIGAND FREE ENERGY PREDICTED BY IDOCK:   -0.93 KCAL/MOL
REMARK 924 INTRA-LIGAND FREE ENERGY PREDICTED BY IDOCK:   -0.79 KCAL/MOL
REMARK 927      BINDING AFFINITY PREDICTED BY RF-SCORE:    0.00 PKD
ROOT
HETATM    1  N   UNL     1      -8.950   6.838  71.031  1.00  0.00    -0.145 N  
HETATM    2  C   UNL     1      -9.703   7.957  70.794  1.00  0.00    -0.172 C  
HETATM    3  H1  UNL     1      -8.194   6.571  70.400  1.00  0.00     0.000 HD 
HETATM    4  H2  UNL     1      -9.147   6.262  71.850  1.00  0.00     0.000 HD 
HETATM    5  O   UNL     1     -10.612   8.277  71.554  1.00  0.00    -0.215 OA 
ENDROOT
BRANCH   2   6
HETATM    6  C   UNL     1      -9.366   8.725  69.534  1.00  0.00    -0.157 C  
BRANCH   6   7
HETATM    7  S   UNL     1      -8.968  10.443  69.962  1.00  0.00     0.519 S  
HETATM    8  O   UNL     1      -7.803  10.384  70.914  1.00  0.00     0.423 OA 
BRANCH   7   9
HETATM    9  C   UNL     1      -8.319  10.981  68.313  1.00  0.00    -0.133 C  
BRANCH   9  10
HETATM   10  C   UNL     1      -9.382  11.134  67.229  1.00  0.00    -0.170 A  
HETATM   11  C   UNL     1     -10.733  11.268  67.602  1.00  0.00    -0.270 A  
HETATM   12  C   UNL     1      -9.083  11.082  65.859  1.00  0.00    -0.214 A  
HETATM   13  C   UNL     1     -11.743  11.345  66.638  1.00  0.00     0.178 A  
HETATM   14  C   UNL     1     -11.425  11.278  65.288  1.00  0.00     0.126 A  
HETATM   15  C   UNL     1     -10.095  11.145  64.896  1.00  0.00    -0.345 A  
ENDBRANCH   9  10
BRANCH   9  16
HETATM   16  C   UNL     1      -7.448  12.228  68.476  1.00  0.00    -0.113 A  
HETATM   17  C   UNL     1      -7.266  14.613  68.940  1.00  0.00    -0.124 A  
HETATM   18  C   UNL     1      -5.293  13.367  68.341  1.00  0.00    -0.093 A  
HETATM   19  C   UNL     1      -8.036  13.451  68.842  1.00  0.00     0.114 A  
HETATM   20  C   UNL     1      -6.062  12.207  68.235  1.00  0.00    -0.052 A  
HETATM   21  C   UNL     1      -5.896  14.571  68.688  1.00  0.00    -0.090 A  
ENDBRANCH   9  16
ENDBRANCH   7   9
ENDBRANCH   6   7
ENDBRANCH   2   6
TORSDOF 5
ENDMDL
MODEL      225
REMARK 921   NORMALIZED FREE ENERGY PREDICTED BY IDOCK:    0.18 KCAL/MOL
REMARK 922        TOTAL FREE ENERGY PREDICTED BY IDOCK:   -0.76 KCAL/MOL
REMARK 923 INTER-LIGAND FREE ENERGY PREDICTED BY IDOCK:   -0.43 KCAL/MOL
REMARK 924 INTRA-LIGAND FREE ENERGY PREDICTED BY IDOCK:   -0.33 KCAL/MOL
REMARK 927      BINDING AFFINITY PREDICTED BY RF-SCORE:    0.00 PKD
ROOT
HETATM    1  N   UNL     1      -5.782  10.442  68.485  1.00  0.00    -0.037 N  
HETATM    2  C   UNL     1      -6.587   9.342  68.350  1.00  0.00    -0.054 C  
HETATM    3  H1  UNL     1      -5.993  11.310  67.993  1.00  0.00     0.000 HD 
HETATM    4  H2  UNL     1      -4.959  10.392  69.086  1.00  0.00     0.000 HD 
HETATM    5  O   UNL     1      -6.333   8.298  68.942  1.00  0.00    -0.043 OA 
ENDROOT
BRANCH   2   6
HETATM    6  C   UNL     1      -7.761   9.496  67.406  1.00  0.00    -0.095 C  
BRANCH   6   7
HETATM    7  S   UNL     1      -9.079  10.433  68.227  1.00  0.00    -0.150 S  
HETATM    8  O   UNL     1      -8.498  10.938  69.522  1.00  0.00     0.001 OA 
BRANCH   7   9
HETATM    9  C   UNL     1      -9.155  11.863  67.052  1.00  0.00    -0.191 C  
BRANCH   9  10
HETATM   10  C   UNL     1     -10.557  12.418  66.816  1.00  0.00    -0.250 A  
HETATM   11  C   UNL     1     -11.084  12.428  65.511  1.00  0.00    -0.338 A  
HETATM   12  C   UNL     1     -11.332  12.985  67.839  1.00  0.00    -0.327 A  
HETATM   13  C   UNL     1     -12.337  12.987  65.243  1.00  0.00    -0.537 A  
HETATM   14  C   UNL     1     -13.080  13.556  66.269  1.00  0.00     0.688 A  
HETATM   15  C   UNL     1     -12.579  13.557  67.568  1.00  0.00     0.420 A  
ENDBRANCH   9  10
BRANCH   9  16
HETATM   16  C   UNL     1      -8.150  12.938  67.470  1.00  0.00    -0.181 A  
HETATM   17  C   UNL     1      -7.635  14.940  68.759  1.00  0.00    -0.135 A  
HETATM   18  C   UNL     1      -5.973  14.024  67.276  1.00  0.00     0.489 A  
HETATM   19  C   UNL     1      -8.520  13.917  68.407  1.00  0.00    -0.159 A  
HETATM   20  C   UNL     1      -6.857  13.006  66.918  1.00  0.00     0.612 A  
HETATM   21  C   UNL     1      -6.363  14.994  68.192  1.00  0.00    -0.140 A  
ENDBRANCH   9  16
ENDBRANCH   7   9
ENDBRANCH   6   7
ENDBRANCH   2   6
TORSDOF 5
ENDMDL
MODEL      226
REMARK 921   NORMALIZED FREE ENERGY PREDICTED BY IDOCK:   21.05 KCAL/MOL
REMARK 922        TOTAL FREE ENERGY PREDICTED BY IDOCK:   26.20 KCAL/MOL
REMARK 923 INTER-LIGAND FREE ENERGY PREDICTED BY IDOCK:    2.35 KCAL/MOL
REMARK 924 INTRA-LIGAND FREE ENERGY PREDICTED BY IDOCK:   23.85 KCAL/MOL
REMARK 927      BINDING AFFINITY PREDICTED BY RF-SCORE:    0.00 PKD
ROOT
HETATM    1  N   UNL     1      -6.476  10.897  66.765  1.00  0.00    -0.104 N  
HETATM    2  C   UNL     1      -6.420   9.535  66.630  1.00  0.00    -0.067 C  
HETATM    3  H1  UNL     1      -6.631  11.499  65.956  1.00  0.00     0.000 HD 
HETATM    4  H2  UNL     1      -6.363  11.317  67.689  1.00  0.00     0.000 HD 
HETATM    5  O   UNL     1      -6.235   8.812  67.604  1.00  0.00    -0.051 OA 
ENDROOT
BRANCH   2   6
HETATM    6  C   UNL     1      -6.558   9.006  65.218  1.00  0.00    -0.068 C  
BRANCH   6   7
HETATM    7  S   UNL     1      -6.435  10.381  64.042  1.00  0.00     0.049 S  
HETATM    8  O   UNL     1      -6.972   9.868  62.731  1.00  0.00    -0.111 OA 
BRANCH   7   9
HETATM    9  C   UNL     1      -7.726  11.480  64.786  1.00  0.00     1.496 C  
BRANCH   9  10
HETATM   10  C   UNL     1      -9.099  11.384  64.128  1.00  0.00     0.101 A  
HETATM   11  C   UNL     1      -9.416  10.252  63.354  1.00  0.00    -0.340 A  
HETATM   12  C   UNL     1     -10.053  12.412  64.205  1.00  0.00    -0.322 A  
HETATM   13  C   UNL     1     -10.638  10.155  62.681  1.00  0.00     1.809 A  
HETATM   14  C   UNL     1     -11.560  11.191  62.761  1.00  0.00     1.117 A  
HETATM   15  C   UNL     1     -11.269  12.321  63.521  1.00  0.00    -0.535 A  
ENDBRANCH   9  10
BRANCH   9  16
HETATM   16  C   UNL     1      -7.775  11.279  66.302  1.00  0.00    -0.053 A  
HETATM   17  C   UNL     1      -8.685  10.107  68.233  1.00  0.00    -0.120 A  
HETATM   18  C   UNL     1      -7.151  11.934  68.569  1.00  0.00    -0.089 A  
HETATM   19  C   UNL     1      -8.584  10.269  66.849  1.00  0.00    -0.127 A  
HETATM   20  C   UNL     1      -7.054  12.102  67.187  1.00  0.00    -0.120 A  
HETATM   21  C   UNL     1      -7.970  10.940  69.092  1.00  0.00    -0.114 A  
ENDBRANCH   9  16
ENDBRANCH   7   9
ENDBRANCH   6   7
ENDBRANCH   2   6
TORSDOF 5
ENDMDL
