MODEL        1
REMARK 921   NORMALIZED FREE ENERGY PREDICTED BY IDOCK:   -7.03 KCAL/MOL
REMARK 922        TOTAL FREE ENERGY PREDICTED BY IDOCK:   -9.39 KCAL/MOL
REMARK 923 INTER-LIGAND FREE ENERGY PREDICTED BY IDOCK:   -8.67 KCAL/MOL
REMARK 924 INTRA-LIGAND FREE ENERGY PREDICTED BY IDOCK:   -0.72 KCAL/MOL
REMARK 927      BINDING AFFINITY PREDICTED BY RF-SCORE:    0.00 PKD
ROOT
HETATM    1  C   UNL     1     -10.659   9.861  70.032  1.00  0.00    -0.335 C  
HETATM    2  C   UNL     1     -11.049   9.412  71.466  1.00  0.00    -0.446 C  
HETATM    3  C   UNL     1     -10.216   8.235  71.976  1.00  0.00    -0.339 C  
HETATM    4  C   UNL     1     -10.205   7.031  71.012  1.00  0.00    -0.209 C  
HETATM    5  C   UNL     1     -10.685   5.744  71.677  1.00  0.00    -0.314 C  
HETATM    6  C   UNL     1     -10.970   7.382  69.706  1.00  0.00    -0.215 C  
HETATM    7  C   UNL     1     -11.071   6.228  68.720  1.00  0.00    -0.424 C  
HETATM    8  C   UNL     1      -9.735   5.936  68.081  1.00  0.00    -0.143 C  
HETATM    9  C   UNL     1      -9.189   7.131  67.259  1.00  0.00    -0.130 C  
HETATM   10  C   UNL     1      -8.375   6.501  66.115  1.00  0.00    -0.129 C  
HETATM   11  O   UNL     1      -8.271   7.939  67.994  1.00  0.00    -0.124 OA 
HETATM   12  O   UNL     1      -8.881   8.526  69.190  1.00  0.00    -0.140 OA 
HETATM   13  C   UNL     1     -10.321   8.659  69.091  1.00  0.00    -0.217 C  
HETATM   14  C   UNL     1     -10.770   8.904  67.625  1.00  0.00    -0.151 C  
HETATM   15  O   UNL     1     -10.541  10.258  67.200  1.00  0.00    -0.247 OA 
HETATM   16  O   UNL     1     -10.203   7.962  66.689  1.00  0.00    -0.278 OA 
HETATM   17  C   UNL     1     -11.176  11.256  68.016  1.00  0.00    -0.287 C  
HETATM   18  C   UNL     1     -11.731  10.761  69.381  1.00  0.00    -0.378 C  
HETATM   19  C   UNL     1     -12.153  11.921  70.292  1.00  0.00    -0.409 C  
ENDROOT
BRANCH  17  20
HETATM   20  O   UNL     1     -12.118  12.085  67.289  1.00  0.00    -0.572 OA 
BRANCH  20  21
HETATM   21  C   UNL     1     -11.702  13.286  66.823  1.00  0.00    -0.385 C  
HETATM   22  O   UNL     1     -10.749  13.921  67.256  1.00  0.00    -0.280 OA 
BRANCH  21  23
HETATM   23  C   UNL     1     -12.542  13.748  65.657  1.00  0.00    -0.551 C  
BRANCH  23  24
HETATM   24  C   UNL     1     -11.858  13.560  64.319  1.00  0.00    -0.471 C  
HETATM   25  C   UNL     1     -12.112  12.181  63.761  1.00  0.00    -0.525 C  
HETATM   26  O   UNL     1     -13.136  11.870  63.175  1.00  0.00    -0.605 OA 
HETATM   27  O   UNL     1     -11.105  11.313  63.981  1.00  0.00    -0.372 OA 
ENDBRANCH  23  24
ENDBRANCH  21  23
ENDBRANCH  20  21
ENDBRANCH  17  20
TORSDOF 4
ENDMDL
MODEL        2
REMARK 921   NORMALIZED FREE ENERGY PREDICTED BY IDOCK:   -7.02 KCAL/MOL
REMARK 922        TOTAL FREE ENERGY PREDICTED BY IDOCK:   -9.39 KCAL/MOL
REMARK 923 INTER-LIGAND FREE ENERGY PREDICTED BY IDOCK:   -8.96 KCAL/MOL
REMARK 924 INTRA-LIGAND FREE ENERGY PREDICTED BY IDOCK:   -0.42 KCAL/MOL
REMARK 927      BINDING AFFINITY PREDICTED BY RF-SCORE:    0.00 PKD
ROOT
HETATM    1  C   UNL     1      -9.928  10.523  67.264  1.00  0.00    -0.224 C  
HETATM    2  C   UNL     1      -9.151   9.361  66.590  1.00  0.00    -0.181 C  
HETATM    3  C   UNL     1      -8.274   9.820  65.423  1.00  0.00    -0.131 C  
HETATM    4  C   UNL     1      -9.043  10.644  64.369  1.00  0.00    -0.240 C  
HETATM    5  C   UNL     1      -8.937  10.049  62.969  1.00  0.00    -0.272 C  
HETATM    6  C   UNL     1     -10.505  10.885  64.838  1.00  0.00    -0.352 C  
HETATM    7  C   UNL     1     -11.362  11.634  63.829  1.00  0.00    -0.482 C  
HETATM    8  C   UNL     1     -10.955  13.085  63.736  1.00  0.00    -0.316 C  
HETATM    9  C   UNL     1     -11.137  13.846  65.073  1.00  0.00    -0.353 C  
HETATM   10  C   UNL     1     -11.471  15.295  64.675  1.00  0.00    -0.356 C  
HETATM   11  O   UNL     1      -9.936  13.918  65.841  1.00  0.00    -0.299 OA 
HETATM   12  O   UNL     1      -9.429  12.592  66.205  1.00  0.00    -0.239 OA 
HETATM   13  C   UNL     1     -10.460  11.574  66.236  1.00  0.00    -0.251 C  
HETATM   14  C   UNL     1     -11.835  12.169  66.647  1.00  0.00    -0.237 C  
HETATM   15  O   UNL     1     -11.927  12.411  68.060  1.00  0.00    -0.371 OA 
HETATM   16  O   UNL     1     -12.196  13.346  65.893  1.00  0.00    -0.416 OA 
HETATM   17  C   UNL     1     -11.696  11.254  68.881  1.00  0.00    -0.341 C  
HETATM   18  C   UNL     1     -11.083  10.023  68.158  1.00  0.00    -0.252 C  
HETATM   19  C   UNL     1     -10.631   8.935  69.142  1.00  0.00    -0.211 C  
ENDROOT
BRANCH  17  20
HETATM   20  O   UNL     1     -12.824  10.910  69.727  1.00  0.00    -0.163 OA 
BRANCH  20  21
HETATM   21  C   UNL     1     -12.774  11.233  71.040  1.00  0.00    -0.359 C  
HETATM   22  O   UNL     1     -12.759  10.431  71.966  1.00  0.00    -0.397 OA 
BRANCH  21  23
HETATM   23  C   UNL     1     -12.699  12.727  71.240  1.00  0.00    -0.364 C  
BRANCH  23  24
HETATM   24  C   UNL     1     -13.694  13.243  72.258  1.00  0.00    -0.686 C  
HETATM   25  C   UNL     1     -13.433  14.689  72.598  1.00  0.00    -0.483 C  
HETATM   26  O   UNL     1     -13.802  15.622  71.904  1.00  0.00    -0.471 OA 
HETATM   27  O   UNL     1     -12.737  14.860  73.740  1.00  0.00    -0.517 OA 
ENDBRANCH  23  24
ENDBRANCH  21  23
ENDBRANCH  20  21
ENDBRANCH  17  20
TORSDOF 4
ENDMDL
MODEL        3
REMARK 921   NORMALIZED FREE ENERGY PREDICTED BY IDOCK:   -7.02 KCAL/MOL
REMARK 922        TOTAL FREE ENERGY PREDICTED BY IDOCK:   -9.38 KCAL/MOL
REMARK 923 INTER-LIGAND FREE ENERGY PREDICTED BY IDOCK:   -8.96 KCAL/MOL
REMARK 924 INTRA-LIGAND FREE ENERGY PREDICTED BY IDOCK:   -0.42 KCAL/MOL
REMARK 927      BINDING AFFINITY PREDICTED BY RF-SCORE:    0.00 PKD
ROOT
HETATM    1  C   UNL     1     -10.771   9.930  70.151  1.00  0.00    -0.361 C  
HETATM    2  C   UNL     1     -11.282   9.548  71.566  1.00  0.00    -0.437 C  
HETATM    3  C   UNL     1     -10.517   8.378  72.188  1.00  0.00    -0.396 C  
HETATM    4  C   UNL     1     -10.458   7.135  71.278  1.00  0.00    -0.219 C  
HETATM    5  C   UNL     1     -11.017   5.886  71.954  1.00  0.00    -0.321 C  
HETATM    6  C   UNL     1     -11.110   7.445  69.902  1.00  0.00    -0.208 C  
HETATM    7  C   UNL     1     -11.159   6.253  68.958  1.00  0.00    -0.446 C  
HETATM    8  C   UNL     1      -9.783   5.910  68.439  1.00  0.00    -0.151 C  
HETATM    9  C   UNL     1      -9.149   7.059  67.616  1.00  0.00    -0.122 C  
HETATM   10  C   UNL     1      -8.261   6.366  66.566  1.00  0.00    -0.113 C  
HETATM   11  O   UNL     1      -8.273   7.879  68.388  1.00  0.00    -0.121 OA 
HETATM   12  O   UNL     1      -8.962   8.527  69.507  1.00  0.00    -0.146 OA 
HETATM   13  C   UNL     1     -10.387   8.683  69.289  1.00  0.00    -0.221 C  
HETATM   14  C   UNL     1     -10.714   8.875  67.783  1.00  0.00    -0.137 C  
HETATM   15  O   UNL     1     -10.423  10.205  67.323  1.00  0.00    -0.224 OA 
HETATM   16  O   UNL     1     -10.096   7.884  66.934  1.00  0.00    -0.239 OA 
HETATM   17  C   UNL     1     -11.097  11.248  68.046  1.00  0.00    -0.266 C  
HETATM   18  C   UNL     1     -11.769  10.821  69.382  1.00  0.00    -0.378 C  
HETATM   19  C   UNL     1     -12.235  12.026  70.209  1.00  0.00    -0.348 C  
ENDROOT
BRANCH  17  20
HETATM   20  O   UNL     1     -11.961  12.063  67.213  1.00  0.00    -0.591 OA 
BRANCH  20  21
HETATM   21  C   UNL     1     -11.644  13.366  67.028  1.00  0.00    -0.356 C  
HETATM   22  O   UNL     1     -10.827  13.996  67.688  1.00  0.00    -0.257 OA 
BRANCH  21  23
HETATM   23  C   UNL     1     -12.400  13.959  65.863  1.00  0.00    -0.517 C  
BRANCH  23  24
HETATM   24  C   UNL     1     -11.519  14.241  64.664  1.00  0.00    -0.389 C  
HETATM   25  C   UNL     1     -11.052  15.676  64.652  1.00  0.00    -0.373 C  
HETATM   26  O   UNL     1     -10.115  16.085  65.318  1.00  0.00    -0.475 OA 
HETATM   27  O   UNL     1     -11.776  16.475  63.844  1.00  0.00    -1.148 OA 
ENDBRANCH  23  24
ENDBRANCH  21  23
ENDBRANCH  20  21
ENDBRANCH  17  20
TORSDOF 4
ENDMDL
MODEL        4
REMARK 921   NORMALIZED FREE ENERGY PREDICTED BY IDOCK:   -6.98 KCAL/MOL
REMARK 922        TOTAL FREE ENERGY PREDICTED BY IDOCK:   -9.34 KCAL/MOL
REMARK 923 INTER-LIGAND FREE ENERGY PREDICTED BY IDOCK:   -8.56 KCAL/MOL
REMARK 924 INTRA-LIGAND FREE ENERGY PREDICTED BY IDOCK:   -0.78 KCAL/MOL
REMARK 927      BINDING AFFINITY PREDICTED BY RF-SCORE:    0.00 PKD
ROOT
HETATM    1  C   UNL     1     -12.397  13.635  69.815  1.00  0.00    -0.285 C  
HETATM    2  C   UNL     1     -12.066  15.141  69.995  1.00  0.00    -0.384 C  
HETATM    3  C   UNL     1     -11.659  15.829  68.691  1.00  0.00    -0.392 C  
HETATM    4  C   UNL     1     -10.516  15.106  67.950  1.00  0.00    -0.245 C  
HETATM    5  C   UNL     1      -9.319  16.016  67.689  1.00  0.00    -0.214 C  
HETATM    6  C   UNL     1     -10.149  13.787  68.685  1.00  0.00    -0.195 C  
HETATM    7  C   UNL     1      -8.981  13.037  68.063  1.00  0.00    -0.199 C  
HETATM    8  C   UNL     1      -9.372  12.413  66.744  1.00  0.00    -0.220 C  
HETATM    9  C   UNL     1     -10.503  11.364  66.889  1.00  0.00    -0.240 C  
HETATM   10  C   UNL     1     -10.241  10.327  65.782  1.00  0.00    -0.289 C  
HETATM   11  O   UNL     1     -11.798  11.901  66.623  1.00  0.00    -0.591 OA 
HETATM   12  O   UNL     1     -12.147  12.989  67.540  1.00  0.00    -0.333 OA 
HETATM   13  C   UNL     1     -11.441  12.921  68.804  1.00  0.00    -0.303 C  
HETATM   14  C   UNL     1     -11.135  11.453  69.207  1.00  0.00    -0.254 C  
HETATM   15  O   UNL     1     -12.289  10.776  69.731  1.00  0.00    -0.327 OA 
HETATM   16  O   UNL     1     -10.518  10.688  68.149  1.00  0.00    -0.167 OA 
HETATM   17  C   UNL     1     -12.892  11.416  70.867  1.00  0.00    -0.232 C  
HETATM   18  C   UNL     1     -12.421  12.869  71.154  1.00  0.00    -0.344 C  
HETATM   19  C   UNL     1     -13.291  13.565  72.210  1.00  0.00    -0.628 C  
ENDROOT
BRANCH  17  20
HETATM   20  O   UNL     1     -12.918  10.584  72.054  1.00  0.00    -0.458 OA 
BRANCH  20  21
HETATM   21  C   UNL     1     -13.203   9.267  71.919  1.00  0.00    -0.423 C  
HETATM   22  O   UNL     1     -14.227   8.813  71.423  1.00  0.00    -0.368 OA 
BRANCH  21  23
HETATM   23  C   UNL     1     -12.075   8.402  72.425  1.00  0.00    -0.443 C  
BRANCH  23  24
HETATM   24  C   UNL     1     -10.734   8.759  71.820  1.00  0.00    -0.413 C  
HETATM   25  C   UNL     1     -10.345   7.786  70.734  1.00  0.00    -0.203 C  
HETATM   26  O   UNL     1     -10.770   7.845  69.592  1.00  0.00    -0.244 OA 
HETATM   27  O   UNL     1      -9.489   6.829  71.145  1.00  0.00    -0.163 OA 
ENDBRANCH  23  24
ENDBRANCH  21  23
ENDBRANCH  20  21
ENDBRANCH  17  20
TORSDOF 4
ENDMDL
MODEL        5
REMARK 921   NORMALIZED FREE ENERGY PREDICTED BY IDOCK:   -6.92 KCAL/MOL
REMARK 922        TOTAL FREE ENERGY PREDICTED BY IDOCK:   -9.26 KCAL/MOL
REMARK 923 INTER-LIGAND FREE ENERGY PREDICTED BY IDOCK:   -8.74 KCAL/MOL
REMARK 924 INTRA-LIGAND FREE ENERGY PREDICTED BY IDOCK:   -0.52 KCAL/MOL
REMARK 927      BINDING AFFINITY PREDICTED BY RF-SCORE:    0.00 PKD
ROOT
HETATM    1  C   UNL     1     -11.063   9.593  70.888  1.00  0.00    -0.422 C  
HETATM    2  C   UNL     1     -11.691   9.057  72.202  1.00  0.00    -0.366 C  
HETATM    3  C   UNL     1     -10.929   7.869  72.793  1.00  0.00    -0.456 C  
HETATM    4  C   UNL     1     -10.711   6.721  71.787  1.00  0.00    -0.250 C  
HETATM    5  C   UNL     1     -11.265   5.391  72.286  1.00  0.00    -0.235 C  
HETATM    6  C   UNL     1     -11.237   7.130  70.383  1.00  0.00    -0.320 C  
HETATM    7  C   UNL     1     -11.126   6.032  69.337  1.00  0.00    -0.445 C  
HETATM    8  C   UNL     1      -9.688   5.802  68.937  1.00  0.00    -0.174 C  
HETATM    9  C   UNL     1      -9.038   7.052  68.290  1.00  0.00    -0.126 C  
HETATM   10  C   UNL     1      -8.013   6.502  67.282  1.00  0.00    -0.113 C  
HETATM   11  O   UNL     1      -8.291   7.835  69.220  1.00  0.00    -0.132 OA 
HETATM   12  O   UNL     1      -9.124   8.342  70.314  1.00  0.00    -0.147 OA 
HETATM   13  C   UNL     1     -10.525   8.453  69.963  1.00  0.00    -0.224 C  
HETATM   14  C   UNL     1     -10.710   8.771  68.454  1.00  0.00    -0.062 C  
HETATM   15  O   UNL     1     -10.448  10.150  68.148  1.00  0.00    -0.181 OA 
HETATM   16  O   UNL     1      -9.957   7.894  67.589  1.00  0.00    -0.159 OA 
HETATM   17  C   UNL     1     -11.248  11.089  68.886  1.00  0.00    -0.265 C  
HETATM   18  C   UNL     1     -12.025  10.507  70.100  1.00  0.00    -0.398 C  
HETATM   19  C   UNL     1     -12.638  11.606  70.979  1.00  0.00    -0.431 C  
ENDROOT
BRANCH  17  20
HETATM   20  O   UNL     1     -12.067  11.939  68.044  1.00  0.00    -0.541 OA 
BRANCH  20  21
HETATM   21  C   UNL     1     -11.735  13.245  67.920  1.00  0.00    -0.357 C  
HETATM   22  O   UNL     1     -11.190  13.921  68.784  1.00  0.00    -0.246 OA 
BRANCH  21  23
HETATM   23  C   UNL     1     -12.084  13.777  66.551  1.00  0.00    -0.483 C  
BRANCH  23  24
HETATM   24  C   UNL     1     -11.610  12.883  65.426  1.00  0.00    -0.386 C  
HETATM   25  C   UNL     1     -12.505  12.999  64.217  1.00  0.00    -0.315 C  
HETATM   26  O   UNL     1     -12.426  13.906  63.404  1.00  0.00    -0.833 OA 
HETATM   27  O   UNL     1     -13.418  12.012  64.121  1.00  0.00    -0.672 OA 
ENDBRANCH  23  24
ENDBRANCH  21  23
ENDBRANCH  20  21
ENDBRANCH  17  20
TORSDOF 4
ENDMDL
MODEL        6
REMARK 921   NORMALIZED FREE ENERGY PREDICTED BY IDOCK:   -6.89 KCAL/MOL
REMARK 922        TOTAL FREE ENERGY PREDICTED BY IDOCK:   -9.22 KCAL/MOL
REMARK 923 INTER-LIGAND FREE ENERGY PREDICTED BY IDOCK:   -8.69 KCAL/MOL
REMARK 924 INTRA-LIGAND FREE ENERGY PREDICTED BY IDOCK:   -0.53 KCAL/MOL
REMARK 927      BINDING AFFINITY PREDICTED BY RF-SCORE:    0.00 PKD
ROOT
HETATM    1  C   UNL     1     -11.166  13.819  65.783  1.00  0.00    -0.300 C  
HETATM    2  C   UNL     1     -10.602  13.455  64.384  1.00  0.00    -0.423 C  
HETATM    3  C   UNL     1     -10.788  11.980  64.023  1.00  0.00    -0.433 C  
HETATM    4  C   UNL     1     -10.245  11.015  65.096  1.00  0.00    -0.352 C  
HETATM    5  C   UNL     1      -9.217  10.036  64.537  1.00  0.00    -0.313 C  
HETATM    6  C   UNL     1      -9.741  11.813  66.330  1.00  0.00    -0.234 C  
HETATM    7  C   UNL     1      -9.122  10.947  67.416  1.00  0.00    -0.144 C  
HETATM    8  C   UNL     1     -10.175  10.137  68.136  1.00  0.00    -0.200 C  
HETATM    9  C   UNL     1     -11.219  11.022  68.862  1.00  0.00    -0.265 C  
HETATM   10  C   UNL     1     -11.656  10.208  70.093  1.00  0.00    -0.350 C  
HETATM   11  O   UNL     1     -12.403  11.232  68.092  1.00  0.00    -0.500 OA 
HETATM   12  O   UNL     1     -12.126  11.907  66.822  1.00  0.00    -0.593 OA 
HETATM   13  C   UNL     1     -10.914  12.701  66.848  1.00  0.00    -0.262 C  
HETATM   14  C   UNL     1     -10.641  13.277  68.264  1.00  0.00    -0.251 C  
HETATM   15  O   UNL     1     -11.476  14.406  68.567  1.00  0.00    -0.266 OA 
HETATM   16  O   UNL     1     -10.712  12.282  69.308  1.00  0.00    -0.112 OA 
HETATM   17  C   UNL     1     -11.372  15.494  67.633  1.00  0.00    -0.260 C  
HETATM   18  C   UNL     1     -10.640  15.174  66.300  1.00  0.00    -0.312 C  
HETATM   19  C   UNL     1     -10.799  16.296  65.266  1.00  0.00    -0.310 C  
ENDROOT
BRANCH  17  20
HETATM   20  O   UNL     1     -10.928  16.736  68.239  1.00  0.00    -0.361 OA 
BRANCH  20  21
HETATM   21  C   UNL     1      -9.615  16.882  68.535  1.00  0.00    -0.262 C  
HETATM   22  O   UNL     1      -8.889  16.001  68.979  1.00  0.00    -0.219 OA 
BRANCH  21  23
HETATM   23  C   UNL     1      -9.127  18.273  68.213  1.00  0.00    -0.318 C  
BRANCH  23  24
HETATM   24  C   UNL     1     -10.245  19.291  68.127  1.00  0.00    -0.515 C  
HETATM   25  C   UNL     1     -10.119  20.143  66.888  1.00  0.00    -0.455 C  
HETATM   26  O   UNL     1     -10.488  19.783  65.782  1.00  0.00    -0.511 OA 
HETATM   27  O   UNL     1      -9.543  21.341  67.110  1.00  0.00    -0.169 OA 
ENDBRANCH  23  24
ENDBRANCH  21  23
ENDBRANCH  20  21
ENDBRANCH  17  20
TORSDOF 4
ENDMDL
MODEL        7
REMARK 921   NORMALIZED FREE ENERGY PREDICTED BY IDOCK:   -6.86 KCAL/MOL
REMARK 922        TOTAL FREE ENERGY PREDICTED BY IDOCK:   -9.19 KCAL/MOL
REMARK 923 INTER-LIGAND FREE ENERGY PREDICTED BY IDOCK:   -8.39 KCAL/MOL
REMARK 924 INTRA-LIGAND FREE ENERGY PREDICTED BY IDOCK:   -0.80 KCAL/MOL
REMARK 927      BINDING AFFINITY PREDICTED BY RF-SCORE:    0.00 PKD
ROOT
HETATM    1  C   UNL     1      -9.797  10.477  66.492  1.00  0.00    -0.255 C  
HETATM    2  C   UNL     1     -10.021  10.106  65.002  1.00  0.00    -0.375 C  
HETATM    3  C   UNL     1      -9.924  11.308  64.060  1.00  0.00    -0.362 C  
HETATM    4  C   UNL     1     -10.835  12.483  64.471  1.00  0.00    -0.360 C  
HETATM    5  C   UNL     1     -11.793  12.899  63.359  1.00  0.00    -0.576 C  
HETATM    6  C   UNL     1     -11.541  12.167  65.819  1.00  0.00    -0.414 C  
HETATM    7  C   UNL     1     -12.516  13.243  66.273  1.00  0.00    -0.283 C  
HETATM    8  C   UNL     1     -11.787  14.484  66.730  1.00  0.00    -0.390 C  
HETATM    9  C   UNL     1     -10.867  14.223  67.950  1.00  0.00    -0.253 C  
HETATM   10  C   UNL     1     -10.861  15.542  68.744  1.00  0.00    -0.256 C  
HETATM   11  O   UNL     1      -9.510  13.982  67.582  1.00  0.00    -0.200 OA 
HETATM   12  O   UNL     1      -9.369  12.805  66.720  1.00  0.00    -0.230 OA 
HETATM   13  C   UNL     1     -10.444  11.847  66.880  1.00  0.00    -0.222 C  
HETATM   14  C   UNL     1     -11.002  11.854  68.329  1.00  0.00    -0.230 C  
HETATM   15  O   UNL     1     -10.145  11.158  69.250  1.00  0.00    -0.159 OA 
HETATM   16  O   UNL     1     -11.320  13.177  68.813  1.00  0.00    -0.254 OA 
HETATM   17  C   UNL     1      -9.877   9.791  68.899  1.00  0.00    -0.173 C  
HETATM   18  C   UNL     1     -10.274   9.372  67.456  1.00  0.00    -0.288 C  
HETATM   19  C   UNL     1      -9.723   7.990  67.080  1.00  0.00    -0.275 C  
ENDROOT
BRANCH  17  20
HETATM   20  O   UNL     1     -10.311   8.840  69.905  1.00  0.00    -0.195 OA 
BRANCH  20  21
HETATM   21  C   UNL     1      -9.846   8.973  71.170  1.00  0.00    -0.300 C  
HETATM   22  O   UNL     1      -8.683   9.203  71.475  1.00  0.00    -0.334 OA 
BRANCH  21  23
HETATM   23  C   UNL     1     -10.956   8.842  72.184  1.00  0.00    -0.404 C  
BRANCH  23  24
HETATM   24  C   UNL     1     -12.249   8.327  71.587  1.00  0.00    -0.350 C  
HETATM   25  C   UNL     1     -13.316   9.395  71.584  1.00  0.00    -0.404 C  
HETATM   26  O   UNL     1     -13.387  10.275  70.741  1.00  0.00    -0.349 OA 
HETATM   27  O   UNL     1     -14.183   9.298  72.612  1.00  0.00    -0.498 OA 
ENDBRANCH  23  24
ENDBRANCH  21  23
ENDBRANCH  20  21
ENDBRANCH  17  20
TORSDOF 4
ENDMDL
MODEL        8
REMARK 921   NORMALIZED FREE ENERGY PREDICTED BY IDOCK:   -6.83 KCAL/MOL
REMARK 922        TOTAL FREE ENERGY PREDICTED BY IDOCK:   -9.15 KCAL/MOL
REMARK 923 INTER-LIGAND FREE ENERGY PREDICTED BY IDOCK:   -8.38 KCAL/MOL
REMARK 924 INTRA-LIGAND FREE ENERGY PREDICTED BY IDOCK:   -0.77 KCAL/MOL
REMARK 927      BINDING AFFINITY PREDICTED BY RF-SCORE:    0.00 PKD
ROOT
HETATM    1  C   UNL     1     -11.161  13.395  65.654  1.00  0.00    -0.307 C  
HETATM    2  C   UNL     1     -10.646  12.988  64.248  1.00  0.00    -0.434 C  
HETATM    3  C   UNL     1     -10.759  11.486  63.976  1.00  0.00    -0.445 C  
HETATM    4  C   UNL     1     -10.104  10.617  65.069  1.00  0.00    -0.388 C  
HETATM    5  C   UNL     1      -9.046   9.670  64.509  1.00  0.00    -0.287 C  
HETATM    6  C   UNL     1      -9.589  11.512  66.230  1.00  0.00    -0.239 C  
HETATM    7  C   UNL     1      -8.865  10.746  67.327  1.00  0.00    -0.133 C  
HETATM    8  C   UNL     1      -9.828   9.917  68.143  1.00  0.00    -0.167 C  
HETATM    9  C   UNL     1     -10.888  10.778  68.875  1.00  0.00    -0.227 C  
HETATM   10  C   UNL     1     -11.212  10.010  70.170  1.00  0.00    -0.367 C  
HETATM   11  O   UNL     1     -12.119  10.874  68.160  1.00  0.00    -0.563 OA 
HETATM   12  O   UNL     1     -11.948  11.492  66.842  1.00  0.00    -0.516 OA 
HETATM   13  C   UNL     1     -10.788  12.356  66.762  1.00  0.00    -0.248 C  
HETATM   14  C   UNL     1     -10.481  13.026  68.129  1.00  0.00    -0.245 C  
HETATM   15  O   UNL     1     -11.368  14.119  68.416  1.00  0.00    -0.258 OA 
HETATM   16  O   UNL     1     -10.438  12.089  69.226  1.00  0.00    -0.048 OA 
HETATM   17  C   UNL     1     -11.378  15.157  67.421  1.00  0.00    -0.306 C  
HETATM   18  C   UNL     1     -10.695  14.806  66.070  1.00  0.00    -0.314 C  
HETATM   19  C   UNL     1     -10.974  15.857  64.987  1.00  0.00    -0.426 C  
ENDROOT
BRANCH  17  20
HETATM   20  O   UNL     1     -10.983  16.455  67.936  1.00  0.00    -0.339 OA 
BRANCH  20  21
HETATM   21  C   UNL     1     -10.320  16.512  69.115  1.00  0.00    -0.316 C  
HETATM   22  O   UNL     1     -10.846  16.569  70.220  1.00  0.00    -0.294 OA 
BRANCH  21  23
HETATM   23  C   UNL     1      -8.826  16.458  68.913  1.00  0.00    -0.256 C  
BRANCH  23  24
HETATM   24  C   UNL     1      -8.332  17.429  67.861  1.00  0.00    -0.230 C  
HETATM   25  C   UNL     1      -8.236  18.831  68.410  1.00  0.00    -0.341 C  
HETATM   26  O   UNL     1      -7.299  19.229  69.083  1.00  0.00    -0.346 OA 
HETATM   27  O   UNL     1      -9.293  19.608  68.101  1.00  0.00    -0.334 OA 
ENDBRANCH  23  24
ENDBRANCH  21  23
ENDBRANCH  20  21
ENDBRANCH  17  20
TORSDOF 4
ENDMDL
MODEL        9
REMARK 921   NORMALIZED FREE ENERGY PREDICTED BY IDOCK:   -6.72 KCAL/MOL
REMARK 922        TOTAL FREE ENERGY PREDICTED BY IDOCK:   -9.01 KCAL/MOL
REMARK 923 INTER-LIGAND FREE ENERGY PREDICTED BY IDOCK:   -8.32 KCAL/MOL
REMARK 924 INTRA-LIGAND FREE ENERGY PREDICTED BY IDOCK:   -0.69 KCAL/MOL
REMARK 927      BINDING AFFINITY PREDICTED BY RF-SCORE:    0.00 PKD
ROOT
HETATM    1  C   UNL     1     -11.824  11.625  69.201  1.00  0.00    -0.390 C  
HETATM    2  C   UNL     1     -11.934  12.781  70.230  1.00  0.00    -0.358 C  
HETATM    3  C   UNL     1     -12.354  14.111  69.600  1.00  0.00    -0.304 C  
HETATM    4  C   UNL     1     -11.470  14.528  68.407  1.00  0.00    -0.328 C  
HETATM    5  C   UNL     1     -10.844  15.906  68.594  1.00  0.00    -0.291 C  
HETATM    6  C   UNL     1     -10.437  13.411  68.089  1.00  0.00    -0.250 C  
HETATM    7  C   UNL     1      -9.473  13.763  66.966  1.00  0.00    -0.255 C  
HETATM    8  C   UNL     1     -10.169  13.759  65.626  1.00  0.00    -0.326 C  
HETATM    9  C   UNL     1     -10.745  12.370  65.253  1.00  0.00    -0.287 C  
HETATM   10  C   UNL     1     -10.668  12.296  63.717  1.00  0.00    -0.494 C  
HETATM   11  O   UNL     1     -12.127  12.233  65.582  1.00  0.00    -0.557 OA 
HETATM   12  O   UNL     1     -12.374  12.391  67.017  1.00  0.00    -0.399 OA 
HETATM   13  C   UNL     1     -11.217  12.085  67.835  1.00  0.00    -0.264 C  
HETATM   14  C   UNL     1     -10.330  10.992  67.178  1.00  0.00    -0.220 C  
HETATM   15  O   UNL     1     -10.880   9.674  67.331  1.00  0.00    -0.274 OA 
HETATM   16  O   UNL     1     -10.015  11.267  65.796  1.00  0.00    -0.218 OA 
HETATM   17  C   UNL     1     -11.112   9.278  68.693  1.00  0.00     0.111 C  
HETATM   18  C   UNL     1     -11.040  10.415  69.750  1.00  0.00    -0.352 C  
HETATM   19  C   UNL     1     -11.550   9.964  71.125  1.00  0.00    -0.468 C  
ENDROOT
BRANCH  17  20
HETATM   20  O   UNL     1     -10.372   8.093  69.085  1.00  0.00    -0.215 OA 
BRANCH  20  21
HETATM   21  C   UNL     1     -10.966   6.883  68.956  1.00  0.00    -0.181 C  
HETATM   22  O   UNL     1     -11.072   6.255  67.909  1.00  0.00    -0.332 OA 
BRANCH  21  23
HETATM   23  C   UNL     1     -11.461   6.366  70.284  1.00  0.00    -0.468 C  
BRANCH  23  24
HETATM   24  C   UNL     1     -10.353   6.166  71.296  1.00  0.00    -0.264 C  
HETATM   25  C   UNL     1     -10.891   6.153  72.706  1.00  0.00    -0.250 C  
HETATM   26  O   UNL     1     -11.409   5.175  73.220  1.00  0.00    -0.321 OA 
HETATM   27  O   UNL     1     -10.761   7.331  73.347  1.00  0.00    -0.365 OA 
ENDBRANCH  23  24
ENDBRANCH  21  23
ENDBRANCH  20  21
ENDBRANCH  17  20
TORSDOF 4
ENDMDL
MODEL       10
REMARK 921   NORMALIZED FREE ENERGY PREDICTED BY IDOCK:   -6.67 KCAL/MOL
REMARK 922        TOTAL FREE ENERGY PREDICTED BY IDOCK:   -8.95 KCAL/MOL
REMARK 923 INTER-LIGAND FREE ENERGY PREDICTED BY IDOCK:   -8.45 KCAL/MOL
REMARK 924 INTRA-LIGAND FREE ENERGY PREDICTED BY IDOCK:   -0.50 KCAL/MOL
REMARK 927      BINDING AFFINITY PREDICTED BY RF-SCORE:    0.00 PKD
ROOT
HETATM    1  C   UNL     1     -10.900  13.568  66.164  1.00  0.00    -0.284 C  
HETATM    2  C   UNL     1     -10.727  13.789  64.637  1.00  0.00    -0.427 C  
HETATM    3  C   UNL     1     -11.064  12.549  63.806  1.00  0.00    -0.503 C  
HETATM    4  C   UNL     1     -10.309  11.284  64.263  1.00  0.00    -0.399 C  
HETATM    5  C   UNL     1      -9.501  10.646  63.137  1.00  0.00    -0.360 C  
HETATM    6  C   UNL     1      -9.473  11.588  65.537  1.00  0.00    -0.234 C  
HETATM    7  C   UNL     1      -8.637  10.413  66.022  1.00  0.00    -0.158 C  
HETATM    8  C   UNL     1      -9.507   9.335  66.623  1.00  0.00    -0.246 C  
HETATM    9  C   UNL     1     -10.293   9.822  67.867  1.00  0.00    -0.213 C  
HETATM   10  C   UNL     1     -10.438   8.582  68.768  1.00  0.00    -0.208 C  
HETATM   11  O   UNL     1     -11.622  10.238  67.558  1.00  0.00    -0.255 OA 
HETATM   12  O   UNL     1     -11.648  11.355  66.611  1.00  0.00    -0.432 OA 
HETATM   13  C   UNL     1     -10.436  12.149  66.628  1.00  0.00    -0.220 C  
HETATM   14  C   UNL     1      -9.786  12.165  68.038  1.00  0.00    -0.202 C  
HETATM   15  O   UNL     1     -10.466  13.049  68.945  1.00  0.00    -0.192 OA 
HETATM   16  O   UNL     1      -9.634  10.849  68.612  1.00  0.00    -0.176 OA 
HETATM   17  C   UNL     1     -10.555  14.412  68.497  1.00  0.00    -0.255 C  
HETATM   18  C   UNL     1     -10.201  14.657  67.003  1.00  0.00    -0.261 C  
HETATM   19  C   UNL     1     -10.568  16.075  66.545  1.00  0.00    -0.284 C  
ENDROOT
BRANCH  17  20
HETATM   20  O   UNL     1      -9.918  15.358  69.393  1.00  0.00    -0.239 OA 
BRANCH  20  21
HETATM   21  C   UNL     1     -10.676  16.320  69.968  1.00  0.00    -0.290 C  
HETATM   22  O   UNL     1     -10.487  17.526  69.865  1.00  0.00     0.075 OA 
BRANCH  21  23
HETATM   23  C   UNL     1     -11.831  15.728  70.738  1.00  0.00    -0.438 C  
BRANCH  23  24
HETATM   24  C   UNL     1     -11.483  15.398  72.174  1.00  0.00    -0.525 C  
HETATM   25  C   UNL     1     -12.722  15.134  72.994  1.00  0.00    -0.450 C  
HETATM   26  O   UNL     1     -13.317  14.069  72.992  1.00  0.00    -0.641 OA 
HETATM   27  O   UNL     1     -13.125  16.193  73.723  1.00  0.00    -0.640 OA 
ENDBRANCH  23  24
ENDBRANCH  21  23
ENDBRANCH  20  21
ENDBRANCH  17  20
TORSDOF 4
ENDMDL
MODEL       11
REMARK 921   NORMALIZED FREE ENERGY PREDICTED BY IDOCK:   -6.67 KCAL/MOL
REMARK 922        TOTAL FREE ENERGY PREDICTED BY IDOCK:   -8.95 KCAL/MOL
REMARK 923 INTER-LIGAND FREE ENERGY PREDICTED BY IDOCK:   -8.45 KCAL/MOL
REMARK 924 INTRA-LIGAND FREE ENERGY PREDICTED BY IDOCK:   -0.50 KCAL/MOL
REMARK 927      BINDING AFFINITY PREDICTED BY RF-SCORE:    0.00 PKD
ROOT
HETATM    1  C   UNL     1     -10.763   9.909  70.213  1.00  0.00    -0.367 C  
HETATM    2  C   UNL     1     -11.205   9.344  71.589  1.00  0.00    -0.431 C  
HETATM    3  C   UNL     1     -10.385   8.132  72.036  1.00  0.00    -0.320 C  
HETATM    4  C   UNL     1     -10.329   7.010  70.979  1.00  0.00    -0.216 C  
HETATM    5  C   UNL     1     -10.826   5.672  71.519  1.00  0.00    -0.297 C  
HETATM    6  C   UNL     1     -11.044   7.462  69.676  1.00  0.00    -0.129 C  
HETATM    7  C   UNL     1     -11.099   6.392  68.597  1.00  0.00    -0.393 C  
HETATM    8  C   UNL     1      -9.736   6.157  67.990  1.00  0.00    -0.122 C  
HETATM    9  C   UNL     1      -9.167   7.417  67.290  1.00  0.00    -0.131 C  
HETATM   10  C   UNL     1      -8.303   6.884  66.132  1.00  0.00    -0.130 C  
HETATM   11  O   UNL     1      -8.283   8.166  68.123  1.00  0.00    -0.126 OA 
HETATM   12  O   UNL     1      -8.944   8.652  69.337  1.00  0.00    -0.142 OA 
HETATM   13  C   UNL     1     -10.380   8.788  69.192  1.00  0.00    -0.217 C  
HETATM   14  C   UNL     1     -10.773   9.149  67.734  1.00  0.00    -0.179 C  
HETATM   15  O   UNL     1     -10.536  10.533  67.429  1.00  0.00    -0.226 OA 
HETATM   16  O   UNL     1     -10.163   8.288  66.748  1.00  0.00    -0.279 OA 
HETATM   17  C   UNL     1     -11.209  11.460  68.298  1.00  0.00    -0.263 C  
HETATM   18  C   UNL     1     -11.814  10.854  69.595  1.00  0.00    -0.416 C  
HETATM   19  C   UNL     1     -12.280  11.935  70.579  1.00  0.00    -0.426 C  
ENDROOT
BRANCH  17  20
HETATM   20  O   UNL     1     -12.128  12.342  67.602  1.00  0.00    -0.502 OA 
BRANCH  20  21
HETATM   21  C   UNL     1     -11.809  12.759  66.355  1.00  0.00    -0.408 C  
HETATM   22  O   UNL     1     -12.419  12.466  65.334  1.00  0.00    -0.637 OA 
BRANCH  21  23
HETATM   23  C   UNL     1     -10.613  13.679  66.368  1.00  0.00    -0.284 C  
BRANCH  23  24
HETATM   24  C   UNL     1     -10.975  15.123  66.642  1.00  0.00    -0.318 C  
HETATM   25  C   UNL     1     -10.600  16.014  65.483  1.00  0.00    -0.398 C  
HETATM   26  O   UNL     1     -11.280  16.132  64.477  1.00  0.00    -0.583 OA 
HETATM   27  O   UNL     1      -9.430  16.661  65.653  1.00  0.00    -0.511 OA 
ENDBRANCH  23  24
ENDBRANCH  21  23
ENDBRANCH  20  21
ENDBRANCH  17  20
TORSDOF 4
ENDMDL
MODEL       12
REMARK 921   NORMALIZED FREE ENERGY PREDICTED BY IDOCK:   -6.66 KCAL/MOL
REMARK 922        TOTAL FREE ENERGY PREDICTED BY IDOCK:   -8.94 KCAL/MOL
REMARK 923 INTER-LIGAND FREE ENERGY PREDICTED BY IDOCK:   -8.31 KCAL/MOL
REMARK 924 INTRA-LIGAND FREE ENERGY PREDICTED BY IDOCK:   -0.62 KCAL/MOL
REMARK 927      BINDING AFFINITY PREDICTED BY RF-SCORE:    0.00 PKD
ROOT
HETATM    1  C   UNL     1     -10.063  10.541  67.071  1.00  0.00    -0.259 C  
HETATM    2  C   UNL     1      -9.953   9.937  65.646  1.00  0.00    -0.353 C  
HETATM    3  C   UNL     1      -9.579  10.970  64.581  1.00  0.00    -0.297 C  
HETATM    4  C   UNL     1     -10.502  12.206  64.578  1.00  0.00    -0.339 C  
HETATM    5  C   UNL     1     -11.153  12.449  63.220  1.00  0.00    -0.347 C  
HETATM    6  C   UNL     1     -11.517  12.121  65.752  1.00  0.00    -0.414 C  
HETATM    7  C   UNL     1     -12.516  13.268  65.789  1.00  0.00    -0.480 C  
HETATM    8  C   UNL     1     -11.853  14.557  66.210  1.00  0.00    -0.354 C  
HETATM    9  C   UNL     1     -11.256  14.486  67.639  1.00  0.00    -0.322 C  
HETATM   10  C   UNL     1     -11.369  15.915  68.199  1.00  0.00    -0.311 C  
HETATM   11  O   UNL     1      -9.864  14.172  67.646  1.00  0.00    -0.223 OA 
HETATM   12  O   UNL     1      -9.585  12.870  67.034  1.00  0.00    -0.218 OA 
HETATM   13  C   UNL     1     -10.714  11.963  67.079  1.00  0.00    -0.240 C  
HETATM   14  C   UNL     1     -11.593  12.210  68.336  1.00  0.00    -0.327 C  
HETATM   15  O   UNL     1     -11.010  11.662  69.529  1.00  0.00    -0.200 OA 
HETATM   16  O   UNL     1     -11.948  13.598  68.520  1.00  0.00    -0.356 OA 
HETATM   17  C   UNL     1     -10.736  10.253  69.467  1.00  0.00    -0.249 C  
HETATM   18  C   UNL     1     -10.806   9.611  68.053  1.00  0.00    -0.250 C  
HETATM   19  C   UNL     1     -10.253   8.180  68.036  1.00  0.00    -0.263 C  
ENDROOT
BRANCH  17  20
HETATM   20  O   UNL     1     -11.439   9.482  70.475  1.00  0.00    -0.262 OA 
BRANCH  20  21
HETATM   21  C   UNL     1     -10.750   9.040  71.554  1.00  0.00    -0.351 C  
HETATM   22  O   UNL     1      -9.553   9.212  71.747  1.00  0.00    -0.283 OA 
BRANCH  21  23
HETATM   23  C   UNL     1     -11.652   8.329  72.533  1.00  0.00    -0.454 C  
BRANCH  23  24
HETATM   24  C   UNL     1     -12.319   7.103  71.945  1.00  0.00    -0.352 C  
HETATM   25  C   UNL     1     -11.405   5.904  71.994  1.00  0.00    -0.267 C  
HETATM   26  O   UNL     1     -11.242   5.221  72.992  1.00  0.00    -0.290 OA 
HETATM   27  O   UNL     1     -10.768   5.659  70.832  1.00  0.00    -0.255 OA 
ENDBRANCH  23  24
ENDBRANCH  21  23
ENDBRANCH  20  21
ENDBRANCH  17  20
TORSDOF 4
ENDMDL
MODEL       13
REMARK 921   NORMALIZED FREE ENERGY PREDICTED BY IDOCK:   -6.62 KCAL/MOL
REMARK 922        TOTAL FREE ENERGY PREDICTED BY IDOCK:   -8.89 KCAL/MOL
REMARK 923 INTER-LIGAND FREE ENERGY PREDICTED BY IDOCK:   -8.23 KCAL/MOL
REMARK 924 INTRA-LIGAND FREE ENERGY PREDICTED BY IDOCK:   -0.66 KCAL/MOL
REMARK 927      BINDING AFFINITY PREDICTED BY RF-SCORE:    0.00 PKD
ROOT
HETATM    1  C   UNL     1      -9.763  10.107  66.761  1.00  0.00    -0.235 C  
HETATM    2  C   UNL     1      -9.143   9.068  65.788  1.00  0.00    -0.272 C  
HETATM    3  C   UNL     1      -8.409   9.710  64.609  1.00  0.00    -0.162 C  
HETATM    4  C   UNL     1      -9.269  10.732  63.838  1.00  0.00    -0.258 C  
HETATM    5  C   UNL     1      -9.383  10.399  62.353  1.00  0.00    -0.294 C  
HETATM    6  C   UNL     1     -10.640  10.921  64.543  1.00  0.00    -0.335 C  
HETATM    7  C   UNL     1     -11.586  11.863  63.814  1.00  0.00    -0.555 C  
HETATM    8  C   UNL     1     -11.122  13.296  63.923  1.00  0.00    -0.272 C  
HETATM    9  C   UNL     1     -11.083  13.804  65.386  1.00  0.00    -0.302 C  
HETATM   10  C   UNL     1     -11.393  15.310  65.302  1.00  0.00    -0.282 C  
HETATM   11  O   UNL     1      -9.788  13.704  65.977  1.00  0.00    -0.295 OA 
HETATM   12  O   UNL     1      -9.306  12.321  66.025  1.00  0.00    -0.221 OA 
HETATM   13  C   UNL     1     -10.374  11.342  66.021  1.00  0.00    -0.252 C  
HETATM   14  C   UNL     1     -11.648  11.886  66.721  1.00  0.00    -0.268 C  
HETATM   15  O   UNL     1     -11.537  11.869  68.153  1.00  0.00    -0.296 OA 
HETATM   16  O   UNL     1     -12.047  13.190  66.246  1.00  0.00    -0.403 OA 
HETATM   17  C   UNL     1     -11.258  10.576  68.715  1.00  0.00    -0.262 C  
HETATM   18  C   UNL     1     -10.810   9.482  67.706  1.00  0.00    -0.258 C  
HETATM   19  C   UNL     1     -10.287   8.222  68.408  1.00  0.00    -0.237 C  
ENDROOT
BRANCH  17  20
HETATM   20  O   UNL     1     -12.278  10.113  69.637  1.00  0.00    -0.037 OA 
BRANCH  20  21
HETATM   21  C   UNL     1     -12.105  10.333  70.962  1.00  0.00    -0.386 C  
HETATM   22  O   UNL     1     -12.667  11.205  71.613  1.00  0.00    -0.395 OA 
BRANCH  21  23
HETATM   23  C   UNL     1     -11.150   9.334  71.568  1.00  0.00    -0.443 C  
BRANCH  23  24
HETATM   24  C   UNL     1     -11.846   8.257  72.372  1.00  0.00    -0.461 C  
HETATM   25  C   UNL     1     -12.401   7.175  71.478  1.00  0.00    -0.370 C  
HETATM   26  O   UNL     1     -11.726   6.267  71.021  1.00  0.00    -0.319 OA 
HETATM   27  O   UNL     1     -13.716   7.311  71.215  1.00  0.00    -0.361 OA 
ENDBRANCH  23  24
ENDBRANCH  21  23
ENDBRANCH  20  21
ENDBRANCH  17  20
TORSDOF 4
ENDMDL
MODEL       14
REMARK 921   NORMALIZED FREE ENERGY PREDICTED BY IDOCK:   -6.50 KCAL/MOL
REMARK 922        TOTAL FREE ENERGY PREDICTED BY IDOCK:   -8.74 KCAL/MOL
REMARK 923 INTER-LIGAND FREE ENERGY PREDICTED BY IDOCK:   -8.25 KCAL/MOL
REMARK 924 INTRA-LIGAND FREE ENERGY PREDICTED BY IDOCK:   -0.49 KCAL/MOL
REMARK 927      BINDING AFFINITY PREDICTED BY RF-SCORE:    0.00 PKD
ROOT
HETATM    1  C   UNL     1      -7.485  16.186  68.638  1.00  0.00    -0.179 C  
HETATM    2  C   UNL     1      -6.115  16.565  69.260  1.00  0.00    -0.174 C  
HETATM    3  C   UNL     1      -5.998  18.052  69.601  1.00  0.00    -0.247 C  
HETATM    4  C   UNL     1      -6.331  18.979  68.414  1.00  0.00    -0.247 C  
HETATM    5  C   UNL     1      -5.194  19.942  68.086  1.00  0.00    -0.194 C  
HETATM    6  C   UNL     1      -6.811  18.141  67.197  1.00  0.00    -0.210 C  
HETATM    7  C   UNL     1      -7.098  18.966  65.952  1.00  0.00    -0.294 C  
HETATM    8  C   UNL     1      -8.354  19.788  66.119  1.00  0.00    -0.368 C  
HETATM    9  C   UNL     1      -9.617  18.916  66.333  1.00  0.00    -0.351 C  
HETATM   10  C   UNL     1     -10.774  19.714  65.706  1.00  0.00    -0.493 C  
HETATM   11  O   UNL     1      -9.955  18.755  67.710  1.00  0.00    -0.321 OA 
HETATM   12  O   UNL     1      -8.888  18.100  68.471  1.00  0.00    -0.301 OA 
HETATM   13  C   UNL     1      -8.024  17.273  67.651  1.00  0.00    -0.187 C  
HETATM   14  C   UNL     1      -8.796  16.660  66.451  1.00  0.00    -0.302 C  
HETATM   15  O   UNL     1      -9.618  15.547  66.839  1.00  0.00    -0.217 OA 
HETATM   16  O   UNL     1      -9.558  17.633  65.705  1.00  0.00    -0.503 OA 
HETATM   17  C   UNL     1      -8.909  14.477  67.486  1.00  0.00    -0.188 C  
HETATM   18  C   UNL     1      -7.462  14.807  67.947  1.00  0.00    -0.156 C  
HETATM   19  C   UNL     1      -6.875  13.712  68.848  1.00  0.00    -0.110 C  
ENDROOT
BRANCH  17  20
HETATM   20  O   UNL     1      -9.005  13.211  66.784  1.00  0.00    -0.226 OA 
BRANCH  20  21
HETATM   21  C   UNL     1     -10.232  12.695  66.540  1.00  0.00    -0.243 C  
HETATM   22  O   UNL     1     -11.200  12.790  67.284  1.00  0.00    -0.268 OA 
BRANCH  21  23
HETATM   23  C   UNL     1     -10.286  12.006  65.198  1.00  0.00    -0.308 C  
BRANCH  23  24
HETATM   24  C   UNL     1     -10.815  12.895  64.093  1.00  0.00    -0.445 C  
HETATM   25  C   UNL     1     -12.324  12.895  64.063  1.00  0.00    -0.380 C  
HETATM   26  O   UNL     1     -13.013  13.571  64.809  1.00  0.00    -0.683 OA 
HETATM   27  O   UNL     1     -12.847  12.064  63.140  1.00  0.00    -0.661 OA 
ENDBRANCH  23  24
ENDBRANCH  21  23
ENDBRANCH  20  21
ENDBRANCH  17  20
TORSDOF 4
ENDMDL
MODEL       15
REMARK 921   NORMALIZED FREE ENERGY PREDICTED BY IDOCK:   -6.49 KCAL/MOL
REMARK 922        TOTAL FREE ENERGY PREDICTED BY IDOCK:   -8.73 KCAL/MOL
REMARK 923 INTER-LIGAND FREE ENERGY PREDICTED BY IDOCK:   -8.31 KCAL/MOL
REMARK 924 INTRA-LIGAND FREE ENERGY PREDICTED BY IDOCK:   -0.41 KCAL/MOL
REMARK 927      BINDING AFFINITY PREDICTED BY RF-SCORE:    0.00 PKD
ROOT
HETATM    1  C   UNL     1     -11.125   9.808  68.552  1.00  0.00    -0.138 C  
HETATM    2  C   UNL     1     -10.393   9.582  67.203  1.00  0.00    -0.320 C  
HETATM    3  C   UNL     1     -10.030   8.117  66.951  1.00  0.00    -0.343 C  
HETATM    4  C   UNL     1      -9.244   7.474  68.111  1.00  0.00    -0.137 C  
HETATM    5  C   UNL     1      -7.909   6.890  67.660  1.00  0.00    -0.112 C  
HETATM    6  C   UNL     1      -9.121   8.473  69.295  1.00  0.00    -0.153 C  
HETATM    7  C   UNL     1      -8.299   7.949  70.463  1.00  0.00    -0.124 C  
HETATM    8  C   UNL     1      -9.039   6.865  71.209  1.00  0.00    -0.149 C  
HETATM    9  C   UNL     1     -10.366   7.366  71.834  1.00  0.00    -0.192 C  
HETATM   10  C   UNL     1     -10.557   6.527  73.110  1.00  0.00    -0.290 C  
HETATM   11  O   UNL     1     -11.503   7.097  71.015  1.00  0.00    -0.273 OA 
HETATM   12  O   UNL     1     -11.411   7.747  69.705  1.00  0.00    -0.085 OA 
HETATM   13  C   UNL     1     -10.557   8.919  69.707  1.00  0.00    -0.224 C  
HETATM   14  C   UNL     1     -10.582   9.639  71.082  1.00  0.00    -0.257 C  
HETATM   15  O   UNL     1     -11.776  10.416  71.273  1.00  0.00    -0.338 OA 
HETATM   16  O   UNL     1     -10.358   8.749  72.197  1.00  0.00    -0.331 OA 
HETATM   17  C   UNL     1     -12.008  11.412  70.262  1.00  0.00    -0.373 C  
HETATM   18  C   UNL     1     -11.137  11.290  68.980  1.00  0.00    -0.301 C  
HETATM   19  C   UNL     1     -11.622  12.218  67.859  1.00  0.00    -0.416 C  
ENDROOT
BRANCH  17  20
HETATM   20  O   UNL     1     -12.062  12.764  70.784  1.00  0.00    -0.331 OA 
BRANCH  20  21
HETATM   21  C   UNL     1     -13.159  13.151  71.476  1.00  0.00    -0.315 C  
HETATM   22  O   UNL     1     -13.747  12.470  72.308  1.00  0.00    -0.482 OA 
BRANCH  21  23
HETATM   23  C   UNL     1     -13.564  14.562  71.128  1.00  0.00    -0.368 C  
BRANCH  23  24
HETATM   24  C   UNL     1     -13.891  15.404  72.343  1.00  0.00    -0.661 C  
HETATM   25  C   UNL     1     -12.643  15.780  73.104  1.00  0.00    -0.494 C  
HETATM   26  O   UNL     1     -11.908  16.698  72.781  1.00  0.00    -0.519 OA 
HETATM   27  O   UNL     1     -12.403  14.994  74.172  1.00  0.00    -0.587 OA 
ENDBRANCH  23  24
ENDBRANCH  21  23
ENDBRANCH  20  21
ENDBRANCH  17  20
TORSDOF 4
ENDMDL
MODEL       16
REMARK 921   NORMALIZED FREE ENERGY PREDICTED BY IDOCK:   -6.47 KCAL/MOL
REMARK 922        TOTAL FREE ENERGY PREDICTED BY IDOCK:   -8.70 KCAL/MOL
REMARK 923 INTER-LIGAND FREE ENERGY PREDICTED BY IDOCK:   -8.05 KCAL/MOL
REMARK 924 INTRA-LIGAND FREE ENERGY PREDICTED BY IDOCK:   -0.66 KCAL/MOL
REMARK 927      BINDING AFFINITY PREDICTED BY RF-SCORE:    0.00 PKD
ROOT
HETATM    1  C   UNL     1     -11.016  12.283  67.265  1.00  0.00    -0.301 C  
HETATM    2  C   UNL     1     -10.010  11.627  66.282  1.00  0.00    -0.247 C  
HETATM    3  C   UNL     1     -10.134  10.104  66.220  1.00  0.00    -0.303 C  
HETATM    4  C   UNL     1     -10.061   9.428  67.604  1.00  0.00    -0.262 C  
HETATM    5  C   UNL     1      -8.955   8.381  67.687  1.00  0.00    -0.141 C  
HETATM    6  C   UNL     1      -9.988  10.504  68.723  1.00  0.00    -0.200 C  
HETATM    7  C   UNL     1      -9.844   9.929  70.124  1.00  0.00    -0.272 C  
HETATM    8  C   UNL     1     -11.125   9.272  70.580  1.00  0.00    -0.335 C  
HETATM    9  C   UNL     1     -12.311  10.265  70.664  1.00  0.00    -0.325 C  
HETATM   10  C   UNL     1     -13.201   9.742  71.806  1.00  0.00    -0.532 C  
HETATM   11  O   UNL     1     -13.130  10.255  69.495  1.00  0.00     0.222 OA 
HETATM   12  O   UNL     1     -12.383  10.630  68.292  1.00  0.00    -0.152 OA 
HETATM   13  C   UNL     1     -11.220  11.448  68.571  1.00  0.00    -0.250 C  
HETATM   14  C   UNL     1     -11.439  12.341  69.823  1.00  0.00    -0.166 C  
HETATM   15  O   UNL     1     -12.267  13.482  69.544  1.00  0.00    -0.304 OA 
HETATM   16  O   UNL     1     -11.931  11.610  70.967  1.00  0.00    -0.223 OA 
HETATM   17  C   UNL     1     -11.779  14.330  68.490  1.00  0.00    -0.341 C  
HETATM   18  C   UNL     1     -10.638  13.737  67.617  1.00  0.00    -0.244 C  
HETATM   19  C   UNL     1     -10.358  14.587  66.371  1.00  0.00    -0.296 C  
ENDROOT
BRANCH  17  20
HETATM   20  O   UNL     1     -11.516  15.691  68.919  1.00  0.00    -0.316 OA 
BRANCH  20  21
HETATM   21  C   UNL     1     -10.765  15.890  70.028  1.00  0.00    -0.339 C  
HETATM   22  O   UNL     1      -9.562  15.675  70.115  1.00  0.00    -0.111 OA 
BRANCH  21  23
HETATM   23  C   UNL     1     -11.588  16.456  71.159  1.00  0.00    -0.250 C  
BRANCH  23  24
HETATM   24  C   UNL     1     -11.813  15.468  72.284  1.00  0.00    -0.560 C  
HETATM   25  C   UNL     1     -12.948  15.902  73.178  1.00  0.00    -0.549 C  
HETATM   26  O   UNL     1     -14.124  15.722  72.910  1.00  0.00    -0.542 OA 
HETATM   27  O   UNL     1     -12.544  16.526  74.302  1.00  0.00    -0.706 OA 
ENDBRANCH  23  24
ENDBRANCH  21  23
ENDBRANCH  20  21
ENDBRANCH  17  20
TORSDOF 4
ENDMDL
MODEL       17
REMARK 921   NORMALIZED FREE ENERGY PREDICTED BY IDOCK:   -6.44 KCAL/MOL
REMARK 922        TOTAL FREE ENERGY PREDICTED BY IDOCK:   -8.67 KCAL/MOL
REMARK 923 INTER-LIGAND FREE ENERGY PREDICTED BY IDOCK:   -8.35 KCAL/MOL
REMARK 924 INTRA-LIGAND FREE ENERGY PREDICTED BY IDOCK:   -0.32 KCAL/MOL
REMARK 927      BINDING AFFINITY PREDICTED BY RF-SCORE:    0.00 PKD
ROOT
HETATM    1  C   UNL     1      -8.993  14.020  67.534  1.00  0.00    -0.195 C  
HETATM    2  C   UNL     1      -7.713  13.289  68.019  1.00  0.00    -0.147 C  
HETATM    3  C   UNL     1      -7.127  12.339  66.972  1.00  0.00    -0.040 C  
HETATM    4  C   UNL     1      -8.155  11.329  66.422  1.00  0.00    -0.138 C  
HETATM    5  C   UNL     1      -7.706   9.882  66.597  1.00  0.00    -0.106 C  
HETATM    6  C   UNL     1      -9.563  11.622  67.009  1.00  0.00    -0.196 C  
HETATM    7  C   UNL     1     -10.632  10.631  66.574  1.00  0.00    -0.257 C  
HETATM    8  C   UNL     1     -10.994  10.819  65.120  1.00  0.00     0.066 C  
HETATM    9  C   UNL     1     -11.589  12.220  64.827  1.00  0.00    -0.337 C  
HETATM   10  C   UNL     1     -12.578  12.007  63.667  1.00  0.00    -0.605 C  
HETATM   11  O   UNL     1     -10.618  13.148  64.347  1.00  0.00    -0.384 OA 
HETATM   12  O   UNL     1      -9.538  13.371  65.312  1.00  0.00    -0.024 OA 
HETATM   13  C   UNL     1      -9.929  13.102  66.681  1.00  0.00    -0.270 C  
HETATM   14  C   UNL     1     -11.435  13.405  66.912  1.00  0.00    -0.342 C  
HETATM   15  O   UNL     1     -11.699  14.812  67.035  1.00  0.00    -0.368 OA 
HETATM   16  O   UNL     1     -12.297  12.798  65.926  1.00  0.00    -0.551 OA 
HETATM   17  C   UNL     1     -10.962  15.469  68.080  1.00  0.00    -0.311 C  
HETATM   18  C   UNL     1      -9.788  14.657  68.693  1.00  0.00    -0.224 C  
HETATM   19  C   UNL     1      -8.902  15.515  69.606  1.00  0.00    -0.140 C  
ENDROOT
BRANCH  17  20
HETATM   20  O   UNL     1     -11.809  16.087  69.083  1.00  0.00    -0.356 OA 
BRANCH  20  21
HETATM   21  C   UNL     1     -12.216  15.343  70.138  1.00  0.00    -0.375 C  
HETATM   22  O   UNL     1     -12.711  14.225  70.065  1.00  0.00    -0.297 OA 
BRANCH  21  23
HETATM   23  C   UNL     1     -11.949  16.045  71.447  1.00  0.00    -0.507 C  
BRANCH  23  24
HETATM   24  C   UNL     1     -13.036  15.820  72.476  1.00  0.00    -0.558 C  
HETATM   25  C   UNL     1     -12.483  15.869  73.879  1.00  0.00    -0.625 C  
HETATM   26  O   UNL     1     -12.260  16.907  74.480  1.00  0.00    -0.644 OA 
HETATM   27  O   UNL     1     -12.243  14.653  74.409  1.00  0.00    -0.417 OA 
ENDBRANCH  23  24
ENDBRANCH  21  23
ENDBRANCH  20  21
ENDBRANCH  17  20
TORSDOF 4
ENDMDL
MODEL       18
REMARK 921   NORMALIZED FREE ENERGY PREDICTED BY IDOCK:   -6.44 KCAL/MOL
REMARK 922        TOTAL FREE ENERGY PREDICTED BY IDOCK:   -8.67 KCAL/MOL
REMARK 923 INTER-LIGAND FREE ENERGY PREDICTED BY IDOCK:   -7.94 KCAL/MOL
REMARK 924 INTRA-LIGAND FREE ENERGY PREDICTED BY IDOCK:   -0.73 KCAL/MOL
REMARK 927      BINDING AFFINITY PREDICTED BY RF-SCORE:    0.00 PKD
ROOT
HETATM    1  C   UNL     1     -11.043   8.911  71.525  1.00  0.00    -0.397 C  
HETATM    2  C   UNL     1     -11.657   8.209  72.766  1.00  0.00    -0.371 C  
HETATM    3  C   UNL     1     -10.751   7.127  73.357  1.00  0.00    -0.410 C  
HETATM    4  C   UNL     1     -10.286   6.086  72.318  1.00  0.00    -0.215 C  
HETATM    5  C   UNL     1     -10.646   4.659  72.717  1.00  0.00    -0.273 C  
HETATM    6  C   UNL     1     -10.782   6.483  70.900  1.00  0.00    -0.289 C  
HETATM    7  C   UNL     1     -10.428   5.476  69.817  1.00  0.00    -0.389 C  
HETATM    8  C   UNL     1      -8.950   5.501  69.510  1.00  0.00    -0.129 C  
HETATM    9  C   UNL     1      -8.473   6.872  68.968  1.00  0.00    -0.128 C  
HETATM   10  C   UNL     1      -7.310   6.549  68.011  1.00  0.00    -0.090 C  
HETATM   11  O   UNL     1      -7.923   7.711  69.982  1.00  0.00    -0.109 OA 
HETATM   12  O   UNL     1      -8.894   8.018  71.036  1.00  0.00    -0.133 OA 
HETATM   13  C   UNL     1     -10.270   7.923  70.590  1.00  0.00    -0.196 C  
HETATM   14  C   UNL     1     -10.409   8.291  69.088  1.00  0.00    -0.217 C  
HETATM   15  O   UNL     1     -10.355   9.709  68.863  1.00  0.00    -0.189 OA 
HETATM   16  O   UNL     1      -9.470   7.594  68.241  1.00  0.00    -0.145 OA 
HETATM   17  C   UNL     1     -11.342  10.466  69.584  1.00  0.00    -0.272 C  
HETATM   18  C   UNL     1     -12.090   9.701  70.712  1.00  0.00    -0.328 C  
HETATM   19  C   UNL     1     -12.927  10.638  71.593  1.00  0.00    -0.582 C  
ENDROOT
BRANCH  17  20
HETATM   20  O   UNL     1     -12.235  11.220  68.724  1.00  0.00    -0.532 OA 
BRANCH  20  21
HETATM   21  C   UNL     1     -11.706  12.151  67.895  1.00  0.00    -0.336 C  
HETATM   22  O   UNL     1     -11.821  12.159  66.676  1.00  0.00    -0.566 OA 
BRANCH  21  23
HETATM   23  C   UNL     1     -10.974  13.223  68.664  1.00  0.00    -0.294 C  
BRANCH  23  24
HETATM   24  C   UNL     1     -11.838  14.427  68.975  1.00  0.00    -0.358 C  
HETATM   25  C   UNL     1     -11.945  14.657  70.463  1.00  0.00    -0.310 C  
HETATM   26  O   UNL     1     -11.086  15.220  71.121  1.00  0.00    -0.340 OA 
HETATM   27  O   UNL     1     -13.077  14.167  71.007  1.00  0.00    -0.338 OA 
ENDBRANCH  23  24
ENDBRANCH  21  23
ENDBRANCH  20  21
ENDBRANCH  17  20
TORSDOF 4
ENDMDL
MODEL       19
REMARK 921   NORMALIZED FREE ENERGY PREDICTED BY IDOCK:   -6.43 KCAL/MOL
REMARK 922        TOTAL FREE ENERGY PREDICTED BY IDOCK:   -8.66 KCAL/MOL
REMARK 923 INTER-LIGAND FREE ENERGY PREDICTED BY IDOCK:   -8.21 KCAL/MOL
REMARK 924 INTRA-LIGAND FREE ENERGY PREDICTED BY IDOCK:   -0.45 KCAL/MOL
REMARK 927      BINDING AFFINITY PREDICTED BY RF-SCORE:    0.00 PKD
ROOT
HETATM    1  C   UNL     1     -11.119  11.708  66.850  1.00  0.00    -0.365 C  
HETATM    2  C   UNL     1     -10.734  11.999  65.375  1.00  0.00    -0.330 C  
HETATM    3  C   UNL     1     -10.290  10.751  64.610  1.00  0.00    -0.394 C  
HETATM    4  C   UNL     1      -9.169   9.965  65.320  1.00  0.00    -0.280 C  
HETATM    5  C   UNL     1      -7.937   9.777  64.440  1.00  0.00    -0.145 C  
HETATM    6  C   UNL     1      -8.858  10.603  66.702  1.00  0.00    -0.149 C  
HETATM    7  C   UNL     1      -7.715   9.934  67.449  1.00  0.00    -0.091 C  
HETATM    8  C   UNL     1      -8.118   8.571  67.960  1.00  0.00    -0.115 C  
HETATM    9  C   UNL     1      -9.289   8.633  68.973  1.00  0.00    -0.146 C  
HETATM   10  C   UNL     1      -9.058   7.455  69.935  1.00  0.00    -0.141 C  
HETATM   11  O   UNL     1     -10.561   8.400  68.369  1.00  0.00    -0.190 OA 
HETATM   12  O   UNL     1     -10.876   9.393  67.338  1.00  0.00    -0.263 OA 
HETATM   13  C   UNL     1     -10.183  10.652  67.524  1.00  0.00    -0.199 C  
HETATM   14  C   UNL     1      -9.935  10.948  69.029  1.00  0.00    -0.191 C  
HETATM   15  O   UNL     1     -11.118  11.415  69.698  1.00  0.00    -0.238 OA 
HETATM   16  O   UNL     1      -9.340   9.840  69.738  1.00  0.00    -0.199 OA 
HETATM   17  C   UNL     1     -11.707  12.592  69.119  1.00  0.00    -0.321 C  
HETATM   18  C   UNL     1     -11.183  12.987  67.710  1.00  0.00    -0.313 C  
HETATM   19  C   UNL     1     -12.034  14.086  67.061  1.00  0.00    -0.472 C  
ENDROOT
BRANCH  17  20
HETATM   20  O   UNL     1     -11.773  13.715  70.035  1.00  0.00    -0.284 OA 
BRANCH  20  21
HETATM   21  C   UNL     1     -12.763  13.744  70.957  1.00  0.00    -0.343 C  
HETATM   22  O   UNL     1     -13.140  12.786  71.620  1.00  0.00    -0.401 OA 
BRANCH  21  23
HETATM   23  C   UNL     1     -13.338  15.132  71.108  1.00  0.00    -0.535 C  
BRANCH  23  24
HETATM   24  C   UNL     1     -13.794  15.437  72.519  1.00  0.00    -0.651 C  
HETATM   25  C   UNL     1     -12.623  15.748  73.420  1.00  0.00    -0.545 C  
HETATM   26  O   UNL     1     -12.076  16.837  73.461  1.00  0.00    -0.426 OA 
HETATM   27  O   UNL     1     -12.225  14.702  74.170  1.00  0.00    -0.483 OA 
ENDBRANCH  23  24
ENDBRANCH  21  23
ENDBRANCH  20  21
ENDBRANCH  17  20
TORSDOF 4
ENDMDL
MODEL       20
REMARK 921   NORMALIZED FREE ENERGY PREDICTED BY IDOCK:   -6.42 KCAL/MOL
REMARK 922        TOTAL FREE ENERGY PREDICTED BY IDOCK:   -8.64 KCAL/MOL
REMARK 923 INTER-LIGAND FREE ENERGY PREDICTED BY IDOCK:   -8.22 KCAL/MOL
REMARK 924 INTRA-LIGAND FREE ENERGY PREDICTED BY IDOCK:   -0.42 KCAL/MOL
REMARK 927      BINDING AFFINITY PREDICTED BY RF-SCORE:    0.00 PKD
ROOT
HETATM    1  C   UNL     1     -11.619  15.300  69.059  1.00  0.00    -0.360 C  
HETATM    2  C   UNL     1     -10.813  16.617  69.212  1.00  0.00    -0.310 C  
HETATM    3  C   UNL     1     -10.657  17.386  67.898  1.00  0.00    -0.383 C  
HETATM    4  C   UNL     1     -10.084  16.527  66.753  1.00  0.00    -0.290 C  
HETATM    5  C   UNL     1      -8.819  17.127  66.147  1.00  0.00    -0.220 C  
HETATM    6  C   UNL     1      -9.915  15.054  67.218  1.00  0.00    -0.233 C  
HETATM    7  C   UNL     1      -9.289  14.143  66.173  1.00  0.00    -0.166 C  
HETATM    8  C   UNL     1     -10.249  13.871  65.040  1.00  0.00    -0.383 C  
HETATM    9  C   UNL     1     -11.534  13.140  65.504  1.00  0.00    -0.315 C  
HETATM   10  C   UNL     1     -11.964  12.271  64.308  1.00  0.00    -0.489 C  
HETATM   11  O   UNL     1     -12.622  14.030  65.752  1.00  0.00    -0.491 OA 
HETATM   12  O   UNL     1     -12.316  15.002  66.805  1.00  0.00     0.085 OA 
HETATM   13  C   UNL     1     -11.298  14.543  67.728  1.00  0.00    -0.317 C  
HETATM   14  C   UNL     1     -11.334  13.000  67.896  1.00  0.00    -0.288 C  
HETATM   15  O   UNL     1     -12.407  12.566  68.747  1.00  0.00    -0.040 OA 
HETATM   16  O   UNL     1     -11.348  12.290  66.638  1.00  0.00    -0.303 OA 
HETATM   17  C   UNL     1     -12.395  13.141  70.064  1.00  0.00    -0.172 C  
HETATM   18  C   UNL     1     -11.443  14.353  70.264  1.00  0.00    -0.255 C  
HETATM   19  C   UNL     1     -11.679  15.063  71.604  1.00  0.00    -0.439 C  
ENDROOT
BRANCH  17  20
HETATM   20  O   UNL     1     -12.288  12.156  71.124  1.00  0.00    -0.306 OA 
BRANCH  20  21
HETATM   21  C   UNL     1     -12.165  10.850  70.788  1.00  0.00    -0.383 C  
HETATM   22  O   UNL     1     -11.168  10.337  70.297  1.00  0.00    -0.280 OA 
BRANCH  21  23
HETATM   23  C   UNL     1     -13.412  10.072  71.132  1.00  0.00    -0.299 C  
BRANCH  23  24
HETATM   24  C   UNL     1     -13.190   9.043  72.221  1.00  0.00    -0.519 C  
HETATM   25  C   UNL     1     -13.220   7.640  71.665  1.00  0.00    -0.352 C  
HETATM   26  O   UNL     1     -12.271   7.116  71.106  1.00  0.00    -0.338 OA 
HETATM   27  O   UNL     1     -14.404   7.017  71.831  1.00  0.00    -0.376 OA 
ENDBRANCH  23  24
ENDBRANCH  21  23
ENDBRANCH  20  21
ENDBRANCH  17  20
TORSDOF 4
ENDMDL
MODEL       21
REMARK 921   NORMALIZED FREE ENERGY PREDICTED BY IDOCK:   -6.39 KCAL/MOL
REMARK 922        TOTAL FREE ENERGY PREDICTED BY IDOCK:   -8.60 KCAL/MOL
REMARK 923 INTER-LIGAND FREE ENERGY PREDICTED BY IDOCK:   -8.10 KCAL/MOL
REMARK 924 INTRA-LIGAND FREE ENERGY PREDICTED BY IDOCK:   -0.50 KCAL/MOL
REMARK 927      BINDING AFFINITY PREDICTED BY RF-SCORE:    0.00 PKD
ROOT
HETATM    1  C   UNL     1     -12.232  13.454  69.164  1.00  0.00    -0.207 C  
HETATM    2  C   UNL     1     -11.834  14.859  69.690  1.00  0.00    -0.356 C  
HETATM    3  C   UNL     1     -11.726  15.909  68.582  1.00  0.00    -0.328 C  
HETATM    4  C   UNL     1     -10.805  15.481  67.422  1.00  0.00    -0.312 C  
HETATM    5  C   UNL     1      -9.681  16.480  67.166  1.00  0.00    -0.246 C  
HETATM    6  C   UNL     1     -10.307  14.025  67.641  1.00  0.00    -0.242 C  
HETATM    7  C   UNL     1      -9.335  13.537  66.578  1.00  0.00    -0.227 C  
HETATM    8  C   UNL     1     -10.036  13.299  65.263  1.00  0.00    -0.254 C  
HETATM    9  C   UNL     1     -11.127  12.201  65.355  1.00  0.00    -0.317 C  
HETATM   10  C   UNL     1     -11.154  11.537  63.967  1.00  0.00    -0.441 C  
HETATM   11  O   UNL     1     -12.435  12.732  65.560  1.00  0.00    -0.573 OA 
HETATM   12  O   UNL     1     -12.535  13.496  66.806  1.00  0.00    -0.310 OA 
HETATM   13  C   UNL     1     -11.555  13.103  67.799  1.00  0.00    -0.337 C  
HETATM   14  C   UNL     1     -11.198  11.597  67.680  1.00  0.00    -0.281 C  
HETATM   15  O   UNL     1     -12.213  10.746  68.237  1.00  0.00    -0.449 OA 
HETATM   16  O   UNL     1     -10.863  11.194  66.334  1.00  0.00    -0.270 OA 
HETATM   17  C   UNL     1     -12.521  11.007  69.617  1.00  0.00    -0.140 C  
HETATM   18  C   UNL     1     -11.961  12.338  70.194  1.00  0.00    -0.377 C  
HETATM   19  C   UNL     1     -12.545  12.662  71.576  1.00  0.00    -0.256 C  
ENDROOT
BRANCH  17  20
HETATM   20  O   UNL     1     -12.288   9.870  70.487  1.00  0.00    -0.241 OA 
BRANCH  20  21
HETATM   21  C   UNL     1     -11.114   9.203  70.385  1.00  0.00    -0.253 C  
HETATM   22  O   UNL     1     -10.003   9.721  70.400  1.00  0.00    -0.261 OA 
BRANCH  21  23
HETATM   23  C   UNL     1     -11.331   7.713  70.288  1.00  0.00    -0.197 C  
BRANCH  23  24
HETATM   24  C   UNL     1     -12.230   7.170  71.378  1.00  0.00    -0.399 C  
HETATM   25  C   UNL     1     -11.426   6.564  72.502  1.00  0.00    -0.239 C  
HETATM   26  O   UNL     1     -10.906   7.220  73.388  1.00  0.00    -0.374 OA 
HETATM   27  O   UNL     1     -11.322   5.222  72.431  1.00  0.00    -0.213 OA 
ENDBRANCH  23  24
ENDBRANCH  21  23
ENDBRANCH  20  21
ENDBRANCH  17  20
TORSDOF 4
ENDMDL
MODEL       22
REMARK 921   NORMALIZED FREE ENERGY PREDICTED BY IDOCK:   -6.38 KCAL/MOL
REMARK 922        TOTAL FREE ENERGY PREDICTED BY IDOCK:   -8.60 KCAL/MOL
REMARK 923 INTER-LIGAND FREE ENERGY PREDICTED BY IDOCK:   -8.01 KCAL/MOL
REMARK 924 INTRA-LIGAND FREE ENERGY PREDICTED BY IDOCK:   -0.59 KCAL/MOL
REMARK 927      BINDING AFFINITY PREDICTED BY RF-SCORE:    0.00 PKD
ROOT
HETATM    1  C   UNL     1     -11.401  10.553  70.399  1.00  0.00    -0.411 C  
HETATM    2  C   UNL     1     -12.902  10.608  70.790  1.00  0.00    -0.439 C  
HETATM    3  C   UNL     1     -13.249   9.712  71.980  1.00  0.00    -0.546 C  
HETATM    4  C   UNL     1     -12.787   8.251  71.799  1.00  0.00    -0.362 C  
HETATM    5  C   UNL     1     -13.933   7.253  71.935  1.00  0.00    -0.371 C  
HETATM    6  C   UNL     1     -11.982   8.102  70.478  1.00  0.00     0.063 C  
HETATM    7  C   UNL     1     -11.542   6.677  70.180  1.00  0.00    -0.446 C  
HETATM    8  C   UNL     1     -10.444   6.236  71.118  1.00  0.00    -0.271 C  
HETATM    9  C   UNL     1      -9.162   7.097  70.987  1.00  0.00    -0.158 C  
HETATM   10  C   UNL     1      -7.997   6.145  71.312  1.00  0.00    -0.113 C  
HETATM   11  O   UNL     1      -9.093   8.143  71.955  1.00  0.00    -0.138 OA 
HETATM   12  O   UNL     1     -10.213   9.081  71.840  1.00  0.00    -0.343 OA 
HETATM   13  C   UNL     1     -10.797   9.115  70.514  1.00  0.00    -0.255 C  
HETATM   14  C   UNL     1      -9.736   8.824  69.418  1.00  0.00    -0.172 C  
HETATM   15  O   UNL     1      -8.892   9.957  69.157  1.00  0.00    -0.142 OA 
HETATM   16  O   UNL     1      -8.951   7.641  69.682  1.00  0.00    -0.140 OA 
HETATM   17  C   UNL     1      -9.595  11.150  68.769  1.00  0.00    -0.172 C  
HETATM   18  C   UNL     1     -11.133  11.131  68.994  1.00  0.00    -0.299 C  
HETATM   19  C   UNL     1     -11.765  12.516  68.801  1.00  0.00    -0.371 C  
ENDROOT
BRANCH  17  20
HETATM   20  O   UNL     1      -9.220  11.641  67.456  1.00  0.00    -0.167 OA 
BRANCH  20  21
HETATM   21  C   UNL     1      -9.760  11.052  66.363  1.00  0.00    -0.201 C  
HETATM   22  O   UNL     1      -9.834   9.844  66.174  1.00  0.00    -0.224 OA 
BRANCH  21  23
HETATM   23  C   UNL     1     -10.309  12.075  65.399  1.00  0.00    -0.301 C  
BRANCH  23  24
HETATM   24  C   UNL     1     -11.794  11.920  65.148  1.00  0.00    -0.187 C  
HETATM   25  C   UNL     1     -12.379  13.163  64.525  1.00  0.00    -0.385 C  
HETATM   26  O   UNL     1     -12.301  13.422  63.335  1.00  0.00    -0.728 OA 
HETATM   27  O   UNL     1     -12.990  13.977  65.409  1.00  0.00    -0.726 OA 
ENDBRANCH  23  24
ENDBRANCH  21  23
ENDBRANCH  20  21
ENDBRANCH  17  20
TORSDOF 4
ENDMDL
MODEL       23
REMARK 921   NORMALIZED FREE ENERGY PREDICTED BY IDOCK:   -6.36 KCAL/MOL
REMARK 922        TOTAL FREE ENERGY PREDICTED BY IDOCK:   -8.57 KCAL/MOL
REMARK 923 INTER-LIGAND FREE ENERGY PREDICTED BY IDOCK:   -7.75 KCAL/MOL
REMARK 924 INTRA-LIGAND FREE ENERGY PREDICTED BY IDOCK:   -0.82 KCAL/MOL
REMARK 927      BINDING AFFINITY PREDICTED BY RF-SCORE:    0.00 PKD
ROOT
HETATM    1  C   UNL     1      -8.828  15.017  67.499  1.00  0.00    -0.193 C  
HETATM    2  C   UNL     1      -8.095  14.250  68.632  1.00  0.00    -0.140 C  
HETATM    3  C   UNL     1      -7.872  12.771  68.311  1.00  0.00    -0.141 C  
HETATM    4  C   UNL     1      -9.162  12.033  67.900  1.00  0.00    -0.190 C  
HETATM    5  C   UNL     1      -9.446  10.817  68.777  1.00  0.00    -0.187 C  
HETATM    6  C   UNL     1     -10.349  13.033  67.815  1.00  0.00    -0.227 C  
HETATM    7  C   UNL     1     -11.682  12.382  67.481  1.00  0.00    -0.425 C  
HETATM    8  C   UNL     1     -11.722  11.924  66.044  1.00  0.00    -0.209 C  
HETATM    9  C   UNL     1     -11.572  13.092  65.037  1.00  0.00    -0.325 C  
HETATM   10  C   UNL     1     -12.386  12.671  63.800  1.00  0.00    -0.568 C  
HETATM   11  O   UNL     1     -10.231  13.265  64.581  1.00  0.00    -0.364 OA 
HETATM   12  O   UNL     1      -9.307  13.566  65.677  1.00  0.00     0.041 OA 
HETATM   13  C   UNL     1      -9.956  14.171  66.824  1.00  0.00    -0.267 C  
HETATM   14  C   UNL     1     -11.175  15.032  66.398  1.00  0.00    -0.310 C  
HETATM   15  O   UNL     1     -10.786  16.304  65.854  1.00  0.00    -0.302 OA 
HETATM   16  O   UNL     1     -12.080  14.342  65.509  1.00  0.00    -0.375 OA 
HETATM   17  C   UNL     1      -9.977  17.106  66.731  1.00  0.00    -0.291 C  
HETATM   18  C   UNL     1      -9.392  16.374  67.971  1.00  0.00    -0.216 C  
HETATM   19  C   UNL     1      -8.343  17.220  68.705  1.00  0.00    -0.255 C  
ENDROOT
BRANCH  17  20
HETATM   20  O   UNL     1     -10.576  18.386  67.060  1.00  0.00    -0.395 OA 
BRANCH  20  21
HETATM   21  C   UNL     1     -10.231  19.472  66.329  1.00  0.00    -0.488 C  
HETATM   22  O   UNL     1     -10.853  19.903  65.366  1.00  0.00    -0.398 OA 
BRANCH  21  23
HETATM   23  C   UNL     1      -8.986  20.131  66.872  1.00  0.00    -0.448 C  
BRANCH  23  24
HETATM   24  C   UNL     1      -7.890  20.276  65.837  1.00  0.00    -0.142 C  
HETATM   25  C   UNL     1      -6.929  19.114  65.888  1.00  0.00    -0.273 C  
HETATM   26  O   UNL     1      -7.149  18.033  65.367  1.00  0.00    -0.496 OA 
HETATM   27  O   UNL     1      -5.801  19.373  66.580  1.00  0.00    -0.166 OA 
ENDBRANCH  23  24
ENDBRANCH  21  23
ENDBRANCH  20  21
ENDBRANCH  17  20
TORSDOF 4
ENDMDL
MODEL       24
REMARK 921   NORMALIZED FREE ENERGY PREDICTED BY IDOCK:   -6.34 KCAL/MOL
REMARK 922        TOTAL FREE ENERGY PREDICTED BY IDOCK:   -8.54 KCAL/MOL
REMARK 923 INTER-LIGAND FREE ENERGY PREDICTED BY IDOCK:   -7.63 KCAL/MOL
REMARK 924 INTRA-LIGAND FREE ENERGY PREDICTED BY IDOCK:   -0.91 KCAL/MOL
REMARK 927      BINDING AFFINITY PREDICTED BY RF-SCORE:    0.00 PKD
ROOT
HETATM    1  C   UNL     1      -7.913  14.167  67.397  1.00  0.00    -0.201 C  
HETATM    2  C   UNL     1      -7.888  13.113  68.537  1.00  0.00    -0.105 C  
HETATM    3  C   UNL     1      -8.875  11.965  68.319  1.00  0.00    -0.174 C  
HETATM    4  C   UNL     1     -10.318  12.443  68.052  1.00  0.00    -0.220 C  
HETATM    5  C   UNL     1     -11.322  11.854  69.038  1.00  0.00    -0.337 C  
HETATM    6  C   UNL     1     -10.363  13.994  67.966  1.00  0.00    -0.240 C  
HETATM    7  C   UNL     1     -11.760  14.562  67.772  1.00  0.00    -0.403 C  
HETATM    8  C   UNL     1     -12.275  14.284  66.380  1.00  0.00    -0.426 C  
HETATM    9  C   UNL     1     -11.408  14.941  65.277  1.00  0.00    -0.358 C  
HETATM   10  C   UNL     1     -12.384  15.269  64.133  1.00  0.00    -0.065 C  
HETATM   11  O   UNL     1     -10.441  14.050  64.723  1.00  0.00    -0.413 OA 
HETATM   12  O   UNL     1      -9.497  13.559  65.730  1.00  0.00    -0.117 OA 
HETATM   13  C   UNL     1      -9.357  14.450  66.865  1.00  0.00    -0.256 C  
HETATM   14  C   UNL     1      -9.561  15.933  66.454  1.00  0.00    -0.287 C  
HETATM   15  O   UNL     1      -8.412  16.481  65.788  1.00  0.00    -0.394 OA 
HETATM   16  O   UNL     1     -10.762  16.151  65.683  1.00  0.00    -0.346 OA 
HETATM   17  C   UNL     1      -7.192  16.409  66.545  1.00  0.00    -0.092 C  
HETATM   18  C   UNL     1      -7.226  15.489  67.797  1.00  0.00    -0.177 C  
HETATM   19  C   UNL     1      -5.830  15.266  68.392  1.00  0.00    -0.106 C  
ENDROOT
BRANCH  17  20
HETATM   20  O   UNL     1      -6.599  17.706  66.810  1.00  0.00    -0.160 OA 
BRANCH  20  21
HETATM   21  C   UNL     1      -7.285  18.819  66.459  1.00  0.00    -0.230 C  
HETATM   22  O   UNL     1      -7.270  19.337  65.349  1.00  0.00    -0.448 OA 
BRANCH  21  23
HETATM   23  C   UNL     1      -8.120  19.338  67.603  1.00  0.00    -0.311 C  
BRANCH  23  24
HETATM   24  C   UNL     1      -9.192  20.313  67.163  1.00  0.00    -0.519 C  
HETATM   25  C   UNL     1     -10.464  19.595  66.783  1.00  0.00    -0.490 C  
HETATM   26  O   UNL     1     -11.286  19.203  67.595  1.00  0.00    -0.261 OA 
HETATM   27  O   UNL     1     -10.606  19.412  65.455  1.00  0.00    -0.493 OA 
ENDBRANCH  23  24
ENDBRANCH  21  23
ENDBRANCH  20  21
ENDBRANCH  17  20
TORSDOF 4
ENDMDL
MODEL       25
REMARK 921   NORMALIZED FREE ENERGY PREDICTED BY IDOCK:   -6.30 KCAL/MOL
REMARK 922        TOTAL FREE ENERGY PREDICTED BY IDOCK:   -8.50 KCAL/MOL
REMARK 923 INTER-LIGAND FREE ENERGY PREDICTED BY IDOCK:   -8.18 KCAL/MOL
REMARK 924 INTRA-LIGAND FREE ENERGY PREDICTED BY IDOCK:   -0.32 KCAL/MOL
REMARK 927      BINDING AFFINITY PREDICTED BY RF-SCORE:    0.00 PKD
ROOT
HETATM    1  C   UNL     1     -10.160   9.371  67.153  1.00  0.00    -0.292 C  
HETATM    2  C   UNL     1      -8.895   8.806  66.454  1.00  0.00    -0.175 C  
HETATM    3  C   UNL     1      -8.393   7.502  67.078  1.00  0.00    -0.121 C  
HETATM    4  C   UNL     1      -8.176   7.598  68.602  1.00  0.00    -0.128 C  
HETATM    5  C   UNL     1      -6.755   7.227  69.015  1.00  0.00    -0.059 C  
HETATM    6  C   UNL     1      -8.636   8.987  69.123  1.00  0.00    -0.133 C  
HETATM    7  C   UNL     1      -8.395   9.200  70.610  1.00  0.00    -0.239 C  
HETATM    8  C   UNL     1      -9.341   8.367  71.441  1.00  0.00    -0.247 C  
HETATM    9  C   UNL     1     -10.828   8.736  71.209  1.00  0.00    -0.277 C  
HETATM   10  C   UNL     1     -11.529   8.468  72.553  1.00  0.00    -0.368 C  
HETATM   11  O   UNL     1     -11.470   7.889  70.258  1.00  0.00    -0.215 OA 
HETATM   12  O   UNL     1     -10.835   7.954  68.939  1.00  0.00    -0.122 OA 
HETATM   13  C   UNL     1     -10.124   9.195  68.706  1.00  0.00    -0.197 C  
HETATM   14  C   UNL     1     -10.789  10.381  69.457  1.00  0.00    -0.255 C  
HETATM   15  O   UNL     1     -11.976  10.851  68.798  1.00  0.00    -0.441 OA 
HETATM   16  O   UNL     1     -11.044  10.103  70.851  1.00  0.00    -0.338 OA 
HETATM   17  C   UNL     1     -11.780  11.261  67.434  1.00  0.00    -0.027 C  
HETATM   18  C   UNL     1     -10.426  10.848  66.791  1.00  0.00    -0.302 C  
HETATM   19  C   UNL     1     -10.403  11.093  65.277  1.00  0.00    -0.336 C  
ENDROOT
BRANCH  17  20
HETATM   20  O   UNL     1     -12.120  12.651  67.193  1.00  0.00    -0.466 OA 
BRANCH  20  21
HETATM   21  C   UNL     1     -11.224  13.608  67.533  1.00  0.00    -0.294 C  
HETATM   22  O   UNL     1     -10.381  13.505  68.416  1.00  0.00    -0.238 OA 
BRANCH  21  23
HETATM   23  C   UNL     1     -11.359  14.828  66.655  1.00  0.00    -0.347 C  
BRANCH  23  24
HETATM   24  C   UNL     1     -10.803  14.623  65.262  1.00  0.00    -0.387 C  
HETATM   25  C   UNL     1     -11.670  15.288  64.221  1.00  0.00    -0.215 C  
HETATM   26  O   UNL     1     -11.620  16.480  63.964  1.00  0.00    -1.154 OA 
HETATM   27  O   UNL     1     -12.521  14.444  63.605  1.00  0.00    -0.805 OA 
ENDBRANCH  23  24
ENDBRANCH  21  23
ENDBRANCH  20  21
ENDBRANCH  17  20
TORSDOF 4
ENDMDL
MODEL       26
REMARK 921   NORMALIZED FREE ENERGY PREDICTED BY IDOCK:   -6.28 KCAL/MOL
REMARK 922        TOTAL FREE ENERGY PREDICTED BY IDOCK:   -8.47 KCAL/MOL
REMARK 923 INTER-LIGAND FREE ENERGY PREDICTED BY IDOCK:   -7.72 KCAL/MOL
REMARK 924 INTRA-LIGAND FREE ENERGY PREDICTED BY IDOCK:   -0.76 KCAL/MOL
REMARK 927      BINDING AFFINITY PREDICTED BY RF-SCORE:    0.00 PKD
ROOT
HETATM    1  C   UNL     1     -10.038  10.267  67.295  1.00  0.00    -0.249 C  
HETATM    2  C   UNL     1      -9.722   9.685  65.891  1.00  0.00    -0.343 C  
HETATM    3  C   UNL     1      -9.204  10.734  64.905  1.00  0.00    -0.243 C  
HETATM    4  C   UNL     1     -10.123  11.968  64.788  1.00  0.00    -0.286 C  
HETATM    5  C   UNL     1     -10.573  12.228  63.354  1.00  0.00    -0.427 C  
HETATM    6  C   UNL     1     -11.295  11.862  65.802  1.00  0.00    -0.354 C  
HETATM    7  C   UNL     1     -12.294  13.006  65.713  1.00  0.00    -0.477 C  
HETATM    8  C   UNL     1     -11.704  14.290  66.243  1.00  0.00    -0.404 C  
HETATM    9  C   UNL     1     -11.318  14.200  67.741  1.00  0.00    -0.306 C  
HETATM   10  C   UNL     1     -11.517  15.620  68.299  1.00  0.00    -0.353 C  
HETATM   11  O   UNL     1      -9.940  13.890  67.943  1.00  0.00    -0.230 OA 
HETATM   12  O   UNL     1      -9.570  12.598  67.359  1.00  0.00    -0.187 OA 
HETATM   13  C   UNL     1     -10.690  11.687  67.229  1.00  0.00    -0.238 C  
HETATM   14  C   UNL     1     -11.741  11.913  68.350  1.00  0.00    -0.326 C  
HETATM   15  O   UNL     1     -11.333  11.350  69.607  1.00  0.00    -0.265 OA 
HETATM   16  O   UNL     1     -12.125  13.297  68.501  1.00  0.00    -0.341 OA 
HETATM   17  C   UNL     1     -11.045   9.942  69.565  1.00  0.00    -0.217 C  
HETATM   18  C   UNL     1     -10.910   9.321  68.146  1.00  0.00    -0.145 C  
HETATM   19  C   UNL     1     -10.353   7.892  68.188  1.00  0.00    -0.249 C  
ENDROOT
BRANCH  17  20
HETATM   20  O   UNL     1     -11.882   9.154  70.450  1.00  0.00    -0.171 OA 
BRANCH  20  21
HETATM   21  C   UNL     1     -11.551   9.077  71.761  1.00  0.00    -0.374 C  
HETATM   22  O   UNL     1     -12.313   9.286  72.696  1.00  0.00    -0.172 OA 
BRANCH  21  23
HETATM   23  C   UNL     1     -10.112   8.658  71.943  1.00  0.00    -0.398 C  
BRANCH  23  24
HETATM   24  C   UNL     1      -9.962   7.377  72.736  1.00  0.00    -0.263 C  
HETATM   25  C   UNL     1     -10.533   6.198  71.988  1.00  0.00    -0.211 C  
HETATM   26  O   UNL     1      -9.937   5.609  71.102  1.00  0.00    -0.176 OA 
HETATM   27  O   UNL     1     -11.777   5.859  72.380  1.00  0.00    -0.309 OA 
ENDBRANCH  23  24
ENDBRANCH  21  23
ENDBRANCH  20  21
ENDBRANCH  17  20
TORSDOF 4
ENDMDL
MODEL       27
REMARK 921   NORMALIZED FREE ENERGY PREDICTED BY IDOCK:   -6.28 KCAL/MOL
REMARK 922        TOTAL FREE ENERGY PREDICTED BY IDOCK:   -8.47 KCAL/MOL
REMARK 923 INTER-LIGAND FREE ENERGY PREDICTED BY IDOCK:   -7.69 KCAL/MOL
REMARK 924 INTRA-LIGAND FREE ENERGY PREDICTED BY IDOCK:   -0.78 KCAL/MOL
REMARK 927      BINDING AFFINITY PREDICTED BY RF-SCORE:    0.00 PKD
ROOT
HETATM    1  C   UNL     1     -11.729  11.553  69.193  1.00  0.00    -0.395 C  
HETATM    2  C   UNL     1     -11.915  12.681  70.243  1.00  0.00    -0.363 C  
HETATM    3  C   UNL     1     -12.375  14.005  69.631  1.00  0.00    -0.309 C  
HETATM    4  C   UNL     1     -11.480  14.485  68.470  1.00  0.00    -0.327 C  
HETATM    5  C   UNL     1     -10.920  15.885  68.702  1.00  0.00    -0.320 C  
HETATM    6  C   UNL     1     -10.392  13.421  68.155  1.00  0.00    -0.249 C  
HETATM    7  C   UNL     1      -9.416  13.838  67.066  1.00  0.00    -0.255 C  
HETATM    8  C   UNL     1     -10.078  13.835  65.709  1.00  0.00    -0.322 C  
HETATM    9  C   UNL     1     -10.583  12.431  65.291  1.00  0.00    -0.290 C  
HETATM   10  C   UNL     1     -10.465  12.395  63.757  1.00  0.00    -0.475 C  
HETATM   11  O   UNL     1     -11.966  12.228  65.581  1.00  0.00    -0.487 OA 
HETATM   12  O   UNL     1     -12.256  12.344  67.012  1.00  0.00    -0.508 OA 
HETATM   13  C   UNL     1     -11.108  12.069  67.853  1.00  0.00    -0.236 C  
HETATM   14  C   UNL     1     -10.158  11.030  67.197  1.00  0.00    -0.193 C  
HETATM   15  O   UNL     1     -10.654   9.686  67.308  1.00  0.00    -0.258 OA 
HETATM   16  O   UNL     1      -9.820  11.349  65.830  1.00  0.00    -0.209 OA 
HETATM   17  C   UNL     1     -10.904   9.250  68.655  1.00  0.00    -0.078 C  
HETATM   18  C   UNL     1     -10.908  10.366  69.737  1.00  0.00    -0.342 C  
HETATM   19  C   UNL     1     -11.432   9.863  71.088  1.00  0.00    -0.459 C  
ENDROOT
BRANCH  17  20
HETATM   20  O   UNL     1     -10.124   8.090  69.041  1.00  0.00    -0.190 OA 
BRANCH  20  21
HETATM   21  C   UNL     1     -10.720   6.874  69.033  1.00  0.00    -0.230 C  
HETATM   22  O   UNL     1     -11.339   6.385  69.970  1.00  0.00    -0.370 OA 
BRANCH  21  23
HETATM   23  C   UNL     1     -10.564   6.190  67.697  1.00  0.00    -0.340 C  
BRANCH  23  24
HETATM   24  C   UNL     1      -9.119   6.031  67.274  1.00  0.00    -0.111 C  
HETATM   25  C   UNL     1      -8.906   6.506  65.858  1.00  0.00    -0.119 C  
HETATM   26  O   UNL     1      -8.767   7.680  65.554  1.00  0.00    -0.135 OA 
HETATM   27  O   UNL     1      -8.895   5.512  64.948  1.00  0.00    -0.119 OA 
ENDBRANCH  23  24
ENDBRANCH  21  23
ENDBRANCH  20  21
ENDBRANCH  17  20
TORSDOF 4
ENDMDL
MODEL       28
REMARK 921   NORMALIZED FREE ENERGY PREDICTED BY IDOCK:   -6.27 KCAL/MOL
REMARK 922        TOTAL FREE ENERGY PREDICTED BY IDOCK:   -8.46 KCAL/MOL
REMARK 923 INTER-LIGAND FREE ENERGY PREDICTED BY IDOCK:   -7.68 KCAL/MOL
REMARK 924 INTRA-LIGAND FREE ENERGY PREDICTED BY IDOCK:   -0.78 KCAL/MOL
REMARK 927      BINDING AFFINITY PREDICTED BY RF-SCORE:    0.00 PKD
ROOT
HETATM    1  C   UNL     1      -9.975  16.549  69.030  1.00  0.00    -0.275 C  
HETATM    2  C   UNL     1     -11.003  16.694  70.183  1.00  0.00    -0.110 C  
HETATM    3  C   UNL     1     -11.279  15.379  70.914  1.00  0.00    -0.397 C  
HETATM    4  C   UNL     1     -11.681  14.228  69.969  1.00  0.00    -0.364 C  
HETATM    5  C   UNL     1     -13.026  13.610  70.337  1.00  0.00    -0.001 C  
HETATM    6  C   UNL     1     -11.591  14.692  68.489  1.00  0.00    -0.346 C  
HETATM    7  C   UNL     1     -12.036  13.641  67.483  1.00  0.00    -0.393 C  
HETATM    8  C   UNL     1     -11.032  12.517  67.387  1.00  0.00    -0.297 C  
HETATM    9  C   UNL     1      -9.643  12.995  66.894  1.00  0.00    -0.243 C  
HETATM   10  C   UNL     1      -9.055  11.803  66.117  1.00  0.00    -0.189 C  
HETATM   11  O   UNL     1      -8.732  13.252  67.961  1.00  0.00    -0.169 OA 
HETATM   12  O   UNL     1      -9.214  14.302  68.863  1.00  0.00    -0.154 OA 
HETATM   13  C   UNL     1     -10.145  15.216  68.230  1.00  0.00    -0.223 C  
HETATM   14  C   UNL     1      -9.838  15.384  66.717  1.00  0.00    -0.245 C  
HETATM   15  O   UNL     1      -8.713  16.246  66.478  1.00  0.00    -0.232 OA 
HETATM   16  O   UNL     1      -9.687  14.127  66.022  1.00  0.00    -0.301 OA 
HETATM   17  C   UNL     1      -8.840  17.563  67.040  1.00  0.00    -0.240 C  
HETATM   18  C   UNL     1      -9.993  17.753  68.065  1.00  0.00    -0.333 C  
HETATM   19  C   UNL     1      -9.899  19.095  68.803  1.00  0.00    -0.502 C  
ENDROOT
BRANCH  17  20
HETATM   20  O   UNL     1      -8.782  18.622  66.050  1.00  0.00    -0.491 OA 
BRANCH  20  21
HETATM   21  C   UNL     1      -7.610  19.274  65.864  1.00  0.00    -0.245 C  
HETATM   22  O   UNL     1      -6.800  19.034  64.976  1.00  0.00    -0.478 OA 
BRANCH  21  23
HETATM   23  C   UNL     1      -7.427  20.381  66.873  1.00  0.00    -0.345 C  
BRANCH  23  24
HETATM   24  C   UNL     1      -6.075  20.347  67.555  1.00  0.00    -0.257 C  
HETATM   25  C   UNL     1      -6.175  19.769  68.945  1.00  0.00    -0.276 C  
HETATM   26  O   UNL     1      -6.216  18.571  69.175  1.00  0.00    -0.228 OA 
HETATM   27  O   UNL     1      -6.229  20.700  69.917  1.00  0.00    -0.348 OA 
ENDBRANCH  23  24
ENDBRANCH  21  23
ENDBRANCH  20  21
ENDBRANCH  17  20
TORSDOF 4
ENDMDL
MODEL       29
REMARK 921   NORMALIZED FREE ENERGY PREDICTED BY IDOCK:   -6.27 KCAL/MOL
REMARK 922        TOTAL FREE ENERGY PREDICTED BY IDOCK:   -8.46 KCAL/MOL
REMARK 923 INTER-LIGAND FREE ENERGY PREDICTED BY IDOCK:   -7.99 KCAL/MOL
REMARK 924 INTRA-LIGAND FREE ENERGY PREDICTED BY IDOCK:   -0.46 KCAL/MOL
REMARK 927      BINDING AFFINITY PREDICTED BY RF-SCORE:    0.00 PKD
ROOT
HETATM    1  C   UNL     1     -12.158  13.763  68.991  1.00  0.00    -0.359 C  
HETATM    2  C   UNL     1     -11.750  15.111  69.643  1.00  0.00    -0.353 C  
HETATM    3  C   UNL     1     -11.729  16.278  68.654  1.00  0.00    -0.113 C  
HETATM    4  C   UNL     1     -10.876  16.000  67.399  1.00  0.00    -0.277 C  
HETATM    5  C   UNL     1      -9.787  17.047  67.187  1.00  0.00    -0.269 C  
HETATM    6  C   UNL     1     -10.343  14.540  67.425  1.00  0.00    -0.252 C  
HETATM    7  C   UNL     1      -9.432  14.194  66.257  1.00  0.00    -0.264 C  
HETATM    8  C   UNL     1     -10.212  14.085  64.969  1.00  0.00    -0.395 C  
HETATM    9  C   UNL     1     -11.276  12.959  65.006  1.00  0.00    -0.293 C  
HETATM   10  C   UNL     1     -11.381  12.450  63.557  1.00  0.00    -0.553 C  
HETATM   11  O   UNL     1     -12.577  13.435  65.348  1.00  0.00    -0.473 OA 
HETATM   12  O   UNL     1     -12.611  14.055  66.675  1.00  0.00    -0.358 OA 
HETATM   13  C   UNL     1     -11.564  13.578  67.556  1.00  0.00    -0.350 C  
HETATM   14  C   UNL     1     -11.190  12.103  67.250  1.00  0.00    -0.306 C  
HETATM   15  O   UNL     1     -12.155  11.173  67.771  1.00  0.00    -0.606 OA 
HETATM   16  O   UNL     1     -10.935  11.857  65.850  1.00  0.00    -0.288 OA 
HETATM   17  C   UNL     1     -12.378  11.275  69.187  1.00  0.00    -0.048 C  
HETATM   18  C   UNL     1     -11.805  12.547  69.873  1.00  0.00    -0.373 C  
HETATM   19  C   UNL     1     -12.304  12.705  71.315  1.00  0.00    -0.157 C  
ENDROOT
BRANCH  17  20
HETATM   20  O   UNL     1     -12.072  10.055  69.910  1.00  0.00    -0.106 OA 
BRANCH  20  21
HETATM   21  C   UNL     1     -10.808   9.574  69.868  1.00  0.00    -0.246 C  
HETATM   22  O   UNL     1      -9.792  10.258  69.819  1.00  0.00    -0.224 OA 
BRANCH  21  23
HETATM   23  C   UNL     1     -10.787   8.066  69.928  1.00  0.00    -0.217 C  
BRANCH  23  24
HETATM   24  C   UNL     1      -9.946   7.438  68.837  1.00  0.00    -0.169 C  
HETATM   25  C   UNL     1     -10.566   7.645  67.477  1.00  0.00    -0.252 C  
HETATM   26  O   UNL     1     -10.457   8.677  66.837  1.00  0.00    -0.294 OA 
HETATM   27  O   UNL     1     -11.269   6.583  67.035  1.00  0.00    -0.397 OA 
ENDBRANCH  23  24
ENDBRANCH  21  23
ENDBRANCH  20  21
ENDBRANCH  17  20
TORSDOF 4
ENDMDL
MODEL       30
REMARK 921   NORMALIZED FREE ENERGY PREDICTED BY IDOCK:   -6.26 KCAL/MOL
REMARK 922        TOTAL FREE ENERGY PREDICTED BY IDOCK:   -8.44 KCAL/MOL
REMARK 923 INTER-LIGAND FREE ENERGY PREDICTED BY IDOCK:   -8.00 KCAL/MOL
REMARK 924 INTRA-LIGAND FREE ENERGY PREDICTED BY IDOCK:   -0.44 KCAL/MOL
REMARK 927      BINDING AFFINITY PREDICTED BY RF-SCORE:    0.00 PKD
ROOT
HETATM    1  C   UNL     1     -10.949   9.100  71.770  1.00  0.00    -0.429 C  
HETATM    2  C   UNL     1     -11.530   8.045  72.748  1.00  0.00    -0.420 C  
HETATM    3  C   UNL     1     -10.455   7.325  73.566  1.00  0.00    -0.421 C  
HETATM    4  C   UNL     1      -9.339   6.708  72.699  1.00  0.00    -0.149 C  
HETATM    5  C   UNL     1      -9.171   5.211  72.939  1.00  0.00    -0.142 C  
HETATM    6  C   UNL     1      -9.551   7.081  71.205  1.00  0.00    -0.164 C  
HETATM    7  C   UNL     1      -8.534   6.458  70.262  1.00  0.00    -0.135 C  
HETATM    8  C   UNL     1      -7.175   7.098  70.422  1.00  0.00    -0.070 C  
HETATM    9  C   UNL     1      -7.180   8.609  70.080  1.00  0.00    -0.052 C  
HETATM   10  C   UNL     1      -5.777   8.904  69.520  1.00  0.00    -0.034 C  
HETATM   11  O   UNL     1      -7.323   9.440  71.231  1.00  0.00    -0.310 OA 
HETATM   12  O   UNL     1      -8.579   9.191  71.943  1.00  0.00    -0.332 OA 
HETATM   13  C   UNL     1      -9.617   8.635  71.097  1.00  0.00    -0.220 C  
HETATM   14  C   UNL     1      -9.482   9.133  69.632  1.00  0.00    -0.172 C  
HETATM   15  O   UNL     1      -9.961  10.477  69.463  1.00  0.00    -0.217 OA 
HETATM   16  O   UNL     1      -8.149   8.985  69.098  1.00  0.00    -0.104 OA 
HETATM   17  C   UNL     1     -11.327  10.680  69.862  1.00  0.00    -0.313 C  
HETATM   18  C   UNL     1     -11.966   9.532  70.692  1.00  0.00    -0.266 C  
HETATM   19  C   UNL     1     -13.320   9.933  71.293  1.00  0.00    -0.419 C  
ENDROOT
BRANCH  17  20
HETATM   20  O   UNL     1     -12.181  11.145  68.786  1.00  0.00    -0.555 OA 
BRANCH  20  21
HETATM   21  C   UNL     1     -11.859  12.296  68.151  1.00  0.00    -0.311 C  
HETATM   22  O   UNL     1     -11.742  13.391  68.689  1.00  0.00    -0.305 OA 
BRANCH  21  23
HETATM   23  C   UNL     1     -11.617  12.067  66.679  1.00  0.00    -0.389 C  
BRANCH  23  24
HETATM   24  C   UNL     1     -12.195  13.159  65.804  1.00  0.00    -0.514 C  
HETATM   25  C   UNL     1     -12.394  12.680  64.387  1.00  0.00    -0.446 C  
HETATM   26  O   UNL     1     -13.353  12.016  64.029  1.00  0.00    -0.703 OA 
HETATM   27  O   UNL     1     -11.404  13.042  63.548  1.00  0.00    -0.406 OA 
ENDBRANCH  23  24
ENDBRANCH  21  23
ENDBRANCH  20  21
ENDBRANCH  17  20
TORSDOF 4
ENDMDL
MODEL       31
REMARK 921   NORMALIZED FREE ENERGY PREDICTED BY IDOCK:   -6.21 KCAL/MOL
REMARK 922        TOTAL FREE ENERGY PREDICTED BY IDOCK:   -8.39 KCAL/MOL
REMARK 923 INTER-LIGAND FREE ENERGY PREDICTED BY IDOCK:   -7.95 KCAL/MOL
REMARK 924 INTRA-LIGAND FREE ENERGY PREDICTED BY IDOCK:   -0.44 KCAL/MOL
REMARK 927      BINDING AFFINITY PREDICTED BY RF-SCORE:    0.00 PKD
ROOT
HETATM    1  C   UNL     1      -9.895   9.535  66.616  1.00  0.00    -0.293 C  
HETATM    2  C   UNL     1      -8.596   8.912  66.039  1.00  0.00    -0.162 C  
HETATM    3  C   UNL     1      -8.133   7.668  66.800  1.00  0.00    -0.115 C  
HETATM    4  C   UNL     1      -7.998   7.897  68.320  1.00  0.00    -0.122 C  
HETATM    5  C   UNL     1      -6.603   7.567  68.840  1.00  0.00    -0.048 C  
HETATM    6  C   UNL     1      -8.481   9.327  68.692  1.00  0.00    -0.123 C  
HETATM    7  C   UNL     1      -8.320   9.669  70.165  1.00  0.00    -0.221 C  
HETATM    8  C   UNL     1      -9.312   8.910  71.014  1.00  0.00    -0.313 C  
HETATM    9  C   UNL     1     -10.783   9.255  70.671  1.00  0.00    -0.269 C  
HETATM   10  C   UNL     1     -11.556   9.104  71.993  1.00  0.00    -0.371 C  
HETATM   11  O   UNL     1     -11.376   8.327  69.764  1.00  0.00    -0.052 OA 
HETATM   12  O   UNL     1     -10.670   8.277  68.480  1.00  0.00    -0.142 OA 
HETATM   13  C   UNL     1      -9.944   9.495  68.179  1.00  0.00    -0.165 C  
HETATM   14  C   UNL     1     -10.645  10.741  68.786  1.00  0.00    -0.200 C  
HETATM   15  O   UNL     1     -11.793  11.149  68.025  1.00  0.00    -0.582 OA 
HETATM   16  O   UNL     1     -10.975  10.586  70.183  1.00  0.00    -0.287 OA 
HETATM   17  C   UNL     1     -11.522  11.439  66.644  1.00  0.00    -0.045 C  
HETATM   18  C   UNL     1     -10.137  10.973  66.114  1.00  0.00    -0.286 C  
HETATM   19  C   UNL     1     -10.032  11.085  64.587  1.00  0.00    -0.357 C  
ENDROOT
BRANCH  17  20
HETATM   20  O   UNL     1     -11.844  12.802  66.264  1.00  0.00    -0.390 OA 
BRANCH  20  21
HETATM   21  C   UNL     1     -12.530  13.012  65.116  1.00  0.00    -0.496 C  
HETATM   22  O   UNL     1     -13.356  12.246  64.635  1.00  0.00    -0.717 OA 
BRANCH  21  23
HETATM   23  C   UNL     1     -12.183  14.346  64.501  1.00  0.00    -0.483 C  
BRANCH  23  24
HETATM   24  C   UNL     1     -10.768  14.791  64.804  1.00  0.00    -0.380 C  
HETATM   25  C   UNL     1     -10.752  15.964  65.753  1.00  0.00    -0.316 C  
HETATM   26  O   UNL     1     -10.876  15.855  66.962  1.00  0.00    -0.316 OA 
HETATM   27  O   UNL     1     -10.601  17.155  65.140  1.00  0.00    -0.695 OA 
ENDBRANCH  23  24
ENDBRANCH  21  23
ENDBRANCH  20  21
ENDBRANCH  17  20
TORSDOF 4
ENDMDL
MODEL       32
REMARK 921   NORMALIZED FREE ENERGY PREDICTED BY IDOCK:   -6.21 KCAL/MOL
REMARK 922        TOTAL FREE ENERGY PREDICTED BY IDOCK:   -8.38 KCAL/MOL
REMARK 923 INTER-LIGAND FREE ENERGY PREDICTED BY IDOCK:   -7.96 KCAL/MOL
REMARK 924 INTRA-LIGAND FREE ENERGY PREDICTED BY IDOCK:   -0.42 KCAL/MOL
REMARK 927      BINDING AFFINITY PREDICTED BY RF-SCORE:    0.00 PKD
ROOT
HETATM    1  C   UNL     1     -11.213  15.340  66.008  1.00  0.00    -0.231 C  
HETATM    2  C   UNL     1     -11.568  15.305  64.498  1.00  0.00    -0.312 C  
HETATM    3  C   UNL     1     -12.392  14.078  64.101  1.00  0.00    -0.374 C  
HETATM    4  C   UNL     1     -11.754  12.745  64.540  1.00  0.00    -0.420 C  
HETATM    5  C   UNL     1     -11.532  11.788  63.373  1.00  0.00    -0.424 C  
HETATM    6  C   UNL     1     -10.475  13.013  65.380  1.00  0.00    -0.308 C  
HETATM    7  C   UNL     1      -9.736  11.752  65.802  1.00  0.00    -0.260 C  
HETATM    8  C   UNL     1     -10.502  11.000  66.865  1.00  0.00    -0.293 C  
HETATM    9  C   UNL     1     -10.687  11.822  68.165  1.00  0.00    -0.214 C  
HETATM   10  C   UNL     1     -10.708  10.785  69.303  1.00  0.00    -0.268 C  
HETATM   11  O   UNL     1     -11.945  12.493  68.226  1.00  0.00    -0.328 OA 
HETATM   12  O   UNL     1     -12.119  13.446  67.126  1.00  0.00    -0.368 OA 
HETATM   13  C   UNL     1     -10.864  13.927  66.582  1.00  0.00    -0.289 C  
HETATM   14  C   UNL     1      -9.756  13.981  67.669  1.00  0.00    -0.228 C  
HETATM   15  O   UNL     1      -9.898  15.114  68.541  1.00  0.00    -0.209 OA 
HETATM   16  O   UNL     1      -9.636  12.756  68.423  1.00  0.00    -0.220 OA 
HETATM   17  C   UNL     1      -9.906  16.386  67.871  1.00  0.00    -0.238 C  
HETATM   18  C   UNL     1     -10.080  16.337  66.327  1.00  0.00    -0.340 C  
HETATM   19  C   UNL     1     -10.337  17.726  65.727  1.00  0.00    -0.190 C  
ENDROOT
BRANCH  17  20
HETATM   20  O   UNL     1      -8.834  17.269  68.293  1.00  0.00    -0.242 OA 
BRANCH  20  21
HETATM   21  C   UNL     1      -9.119  18.570  68.531  1.00  0.00    -0.328 C  
HETATM   22  O   UNL     1     -10.219  19.006  68.847  1.00  0.00    -0.370 OA 
BRANCH  21  23
HETATM   23  C   UNL     1      -7.892  19.439  68.398  1.00  0.00    -0.377 C  
BRANCH  23  24
HETATM   24  C   UNL     1      -6.719  18.718  67.769  1.00  0.00    -0.219 C  
HETATM   25  C   UNL     1      -6.540  19.116  66.324  1.00  0.00    -0.203 C  
HETATM   26  O   UNL     1      -5.979  20.141  65.972  1.00  0.00    -0.172 OA 
HETATM   27  O   UNL     1      -7.072  18.239  65.450  1.00  0.00    -0.537 OA 
ENDBRANCH  23  24
ENDBRANCH  21  23
ENDBRANCH  20  21
ENDBRANCH  17  20
TORSDOF 4
ENDMDL
MODEL       33
REMARK 921   NORMALIZED FREE ENERGY PREDICTED BY IDOCK:   -6.18 KCAL/MOL
REMARK 922        TOTAL FREE ENERGY PREDICTED BY IDOCK:   -8.35 KCAL/MOL
REMARK 923 INTER-LIGAND FREE ENERGY PREDICTED BY IDOCK:   -7.81 KCAL/MOL
REMARK 924 INTRA-LIGAND FREE ENERGY PREDICTED BY IDOCK:   -0.53 KCAL/MOL
REMARK 927      BINDING AFFINITY PREDICTED BY RF-SCORE:    0.00 PKD
ROOT
HETATM    1  C   UNL     1     -12.158  12.877  69.171  1.00  0.00    -0.216 C  
HETATM    2  C   UNL     1     -11.923  14.401  68.996  1.00  0.00    -0.342 C  
HETATM    3  C   UNL     1     -11.525  14.789  67.570  1.00  0.00    -0.369 C  
HETATM    4  C   UNL     1     -10.322  13.987  67.033  1.00  0.00    -0.267 C  
HETATM    5  C   UNL     1      -9.175  14.885  66.578  1.00  0.00    -0.314 C  
HETATM    6  C   UNL     1      -9.896  12.903  68.061  1.00  0.00    -0.223 C  
HETATM    7  C   UNL     1      -8.670  12.104  67.646  1.00  0.00    -0.172 C  
HETATM    8  C   UNL     1      -8.989  11.165  66.508  1.00  0.00    -0.185 C  
HETATM    9  C   UNL     1     -10.059  10.109  66.883  1.00  0.00    -0.223 C  
HETATM   10  C   UNL     1      -9.708   8.860  66.054  1.00  0.00    -0.308 C  
HETATM   11  O   UNL     1     -11.376  10.485  66.484  1.00  0.00    -0.021 OA 
HETATM   12  O   UNL     1     -11.813  11.733  67.115  1.00  0.00    -0.599 OA 
HETATM   13  C   UNL     1     -11.136  12.008  68.367  1.00  0.00    -0.245 C  
HETATM   14  C   UNL     1     -10.754  10.698  69.107  1.00  0.00    -0.228 C  
HETATM   15  O   UNL     1     -11.878  10.090  69.764  1.00  0.00    -0.150 OA 
HETATM   16  O   UNL     1     -10.066   9.747  68.266  1.00  0.00    -0.152 OA 
HETATM   17  C   UNL     1     -12.548  10.939  70.711  1.00  0.00    -0.377 C  
HETATM   18  C   UNL     1     -12.171  12.446  70.653  1.00  0.00    -0.368 C  
HETATM   19  C   UNL     1     -13.108  13.312  71.506  1.00  0.00    -0.414 C  
ENDROOT
BRANCH  17  20
HETATM   20  O   UNL     1     -12.554  10.408  72.060  1.00  0.00    -0.351 OA 
BRANCH  20  21
HETATM   21  C   UNL     1     -13.021   9.154  72.263  1.00  0.00    -0.420 C  
HETATM   22  O   UNL     1     -14.199   8.821  72.210  1.00  0.00    -0.449 OA 
BRANCH  21  23
HETATM   23  C   UNL     1     -11.898   8.181  72.530  1.00  0.00    -0.438 C  
BRANCH  23  24
HETATM   24  C   UNL     1     -11.826   7.062  71.513  1.00  0.00    -0.351 C  
HETATM   25  C   UNL     1     -11.180   5.830  72.098  1.00  0.00    -0.269 C  
HETATM   26  O   UNL     1     -11.773   5.027  72.800  1.00  0.00    -0.199 OA 
HETATM   27  O   UNL     1      -9.876   5.701  71.784  1.00  0.00    -0.163 OA 
ENDBRANCH  23  24
ENDBRANCH  21  23
ENDBRANCH  20  21
ENDBRANCH  17  20
TORSDOF 4
ENDMDL
MODEL       34
REMARK 921   NORMALIZED FREE ENERGY PREDICTED BY IDOCK:   -6.15 KCAL/MOL
REMARK 922        TOTAL FREE ENERGY PREDICTED BY IDOCK:   -8.31 KCAL/MOL
REMARK 923 INTER-LIGAND FREE ENERGY PREDICTED BY IDOCK:   -7.80 KCAL/MOL
REMARK 924 INTRA-LIGAND FREE ENERGY PREDICTED BY IDOCK:   -0.51 KCAL/MOL
REMARK 927      BINDING AFFINITY PREDICTED BY RF-SCORE:    0.00 PKD
ROOT
HETATM    1  C   UNL     1     -11.049  10.083  70.244  1.00  0.00    -0.381 C  
HETATM    2  C   UNL     1     -11.617   8.841  70.979  1.00  0.00    -0.337 C  
HETATM    3  C   UNL     1     -10.701   7.618  70.895  1.00  0.00    -0.243 C  
HETATM    4  C   UNL     1     -10.296   7.258  69.451  1.00  0.00    -0.212 C  
HETATM    5  C   UNL     1     -10.658   5.822  69.082  1.00  0.00    -0.365 C  
HETATM    6  C   UNL     1     -10.849   8.317  68.457  1.00  0.00     0.041 C  
HETATM    7  C   UNL     1     -10.556   8.007  66.997  1.00  0.00    -0.364 C  
HETATM    8  C   UNL     1      -9.093   8.201  66.680  1.00  0.00    -0.202 C  
HETATM    9  C   UNL     1      -8.622   9.662  66.892  1.00  0.00    -0.128 C  
HETATM   10  C   UNL     1      -7.507   9.885  65.854  1.00  0.00    -0.108 C  
HETATM   11  O   UNL     1      -8.016   9.872  68.166  1.00  0.00    -0.099 OA 
HETATM   12  O   UNL     1      -8.936   9.588  69.271  1.00  0.00    -0.144 OA 
HETATM   13  C   UNL     1     -10.331   9.719  68.903  1.00  0.00    -0.210 C  
HETATM   14  C   UNL     1     -10.531  10.800  67.806  1.00  0.00    -0.208 C  
HETATM   15  O   UNL     1     -10.469  12.135  68.334  1.00  0.00    -0.219 OA 
HETATM   16  O   UNL     1      -9.640  10.643  66.681  1.00  0.00    -0.168 OA 
HETATM   17  C   UNL     1     -11.413  12.407  69.383  1.00  0.00    -0.271 C  
HETATM   18  C   UNL     1     -12.119  11.166  69.996  1.00  0.00    -0.437 C  
HETATM   19  C   UNL     1     -12.905  11.514  71.268  1.00  0.00    -0.463 C  
ENDROOT
BRANCH  17  20
HETATM   20  O   UNL     1     -12.331  13.485  69.069  1.00  0.00    -0.252 OA 
BRANCH  20  21
HETATM   21  C   UNL     1     -11.923  14.762  69.253  1.00  0.00    -0.294 C  
HETATM   22  O   UNL     1     -11.011  15.308  68.643  1.00  0.00    -0.237 OA 
BRANCH  21  23
HETATM   23  C   UNL     1     -12.761  15.467  70.291  1.00  0.00    -0.338 C  
BRANCH  23  24
HETATM   24  C   UNL     1     -12.259  15.258  71.704  1.00  0.00    -0.433 C  
HETATM   25  C   UNL     1     -13.402  15.065  72.671  1.00  0.00    -0.457 C  
HETATM   26  O   UNL     1     -13.986  14.005  72.821  1.00  0.00    -0.669 OA 
HETATM   27  O   UNL     1     -13.732  16.183  73.348  1.00  0.00    -0.601 OA 
ENDBRANCH  23  24
ENDBRANCH  21  23
ENDBRANCH  20  21
ENDBRANCH  17  20
TORSDOF 4
ENDMDL
MODEL       35
REMARK 921   NORMALIZED FREE ENERGY PREDICTED BY IDOCK:   -6.13 KCAL/MOL
REMARK 922        TOTAL FREE ENERGY PREDICTED BY IDOCK:   -8.28 KCAL/MOL
REMARK 923 INTER-LIGAND FREE ENERGY PREDICTED BY IDOCK:   -7.85 KCAL/MOL
REMARK 924 INTRA-LIGAND FREE ENERGY PREDICTED BY IDOCK:   -0.43 KCAL/MOL
REMARK 927      BINDING AFFINITY PREDICTED BY RF-SCORE:    0.00 PKD
ROOT
HETATM    1  C   UNL     1     -11.656  11.645  69.106  1.00  0.00    -0.378 C  
HETATM    2  C   UNL     1     -11.794  12.865  70.054  1.00  0.00    -0.356 C  
HETATM    3  C   UNL     1     -12.283  14.129  69.344  1.00  0.00    -0.329 C  
HETATM    4  C   UNL     1     -11.443  14.496  68.104  1.00  0.00    -0.337 C  
HETATM    5  C   UNL     1     -10.873  15.909  68.179  1.00  0.00    -0.317 C  
HETATM    6  C   UNL     1     -10.370  13.404  67.839  1.00  0.00    -0.238 C  
HETATM    7  C   UNL     1      -9.446  13.714  66.671  1.00  0.00    -0.285 C  
HETATM    8  C   UNL     1     -10.170  13.588  65.352  1.00  0.00    -0.316 C  
HETATM    9  C   UNL     1     -10.694  12.153  65.091  1.00  0.00    -0.292 C  
HETATM   10  C   UNL     1     -10.647  11.974  63.563  1.00  0.00    -0.514 C  
HETATM   11  O   UNL     1     -12.061  11.983  65.462  1.00  0.00    -0.479 OA 
HETATM   12  O   UNL     1     -12.284  12.232  66.889  1.00  0.00    -0.530 OA 
HETATM   13  C   UNL     1     -11.098  12.032  67.697  1.00  0.00    -0.264 C  
HETATM   14  C   UNL     1     -10.179  10.933  67.097  1.00  0.00    -0.210 C  
HETATM   15  O   UNL     1     -10.669   9.607  67.355  1.00  0.00    -0.275 OA 
HETATM   16  O   UNL     1      -9.906  11.122  65.692  1.00  0.00    -0.213 OA 
HETATM   17  C   UNL     1     -10.856   9.299  68.746  1.00  0.00    -0.088 C  
HETATM   18  C   UNL     1     -10.810  10.510  69.719  1.00  0.00    -0.335 C  
HETATM   19  C   UNL     1     -11.271  10.136  71.134  1.00  0.00    -0.244 C  
ENDROOT
BRANCH  17  20
HETATM   20  O   UNL     1     -10.058   8.176  69.202  1.00  0.00    -0.191 OA 
BRANCH  20  21
HETATM   21  C   UNL     1     -10.673   7.166  69.861  1.00  0.00    -0.239 C  
HETATM   22  O   UNL     1     -11.538   6.437  69.389  1.00  0.00    -0.382 OA 
BRANCH  21  23
HETATM   23  C   UNL     1     -10.135   7.011  71.262  1.00  0.00    -0.199 C  
BRANCH  23  24
HETATM   24  C   UNL     1      -8.622   7.018  71.322  1.00  0.00    -0.119 C  
HETATM   25  C   UNL     1      -8.105   8.267  71.992  1.00  0.00    -0.141 C  
HETATM   26  O   UNL     1      -8.060   8.413  73.203  1.00  0.00    -0.297 OA 
HETATM   27  O   UNL     1      -7.706   9.221  71.128  1.00  0.00    -0.282 OA 
ENDBRANCH  23  24
ENDBRANCH  21  23
ENDBRANCH  20  21
ENDBRANCH  17  20
TORSDOF 4
ENDMDL
MODEL       36
REMARK 921   NORMALIZED FREE ENERGY PREDICTED BY IDOCK:   -6.06 KCAL/MOL
REMARK 922        TOTAL FREE ENERGY PREDICTED BY IDOCK:   -8.19 KCAL/MOL
REMARK 923 INTER-LIGAND FREE ENERGY PREDICTED BY IDOCK:   -7.76 KCAL/MOL
REMARK 924 INTRA-LIGAND FREE ENERGY PREDICTED BY IDOCK:   -0.43 KCAL/MOL
REMARK 927      BINDING AFFINITY PREDICTED BY RF-SCORE:    0.00 PKD
ROOT
HETATM    1  C   UNL     1      -8.900   9.434  69.055  1.00  0.00    -0.141 C  
HETATM    2  C   UNL     1      -7.435   9.132  69.466  1.00  0.00    -0.077 C  
HETATM    3  C   UNL     1      -7.263   7.763  70.127  1.00  0.00    -0.062 C  
HETATM    4  C   UNL     1      -8.220   7.534  71.315  1.00  0.00    -0.100 C  
HETATM    5  C   UNL     1      -7.481   7.187  72.604  1.00  0.00    -0.084 C  
HETATM    6  C   UNL     1      -9.195   8.736  71.458  1.00  0.00    -0.332 C  
HETATM    7  C   UNL     1     -10.135   8.630  72.649  1.00  0.00    -0.150 C  
HETATM    8  C   UNL     1     -11.183   7.566  72.427  1.00  0.00    -0.356 C  
HETATM    9  C   UNL     1     -12.094   7.867  71.210  1.00  0.00    -0.296 C  
HETATM   10  C   UNL     1     -13.462   7.256  71.565  1.00  0.00    -0.439 C  
HETATM   11  O   UNL     1     -11.669   7.207  70.019  1.00  0.00    -0.178 OA 
HETATM   12  O   UNL     1     -10.320   7.609  69.613  1.00  0.00    -0.203 OA 
HETATM   13  C   UNL     1      -9.942   8.920  70.102  1.00  0.00    -0.185 C  
HETATM   14  C   UNL     1     -11.174   9.857  70.227  1.00  0.00    -0.301 C  
HETATM   15  O   UNL     1     -11.603  10.373  68.956  1.00  0.00    -0.228 OA 
HETATM   16  O   UNL     1     -12.276   9.260  70.944  1.00  0.00    -0.278 OA 
HETATM   17  C   UNL     1     -10.590  11.089  68.230  1.00  0.00    -0.187 C  
HETATM   18  C   UNL     1      -9.137  10.930  68.759  1.00  0.00    -0.174 C  
HETATM   19  C   UNL     1      -8.098  11.505  67.788  1.00  0.00    -0.133 C  
ENDROOT
BRANCH  17  20
HETATM   20  O   UNL     1     -10.943  12.469  67.952  1.00  0.00    -0.211 OA 
BRANCH  20  21
HETATM   21  C   UNL     1     -11.580  12.756  66.792  1.00  0.00    -0.370 C  
HETATM   22  O   UNL     1     -12.142  11.939  66.073  1.00  0.00    -0.500 OA 
BRANCH  21  23
HETATM   23  C   UNL     1     -11.551  14.236  66.498  1.00  0.00    -0.390 C  
BRANCH  23  24
HETATM   24  C   UNL     1     -10.751  14.581  65.259  1.00  0.00    -0.390 C  
HETATM   25  C   UNL     1     -10.820  16.057  64.954  1.00  0.00    -0.372 C  
HETATM   26  O   UNL     1     -10.133  16.894  65.517  1.00  0.00    -0.575 OA 
HETATM   27  O   UNL     1     -11.726  16.373  64.008  1.00  0.00    -1.044 OA 
ENDBRANCH  23  24
ENDBRANCH  21  23
ENDBRANCH  20  21
ENDBRANCH  17  20
TORSDOF 4
ENDMDL
MODEL       37
REMARK 921   NORMALIZED FREE ENERGY PREDICTED BY IDOCK:   -6.00 KCAL/MOL
REMARK 922        TOTAL FREE ENERGY PREDICTED BY IDOCK:   -8.13 KCAL/MOL
REMARK 923 INTER-LIGAND FREE ENERGY PREDICTED BY IDOCK:   -7.47 KCAL/MOL
REMARK 924 INTRA-LIGAND FREE ENERGY PREDICTED BY IDOCK:   -0.65 KCAL/MOL
REMARK 927      BINDING AFFINITY PREDICTED BY RF-SCORE:    0.00 PKD
ROOT
HETATM    1  C   UNL     1      -8.385  15.079  68.192  1.00  0.00    -0.142 C  
HETATM    2  C   UNL     1      -7.043  15.123  68.971  1.00  0.00    -0.140 C  
HETATM    3  C   UNL     1      -6.770  16.479  69.625  1.00  0.00    -0.126 C  
HETATM    4  C   UNL     1      -6.867  17.663  68.641  1.00  0.00    -0.229 C  
HETATM    5  C   UNL     1      -5.590  18.497  68.601  1.00  0.00    -0.186 C  
HETATM    6  C   UNL     1      -7.331  17.163  67.245  1.00  0.00    -0.182 C  
HETATM    7  C   UNL     1      -7.390  18.254  66.186  1.00  0.00    -0.298 C  
HETATM    8  C   UNL     1      -8.541  19.198  66.438  1.00  0.00    -0.335 C  
HETATM    9  C   UNL     1      -9.920  18.493  66.378  1.00  0.00    -0.379 C  
HETATM   10  C   UNL     1     -10.900  19.560  65.857  1.00  0.00    -0.426 C  
HETATM   11  O   UNL     1     -10.406  18.111  67.664  1.00  0.00    -0.361 OA 
HETATM   12  O   UNL     1      -9.509  17.170  68.339  1.00  0.00    -0.258 OA 
HETATM   13  C   UNL     1      -8.684  16.408  67.423  1.00  0.00    -0.182 C  
HETATM   14  C   UNL     1      -9.409  16.165  66.072  1.00  0.00    -0.333 C  
HETATM   15  O   UNL     1     -10.400  15.128  66.160  1.00  0.00    -0.275 OA 
HETATM   16  O   UNL     1      -9.965  17.368  65.498  1.00  0.00    -0.555 OA 
HETATM   17  C   UNL     1      -9.898  13.859  66.612  1.00  0.00    -0.284 C  
HETATM   18  C   UNL     1      -8.471  13.877  67.229  1.00  0.00    -0.212 C  
HETATM   19  C   UNL     1      -8.119  12.551  67.916  1.00  0.00    -0.163 C  
ENDROOT
BRANCH  17  20
HETATM   20  O   UNL     1     -10.087  12.787  65.653  1.00  0.00    -0.274 OA 
BRANCH  20  21
HETATM   21  C   UNL     1     -10.965  11.799  65.948  1.00  0.00    -0.304 C  
HETATM   22  O   UNL     1     -11.995  11.939  66.596  1.00  0.00    -0.601 OA 
BRANCH  21  23
HETATM   23  C   UNL     1     -10.542  10.484  65.341  1.00  0.00    -0.143 C  
BRANCH  23  24
HETATM   24  C   UNL     1      -9.540   9.731  66.190  1.00  0.00    -0.287 C  
HETATM   25  C   UNL     1     -10.229   8.786  67.144  1.00  0.00    -0.276 C  
HETATM   26  O   UNL     1     -10.642   7.684  66.821  1.00  0.00    -0.325 OA 
HETATM   27  O   UNL     1     -10.362   9.277  68.392  1.00  0.00    -0.196 OA 
ENDBRANCH  23  24
ENDBRANCH  21  23
ENDBRANCH  20  21
ENDBRANCH  17  20
TORSDOF 4
ENDMDL
MODEL       38
REMARK 921   NORMALIZED FREE ENERGY PREDICTED BY IDOCK:   -6.00 KCAL/MOL
REMARK 922        TOTAL FREE ENERGY PREDICTED BY IDOCK:   -8.12 KCAL/MOL
REMARK 923 INTER-LIGAND FREE ENERGY PREDICTED BY IDOCK:   -7.66 KCAL/MOL
REMARK 924 INTRA-LIGAND FREE ENERGY PREDICTED BY IDOCK:   -0.46 KCAL/MOL
REMARK 927      BINDING AFFINITY PREDICTED BY RF-SCORE:    0.00 PKD
ROOT
HETATM    1  C   UNL     1      -9.380   8.054  68.571  1.00  0.00    -0.142 C  
HETATM    2  C   UNL     1      -8.174   7.091  68.739  1.00  0.00    -0.122 C  
HETATM    3  C   UNL     1      -8.459   5.927  69.689  1.00  0.00    -0.117 C  
HETATM    4  C   UNL     1      -8.990   6.378  71.065  1.00  0.00    -0.146 C  
HETATM    5  C   UNL     1      -8.137   5.863  72.220  1.00  0.00    -0.107 C  
HETATM    6  C   UNL     1      -9.201   7.918  71.081  1.00  0.00    -0.165 C  
HETATM    7  C   UNL     1      -9.660   8.465  72.424  1.00  0.00    -0.373 C  
HETATM    8  C   UNL     1     -11.091   8.078  72.711  1.00  0.00    -0.448 C  
HETATM    9  C   UNL     1     -12.087   8.652  71.672  1.00  0.00    -0.326 C  
HETATM   10  C   UNL     1     -13.395   8.888  72.449  1.00  0.00    -0.488 C  
HETATM   11  O   UNL     1     -12.409   7.724  70.638  1.00  0.00    -0.080 OA 
HETATM   12  O   UNL     1     -11.229   7.315  69.872  1.00  0.00    -0.244 OA 
HETATM   13  C   UNL     1     -10.157   8.290  69.907  1.00  0.00    -0.195 C  
HETATM   14  C   UNL     1     -10.708   9.737  70.029  1.00  0.00    -0.283 C  
HETATM   15  O   UNL     1     -11.221  10.235  68.783  1.00  0.00    -0.240 OA 
HETATM   16  O   UNL     1     -11.677   9.891  71.089  1.00  0.00    -0.338 OA 
HETATM   17  C   UNL     1     -10.274  10.226  67.701  1.00  0.00    -0.205 C  
HETATM   18  C   UNL     1      -8.977   9.405  67.945  1.00  0.00    -0.126 C  
HETATM   19  C   UNL     1      -8.149   9.232  66.664  1.00  0.00    -0.108 C  
ENDROOT
BRANCH  17  20
HETATM   20  O   UNL     1     -10.016  11.541  67.146  1.00  0.00    -0.196 OA 
BRANCH  20  21
HETATM   21  C   UNL     1     -10.873  12.548  67.437  1.00  0.00    -0.240 C  
HETATM   22  O   UNL     1     -10.811  13.266  68.428  1.00  0.00    -0.242 OA 
BRANCH  21  23
HETATM   23  C   UNL     1     -11.914  12.717  66.357  1.00  0.00    -0.443 C  
BRANCH  23  24
HETATM   24  C   UNL     1     -11.341  12.629  64.959  1.00  0.00    -0.345 C  
HETATM   25  C   UNL     1     -12.348  13.068  63.924  1.00  0.00    -0.375 C  
HETATM   26  O   UNL     1     -12.574  14.236  63.656  1.00  0.00    -0.831 OA 
HETATM   27  O   UNL     1     -12.992  12.045  63.326  1.00  0.00    -0.736 OA 
ENDBRANCH  23  24
ENDBRANCH  21  23
ENDBRANCH  20  21
ENDBRANCH  17  20
TORSDOF 4
ENDMDL
MODEL       39
REMARK 921   NORMALIZED FREE ENERGY PREDICTED BY IDOCK:   -5.99 KCAL/MOL
REMARK 922        TOTAL FREE ENERGY PREDICTED BY IDOCK:   -8.11 KCAL/MOL
REMARK 923 INTER-LIGAND FREE ENERGY PREDICTED BY IDOCK:   -7.49 KCAL/MOL
REMARK 924 INTRA-LIGAND FREE ENERGY PREDICTED BY IDOCK:   -0.62 KCAL/MOL
REMARK 927      BINDING AFFINITY PREDICTED BY RF-SCORE:    0.00 PKD
ROOT
HETATM    1  C   UNL     1     -11.910  12.223  69.582  1.00  0.00    -0.393 C  
HETATM    2  C   UNL     1     -12.359  12.512  71.040  1.00  0.00    -0.307 C  
HETATM    3  C   UNL     1     -12.994  13.893  71.213  1.00  0.00    -0.414 C  
HETATM    4  C   UNL     1     -12.114  15.041  70.678  1.00  0.00    -0.375 C  
HETATM    5  C   UNL     1     -11.817  16.096  71.739  1.00  0.00    -0.581 C  
HETATM    6  C   UNL     1     -10.841  14.468  69.994  1.00  0.00    -0.031 C  
HETATM    7  C   UNL     1      -9.876  15.532  69.493  1.00  0.00    -0.284 C  
HETATM    8  C   UNL     1     -10.430  16.248  68.285  1.00  0.00    -0.284 C  
HETATM    9  C   UNL     1     -10.659  15.301  67.080  1.00  0.00    -0.306 C  
HETATM   10  C   UNL     1     -10.428  16.170  65.830  1.00  0.00    -0.384 C  
HETATM   11  O   UNL     1     -12.003  14.833  66.986  1.00  0.00    -0.350 OA 
HETATM   12  O   UNL     1     -12.409  14.071  68.171  1.00  0.00    -0.248 OA 
HETATM   13  C   UNL     1     -11.293  13.476  68.879  1.00  0.00    -0.289 C  
HETATM   14  C   UNL     1     -10.136  13.107  67.910  1.00  0.00    -0.232 C  
HETATM   15  O   UNL     1     -10.403  11.905  67.169  1.00  0.00    -0.206 OA 
HETATM   16  O   UNL     1      -9.762  14.189  67.030  1.00  0.00    -0.243 OA 
HETATM   17  C   UNL     1     -10.669  10.750  67.982  1.00  0.00    -0.228 C  
HETATM   18  C   UNL     1     -10.939  11.028  69.487  1.00  0.00    -0.297 C  
HETATM   19  C   UNL     1     -11.464   9.788  70.222  1.00  0.00    -0.317 C  
ENDROOT
BRANCH  17  20
HETATM   20  O   UNL     1      -9.732   9.663  67.766  1.00  0.00    -0.141 OA 
BRANCH  20  21
HETATM   21  C   UNL     1      -9.910   8.854  66.695  1.00  0.00    -0.262 C  
HETATM   22  O   UNL     1      -9.499   9.079  65.563  1.00  0.00    -0.228 OA 
BRANCH  21  23
HETATM   23  C   UNL     1     -10.656   7.597  67.070  1.00  0.00    -0.406 C  
BRANCH  23  24
HETATM   24  C   UNL     1      -9.740   6.446  67.429  1.00  0.00    -0.141 C  
HETATM   25  C   UNL     1      -9.510   5.537  66.246  1.00  0.00    -0.157 C  
HETATM   26  O   UNL     1      -8.709   5.776  65.358  1.00  0.00    -0.151 OA 
HETATM   27  O   UNL     1     -10.287   4.435  66.251  1.00  0.00    -0.235 OA 
ENDBRANCH  23  24
ENDBRANCH  21  23
ENDBRANCH  20  21
ENDBRANCH  17  20
TORSDOF 4
ENDMDL
MODEL       40
REMARK 921   NORMALIZED FREE ENERGY PREDICTED BY IDOCK:   -5.98 KCAL/MOL
REMARK 922        TOTAL FREE ENERGY PREDICTED BY IDOCK:   -8.09 KCAL/MOL
REMARK 923 INTER-LIGAND FREE ENERGY PREDICTED BY IDOCK:   -7.44 KCAL/MOL
REMARK 924 INTRA-LIGAND FREE ENERGY PREDICTED BY IDOCK:   -0.65 KCAL/MOL
REMARK 927      BINDING AFFINITY PREDICTED BY RF-SCORE:    0.00 PKD
ROOT
HETATM    1  C   UNL     1     -11.055  12.068  65.532  1.00  0.00    -0.361 C  
HETATM    2  C   UNL     1     -10.424  11.888  64.126  1.00  0.00    -0.393 C  
HETATM    3  C   UNL     1      -9.978  10.452  63.845  1.00  0.00    -0.269 C  
HETATM    4  C   UNL     1      -9.052   9.875  64.935  1.00  0.00    -0.271 C  
HETATM    5  C   UNL     1      -7.720   9.386  64.374  1.00  0.00    -0.119 C  
HETATM    6  C   UNL     1      -8.903  10.888  66.104  1.00  0.00    -0.195 C  
HETATM    7  C   UNL     1      -7.951  10.432  67.199  1.00  0.00    -0.115 C  
HETATM    8  C   UNL     1      -8.544   9.302  68.005  1.00  0.00    -0.121 C  
HETATM    9  C   UNL     1      -9.847   9.709  68.739  1.00  0.00    -0.165 C  
HETATM   10  C   UNL     1      -9.870   8.867  70.027  1.00  0.00    -0.188 C  
HETATM   11  O   UNL     1     -11.026   9.353  68.018  1.00  0.00    -0.183 OA 
HETATM   12  O   UNL     1     -11.092  10.000  66.705  1.00  0.00    -0.037 OA 
HETATM   13  C   UNL     1     -10.329  11.230  66.635  1.00  0.00    -0.237 C  
HETATM   14  C   UNL     1     -10.291  11.955  68.008  1.00  0.00    -0.196 C  
HETATM   15  O   UNL     1     -11.518  12.645  68.298  1.00  0.00    -0.267 OA 
HETATM   16  O   UNL     1      -9.910  11.091  69.100  1.00  0.00    -0.183 OA 
HETATM   17  C   UNL     1     -11.906  13.615  67.310  1.00  0.00    -0.391 C  
HETATM   18  C   UNL     1     -11.140  13.548  65.959  1.00  0.00    -0.300 C  
HETATM   19  C   UNL     1     -11.783  14.432  64.882  1.00  0.00    -0.408 C  
ENDROOT
BRANCH  17  20
HETATM   20  O   UNL     1     -12.015  14.963  67.834  1.00  0.00    -0.317 OA 
BRANCH  20  21
HETATM   21  C   UNL     1     -11.555  15.214  69.082  1.00  0.00    -0.323 C  
HETATM   22  O   UNL     1     -10.401  15.512  69.364  1.00  0.00    -0.223 OA 
BRANCH  21  23
HETATM   23  C   UNL     1     -12.659  15.122  70.107  1.00  0.00    -0.319 C  
BRANCH  23  24
HETATM   24  C   UNL     1     -12.197  14.552  71.431  1.00  0.00    -0.425 C  
HETATM   25  C   UNL     1     -12.924  13.271  71.761  1.00  0.00    -0.335 C  
HETATM   26  O   UNL     1     -12.623  12.185  71.295  1.00  0.00    -0.342 OA 
HETATM   27  O   UNL     1     -13.954  13.438  72.615  1.00  0.00    -0.755 OA 
ENDBRANCH  23  24
ENDBRANCH  21  23
ENDBRANCH  20  21
ENDBRANCH  17  20
TORSDOF 4
ENDMDL
MODEL       41
REMARK 921   NORMALIZED FREE ENERGY PREDICTED BY IDOCK:   -5.98 KCAL/MOL
REMARK 922        TOTAL FREE ENERGY PREDICTED BY IDOCK:   -8.09 KCAL/MOL
REMARK 923 INTER-LIGAND FREE ENERGY PREDICTED BY IDOCK:   -7.49 KCAL/MOL
REMARK 924 INTRA-LIGAND FREE ENERGY PREDICTED BY IDOCK:   -0.60 KCAL/MOL
REMARK 927      BINDING AFFINITY PREDICTED BY RF-SCORE:    0.00 PKD
ROOT
HETATM    1  C   UNL     1     -10.047  10.344  65.509  1.00  0.00    -0.352 C  
HETATM    2  C   UNL     1      -8.762   9.811  64.822  1.00  0.00    -0.216 C  
HETATM    3  C   UNL     1      -8.164   8.590  65.525  1.00  0.00    -0.138 C  
HETATM    4  C   UNL     1      -7.924   8.811  67.033  1.00  0.00    -0.095 C  
HETATM    5  C   UNL     1      -6.475   8.563  67.438  1.00  0.00    -0.058 C  
HETATM    6  C   UNL     1      -8.464  10.203  67.464  1.00  0.00    -0.118 C  
HETATM    7  C   UNL     1      -8.210  10.539  68.926  1.00  0.00    -0.141 C  
HETATM    8  C   UNL     1      -9.083   9.710  69.837  1.00  0.00    -0.250 C  
HETATM    9  C   UNL     1     -10.595   9.965  69.615  1.00  0.00    -0.250 C  
HETATM   10  C   UNL     1     -11.251   9.752  70.991  1.00  0.00    -0.451 C  
HETATM   11  O   UNL     1     -11.198   9.012  68.742  1.00  0.00     0.099 OA 
HETATM   12  O   UNL     1     -10.594   9.020  67.407  1.00  0.00    -0.275 OA 
HETATM   13  C   UNL     1      -9.971  10.285  67.069  1.00  0.00    -0.201 C  
HETATM   14  C   UNL     1     -10.697  11.477  67.749  1.00  0.00    -0.207 C  
HETATM   15  O   UNL     1     -11.925  11.821  67.086  1.00  0.00    -0.617 OA 
HETATM   16  O   UNL     1     -10.906  11.286  69.165  1.00  0.00    -0.212 OA 
HETATM   17  C   UNL     1     -11.782  12.142  65.692  1.00  0.00    -0.323 C  
HETATM   18  C   UNL     1     -10.417  11.770  65.049  1.00  0.00    -0.332 C  
HETATM   19  C   UNL     1     -10.439  11.905  63.521  1.00  0.00    -0.505 C  
ENDROOT
BRANCH  17  20
HETATM   20  O   UNL     1     -12.217  13.486  65.361  1.00  0.00    -0.392 OA 
BRANCH  20  21
HETATM   21  C   UNL     1     -11.682  14.528  66.040  1.00  0.00    -0.345 C  
HETATM   22  O   UNL     1     -11.907  14.799  67.213  1.00  0.00    -0.378 OA 
BRANCH  21  23
HETATM   23  C   UNL     1     -10.723  15.315  65.179  1.00  0.00    -0.455 C  
BRANCH  23  24
HETATM   24  C   UNL     1     -10.553  16.748  65.635  1.00  0.00    -0.258 C  
HETATM   25  C   UNL     1      -9.235  16.947  66.341  1.00  0.00    -0.279 C  
HETATM   26  O   UNL     1      -8.175  17.106  65.758  1.00  0.00    -0.515 OA 
HETATM   27  O   UNL     1      -9.330  16.920  67.685  1.00  0.00    -0.230 OA 
ENDBRANCH  23  24
ENDBRANCH  21  23
ENDBRANCH  20  21
ENDBRANCH  17  20
TORSDOF 4
ENDMDL
MODEL       42
REMARK 921   NORMALIZED FREE ENERGY PREDICTED BY IDOCK:   -5.97 KCAL/MOL
REMARK 922        TOTAL FREE ENERGY PREDICTED BY IDOCK:   -8.09 KCAL/MOL
REMARK 923 INTER-LIGAND FREE ENERGY PREDICTED BY IDOCK:   -7.23 KCAL/MOL
REMARK 924 INTRA-LIGAND FREE ENERGY PREDICTED BY IDOCK:   -0.85 KCAL/MOL
REMARK 927      BINDING AFFINITY PREDICTED BY RF-SCORE:    0.00 PKD
ROOT
HETATM    1  C   UNL     1     -10.529  10.927  64.588  1.00  0.00    -0.384 C  
HETATM    2  C   UNL     1      -9.766  10.597  63.278  1.00  0.00    -0.385 C  
HETATM    3  C   UNL     1      -8.897   9.343  63.386  1.00  0.00    -0.199 C  
HETATM    4  C   UNL     1      -7.929   9.371  64.587  1.00  0.00    -0.124 C  
HETATM    5  C   UNL     1      -6.474   9.186  64.171  1.00  0.00    -0.084 C  
HETATM    6  C   UNL     1      -8.176  10.643  65.445  1.00  0.00    -0.125 C  
HETATM    7  C   UNL     1      -7.220  10.793  66.618  1.00  0.00    -0.134 C  
HETATM    8  C   UNL     1      -7.515   9.779  67.697  1.00  0.00    -0.091 C  
HETATM    9  C   UNL     1      -8.933   9.942  68.301  1.00  0.00    -0.119 C  
HETATM   10  C   UNL     1      -8.806   9.489  69.767  1.00  0.00    -0.211 C  
HETATM   11  O   UNL     1      -9.895   9.073  67.706  1.00  0.00    -0.154 OA 
HETATM   12  O   UNL     1     -10.046   9.315  66.268  1.00  0.00    -0.278 OA 
HETATM   13  C   UNL     1      -9.676  10.659  65.871  1.00  0.00    -0.223 C  
HETATM   14  C   UNL     1      -9.960  11.684  67.002  1.00  0.00    -0.204 C  
HETATM   15  O   UNL     1     -11.354  12.018  67.103  1.00  0.00    -0.294 OA 
HETATM   16  O   UNL     1      -9.427  11.284  68.283  1.00  0.00    -0.175 OA 
HETATM   17  C   UNL     1     -11.933  12.539  65.895  1.00  0.00    -0.409 C  
HETATM   18  C   UNL     1     -11.078  12.369  64.608  1.00  0.00    -0.348 C  
HETATM   19  C   UNL     1     -11.868  12.711  63.337  1.00  0.00    -0.594 C  
ENDROOT
BRANCH  17  20
HETATM   20  O   UNL     1     -12.474  13.877  66.043  1.00  0.00    -0.463 OA 
BRANCH  20  21
HETATM   21  C   UNL     1     -11.729  14.813  66.677  1.00  0.00    -0.283 C  
HETATM   22  O   UNL     1     -11.675  14.971  67.890  1.00  0.00    -0.338 OA 
BRANCH  21  23
HETATM   23  C   UNL     1     -10.923  15.634  65.700  1.00  0.00    -0.276 C  
BRANCH  23  24
HETATM   24  C   UNL     1      -9.432  15.395  65.809  1.00  0.00    -0.325 C  
HETATM   25  C   UNL     1      -8.753  16.505  66.574  1.00  0.00    -0.282 C  
HETATM   26  O   UNL     1      -8.737  16.572  67.792  1.00  0.00    -0.192 OA 
HETATM   27  O   UNL     1      -8.173  17.431  65.785  1.00  0.00    -0.540 OA 
ENDBRANCH  23  24
ENDBRANCH  21  23
ENDBRANCH  20  21
ENDBRANCH  17  20
TORSDOF 4
ENDMDL
MODEL       43
REMARK 921   NORMALIZED FREE ENERGY PREDICTED BY IDOCK:   -5.96 KCAL/MOL
REMARK 922        TOTAL FREE ENERGY PREDICTED BY IDOCK:   -8.08 KCAL/MOL
REMARK 923 INTER-LIGAND FREE ENERGY PREDICTED BY IDOCK:   -7.46 KCAL/MOL
REMARK 924 INTRA-LIGAND FREE ENERGY PREDICTED BY IDOCK:   -0.61 KCAL/MOL
REMARK 927      BINDING AFFINITY PREDICTED BY RF-SCORE:    0.00 PKD
ROOT
HETATM    1  C   UNL     1     -10.478   7.644  67.523  1.00  0.00    -0.336 C  
HETATM    2  C   UNL     1      -9.986   6.590  66.496  1.00  0.00    -0.154 C  
HETATM    3  C   UNL     1     -10.312   5.152  66.903  1.00  0.00    -0.288 C  
HETATM    4  C   UNL     1      -9.828   4.795  68.323  1.00  0.00    -0.181 C  
HETATM    5  C   UNL     1      -8.906   3.579  68.340  1.00  0.00    -0.158 C  
HETATM    6  C   UNL     1      -9.223   6.047  69.015  1.00  0.00    -0.125 C  
HETATM    7  C   UNL     1      -8.655   5.775  70.400  1.00  0.00    -0.133 C  
HETATM    8  C   UNL     1      -9.756   5.522  71.402  1.00  0.00    -0.205 C  
HETATM    9  C   UNL     1     -10.698   6.740  71.578  1.00  0.00    -0.226 C  
HETATM   10  C   UNL     1     -11.173   6.680  73.041  1.00  0.00    -0.179 C  
HETATM   11  O   UNL     1     -11.878   6.650  70.780  1.00  0.00    -0.371 OA 
HETATM   12  O   UNL     1     -11.576   6.585  69.348  1.00  0.00    -0.339 OA 
HETATM   13  C   UNL     1     -10.298   7.177  69.005  1.00  0.00    -0.199 C  
HETATM   14  C   UNL     1      -9.938   8.347  69.960  1.00  0.00    -0.188 C  
HETATM   15  O   UNL     1     -10.662   9.550  69.651  1.00  0.00    -0.223 OA 
HETATM   16  O   UNL     1     -10.070   8.005  71.357  1.00  0.00    -0.180 OA 
HETATM   17  C   UNL     1     -10.486  10.023  68.306  1.00  0.00    -0.213 C  
HETATM   18  C   UNL     1      -9.821   9.025  67.318  1.00  0.00    -0.252 C  
HETATM   19  C   UNL     1      -9.906   9.503  65.862  1.00  0.00    -0.360 C  
ENDROOT
BRANCH  17  20
HETATM   20  O   UNL     1      -9.918  11.356  68.232  1.00  0.00    -0.185 OA 
BRANCH  20  21
HETATM   21  C   UNL     1     -10.756  12.416  68.149  1.00  0.00    -0.221 C  
HETATM   22  O   UNL     1     -10.653  13.452  68.795  1.00  0.00    -0.245 OA 
BRANCH  21  23
HETATM   23  C   UNL     1     -11.835  12.189  67.118  1.00  0.00    -0.292 C  
BRANCH  23  24
HETATM   24  C   UNL     1     -11.490  12.762  65.760  1.00  0.00    -0.388 C  
HETATM   25  C   UNL     1     -12.727  13.219  65.026  1.00  0.00    -0.375 C  
HETATM   26  O   UNL     1     -13.277  14.289  65.233  1.00  0.00    -0.704 OA 
HETATM   27  O   UNL     1     -13.184  12.328  64.124  1.00  0.00    -0.745 OA 
ENDBRANCH  23  24
ENDBRANCH  21  23
ENDBRANCH  20  21
ENDBRANCH  17  20
TORSDOF 4
ENDMDL
MODEL       44
REMARK 921   NORMALIZED FREE ENERGY PREDICTED BY IDOCK:   -5.92 KCAL/MOL
REMARK 922        TOTAL FREE ENERGY PREDICTED BY IDOCK:   -8.02 KCAL/MOL
REMARK 923 INTER-LIGAND FREE ENERGY PREDICTED BY IDOCK:   -7.48 KCAL/MOL
REMARK 924 INTRA-LIGAND FREE ENERGY PREDICTED BY IDOCK:   -0.54 KCAL/MOL
REMARK 927      BINDING AFFINITY PREDICTED BY RF-SCORE:    0.00 PKD
ROOT
HETATM    1  C   UNL     1     -10.677   9.771  69.890  1.00  0.00    -0.303 C  
HETATM    2  C   UNL     1     -11.111   8.734  70.960  1.00  0.00    -0.328 C  
HETATM    3  C   UNL     1     -10.220   7.490  70.991  1.00  0.00    -0.194 C  
HETATM    4  C   UNL     1     -10.063   6.817  69.612  1.00  0.00    -0.197 C  
HETATM    5  C   UNL     1     -10.479   5.349  69.626  1.00  0.00    -0.361 C  
HETATM    6  C   UNL     1     -10.778   7.659  68.519  1.00  0.00    -0.094 C  
HETATM    7  C   UNL     1     -10.735   7.035  67.132  1.00  0.00    -0.433 C  
HETATM    8  C   UNL     1      -9.346   7.106  66.544  1.00  0.00    -0.208 C  
HETATM    9  C   UNL     1      -8.849   8.562  66.355  1.00  0.00    -0.150 C  
HETATM   10  C   UNL     1      -7.925   8.520  65.124  1.00  0.00    -0.130 C  
HETATM   11  O   UNL     1      -8.037   9.018  67.437  1.00  0.00    -0.106 OA 
HETATM   12  O   UNL     1      -8.757   9.007  68.713  1.00  0.00    -0.133 OA 
HETATM   13  C   UNL     1     -10.195   9.105  68.560  1.00  0.00    -0.198 C  
HETATM   14  C   UNL     1     -10.579   9.933  67.304  1.00  0.00    -0.252 C  
HETATM   15  O   UNL     1     -10.431  11.347  67.514  1.00  0.00    -0.190 OA 
HETATM   16  O   UNL     1      -9.890   9.510  66.108  1.00  0.00    -0.235 OA 
HETATM   17  C   UNL     1     -11.185  11.869  68.620  1.00  0.00    -0.257 C  
HETATM   18  C   UNL     1     -11.776  10.813  69.595  1.00  0.00    -0.395 C  
HETATM   19  C   UNL     1     -12.337  11.450  70.873  1.00  0.00    -0.483 C  
ENDROOT
BRANCH  17  20
HETATM   20  O   UNL     1     -12.146  12.887  68.237  1.00  0.00    -0.294 OA 
BRANCH  20  21
HETATM   21  C   UNL     1     -11.873  14.181  68.527  1.00  0.00    -0.355 C  
HETATM   22  O   UNL     1     -11.598  14.613  69.639  1.00  0.00    -0.273 OA 
BRANCH  21  23
HETATM   23  C   UNL     1     -11.909  15.044  67.289  1.00  0.00    -0.163 C  
BRANCH  23  24
HETATM   24  C   UNL     1     -10.533  15.375  66.754  1.00  0.00    -0.299 C  
HETATM   25  C   UNL     1     -10.545  15.511  65.251  1.00  0.00    -0.424 C  
HETATM   26  O   UNL     1     -10.911  16.519  64.668  1.00  0.00    -0.732 OA 
HETATM   27  O   UNL     1     -10.126  14.406  64.603  1.00  0.00    -0.293 OA 
ENDBRANCH  23  24
ENDBRANCH  21  23
ENDBRANCH  20  21
ENDBRANCH  17  20
TORSDOF 4
ENDMDL
MODEL       45
REMARK 921   NORMALIZED FREE ENERGY PREDICTED BY IDOCK:   -5.90 KCAL/MOL
REMARK 922        TOTAL FREE ENERGY PREDICTED BY IDOCK:   -8.00 KCAL/MOL
REMARK 923 INTER-LIGAND FREE ENERGY PREDICTED BY IDOCK:   -7.39 KCAL/MOL
REMARK 924 INTRA-LIGAND FREE ENERGY PREDICTED BY IDOCK:   -0.60 KCAL/MOL
REMARK 927      BINDING AFFINITY PREDICTED BY RF-SCORE:    0.00 PKD
ROOT
HETATM    1  C   UNL     1     -10.324   9.887  67.386  1.00  0.00    -0.301 C  
HETATM    2  C   UNL     1      -9.099   9.409  66.562  1.00  0.00    -0.188 C  
HETATM    3  C   UNL     1      -8.626   8.004  66.943  1.00  0.00    -0.130 C  
HETATM    4  C   UNL     1      -8.366   7.836  68.454  1.00  0.00    -0.125 C  
HETATM    5  C   UNL     1      -6.948   7.359  68.754  1.00  0.00    -0.078 C  
HETATM    6  C   UNL     1      -8.763   9.132  69.214  1.00  0.00    -0.139 C  
HETATM    7  C   UNL     1      -8.476   9.084  70.707  1.00  0.00    -0.238 C  
HETATM    8  C   UNL     1      -9.428   8.152  71.418  1.00  0.00    -0.211 C  
HETATM    9  C   UNL     1     -10.907   8.599  71.298  1.00  0.00    -0.260 C  
HETATM   10  C   UNL     1     -11.581   8.129  72.600  1.00  0.00    -0.441 C  
HETATM   11  O   UNL     1     -11.603   7.943  70.239  1.00  0.00    -0.166 OA 
HETATM   12  O   UNL     1     -11.001   8.210  68.930  1.00  0.00    -0.033 OA 
HETATM   13  C   UNL     1     -10.254   9.451  68.886  1.00  0.00    -0.200 C  
HETATM   14  C   UNL     1     -10.857  10.513  69.845  1.00  0.00    -0.276 C  
HETATM   15  O   UNL     1     -12.044  11.122  69.312  1.00  0.00    -0.338 OA 
HETATM   16  O   UNL     1     -11.084  10.013  71.180  1.00  0.00    -0.333 OA 
HETATM   17  C   UNL     1     -11.870  11.750  68.030  1.00  0.00    -0.234 C  
HETATM   18  C   UNL     1     -10.549  11.410  67.285  1.00  0.00    -0.264 C  
HETATM   19  C   UNL     1     -10.557  11.905  65.833  1.00  0.00    -0.306 C  
ENDROOT
BRANCH  17  20
HETATM   20  O   UNL     1     -12.167  13.169  68.036  1.00  0.00    -0.260 OA 
BRANCH  20  21
HETATM   21  C   UNL     1     -11.607  13.947  68.992  1.00  0.00    -0.310 C  
HETATM   22  O   UNL     1     -10.410  14.182  69.100  1.00  0.00    -0.195 OA 
BRANCH  21  23
HETATM   23  C   UNL     1     -12.651  14.537  69.908  1.00  0.00    -0.226 C  
BRANCH  23  24
HETATM   24  C   UNL     1     -12.221  14.570  71.359  1.00  0.00    -0.425 C  
HETATM   25  C   UNL     1     -13.411  14.535  72.286  1.00  0.00    -0.403 C  
HETATM   26  O   UNL     1     -14.004  13.511  72.583  1.00  0.00    -0.752 OA 
HETATM   27  O   UNL     1     -13.772  15.748  72.750  1.00  0.00    -0.561 OA 
ENDBRANCH  23  24
ENDBRANCH  21  23
ENDBRANCH  20  21
ENDBRANCH  17  20
TORSDOF 4
ENDMDL
MODEL       46
REMARK 921   NORMALIZED FREE ENERGY PREDICTED BY IDOCK:   -5.86 KCAL/MOL
REMARK 922        TOTAL FREE ENERGY PREDICTED BY IDOCK:   -7.96 KCAL/MOL
REMARK 923 INTER-LIGAND FREE ENERGY PREDICTED BY IDOCK:   -7.23 KCAL/MOL
REMARK 924 INTRA-LIGAND FREE ENERGY PREDICTED BY IDOCK:   -0.73 KCAL/MOL
REMARK 927      BINDING AFFINITY PREDICTED BY RF-SCORE:    0.00 PKD
ROOT
HETATM    1  C   UNL     1     -10.192  16.062  65.616  1.00  0.00    -0.412 C  
HETATM    2  C   UNL     1     -10.779  17.493  65.749  1.00  0.00    -0.106 C  
HETATM    3  C   UNL     1      -9.800  18.490  66.372  1.00  0.00    -0.376 C  
HETATM    4  C   UNL     1      -9.216  18.014  67.718  1.00  0.00    -0.262 C  
HETATM    5  C   UNL     1      -9.463  19.008  68.849  1.00  0.00    -0.393 C  
HETATM    6  C   UNL     1      -9.704  16.573  68.035  1.00  0.00    -0.236 C  
HETATM    7  C   UNL     1      -9.233  16.042  69.380  1.00  0.00    -0.202 C  
HETATM    8  C   UNL     1      -7.754  15.738  69.360  1.00  0.00    -0.213 C  
HETATM    9  C   UNL     1      -7.382  14.639  68.332  1.00  0.00    -0.115 C  
HETATM   10  C   UNL     1      -6.169  13.909  68.937  1.00  0.00    -0.090 C  
HETATM   11  O   UNL     1      -6.937  15.170  67.085  1.00  0.00    -0.229 OA 
HETATM   12  O   UNL     1      -7.961  15.992  66.434  1.00  0.00    -0.265 OA 
HETATM   13  C   UNL     1      -9.310  15.652  66.840  1.00  0.00    -0.234 C  
HETATM   14  C   UNL     1      -9.437  14.144  67.188  1.00  0.00    -0.236 C  
HETATM   15  O   UNL     1      -9.500  13.314  66.016  1.00  0.00    -0.202 OA 
HETATM   16  O   UNL     1      -8.417  13.680  68.098  1.00  0.00    -0.159 OA 
HETATM   17  C   UNL     1     -10.570  13.638  65.112  1.00  0.00    -0.361 C  
HETATM   18  C   UNL     1     -11.280  14.997  65.363  1.00  0.00    -0.356 C  
HETATM   19  C   UNL     1     -12.221  15.383  64.214  1.00  0.00    -0.140 C  
ENDROOT
BRANCH  17  20
HETATM   20  O   UNL     1     -11.499  12.544  64.900  1.00  0.00    -0.306 OA 
BRANCH  20  21
HETATM   21  C   UNL     1     -11.529  11.943  63.687  1.00  0.00    -0.461 C  
HETATM   22  O   UNL     1     -12.544  11.595  63.096  1.00  0.00    -0.453 OA 
BRANCH  21  23
HETATM   23  C   UNL     1     -10.142  11.783  63.114  1.00  0.00    -0.386 C  
BRANCH  23  24
HETATM   24  C   UNL     1      -9.636  10.358  63.171  1.00  0.00    -0.346 C  
HETATM   25  C   UNL     1      -9.126  10.011  64.549  1.00  0.00    -0.243 C  
HETATM   26  O   UNL     1      -9.852   9.691  65.476  1.00  0.00    -0.302 OA 
HETATM   27  O   UNL     1      -7.786  10.100  64.669  1.00  0.00    -0.143 OA 
ENDBRANCH  23  24
ENDBRANCH  21  23
ENDBRANCH  20  21
ENDBRANCH  17  20
TORSDOF 4
ENDMDL
MODEL       47
REMARK 921   NORMALIZED FREE ENERGY PREDICTED BY IDOCK:   -5.86 KCAL/MOL
REMARK 922        TOTAL FREE ENERGY PREDICTED BY IDOCK:   -7.95 KCAL/MOL
REMARK 923 INTER-LIGAND FREE ENERGY PREDICTED BY IDOCK:   -7.43 KCAL/MOL
REMARK 924 INTRA-LIGAND FREE ENERGY PREDICTED BY IDOCK:   -0.52 KCAL/MOL
REMARK 927      BINDING AFFINITY PREDICTED BY RF-SCORE:    0.00 PKD
ROOT
HETATM    1  C   UNL     1     -10.825  14.438  65.774  1.00  0.00    -0.308 C  
HETATM    2  C   UNL     1     -11.564  15.552  64.988  1.00  0.00    -0.133 C  
HETATM    3  C   UNL     1     -10.751  16.842  64.860  1.00  0.00    -0.037 C  
HETATM    4  C   UNL     1     -10.240  17.378  66.213  1.00  0.00    -0.344 C  
HETATM    5  C   UNL     1     -10.685  18.813  66.480  1.00  0.00    -0.335 C  
HETATM    6  C   UNL     1     -10.603  16.389  67.354  1.00  0.00    -0.306 C  
HETATM    7  C   UNL     1     -10.198  16.868  68.740  1.00  0.00    -0.311 C  
HETATM    8  C   UNL     1      -8.699  16.817  68.919  1.00  0.00    -0.224 C  
HETATM    9  C   UNL     1      -8.129  15.382  68.799  1.00  0.00    -0.166 C  
HETATM   10  C   UNL     1      -6.904  15.351  69.731  1.00  0.00    -0.162 C  
HETATM   11  O   UNL     1      -7.634  15.087  67.493  1.00  0.00    -0.159 OA 
HETATM   12  O   UNL     1      -8.677  15.186  66.469  1.00  0.00    -0.278 OA 
HETATM   13  C   UNL     1     -10.014  14.991  66.992  1.00  0.00    -0.242 C  
HETATM   14  C   UNL     1     -10.015  14.017  68.202  1.00  0.00    -0.242 C  
HETATM   15  O   UNL     1      -9.891  12.643  67.799  1.00  0.00    -0.201 OA 
HETATM   16  O   UNL     1      -9.035  14.354  69.207  1.00  0.00     0.019 OA 
HETATM   17  C   UNL     1     -10.905  12.194  66.885  1.00  0.00    -0.250 C  
HETATM   18  C   UNL     1     -11.771  13.309  66.235  1.00  0.00    -0.412 C  
HETATM   19  C   UNL     1     -12.643  12.775  65.091  1.00  0.00    -0.513 C  
ENDROOT
BRANCH  17  20
HETATM   20  O   UNL     1     -11.695  11.089  67.395  1.00  0.00    -0.539 OA 
BRANCH  20  21
HETATM   21  C   UNL     1     -11.331  10.515  68.566  1.00  0.00    -0.257 C  
HETATM   22  O   UNL     1     -10.345   9.808  68.730  1.00  0.00    -0.192 OA 
BRANCH  21  23
HETATM   23  C   UNL     1     -12.278  10.886  69.681  1.00  0.00    -0.354 C  
BRANCH  23  24
HETATM   24  C   UNL     1     -11.728  10.573  71.057  1.00  0.00    -0.384 C  
HETATM   25  C   UNL     1     -12.285   9.275  71.589  1.00  0.00    -0.370 C  
HETATM   26  O   UNL     1     -11.856   8.178  71.271  1.00  0.00    -0.282 OA 
HETATM   27  O   UNL     1     -13.315   9.437  72.443  1.00  0.00    -0.452 OA 
ENDBRANCH  23  24
ENDBRANCH  21  23
ENDBRANCH  20  21
ENDBRANCH  17  20
TORSDOF 4
ENDMDL
MODEL       48
REMARK 921   NORMALIZED FREE ENERGY PREDICTED BY IDOCK:   -5.84 KCAL/MOL
REMARK 922        TOTAL FREE ENERGY PREDICTED BY IDOCK:   -7.93 KCAL/MOL
REMARK 923 INTER-LIGAND FREE ENERGY PREDICTED BY IDOCK:   -7.40 KCAL/MOL
REMARK 924 INTRA-LIGAND FREE ENERGY PREDICTED BY IDOCK:   -0.53 KCAL/MOL
REMARK 927      BINDING AFFINITY PREDICTED BY RF-SCORE:    0.00 PKD
ROOT
HETATM    1  C   UNL     1     -11.291  13.762  65.670  1.00  0.00    -0.311 C  
HETATM    2  C   UNL     1     -11.006  13.504  64.167  1.00  0.00    -0.274 C  
HETATM    3  C   UNL     1     -11.267  12.057  63.744  1.00  0.00    -0.516 C  
HETATM    4  C   UNL     1     -10.534  11.022  64.623  1.00  0.00    -0.398 C  
HETATM    5  C   UNL     1      -9.637  10.093  63.810  1.00  0.00    -0.285 C  
HETATM    6  C   UNL     1      -9.799  11.735  65.791  1.00  0.00    -0.267 C  
HETATM    7  C   UNL     1      -8.989  10.798  66.675  1.00  0.00    -0.164 C  
HETATM    8  C   UNL     1      -9.890   9.931  67.522  1.00  0.00    -0.209 C  
HETATM    9  C   UNL     1     -10.771  10.754  68.496  1.00  0.00    -0.210 C  
HETATM   10  C   UNL     1     -10.970   9.851  69.727  1.00  0.00    -0.304 C  
HETATM   11  O   UNL     1     -12.078  11.008  67.983  1.00  0.00    -0.615 OA 
HETATM   12  O   UNL     1     -12.046  11.774  66.735  1.00  0.00    -0.547 OA 
HETATM   13  C   UNL     1     -10.847  12.574  66.585  1.00  0.00    -0.246 C  
HETATM   14  C   UNL     1     -10.305  13.050  67.961  1.00  0.00    -0.234 C  
HETATM   15  O   UNL     1     -11.060  14.148  68.498  1.00  0.00    -0.237 OA 
HETATM   16  O   UNL     1     -10.181  11.983  68.925  1.00  0.00    -0.169 OA 
HETATM   17  C   UNL     1     -11.130  15.301  67.641  1.00  0.00    -0.323 C  
HETATM   18  C   UNL     1     -10.668  15.082  66.173  1.00  0.00    -0.328 C  
HETATM   19  C   UNL     1     -11.015  16.273  65.271  1.00  0.00    -0.245 C  
ENDROOT
BRANCH  17  20
HETATM   20  O   UNL     1     -10.572  16.499  68.238  1.00  0.00    -0.294 OA 
BRANCH  20  21
HETATM   21  C   UNL     1      -9.231  16.680  68.200  1.00  0.00    -0.220 C  
HETATM   22  O   UNL     1      -8.642  17.448  67.449  1.00  0.00    -0.211 OA 
BRANCH  21  23
HETATM   23  C   UNL     1      -8.530  15.839  69.239  1.00  0.00    -0.258 C  
BRANCH  23  24
HETATM   24  C   UNL     1      -7.072  15.591  68.918  1.00  0.00    -0.134 C  
HETATM   25  C   UNL     1      -6.608  14.263  69.465  1.00  0.00    -0.134 C  
HETATM   26  O   UNL     1      -6.815  13.196  68.910  1.00  0.00    -0.098 OA 
HETATM   27  O   UNL     1      -5.951  14.359  70.637  1.00  0.00    -0.172 OA 
ENDBRANCH  23  24
ENDBRANCH  21  23
ENDBRANCH  20  21
ENDBRANCH  17  20
TORSDOF 4
ENDMDL
MODEL       49
REMARK 921   NORMALIZED FREE ENERGY PREDICTED BY IDOCK:   -5.82 KCAL/MOL
REMARK 922        TOTAL FREE ENERGY PREDICTED BY IDOCK:   -7.90 KCAL/MOL
REMARK 923 INTER-LIGAND FREE ENERGY PREDICTED BY IDOCK:   -7.32 KCAL/MOL
REMARK 924 INTRA-LIGAND FREE ENERGY PREDICTED BY IDOCK:   -0.57 KCAL/MOL
REMARK 927      BINDING AFFINITY PREDICTED BY RF-SCORE:    0.00 PKD
ROOT
HETATM    1  C   UNL     1      -9.447   7.346  68.588  1.00  0.00    -0.139 C  
HETATM    2  C   UNL     1      -8.407   6.218  68.821  1.00  0.00    -0.120 C  
HETATM    3  C   UNL     1      -8.877   5.164  69.826  1.00  0.00    -0.130 C  
HETATM    4  C   UNL     1      -9.340   5.763  71.169  1.00  0.00    -0.174 C  
HETATM    5  C   UNL     1      -8.585   5.184  72.361  1.00  0.00    -0.125 C  
HETATM    6  C   UNL     1      -9.308   7.316  71.104  1.00  0.00    -0.156 C  
HETATM    7  C   UNL     1      -9.685   7.997  72.410  1.00  0.00    -0.305 C  
HETATM    8  C   UNL     1     -11.161   7.854  72.696  1.00  0.00    -0.447 C  
HETATM    9  C   UNL     1     -12.048   8.520  71.614  1.00  0.00    -0.321 C  
HETATM   10  C   UNL     1     -13.309   8.996  72.359  1.00  0.00    -0.516 C  
HETATM   11  O   UNL     1     -12.504   7.600  70.624  1.00  0.00    -0.063 OA 
HETATM   12  O   UNL     1     -11.397   6.973  69.897  1.00  0.00    -0.266 OA 
HETATM   13  C   UNL     1     -10.187   7.771  69.898  1.00  0.00    -0.213 C  
HETATM   14  C   UNL     1     -10.506   9.290  69.939  1.00  0.00    -0.227 C  
HETATM   15  O   UNL     1     -10.927   9.796  68.661  1.00  0.00    -0.213 OA 
HETATM   16  O   UNL     1     -11.446   9.648  70.975  1.00  0.00    -0.309 OA 
HETATM   17  C   UNL     1      -9.986   9.582  67.595  1.00  0.00    -0.180 C  
HETATM   18  C   UNL     1      -8.834   8.584  67.899  1.00  0.00    -0.137 C  
HETATM   19  C   UNL     1      -8.035   8.218  66.641  1.00  0.00    -0.098 C  
ENDROOT
BRANCH  17  20
HETATM   20  O   UNL     1      -9.523  10.811  66.978  1.00  0.00    -0.162 OA 
BRANCH  20  21
HETATM   21  C   UNL     1      -9.993  11.140  65.752  1.00  0.00    -0.245 C  
HETATM   22  O   UNL     1     -10.217  10.348  64.845  1.00  0.00    -0.338 OA 
BRANCH  21  23
HETATM   23  C   UNL     1     -10.254  12.622  65.640  1.00  0.00    -0.290 C  
BRANCH  23  24
HETATM   24  C   UNL     1     -11.666  13.009  66.025  1.00  0.00    -0.442 C  
HETATM   25  C   UNL     1     -12.582  13.010  64.825  1.00  0.00    -0.397 C  
HETATM   26  O   UNL     1     -13.085  12.000  64.360  1.00  0.00    -0.655 OA 
HETATM   27  O   UNL     1     -12.785  14.234  64.300  1.00  0.00    -0.660 OA 
ENDBRANCH  23  24
ENDBRANCH  21  23
ENDBRANCH  20  21
ENDBRANCH  17  20
TORSDOF 4
ENDMDL
MODEL       50
REMARK 921   NORMALIZED FREE ENERGY PREDICTED BY IDOCK:   -5.68 KCAL/MOL
REMARK 922        TOTAL FREE ENERGY PREDICTED BY IDOCK:   -7.73 KCAL/MOL
REMARK 923 INTER-LIGAND FREE ENERGY PREDICTED BY IDOCK:   -7.00 KCAL/MOL
REMARK 924 INTRA-LIGAND FREE ENERGY PREDICTED BY IDOCK:   -0.73 KCAL/MOL
REMARK 927      BINDING AFFINITY PREDICTED BY RF-SCORE:    0.00 PKD
ROOT
HETATM    1  C   UNL     1      -8.474  18.783  66.741  1.00  0.00    -0.292 C  
HETATM    2  C   UNL     1      -8.273  20.179  67.387  1.00  0.00    -0.385 C  
HETATM    3  C   UNL     1      -6.815  20.475  67.744  1.00  0.00    -0.363 C  
HETATM    4  C   UNL     1      -6.163  19.376  68.609  1.00  0.00    -0.272 C  
HETATM    5  C   UNL     1      -5.597  19.920  69.917  1.00  0.00    -0.289 C  
HETATM    6  C   UNL     1      -7.147  18.189  68.800  1.00  0.00    -0.287 C  
HETATM    7  C   UNL     1      -6.616  17.084  69.699  1.00  0.00    -0.129 C  
HETATM    8  C   UNL     1      -5.515  16.306  69.018  1.00  0.00    -0.111 C  
HETATM    9  C   UNL     1      -5.996  15.591  67.729  1.00  0.00    -0.149 C  
HETATM   10  C   UNL     1      -5.138  14.317  67.627  1.00  0.00     0.111 C  
HETATM   11  O   UNL     1      -5.727  16.339  66.544  1.00  0.00    -0.209 OA 
HETATM   12  O   UNL     1      -6.396  17.643  66.547  1.00  0.00    -0.174 OA 
HETATM   13  C   UNL     1      -7.575  17.680  67.389  1.00  0.00    -0.198 C  
HETATM   14  C   UNL     1      -8.276  16.295  67.446  1.00  0.00    -0.160 C  
HETATM   15  O   UNL     1      -9.040  16.018  66.261  1.00  0.00    -0.284 OA 
HETATM   16  O   UNL     1      -7.373  15.210  67.749  1.00  0.00    -0.132 OA 
HETATM   17  C   UNL     1     -10.047  16.998  65.957  1.00  0.00    -0.302 C  
HETATM   18  C   UNL     1      -9.950  18.335  66.744  1.00  0.00    -0.359 C  
HETATM   19  C   UNL     1     -10.889  19.410  66.181  1.00  0.00    -0.408 C  
ENDROOT
BRANCH  17  20
HETATM   20  O   UNL     1     -11.392  16.455  65.925  1.00  0.00     0.189 OA 
BRANCH  20  21
HETATM   21  C   UNL     1     -11.776  15.733  64.847  1.00  0.00     0.003 C  
HETATM   22  O   UNL     1     -11.813  16.147  63.695  1.00  0.00    -0.783 OA 
BRANCH  21  23
HETATM   23  C   UNL     1     -12.125  14.314  65.227  1.00  0.00    -0.400 C  
BRANCH  23  24
HETATM   24  C   UNL     1     -11.945  14.033  66.704  1.00  0.00    -0.473 C  
HETATM   25  C   UNL     1     -11.217  12.730  66.930  1.00  0.00    -0.296 C  
HETATM   26  O   UNL     1     -10.005  12.614  66.856  1.00  0.00    -0.223 OA 
HETATM   27  O   UNL     1     -12.033  11.695  67.210  1.00  0.00    -0.627 OA 
ENDBRANCH  23  24
ENDBRANCH  21  23
ENDBRANCH  20  21
ENDBRANCH  17  20
TORSDOF 4
ENDMDL
MODEL       51
REMARK 921   NORMALIZED FREE ENERGY PREDICTED BY IDOCK:   -5.64 KCAL/MOL
REMARK 922        TOTAL FREE ENERGY PREDICTED BY IDOCK:   -7.68 KCAL/MOL
REMARK 923 INTER-LIGAND FREE ENERGY PREDICTED BY IDOCK:   -7.24 KCAL/MOL
REMARK 924 INTRA-LIGAND FREE ENERGY PREDICTED BY IDOCK:   -0.44 KCAL/MOL
REMARK 927      BINDING AFFINITY PREDICTED BY RF-SCORE:    0.00 PKD
ROOT
HETATM    1  C   UNL     1     -11.536  10.493  70.442  1.00  0.00    -0.430 C  
HETATM    2  C   UNL     1     -13.025  10.554  70.876  1.00  0.00    -0.455 C  
HETATM    3  C   UNL     1     -13.347   9.636  72.057  1.00  0.00    -0.547 C  
HETATM    4  C   UNL     1     -12.905   8.176  71.834  1.00  0.00    -0.360 C  
HETATM    5  C   UNL     1     -14.056   7.186  71.981  1.00  0.00    -0.290 C  
HETATM    6  C   UNL     1     -12.138   8.047  70.488  1.00  0.00     0.127 C  
HETATM    7  C   UNL     1     -11.720   6.624  70.149  1.00  0.00    -0.412 C  
HETATM    8  C   UNL     1     -10.601   6.154  71.047  1.00  0.00    -0.301 C  
HETATM    9  C   UNL     1      -9.315   7.006  70.898  1.00  0.00    -0.157 C  
HETATM   10  C   UNL     1      -8.150   6.037  71.172  1.00  0.00    -0.121 C  
HETATM   11  O   UNL     1      -9.209   8.032  71.885  1.00  0.00    -0.143 OA 
HETATM   12  O   UNL     1     -10.323   8.981  71.820  1.00  0.00    -0.332 OA 
HETATM   13  C   UNL     1     -10.943   9.048  70.511  1.00  0.00    -0.252 C  
HETATM   14  C   UNL     1      -9.915   8.770  69.380  1.00  0.00    -0.196 C  
HETATM   15  O   UNL     1      -9.068   9.901  69.119  1.00  0.00    -0.151 OA 
HETATM   16  O   UNL     1      -9.135   7.575  69.599  1.00  0.00    -0.141 OA 
HETATM   17  C   UNL     1      -9.770  11.107  68.775  1.00  0.00    -0.185 C  
HETATM   18  C   UNL     1     -11.301  11.098  69.042  1.00  0.00    -0.343 C  
HETATM   19  C   UNL     1     -11.925  12.492  68.895  1.00  0.00    -0.282 C  
ENDROOT
BRANCH  17  20
HETATM   20  O   UNL     1      -9.427  11.621  67.463  1.00  0.00    -0.168 OA 
BRANCH  20  21
HETATM   21  C   UNL     1      -8.820  12.829  67.376  1.00  0.00    -0.190 C  
HETATM   22  O   UNL     1      -7.839  13.174  68.022  1.00  0.00    -0.122 OA 
BRANCH  21  23
HETATM   23  C   UNL     1      -9.481  13.707  66.342  1.00  0.00    -0.248 C  
BRANCH  23  24
HETATM   24  C   UNL     1      -9.069  15.160  66.443  1.00  0.00    -0.331 C  
HETATM   25  C   UNL     1     -10.264  16.078  66.354  1.00  0.00    -0.305 C  
HETATM   26  O   UNL     1     -11.001  16.318  67.297  1.00  0.00    -0.264 OA 
HETATM   27  O   UNL     1     -10.454  16.601  65.127  1.00  0.00    -0.647 OA 
ENDBRANCH  23  24
ENDBRANCH  21  23
ENDBRANCH  20  21
ENDBRANCH  17  20
TORSDOF 4
ENDMDL
MODEL       52
REMARK 921   NORMALIZED FREE ENERGY PREDICTED BY IDOCK:   -5.63 KCAL/MOL
REMARK 922        TOTAL FREE ENERGY PREDICTED BY IDOCK:   -7.67 KCAL/MOL
REMARK 923 INTER-LIGAND FREE ENERGY PREDICTED BY IDOCK:   -7.77 KCAL/MOL
REMARK 924 INTRA-LIGAND FREE ENERGY PREDICTED BY IDOCK:    0.10 KCAL/MOL
REMARK 927      BINDING AFFINITY PREDICTED BY RF-SCORE:    0.00 PKD
ROOT
HETATM    1  C   UNL     1      -9.738  14.568  68.150  1.00  0.00    -0.219 C  
HETATM    2  C   UNL     1      -8.423  15.374  68.325  1.00  0.00    -0.159 C  
HETATM    3  C   UNL     1      -7.308  14.923  67.380  1.00  0.00    -0.222 C  
HETATM    4  C   UNL     1      -7.030  13.407  67.444  1.00  0.00    -0.098 C  
HETATM    5  C   UNL     1      -5.574  13.092  67.773  1.00  0.00    -0.126 C  
HETATM    6  C   UNL     1      -8.049  12.713  68.390  1.00  0.00    -0.137 C  
HETATM    7  C   UNL     1      -7.809  11.222  68.569  1.00  0.00    -0.138 C  
HETATM    8  C   UNL     1      -8.166  10.456  67.318  1.00  0.00    -0.121 C  
HETATM    9  C   UNL     1      -9.663  10.589  66.940  1.00  0.00    -0.180 C  
HETATM   10  C   UNL     1     -10.030   9.259  66.257  1.00  0.00    -0.357 C  
HETATM   11  O   UNL     1      -9.904  11.606  65.969  1.00  0.00    -0.216 OA 
HETATM   12  O   UNL     1      -9.496  12.932  66.441  1.00  0.00    -0.251 OA 
HETATM   13  C   UNL     1      -9.486  13.047  67.886  1.00  0.00    -0.219 C  
HETATM   14  C   UNL     1     -10.567  12.142  68.536  1.00  0.00    -0.233 C  
HETATM   15  O   UNL     1     -11.888  12.698  68.426  1.00  0.00    -0.311 OA 
HETATM   16  O   UNL     1     -10.535  10.780  68.056  1.00  0.00    -0.175 OA 
HETATM   17  C   UNL     1     -12.031  14.012  68.991  1.00  0.00    -0.357 C  
HETATM   18  C   UNL     1     -10.707  14.748  69.337  1.00  0.00    -0.250 C  
HETATM   19  C   UNL     1     -10.936  16.224  69.686  1.00  0.00    -0.346 C  
ENDROOT
BRANCH  17  20
HETATM   20  O   UNL     1     -13.012  14.079  70.057  1.00  0.00    -0.096 OA 
BRANCH  20  21
HETATM   21  C   UNL     1     -12.904  13.218  71.096  1.00  0.00    -0.280 C  
HETATM   22  O   UNL     1     -12.336  12.133  71.058  1.00  0.00    -0.351 OA 
BRANCH  21  23
HETATM   23  C   UNL     1     -13.541  13.774  72.345  1.00  0.00    -0.690 C  
BRANCH  23  24
HETATM   24  C   UNL     1     -13.810  15.262  72.264  1.00  0.00    -0.632 C  
HETATM   25  C   UNL     1     -12.753  16.052  72.995  1.00  0.00    -0.493 C  
HETATM   26  O   UNL     1     -11.661  16.319  72.519  1.00  0.00    -0.501 OA 
HETATM   27  O   UNL     1     -13.119  16.428  74.236  1.00  0.00    -0.616 OA 
ENDBRANCH  23  24
ENDBRANCH  21  23
ENDBRANCH  20  21
ENDBRANCH  17  20
TORSDOF 4
ENDMDL
MODEL       53
REMARK 921   NORMALIZED FREE ENERGY PREDICTED BY IDOCK:   -5.62 KCAL/MOL
REMARK 922        TOTAL FREE ENERGY PREDICTED BY IDOCK:   -7.65 KCAL/MOL
REMARK 923 INTER-LIGAND FREE ENERGY PREDICTED BY IDOCK:   -7.32 KCAL/MOL
REMARK 924 INTRA-LIGAND FREE ENERGY PREDICTED BY IDOCK:   -0.33 KCAL/MOL
REMARK 927      BINDING AFFINITY PREDICTED BY RF-SCORE:    0.00 PKD
ROOT
HETATM    1  C   UNL     1      -9.665   9.405  67.258  1.00  0.00    -0.215 C  
HETATM    2  C   UNL     1      -9.585   8.885  65.798  1.00  0.00    -0.245 C  
HETATM    3  C   UNL     1      -9.142   9.956  64.799  1.00  0.00    -0.283 C  
HETATM    4  C   UNL     1      -9.986  11.245  64.872  1.00  0.00    -0.323 C  
HETATM    5  C   UNL     1     -10.613  11.611  63.531  1.00  0.00    -0.496 C  
HETATM    6  C   UNL     1     -11.011  11.151  66.036  1.00  0.00    -0.189 C  
HETATM    7  C   UNL     1     -11.936  12.353  66.143  1.00  0.00    -0.397 C  
HETATM    8  C   UNL     1     -11.197  13.570  66.645  1.00  0.00    -0.328 C  
HETATM    9  C   UNL     1     -10.613  13.374  68.067  1.00  0.00    -0.243 C  
HETATM   10  C   UNL     1     -10.640  14.770  68.714  1.00  0.00    -0.251 C  
HETATM   11  O   UNL     1      -9.243  12.975  68.056  1.00  0.00    -0.198 OA 
HETATM   12  O   UNL     1      -9.042  11.698  67.366  1.00  0.00    -0.163 OA 
HETATM   13  C   UNL     1     -10.226  10.862  67.353  1.00  0.00    -0.201 C  
HETATM   14  C   UNL     1     -11.094  11.085  68.621  1.00  0.00    -0.240 C  
HETATM   15  O   UNL     1     -10.553  10.429  69.779  1.00  0.00    -0.247 OA 
HETATM   16  O   UNL     1     -11.364  12.478  68.890  1.00  0.00    -0.258 OA 
HETATM   17  C   UNL     1     -10.366   9.012  69.630  1.00  0.00    -0.212 C  
HETATM   18  C   UNL     1     -10.469   8.465  68.179  1.00  0.00    -0.228 C  
HETATM   19  C   UNL     1     -10.006   7.006  68.074  1.00  0.00    -0.178 C  
ENDROOT
BRANCH  17  20
HETATM   20  O   UNL     1     -11.121   8.226  70.587  1.00  0.00    -0.249 OA 
BRANCH  20  21
HETATM   21  C   UNL     1     -11.402   8.767  71.796  1.00  0.00    -0.339 C  
HETATM   22  O   UNL     1     -12.061   9.783  71.979  1.00  0.00    -0.328 OA 
BRANCH  21  23
HETATM   23  C   UNL     1     -10.832   7.937  72.920  1.00  0.00    -0.451 C  
BRANCH  23  24
HETATM   24  C   UNL     1      -9.437   7.424  72.632  1.00  0.00    -0.197 C  
HETATM   25  C   UNL     1      -8.390   8.450  72.992  1.00  0.00    -0.130 C  
HETATM   26  O   UNL     1      -7.987   8.632  74.130  1.00  0.00    -0.391 OA 
HETATM   27  O   UNL     1      -7.945   9.163  71.939  1.00  0.00    -0.334 OA 
ENDBRANCH  23  24
ENDBRANCH  21  23
ENDBRANCH  20  21
ENDBRANCH  17  20
TORSDOF 4
ENDMDL
MODEL       54
REMARK 921   NORMALIZED FREE ENERGY PREDICTED BY IDOCK:   -5.61 KCAL/MOL
REMARK 922        TOTAL FREE ENERGY PREDICTED BY IDOCK:   -7.65 KCAL/MOL
REMARK 923 INTER-LIGAND FREE ENERGY PREDICTED BY IDOCK:   -6.95 KCAL/MOL
REMARK 924 INTRA-LIGAND FREE ENERGY PREDICTED BY IDOCK:   -0.70 KCAL/MOL
REMARK 927      BINDING AFFINITY PREDICTED BY RF-SCORE:    0.00 PKD
ROOT
HETATM    1  C   UNL     1      -8.492  16.755  66.376  1.00  0.00    -0.338 C  
HETATM    2  C   UNL     1      -8.148  18.268  66.417  1.00  0.00    -0.285 C  
HETATM    3  C   UNL     1      -6.663  18.542  66.667  1.00  0.00    -0.218 C  
HETATM    4  C   UNL     1      -6.112  17.824  67.916  1.00  0.00    -0.159 C  
HETATM    5  C   UNL     1      -5.479  18.789  68.914  1.00  0.00    -0.195 C  
HETATM    6  C   UNL     1      -7.205  16.911  68.537  1.00  0.00    -0.199 C  
HETATM    7  C   UNL     1      -6.773  16.212  69.817  1.00  0.00    -0.103 C  
HETATM    8  C   UNL     1      -5.762  15.127  69.533  1.00  0.00    -0.102 C  
HETATM    9  C   UNL     1      -6.326  14.006  68.624  1.00  0.00    -0.089 C  
HETATM   10  C   UNL     1      -5.599  12.722  69.063  1.00  0.00    -0.070 C  
HETATM   11  O   UNL     1      -6.000  14.189  67.247  1.00  0.00    -0.304 OA 
HETATM   12  O   UNL     1      -6.538  15.442  66.711  1.00  0.00    -0.086 OA 
HETATM   13  C   UNL     1      -7.697  15.923  67.435  1.00  0.00    -0.175 C  
HETATM   14  C   UNL     1      -8.530  14.751  68.020  1.00  0.00    -0.151 C  
HETATM   15  O   UNL     1      -9.332  14.096  67.024  1.00  0.00    -0.226 OA 
HETATM   16  O   UNL     1      -7.734  13.796  68.756  1.00  0.00    -0.132 OA 
HETATM   17  C   UNL     1     -10.242  14.963  66.325  1.00  0.00    -0.294 C  
HETATM   18  C   UNL     1     -10.005  16.487  66.517  1.00  0.00    -0.297 C  
HETATM   19  C   UNL     1     -10.841  17.332  65.546  1.00  0.00    -0.024 C  
ENDROOT
BRANCH  17  20
HETATM   20  O   UNL     1     -11.634  14.583  66.476  1.00  0.00    -0.360 OA 
BRANCH  20  21
HETATM   21  C   UNL     1     -12.291  14.086  65.402  1.00  0.00    -0.478 C  
HETATM   22  O   UNL     1     -13.498  13.882  65.344  1.00  0.00    -0.672 OA 
BRANCH  21  23
HETATM   23  C   UNL     1     -11.354  13.842  64.244  1.00  0.00    -0.344 C  
BRANCH  23  24
HETATM   24  C   UNL     1     -11.594  12.516  63.554  1.00  0.00    -0.584 C  
HETATM   25  C   UNL     1     -10.476  11.542  63.833  1.00  0.00    -0.385 C  
HETATM   26  O   UNL     1     -10.393  10.886  64.858  1.00  0.00    -0.295 OA 
HETATM   27  O   UNL     1      -9.561  11.470  62.846  1.00  0.00    -0.380 OA 
ENDBRANCH  23  24
ENDBRANCH  21  23
ENDBRANCH  20  21
ENDBRANCH  17  20
TORSDOF 4
ENDMDL
MODEL       55
REMARK 921   NORMALIZED FREE ENERGY PREDICTED BY IDOCK:   -5.61 KCAL/MOL
REMARK 922        TOTAL FREE ENERGY PREDICTED BY IDOCK:   -7.64 KCAL/MOL
REMARK 923 INTER-LIGAND FREE ENERGY PREDICTED BY IDOCK:   -6.86 KCAL/MOL
REMARK 924 INTRA-LIGAND FREE ENERGY PREDICTED BY IDOCK:   -0.78 KCAL/MOL
REMARK 927      BINDING AFFINITY PREDICTED BY RF-SCORE:    0.00 PKD
ROOT
HETATM    1  C   UNL     1     -10.460  11.420  68.745  1.00  0.00    -0.228 C  
HETATM    2  C   UNL     1     -11.284  10.836  69.923  1.00  0.00    -0.371 C  
HETATM    3  C   UNL     1     -10.673   9.565  70.515  1.00  0.00    -0.359 C  
HETATM    4  C   UNL     1     -10.385   8.477  69.459  1.00  0.00    -0.218 C  
HETATM    5  C   UNL     1     -11.072   7.153  69.781  1.00  0.00    -0.239 C  
HETATM    6  C   UNL     1     -10.699   9.014  68.035  1.00  0.00    -0.184 C  
HETATM    7  C   UNL     1     -10.510   7.985  66.931  1.00  0.00    -0.387 C  
HETATM    8  C   UNL     1      -9.046   7.692  66.702  1.00  0.00    -0.198 C  
HETATM    9  C   UNL     1      -8.250   8.940  66.241  1.00  0.00    -0.111 C  
HETATM   10  C   UNL     1      -7.132   8.396  65.334  1.00  0.00    -0.081 C  
HETATM   11  O   UNL     1      -7.591   9.608  67.316  1.00  0.00    -0.091 OA 
HETATM   12  O   UNL     1      -8.532  10.090  68.330  1.00  0.00    -0.109 OA 
HETATM   13  C   UNL     1      -9.867  10.314  67.812  1.00  0.00    -0.169 C  
HETATM   14  C   UNL     1      -9.833  10.746  66.320  1.00  0.00    -0.215 C  
HETATM   15  O   UNL     1      -9.459  12.124  66.157  1.00  0.00    -0.234 OA 
HETATM   16  O   UNL     1      -9.021   9.884  65.495  1.00  0.00    -0.154 OA 
HETATM   17  C   UNL     1     -10.297  13.058  66.856  1.00  0.00    -0.245 C  
HETATM   18  C   UNL     1     -11.259  12.445  67.913  1.00  0.00    -0.316 C  
HETATM   19  C   UNL     1     -11.922  13.518  68.786  1.00  0.00    -0.374 C  
ENDROOT
BRANCH  17  20
HETATM   20  O   UNL     1     -10.951  14.015  65.983  1.00  0.00    -0.294 OA 
BRANCH  20  21
HETATM   21  C   UNL     1     -10.347  15.204  65.753  1.00  0.00    -0.339 C  
HETATM   22  O   UNL     1     -10.456  15.867  64.729  1.00  0.00    -0.538 OA 
BRANCH  21  23
HETATM   23  C   UNL     1      -9.535  15.651  66.945  1.00  0.00    -0.245 C  
BRANCH  23  24
HETATM   24  C   UNL     1     -10.155  16.819  67.683  1.00  0.00    -0.275 C  
HETATM   25  C   UNL     1      -9.380  18.092  67.446  1.00  0.00    -0.254 C  
HETATM   26  O   UNL     1      -9.502  18.780  66.446  1.00  0.00    -0.322 OA 
HETATM   27  O   UNL     1      -8.522  18.397  68.440  1.00  0.00    -0.310 OA 
ENDBRANCH  23  24
ENDBRANCH  21  23
ENDBRANCH  20  21
ENDBRANCH  17  20
TORSDOF 4
ENDMDL
MODEL       56
REMARK 921   NORMALIZED FREE ENERGY PREDICTED BY IDOCK:   -5.60 KCAL/MOL
REMARK 922        TOTAL FREE ENERGY PREDICTED BY IDOCK:   -7.63 KCAL/MOL
REMARK 923 INTER-LIGAND FREE ENERGY PREDICTED BY IDOCK:   -7.13 KCAL/MOL
REMARK 924 INTRA-LIGAND FREE ENERGY PREDICTED BY IDOCK:   -0.49 KCAL/MOL
REMARK 927      BINDING AFFINITY PREDICTED BY RF-SCORE:    0.00 PKD
ROOT
HETATM    1  C   UNL     1     -10.030  16.549  69.129  1.00  0.00    -0.275 C  
HETATM    2  C   UNL     1     -11.023  16.702  70.312  1.00  0.00    -0.066 C  
HETATM    3  C   UNL     1     -11.319  15.382  71.026  1.00  0.00    -0.411 C  
HETATM    4  C   UNL     1     -11.778  14.261  70.071  1.00  0.00    -0.364 C  
HETATM    5  C   UNL     1     -13.131  13.675  70.464  1.00  0.00     0.036 C  
HETATM    6  C   UNL     1     -11.713  14.750  68.598  1.00  0.00    -0.356 C  
HETATM    7  C   UNL     1     -12.215  13.731  67.586  1.00  0.00    -0.229 C  
HETATM    8  C   UNL     1     -11.247  12.581  67.443  1.00  0.00    -0.344 C  
HETATM    9  C   UNL     1      -9.857  13.027  66.922  1.00  0.00    -0.240 C  
HETATM   10  C   UNL     1      -9.325  11.834  66.108  1.00  0.00    -0.236 C  
HETATM   11  O   UNL     1      -8.912  13.238  67.969  1.00  0.00    -0.177 OA 
HETATM   12  O   UNL     1      -9.340  14.284  68.902  1.00  0.00    -0.160 OA 
HETATM   13  C   UNL     1     -10.260  15.236  68.310  1.00  0.00    -0.226 C  
HETATM   14  C   UNL     1      -9.987  15.423  66.793  1.00  0.00    -0.249 C  
HETATM   15  O   UNL     1      -8.844  16.257  66.540  1.00  0.00    -0.226 OA 
HETATM   16  O   UNL     1      -9.891  14.176  66.072  1.00  0.00    -0.304 OA 
HETATM   17  C   UNL     1      -8.918  17.566  67.128  1.00  0.00    -0.238 C  
HETATM   18  C   UNL     1     -10.038  17.771  68.186  1.00  0.00    -0.362 C  
HETATM   19  C   UNL     1      -9.886  19.096  68.945  1.00  0.00    -0.487 C  
ENDROOT
BRANCH  17  20
HETATM   20  O   UNL     1      -8.854  18.642  66.156  1.00  0.00    -0.452 OA 
BRANCH  20  21
HETATM   21  C   UNL     1      -7.725  19.385  66.082  1.00  0.00    -0.303 C  
HETATM   22  O   UNL     1      -7.592  20.516  66.533  1.00  0.00    -0.241 OA 
BRANCH  21  23
HETATM   23  C   UNL     1      -6.610  18.630  65.400  1.00  0.00    -0.270 C  
BRANCH  23  24
HETATM   24  C   UNL     1      -5.499  19.530  64.902  1.00  0.00    -0.217 C  
HETATM   25  C   UNL     1      -5.798  20.060  63.521  1.00  0.00    -0.237 C  
HETATM   26  O   UNL     1      -6.535  21.009  63.308  1.00  0.00    -0.231 OA 
HETATM   27  O   UNL     1      -5.185  19.377  62.534  1.00  0.00    -0.266 OA 
ENDBRANCH  23  24
ENDBRANCH  21  23
ENDBRANCH  20  21
ENDBRANCH  17  20
TORSDOF 4
ENDMDL
MODEL       57
REMARK 921   NORMALIZED FREE ENERGY PREDICTED BY IDOCK:   -5.59 KCAL/MOL
REMARK 922        TOTAL FREE ENERGY PREDICTED BY IDOCK:   -7.61 KCAL/MOL
REMARK 923 INTER-LIGAND FREE ENERGY PREDICTED BY IDOCK:   -6.86 KCAL/MOL
REMARK 924 INTRA-LIGAND FREE ENERGY PREDICTED BY IDOCK:   -0.75 KCAL/MOL
REMARK 927      BINDING AFFINITY PREDICTED BY RF-SCORE:    0.00 PKD
ROOT
HETATM    1  C   UNL     1     -11.714  11.794  68.977  1.00  0.00    -0.390 C  
HETATM    2  C   UNL     1     -11.819  12.968  69.987  1.00  0.00    -0.355 C  
HETATM    3  C   UNL     1     -12.309  14.269  69.350  1.00  0.00    -0.238 C  
HETATM    4  C   UNL     1     -11.492  14.689  68.111  1.00  0.00    -0.346 C  
HETATM    5  C   UNL     1     -10.906  16.091  68.243  1.00  0.00    -0.319 C  
HETATM    6  C   UNL     1     -10.436  13.600  67.770  1.00  0.00    -0.241 C  
HETATM    7  C   UNL     1      -9.534  13.959  66.600  1.00  0.00    -0.296 C  
HETATM    8  C   UNL     1     -10.286  13.904  65.292  1.00  0.00    -0.396 C  
HETATM    9  C   UNL     1     -10.830  12.489  64.972  1.00  0.00    -0.290 C  
HETATM   10  C   UNL     1     -10.817  12.385  63.436  1.00  0.00    -0.417 C  
HETATM   11  O   UNL     1     -12.191  12.314  65.364  1.00  0.00    -0.546 OA 
HETATM   12  O   UNL     1     -12.382  12.495  66.805  1.00  0.00    -0.457 OA 
HETATM   13  C   UNL     1     -11.181  12.244  67.577  1.00  0.00    -0.297 C  
HETATM   14  C   UNL     1     -10.287  11.168  66.905  1.00  0.00    -0.231 C  
HETATM   15  O   UNL     1     -10.785   9.835  67.108  1.00  0.00    -0.256 OA 
HETATM   16  O   UNL     1     -10.040  11.423  65.505  1.00  0.00    -0.226 OA 
HETATM   17  C   UNL     1     -10.945   9.461  68.486  1.00  0.00    -0.030 C  
HETATM   18  C   UNL     1     -10.867  10.622  69.516  1.00  0.00    -0.303 C  
HETATM   19  C   UNL     1     -11.302  10.184  70.921  1.00  0.00    -0.420 C  
ENDROOT
BRANCH  17  20
HETATM   20  O   UNL     1     -10.150   8.310  68.869  1.00  0.00    -0.189 OA 
BRANCH  20  21
HETATM   21  C   UNL     1      -8.817   8.332  68.632  1.00  0.00    -0.133 C  
HETATM   22  O   UNL     1      -8.024   9.122  69.129  1.00  0.00    -0.093 OA 
BRANCH  21  23
HETATM   23  C   UNL     1      -8.403   7.224  67.695  1.00  0.00    -0.117 C  
BRANCH  23  24
HETATM   24  C   UNL     1      -8.192   7.695  66.272  1.00  0.00    -0.120 C  
HETATM   25  C   UNL     1      -6.773   8.160  66.052  1.00  0.00    -0.053 C  
HETATM   26  O   UNL     1      -5.841   7.403  65.840  1.00  0.00    -0.035 OA 
HETATM   27  O   UNL     1      -6.624   9.498  66.126  1.00  0.00    -0.068 OA 
ENDBRANCH  23  24
ENDBRANCH  21  23
ENDBRANCH  20  21
ENDBRANCH  17  20
TORSDOF 4
ENDMDL
MODEL       58
REMARK 921   NORMALIZED FREE ENERGY PREDICTED BY IDOCK:   -5.56 KCAL/MOL
REMARK 922        TOTAL FREE ENERGY PREDICTED BY IDOCK:   -7.58 KCAL/MOL
REMARK 923 INTER-LIGAND FREE ENERGY PREDICTED BY IDOCK:   -7.02 KCAL/MOL
REMARK 924 INTRA-LIGAND FREE ENERGY PREDICTED BY IDOCK:   -0.56 KCAL/MOL
REMARK 927      BINDING AFFINITY PREDICTED BY RF-SCORE:    0.00 PKD
ROOT
HETATM    1  C   UNL     1     -11.350  11.280  68.601  1.00  0.00    -0.336 C  
HETATM    2  C   UNL     1     -11.498  11.931  70.002  1.00  0.00    -0.213 C  
HETATM    3  C   UNL     1     -12.344  13.206  69.988  1.00  0.00    -0.241 C  
HETATM    4  C   UNL     1     -11.867  14.245  68.952  1.00  0.00    -0.372 C  
HETATM    5  C   UNL     1     -11.555  15.599  69.582  1.00  0.00    -0.364 C  
HETATM    6  C   UNL     1     -10.697  13.664  68.109  1.00  0.00    -0.260 C  
HETATM    7  C   UNL     1     -10.114  14.645  67.104  1.00  0.00    -0.244 C  
HETATM    8  C   UNL     1     -11.067  14.887  65.959  1.00  0.00    -0.334 C  
HETATM    9  C   UNL     1     -11.370  13.601  65.149  1.00  0.00    -0.309 C  
HETATM   10  C   UNL     1     -11.618  14.077  63.706  1.00  0.00     0.054 C  
HETATM   11  O   UNL     1     -12.574  12.955  65.559  1.00  0.00    -0.559 OA 
HETATM   12  O   UNL     1     -12.529  12.538  66.963  1.00  0.00    -0.252 OA 
HETATM   13  C   UNL     1     -11.182  12.333  67.457  1.00  0.00    -0.297 C  
HETATM   14  C   UNL     1     -10.231  11.845  66.331  1.00  0.00    -0.209 C  
HETATM   15  O   UNL     1     -10.410  10.452  66.027  1.00  0.00    -0.241 OA 
HETATM   16  O   UNL     1     -10.301  12.652  65.135  1.00  0.00    -0.283 OA 
HETATM   17  C   UNL     1     -10.238   9.569  67.148  1.00  0.00    -0.242 C  
HETATM   18  C   UNL     1     -10.204  10.249  68.545  1.00  0.00    -0.192 C  
HETATM   19  C   UNL     1     -10.279   9.229  69.689  1.00  0.00    -0.219 C  
ENDROOT
BRANCH  17  20
HETATM   20  O   UNL     1      -9.175   8.600  66.962  1.00  0.00    -0.141 OA 
BRANCH  20  21
HETATM   21  C   UNL     1      -9.499   7.348  66.563  1.00  0.00    -0.172 C  
HETATM   22  O   UNL     1      -8.788   6.615  65.886  1.00  0.00    -0.154 OA 
BRANCH  21  23
HETATM   23  C   UNL     1     -10.850   6.931  67.091  1.00  0.00    -0.447 C  
BRANCH  23  24
HETATM   24  C   UNL     1     -10.806   5.647  67.891  1.00  0.00    -0.171 C  
HETATM   25  C   UNL     1     -10.770   5.925  69.374  1.00  0.00    -0.336 C  
HETATM   26  O   UNL     1     -11.761   6.192  70.034  1.00  0.00    -0.336 OA 
HETATM   27  O   UNL     1      -9.534   5.865  69.907  1.00  0.00    -0.146 OA 
ENDBRANCH  23  24
ENDBRANCH  21  23
ENDBRANCH  20  21
ENDBRANCH  17  20
TORSDOF 4
ENDMDL
MODEL       59
REMARK 921   NORMALIZED FREE ENERGY PREDICTED BY IDOCK:   -5.48 KCAL/MOL
REMARK 922        TOTAL FREE ENERGY PREDICTED BY IDOCK:   -7.49 KCAL/MOL
REMARK 923 INTER-LIGAND FREE ENERGY PREDICTED BY IDOCK:   -6.91 KCAL/MOL
REMARK 924 INTRA-LIGAND FREE ENERGY PREDICTED BY IDOCK:   -0.58 KCAL/MOL
REMARK 927      BINDING AFFINITY PREDICTED BY RF-SCORE:    0.00 PKD
ROOT
HETATM    1  C   UNL     1     -11.814  11.086  69.244  1.00  0.00    -0.411 C  
HETATM    2  C   UNL     1     -12.031  12.606  69.016  1.00  0.00    -0.282 C  
HETATM    3  C   UNL     1     -11.716  13.052  67.587  1.00  0.00    -0.415 C  
HETATM    4  C   UNL     1     -10.314  12.625  67.108  1.00  0.00    -0.239 C  
HETATM    5  C   UNL     1      -9.467  13.806  66.646  1.00  0.00    -0.289 C  
HETATM    6  C   UNL     1      -9.623  11.745  68.187  1.00  0.00    -0.193 C  
HETATM    7  C   UNL     1      -8.203  11.331  67.831  1.00  0.00    -0.123 C  
HETATM    8  C   UNL     1      -8.194  10.306  66.722  1.00  0.00    -0.124 C  
HETATM    9  C   UNL     1      -8.919   8.994  67.112  1.00  0.00    -0.130 C  
HETATM   10  C   UNL     1      -8.189   7.880  66.340  1.00  0.00    -0.121 C  
HETATM   11  O   UNL     1     -10.274   8.952  66.669  1.00  0.00    -0.275 OA 
HETATM   12  O   UNL     1     -11.079  10.035  67.242  1.00  0.00    -0.229 OA 
HETATM   13  C   UNL     1     -10.555  10.534  68.497  1.00  0.00    -0.206 C  
HETATM   14  C   UNL     1      -9.830   9.417  69.296  1.00  0.00    -0.174 C  
HETATM   15  O   UNL     1     -10.748   8.524  69.948  1.00  0.00    -0.228 OA 
HETATM   16  O   UNL     1      -8.865   8.687  68.508  1.00  0.00    -0.140 OA 
HETATM   17  C   UNL     1     -11.668   9.166  70.846  1.00  0.00    -0.284 C  
HETATM   18  C   UNL     1     -11.749  10.714  70.740  1.00  0.00    -0.435 C  
HETATM   19  C   UNL     1     -12.927  11.291  71.537  1.00  0.00    -0.520 C  
ENDROOT
BRANCH  17  20
HETATM   20  O   UNL     1     -11.563   8.696  72.215  1.00  0.00    -0.362 OA 
BRANCH  20  21
HETATM   21  C   UNL     1     -10.366   8.245  72.657  1.00  0.00    -0.304 C  
HETATM   22  O   UNL     1      -9.320   8.883  72.641  1.00  0.00    -0.266 OA 
BRANCH  21  23
HETATM   23  C   UNL     1     -10.475   6.849  73.221  1.00  0.00    -0.340 C  
BRANCH  23  24
HETATM   24  C   UNL     1     -11.085   5.861  72.249  1.00  0.00    -0.330 C  
HETATM   25  C   UNL     1     -10.095   4.792  71.859  1.00  0.00    -0.198 C  
HETATM   26  O   UNL     1      -9.848   3.817  72.550  1.00  0.00    -0.138 OA 
HETATM   27  O   UNL     1      -9.492   5.018  70.675  1.00  0.00    -0.151 OA 
ENDBRANCH  23  24
ENDBRANCH  21  23
ENDBRANCH  20  21
ENDBRANCH  17  20
TORSDOF 4
ENDMDL
MODEL       60
REMARK 921   NORMALIZED FREE ENERGY PREDICTED BY IDOCK:   -5.46 KCAL/MOL
REMARK 922        TOTAL FREE ENERGY PREDICTED BY IDOCK:   -7.45 KCAL/MOL
REMARK 923 INTER-LIGAND FREE ENERGY PREDICTED BY IDOCK:   -6.76 KCAL/MOL
REMARK 924 INTRA-LIGAND FREE ENERGY PREDICTED BY IDOCK:   -0.69 KCAL/MOL
REMARK 927      BINDING AFFINITY PREDICTED BY RF-SCORE:    0.00 PKD
ROOT
HETATM    1  C   UNL     1     -10.620   9.552  71.173  1.00  0.00    -0.388 C  
HETATM    2  C   UNL     1     -11.120   8.507  72.206  1.00  0.00    -0.430 C  
HETATM    3  C   UNL     1      -9.984   7.752  72.899  1.00  0.00    -0.341 C  
HETATM    4  C   UNL     1      -8.987   7.109  71.913  1.00  0.00    -0.135 C  
HETATM    5  C   UNL     1      -8.837   5.606  72.129  1.00  0.00    -0.137 C  
HETATM    6  C   UNL     1      -9.349   7.497  70.453  1.00  0.00    -0.161 C  
HETATM    7  C   UNL     1      -8.459   6.852  69.402  1.00  0.00    -0.133 C  
HETATM    8  C   UNL     1      -7.073   7.452  69.417  1.00  0.00    -0.070 C  
HETATM    9  C   UNL     1      -7.072   8.965  69.082  1.00  0.00    -0.063 C  
HETATM   10  C   UNL     1      -5.730   9.224  68.373  1.00  0.00    -0.041 C  
HETATM   11  O   UNL     1      -7.065   9.792  70.245  1.00  0.00    -0.111 OA 
HETATM   12  O   UNL     1      -8.243   9.574  71.088  1.00  0.00    -0.295 OA 
HETATM   13  C   UNL     1      -9.382   9.054  70.358  1.00  0.00    -0.208 C  
HETATM   14  C   UNL     1      -9.393   9.557  68.889  1.00  0.00    -0.149 C  
HETATM   15  O   UNL     1      -9.848  10.915  68.777  1.00  0.00    -0.184 OA 
HETATM   16  O   UNL     1      -8.130   9.375  68.213  1.00  0.00    -0.107 OA 
HETATM   17  C   UNL     1     -11.156  11.154  69.324  1.00  0.00    -0.259 C  
HETATM   18  C   UNL     1     -11.735  10.019  70.214  1.00  0.00    -0.327 C  
HETATM   19  C   UNL     1     -13.003  10.454  70.960  1.00  0.00    -0.490 C  
ENDROOT
BRANCH  17  20
HETATM   20  O   UNL     1     -12.109  11.649  68.348  1.00  0.00    -0.522 OA 
BRANCH  20  21
HETATM   21  C   UNL     1     -11.744  12.679  67.548  1.00  0.00    -0.368 C  
HETATM   22  O   UNL     1     -11.536  12.599  66.344  1.00  0.00    -0.341 OA 
BRANCH  21  23
HETATM   23  C   UNL     1     -11.658  13.974  68.318  1.00  0.00    -0.364 C  
BRANCH  23  24
HETATM   24  C   UNL     1     -10.293  14.625  68.238  1.00  0.00    -0.230 C  
HETATM   25  C   UNL     1     -10.348  15.923  67.470  1.00  0.00    -0.283 C  
HETATM   26  O   UNL     1     -10.719  16.979  67.956  1.00  0.00    -0.357 OA 
HETATM   27  O   UNL     1      -9.961  15.808  66.184  1.00  0.00    -0.268 OA 
ENDBRANCH  23  24
ENDBRANCH  21  23
ENDBRANCH  20  21
ENDBRANCH  17  20
TORSDOF 4
ENDMDL
MODEL       61
REMARK 921   NORMALIZED FREE ENERGY PREDICTED BY IDOCK:   -5.46 KCAL/MOL
REMARK 922        TOTAL FREE ENERGY PREDICTED BY IDOCK:   -7.45 KCAL/MOL
REMARK 923 INTER-LIGAND FREE ENERGY PREDICTED BY IDOCK:   -6.58 KCAL/MOL
REMARK 924 INTRA-LIGAND FREE ENERGY PREDICTED BY IDOCK:   -0.87 KCAL/MOL
REMARK 927      BINDING AFFINITY PREDICTED BY RF-SCORE:    0.00 PKD
ROOT
HETATM    1  C   UNL     1     -11.296  11.001  67.584  1.00  0.00    -0.355 C  
HETATM    2  C   UNL     1     -11.410  10.989  69.131  1.00  0.00    -0.348 C  
HETATM    3  C   UNL     1     -12.239  12.149  69.685  1.00  0.00    -0.183 C  
HETATM    4  C   UNL     1     -11.767  13.530  69.185  1.00  0.00    -0.374 C  
HETATM    5  C   UNL     1     -11.426  14.481  70.328  1.00  0.00    -0.281 C  
HETATM    6  C   UNL     1     -10.621  13.363  68.149  1.00  0.00    -0.255 C  
HETATM    7  C   UNL     1     -10.043  14.678  67.649  1.00  0.00    -0.228 C  
HETATM    8  C   UNL     1     -11.014  15.392  66.740  1.00  0.00    -0.282 C  
HETATM    9  C   UNL     1     -11.348  14.580  65.463  1.00  0.00    -0.335 C  
HETATM   10  C   UNL     1     -11.616  15.630  64.370  1.00  0.00    -0.250 C  
HETATM   11  O   UNL     1     -12.553  13.825  65.583  1.00  0.00    -0.491 OA 
HETATM   12  O   UNL     1     -12.488  12.845  66.671  1.00  0.00    -0.367 OA 
HETATM   13  C   UNL     1     -11.135  12.443  66.999  1.00  0.00    -0.278 C  
HETATM   14  C   UNL     1     -10.212  12.482  65.751  1.00  0.00    -0.270 C  
HETATM   15  O   UNL     1     -10.415  11.355  64.883  1.00  0.00    -0.276 OA 
HETATM   16  O   UNL     1     -10.293  13.724  65.019  1.00  0.00    -0.359 OA 
HETATM   17  C   UNL     1     -10.234  10.075  65.513  1.00  0.00    -0.178 C  
HETATM   18  C   UNL     1     -10.165  10.089  67.065  1.00  0.00    -0.295 C  
HETATM   19  C   UNL     1     -10.232   8.677  67.662  1.00  0.00    -0.300 C  
ENDROOT
BRANCH  17  20
HETATM   20  O   UNL     1      -9.187   9.275  64.906  1.00  0.00    -0.225 OA 
BRANCH  20  21
HETATM   21  C   UNL     1      -7.979   9.845  64.684  1.00  0.00    -0.141 C  
HETATM   22  O   UNL     1      -7.703  10.571  63.737  1.00  0.00    -0.086 OA 
BRANCH  21  23
HETATM   23  C   UNL     1      -7.000   9.509  65.782  1.00  0.00    -0.095 C  
BRANCH  23  24
HETATM   24  C   UNL     1      -6.263  10.720  66.313  1.00  0.00    -0.130 C  
HETATM   25  C   UNL     1      -6.580  10.962  67.769  1.00  0.00    -0.064 C  
HETATM   26  O   UNL     1      -6.049  10.355  68.684  1.00  0.00    -0.044 OA 
HETATM   27  O   UNL     1      -7.520  11.907  67.969  1.00  0.00    -0.093 OA 
ENDBRANCH  23  24
ENDBRANCH  21  23
ENDBRANCH  20  21
ENDBRANCH  17  20
TORSDOF 4
ENDMDL
MODEL       62
REMARK 921   NORMALIZED FREE ENERGY PREDICTED BY IDOCK:   -5.45 KCAL/MOL
REMARK 922        TOTAL FREE ENERGY PREDICTED BY IDOCK:   -7.44 KCAL/MOL
REMARK 923 INTER-LIGAND FREE ENERGY PREDICTED BY IDOCK:   -6.93 KCAL/MOL
REMARK 924 INTRA-LIGAND FREE ENERGY PREDICTED BY IDOCK:   -0.51 KCAL/MOL
REMARK 927      BINDING AFFINITY PREDICTED BY RF-SCORE:    0.00 PKD
ROOT
HETATM    1  C   UNL     1     -10.157   5.916  69.069  1.00  0.00    -0.237 C  
HETATM    2  C   UNL     1      -9.414   4.722  69.727  1.00  0.00    -0.233 C  
HETATM    3  C   UNL     1     -10.017   4.302  71.069  1.00  0.00    -0.223 C  
HETATM    4  C   UNL     1     -10.161   5.470  72.066  1.00  0.00    -0.249 C  
HETATM    5  C   UNL     1      -9.447   5.204  73.387  1.00  0.00    -0.143 C  
HETATM    6  C   UNL     1      -9.747   6.807  71.391  1.00  0.00    -0.177 C  
HETATM    7  C   UNL     1      -9.792   8.009  72.321  1.00  0.00    -0.301 C  
HETATM    8  C   UNL     1     -11.214   8.397  72.646  1.00  0.00    -0.339 C  
HETATM    9  C   UNL     1     -12.022   8.819  71.392  1.00  0.00    -0.310 C  
HETATM   10  C   UNL     1     -13.030   9.870  71.892  1.00  0.00    -0.545 C  
HETATM   11  O   UNL     1     -12.803   7.755  70.849  1.00  0.00    -0.113 OA 
HETATM   12  O   UNL     1     -11.978   6.621  70.426  1.00  0.00    -0.396 OA 
HETATM   13  C   UNL     1     -10.614   6.993  70.107  1.00  0.00    -0.228 C  
HETATM   14  C   UNL     1     -10.535   8.437  69.543  1.00  0.00    -0.224 C  
HETATM   15  O   UNL     1     -10.955   8.514  68.171  1.00  0.00    -0.006 OA 
HETATM   16  O   UNL     1     -11.232   9.406  70.356  1.00  0.00    -0.245 OA 
HETATM   17  C   UNL     1     -10.225   7.661  67.274  1.00  0.00    -0.272 C  
HETATM   18  C   UNL     1      -9.334   6.578  67.944  1.00  0.00    -0.111 C  
HETATM   19  C   UNL     1      -8.800   5.557  66.931  1.00  0.00    -0.112 C  
ENDROOT
BRANCH  17  20
HETATM   20  O   UNL     1      -9.540   8.384  66.218  1.00  0.00    -0.223 OA 
BRANCH  20  21
HETATM   21  C   UNL     1      -8.940   9.560  66.519  1.00  0.00    -0.148 C  
HETATM   22  O   UNL     1      -8.064   9.711  67.361  1.00  0.00    -0.109 OA 
BRANCH  21  23
HETATM   23  C   UNL     1      -9.457  10.682  65.652  1.00  0.00    -0.257 C  
BRANCH  23  24
HETATM   24  C   UNL     1      -9.977  11.859  66.449  1.00  0.00    -0.237 C  
HETATM   25  C   UNL     1     -11.458  11.734  66.712  1.00  0.00    -0.281 C  
HETATM   26  O   UNL     1     -11.928  11.044  67.601  1.00  0.00    -0.583 OA 
HETATM   27  O   UNL     1     -12.221  12.447  65.861  1.00  0.00    -0.629 OA 
ENDBRANCH  23  24
ENDBRANCH  21  23
ENDBRANCH  20  21
ENDBRANCH  17  20
TORSDOF 4
ENDMDL
MODEL       63
REMARK 921   NORMALIZED FREE ENERGY PREDICTED BY IDOCK:   -5.44 KCAL/MOL
REMARK 922        TOTAL FREE ENERGY PREDICTED BY IDOCK:   -7.43 KCAL/MOL
REMARK 923 INTER-LIGAND FREE ENERGY PREDICTED BY IDOCK:   -6.74 KCAL/MOL
REMARK 924 INTRA-LIGAND FREE ENERGY PREDICTED BY IDOCK:   -0.68 KCAL/MOL
REMARK 927      BINDING AFFINITY PREDICTED BY RF-SCORE:    0.00 PKD
ROOT
HETATM    1  C   UNL     1     -10.777  15.814  66.598  1.00  0.00    -0.287 C  
HETATM    2  C   UNL     1     -11.097  15.967  65.087  1.00  0.00    -0.291 C  
HETATM    3  C   UNL     1     -12.171  14.994  64.596  1.00  0.00    -0.286 C  
HETATM    4  C   UNL     1     -11.864  13.522  64.941  1.00  0.00    -0.402 C  
HETATM    5  C   UNL     1     -11.841  12.624  63.708  1.00  0.00    -0.574 C  
HETATM    6  C   UNL     1     -10.576  13.430  65.805  1.00  0.00    -0.286 C  
HETATM    7  C   UNL     1     -10.156  12.006  66.138  1.00  0.00    -0.252 C  
HETATM    8  C   UNL     1     -11.097  11.378  67.138  1.00  0.00    -0.366 C  
HETATM    9  C   UNL     1     -11.118  12.127  68.495  1.00  0.00    -0.252 C  
HETATM   10  C   UNL     1     -11.401  11.046  69.553  1.00  0.00    -0.356 C  
HETATM   11  O   UNL     1     -12.190  13.064  68.597  1.00  0.00    -0.223 OA 
HETATM   12  O   UNL     1     -12.116  14.106  67.569  1.00  0.00    -0.395 OA 
HETATM   13  C   UNL     1     -10.773  14.322  67.069  1.00  0.00    -0.290 C  
HETATM   14  C   UNL     1      -9.707  14.044  68.163  1.00  0.00    -0.220 C  
HETATM   15  O   UNL     1      -9.605  15.116  69.115  1.00  0.00    -0.217 OA 
HETATM   16  O   UNL     1      -9.887  12.775  68.826  1.00  0.00    -0.114 OA 
HETATM   17  C   UNL     1      -9.307  16.399  68.540  1.00  0.00    -0.225 C  
HETATM   18  C   UNL     1      -9.453  16.500  66.996  1.00  0.00    -0.249 C  
HETATM   19  C   UNL     1      -9.372  17.948  66.497  1.00  0.00    -0.290 C  
ENDROOT
BRANCH  17  20
HETATM   20  O   UNL     1      -8.072  16.980  69.031  1.00  0.00    -0.226 OA 
BRANCH  20  21
HETATM   21  C   UNL     1      -7.007  16.168  69.234  1.00  0.00    -0.210 C  
HETATM   22  O   UNL     1      -6.613  15.780  70.327  1.00  0.00    -0.022 OA 
BRANCH  21  23
HETATM   23  C   UNL     1      -6.371  15.755  67.930  1.00  0.00    -0.160 C  
BRANCH  23  24
HETATM   24  C   UNL     1      -5.127  14.913  68.116  1.00  0.00    -0.114 C  
HETATM   25  C   UNL     1      -5.436  13.441  67.993  1.00  0.00    -0.113 C  
HETATM   26  O   UNL     1      -5.554  12.863  66.925  1.00  0.00    -0.257 OA 
HETATM   27  O   UNL     1      -5.587  12.818  69.179  1.00  0.00    -0.068 OA 
ENDBRANCH  23  24
ENDBRANCH  21  23
ENDBRANCH  20  21
ENDBRANCH  17  20
TORSDOF 4
ENDMDL
MODEL       64
REMARK 921   NORMALIZED FREE ENERGY PREDICTED BY IDOCK:   -5.43 KCAL/MOL
REMARK 922        TOTAL FREE ENERGY PREDICTED BY IDOCK:   -7.42 KCAL/MOL
REMARK 923 INTER-LIGAND FREE ENERGY PREDICTED BY IDOCK:   -6.78 KCAL/MOL
REMARK 924 INTRA-LIGAND FREE ENERGY PREDICTED BY IDOCK:   -0.64 KCAL/MOL
REMARK 927      BINDING AFFINITY PREDICTED BY RF-SCORE:    0.00 PKD
ROOT
HETATM    1  C   UNL     1      -8.063  10.179  67.546  1.00  0.00    -0.113 C  
HETATM    2  C   UNL     1      -7.216  10.419  68.824  1.00  0.00    -0.085 C  
HETATM    3  C   UNL     1      -6.517   9.156  69.331  1.00  0.00    -0.044 C  
HETATM    4  C   UNL     1      -7.477   7.965  69.529  1.00  0.00    -0.093 C  
HETATM    5  C   UNL     1      -7.433   7.407  70.949  1.00  0.00    -0.074 C  
HETATM    6  C   UNL     1      -8.906   8.341  69.050  1.00  0.00    -0.143 C  
HETATM    7  C   UNL     1      -9.940   7.248  69.270  1.00  0.00    -0.170 C  
HETATM    8  C   UNL     1      -9.724   6.092  68.323  1.00  0.00    -0.129 C  
HETATM    9  C   UNL     1      -9.870   6.501  66.835  1.00  0.00    -0.164 C  
HETATM   10  C   UNL     1     -10.414   5.250  66.121  1.00  0.00    -0.259 C  
HETATM   11  O   UNL     1      -8.620   6.793  66.213  1.00  0.00    -0.127 OA 
HETATM   12  O   UNL     1      -7.923   7.906  66.863  1.00  0.00    -0.105 OA 
HETATM   13  C   UNL     1      -8.814   8.808  67.564  1.00  0.00    -0.134 C  
HETATM   14  C   UNL     1     -10.205   8.880  66.879  1.00  0.00    -0.276 C  
HETATM   15  O   UNL     1     -10.192   9.695  65.695  1.00  0.00    -0.253 OA 
HETATM   16  O   UNL     1     -10.778   7.582  66.610  1.00  0.00    -0.239 OA 
HETATM   17  C   UNL     1      -9.745  11.045  65.904  1.00  0.00    -0.224 C  
HETATM   18  C   UNL     1      -9.057  11.326  67.269  1.00  0.00    -0.156 C  
HETATM   19  C   UNL     1      -8.385  12.705  67.309  1.00  0.00    -0.189 C  
ENDROOT
BRANCH  17  20
HETATM   20  O   UNL     1     -10.737  12.044  65.554  1.00  0.00    -0.259 OA 
BRANCH  20  21
HETATM   21  C   UNL     1     -10.823  12.450  64.265  1.00  0.00    -0.355 C  
HETATM   22  O   UNL     1     -10.126  12.039  63.346  1.00  0.00    -0.428 OA 
BRANCH  21  23
HETATM   23  C   UNL     1     -11.926  13.463  64.077  1.00  0.00    -0.520 C  
BRANCH  23  24
HETATM   24  C   UNL     1     -12.005  14.473  65.202  1.00  0.00    -0.369 C  
HETATM   25  C   UNL     1     -11.128  15.670  64.927  1.00  0.00    -0.402 C  
HETATM   26  O   UNL     1     -11.456  16.594  64.200  1.00  0.00    -1.131 OA 
HETATM   27  O   UNL     1      -9.933  15.622  65.550  1.00  0.00    -0.337 OA 
ENDBRANCH  23  24
ENDBRANCH  21  23
ENDBRANCH  20  21
ENDBRANCH  17  20
TORSDOF 4
ENDMDL
MODEL       65
REMARK 921   NORMALIZED FREE ENERGY PREDICTED BY IDOCK:   -5.43 KCAL/MOL
REMARK 922        TOTAL FREE ENERGY PREDICTED BY IDOCK:   -7.42 KCAL/MOL
REMARK 923 INTER-LIGAND FREE ENERGY PREDICTED BY IDOCK:   -6.87 KCAL/MOL
REMARK 924 INTRA-LIGAND FREE ENERGY PREDICTED BY IDOCK:   -0.55 KCAL/MOL
REMARK 927      BINDING AFFINITY PREDICTED BY RF-SCORE:    0.00 PKD
ROOT
HETATM    1  C   UNL     1      -8.165  13.421  67.506  1.00  0.00    -0.186 C  
HETATM    2  C   UNL     1      -8.268  12.232  68.498  1.00  0.00    -0.096 C  
HETATM    3  C   UNL     1      -9.251  11.151  68.043  1.00  0.00    -0.159 C  
HETATM    4  C   UNL     1     -10.652  11.702  67.706  1.00  0.00    -0.227 C  
HETATM    5  C   UNL     1     -11.757  11.023  68.510  1.00  0.00    -0.348 C  
HETATM    6  C   UNL     1     -10.661  13.252  67.818  1.00  0.00    -0.249 C  
HETATM    7  C   UNL     1     -12.022  13.882  67.569  1.00  0.00    -0.421 C  
HETATM    8  C   UNL     1     -12.406  13.798  66.111  1.00  0.00    -0.496 C  
HETATM    9  C   UNL     1     -11.425  14.563  65.188  1.00  0.00    -0.368 C  
HETATM   10  C   UNL     1     -12.280  15.062  64.009  1.00  0.00    -0.117 C  
HETATM   11  O   UNL     1     -10.426  13.720  64.615  1.00  0.00    -0.416 OA 
HETATM   12  O   UNL     1      -9.591  13.078  65.634  1.00  0.00    -0.153 OA 
HETATM   13  C   UNL     1      -9.545  13.813  66.883  1.00  0.00    -0.262 C  
HETATM   14  C   UNL     1      -9.682  15.342  66.649  1.00  0.00    -0.252 C  
HETATM   15  O   UNL     1      -8.465  15.935  66.169  1.00  0.00    -0.318 OA 
HETATM   16  O   UNL     1     -10.800  15.692  65.803  1.00  0.00    -0.327 OA 
HETATM   17  C   UNL     1      -7.325  15.731  67.020  1.00  0.00    -0.191 C  
HETATM   18  C   UNL     1      -7.496  14.661  68.135  1.00  0.00    -0.125 C  
HETATM   19  C   UNL     1      -6.168  14.322  68.824  1.00  0.00    -0.085 C  
ENDROOT
BRANCH  17  20
HETATM   20  O   UNL     1      -6.737  16.965  67.505  1.00  0.00    -0.132 OA 
BRANCH  20  21
HETATM   21  C   UNL     1      -6.708  18.039  66.681  1.00  0.00    -0.200 C  
HETATM   22  O   UNL     1      -6.267  18.042  65.539  1.00  0.00    -0.227 OA 
BRANCH  21  23
HETATM   23  C   UNL     1      -7.332  19.250  67.330  1.00  0.00    -0.251 C  
BRANCH  23  24
HETATM   24  C   UNL     1      -7.655  19.041  68.794  1.00  0.00    -0.375 C  
HETATM   25  C   UNL     1      -6.540  19.541  69.680  1.00  0.00    -0.301 C  
HETATM   26  O   UNL     1      -6.391  20.715  69.978  1.00  0.00    -0.348 OA 
HETATM   27  O   UNL     1      -5.709  18.569  70.106  1.00  0.00    -0.235 OA 
ENDBRANCH  23  24
ENDBRANCH  21  23
ENDBRANCH  20  21
ENDBRANCH  17  20
TORSDOF 4
ENDMDL
MODEL       66
REMARK 921   NORMALIZED FREE ENERGY PREDICTED BY IDOCK:   -5.43 KCAL/MOL
REMARK 922        TOTAL FREE ENERGY PREDICTED BY IDOCK:   -7.42 KCAL/MOL
REMARK 923 INTER-LIGAND FREE ENERGY PREDICTED BY IDOCK:   -6.99 KCAL/MOL
REMARK 924 INTRA-LIGAND FREE ENERGY PREDICTED BY IDOCK:   -0.42 KCAL/MOL
REMARK 927      BINDING AFFINITY PREDICTED BY RF-SCORE:    0.00 PKD
ROOT
HETATM    1  C   UNL     1     -10.342   7.483  67.383  1.00  0.00    -0.346 C  
HETATM    2  C   UNL     1      -9.668   6.526  66.364  1.00  0.00    -0.133 C  
HETATM    3  C   UNL     1      -9.872   5.047  66.699  1.00  0.00    -0.215 C  
HETATM    4  C   UNL     1      -9.460   4.685  68.140  1.00  0.00    -0.195 C  
HETATM    5  C   UNL     1      -8.420   3.570  68.189  1.00  0.00    -0.106 C  
HETATM    6  C   UNL     1      -9.041   5.964  68.916  1.00  0.00    -0.120 C  
HETATM    7  C   UNL     1      -8.552   5.696  70.331  1.00  0.00    -0.132 C  
HETATM    8  C   UNL     1      -9.691   5.294  71.237  1.00  0.00    -0.222 C  
HETATM    9  C   UNL     1     -10.765   6.402  71.377  1.00  0.00    -0.245 C  
HETATM   10  C   UNL     1     -11.338   6.236  72.796  1.00  0.00    -0.236 C  
HETATM   11  O   UNL     1     -11.867   6.224  70.488  1.00  0.00    -0.319 OA 
HETATM   12  O   UNL     1     -11.456   6.247  69.082  1.00  0.00    -0.394 OA 
HETATM   13  C   UNL     1     -10.224   6.978  68.858  1.00  0.00    -0.180 C  
HETATM   14  C   UNL     1     -10.059   8.140  69.875  1.00  0.00    -0.195 C  
HETATM   15  O   UNL     1     -10.879   9.275  69.550  1.00  0.00    -0.232 OA 
HETATM   16  O   UNL     1     -10.257   7.732  71.246  1.00  0.00    -0.193 OA 
HETATM   17  C   UNL     1     -10.655   9.817  68.237  1.00  0.00    -0.229 C  
HETATM   18  C   UNL     1      -9.818   8.930  67.273  1.00  0.00    -0.256 C  
HETATM   19  C   UNL     1      -9.846   9.454  65.831  1.00  0.00    -0.362 C  
ENDROOT
BRANCH  17  20
HETATM   20  O   UNL     1     -10.225  11.202  68.250  1.00  0.00    -0.170 OA 
BRANCH  20  21
HETATM   21  C   UNL     1     -11.119  12.163  67.918  1.00  0.00    -0.245 C  
HETATM   22  O   UNL     1     -12.152  11.980  67.285  1.00  0.00    -0.572 OA 
BRANCH  21  23
HETATM   23  C   UNL     1     -10.711  13.510  68.462  1.00  0.00    -0.270 C  
BRANCH  23  24
HETATM   24  C   UNL     1     -11.775  14.572  68.283  1.00  0.00    -0.368 C  
HETATM   25  C   UNL     1     -11.850  15.483  69.484  1.00  0.00    -0.372 C  
HETATM   26  O   UNL     1     -11.085  16.414  69.672  1.00  0.00    -0.333 OA 
HETATM   27  O   UNL     1     -12.836  15.164  70.346  1.00  0.00    -0.354 OA 
ENDBRANCH  23  24
ENDBRANCH  21  23
ENDBRANCH  20  21
ENDBRANCH  17  20
TORSDOF 4
ENDMDL
MODEL       67
REMARK 921   NORMALIZED FREE ENERGY PREDICTED BY IDOCK:   -5.42 KCAL/MOL
REMARK 922        TOTAL FREE ENERGY PREDICTED BY IDOCK:   -7.41 KCAL/MOL
REMARK 923 INTER-LIGAND FREE ENERGY PREDICTED BY IDOCK:   -6.96 KCAL/MOL
REMARK 924 INTRA-LIGAND FREE ENERGY PREDICTED BY IDOCK:   -0.45 KCAL/MOL
REMARK 927      BINDING AFFINITY PREDICTED BY RF-SCORE:    0.00 PKD
ROOT
HETATM    1  C   UNL     1      -9.860   7.538  68.600  1.00  0.00    -0.169 C  
HETATM    2  C   UNL     1      -8.728   6.487  68.747  1.00  0.00    -0.123 C  
HETATM    3  C   UNL     1      -9.047   5.395  69.770  1.00  0.00    -0.157 C  
HETATM    4  C   UNL     1      -9.454   5.952  71.150  1.00  0.00    -0.183 C  
HETATM    5  C   UNL     1      -8.575   5.422  72.279  1.00  0.00    -0.126 C  
HETATM    6  C   UNL     1      -9.538   7.503  71.100  1.00  0.00    -0.164 C  
HETATM    7  C   UNL     1      -9.868   8.148  72.437  1.00  0.00    -0.346 C  
HETATM    8  C   UNL     1     -11.305   7.897  72.825  1.00  0.00    -0.453 C  
HETATM    9  C   UNL     1     -12.314   8.503  71.818  1.00  0.00    -0.338 C  
HETATM   10  C   UNL     1     -13.548   8.883  72.655  1.00  0.00    -0.395 C  
HETATM   11  O   UNL     1     -12.773   7.558  70.852  1.00  0.00    -0.203 OA 
HETATM   12  O   UNL     1     -11.679   7.017  70.041  1.00  0.00    -0.233 OA 
HETATM   13  C   UNL     1     -10.532   7.900  69.965  1.00  0.00    -0.231 C  
HETATM   14  C   UNL     1     -10.956   9.392  70.045  1.00  0.00    -0.239 C  
HETATM   15  O   UNL     1     -11.503   9.873  68.806  1.00  0.00    -0.068 OA 
HETATM   16  O   UNL     1     -11.842   9.675  71.149  1.00  0.00    -0.311 OA 
HETATM   17  C   UNL     1     -10.629   9.735  67.673  1.00  0.00    -0.276 C  
HETATM   18  C   UNL     1      -9.389   8.820  67.883  1.00  0.00    -0.155 C  
HETATM   19  C   UNL     1      -8.659   8.520  66.567  1.00  0.00    -0.130 C  
ENDROOT
BRANCH  17  20
HETATM   20  O   UNL     1     -10.301  10.997  67.038  1.00  0.00    -0.209 OA 
BRANCH  20  21
HETATM   21  C   UNL     1     -11.219  11.991  67.055  1.00  0.00    -0.320 C  
HETATM   22  O   UNL     1     -12.196  12.064  66.319  1.00  0.00    -0.548 OA 
BRANCH  21  23
HETATM   23  C   UNL     1     -10.919  13.003  68.133  1.00  0.00    -0.269 C  
BRANCH  23  24
HETATM   24  C   UNL     1     -11.984  14.072  68.260  1.00  0.00    -0.384 C  
HETATM   25  C   UNL     1     -11.372  15.434  68.479  1.00  0.00    -0.335 C  
HETATM   26  O   UNL     1     -10.920  16.123  67.579  1.00  0.00    -0.313 OA 
HETATM   27  O   UNL     1     -11.355  15.819  69.771  1.00  0.00    -0.287 OA 
ENDBRANCH  23  24
ENDBRANCH  21  23
ENDBRANCH  20  21
ENDBRANCH  17  20
TORSDOF 4
ENDMDL
MODEL       68
REMARK 921   NORMALIZED FREE ENERGY PREDICTED BY IDOCK:   -5.40 KCAL/MOL
REMARK 922        TOTAL FREE ENERGY PREDICTED BY IDOCK:   -7.39 KCAL/MOL
REMARK 923 INTER-LIGAND FREE ENERGY PREDICTED BY IDOCK:   -6.65 KCAL/MOL
REMARK 924 INTRA-LIGAND FREE ENERGY PREDICTED BY IDOCK:   -0.74 KCAL/MOL
REMARK 927      BINDING AFFINITY PREDICTED BY RF-SCORE:    0.00 PKD
ROOT
HETATM    1  C   UNL     1      -7.588  14.207  68.328  1.00  0.00    -0.130 C  
HETATM    2  C   UNL     1      -6.457  15.171  67.882  1.00  0.00    -0.176 C  
HETATM    3  C   UNL     1      -6.471  16.505  68.631  1.00  0.00    -0.142 C  
HETATM    4  C   UNL     1      -7.840  17.215  68.588  1.00  0.00    -0.265 C  
HETATM    5  C   UNL     1      -7.750  18.626  68.017  1.00  0.00    -0.282 C  
HETATM    6  C   UNL     1      -8.888  16.317  67.874  1.00  0.00    -0.183 C  
HETATM    7  C   UNL     1     -10.256  16.965  67.724  1.00  0.00    -0.308 C  
HETATM    8  C   UNL     1     -10.966  17.059  69.054  1.00  0.00    -0.103 C  
HETATM    9  C   UNL     1     -11.237  15.671  69.688  1.00  0.00    -0.310 C  
HETATM   10  C   UNL     1     -12.542  15.836  70.487  1.00  0.00    -0.336 C  
HETATM   11  O   UNL     1     -10.243  15.290  70.638  1.00  0.00    -0.082 OA 
HETATM   12  O   UNL     1      -8.908  15.199  70.039  1.00  0.00     0.030 OA 
HETATM   13  C   UNL     1      -8.937  14.945  68.613  1.00  0.00    -0.184 C  
HETATM   14  C   UNL     1     -10.177  14.100  68.210  1.00  0.00    -0.243 C  
HETATM   15  O   UNL     1     -10.019  12.708  68.530  1.00  0.00    -0.219 OA 
HETATM   16  O   UNL     1     -11.417  14.617  68.739  1.00  0.00    -0.267 OA 
HETATM   17  C   UNL     1      -8.865  12.086  67.940  1.00  0.00    -0.174 C  
HETATM   18  C   UNL     1      -7.814  13.054  67.327  1.00  0.00    -0.132 C  
HETATM   19  C   UNL     1      -6.509  12.337  66.957  1.00  0.00    -0.051 C  
ENDROOT
BRANCH  17  20
HETATM   20  O   UNL     1      -9.190  10.975  67.066  1.00  0.00    -0.152 OA 
BRANCH  20  21
HETATM   21  C   UNL     1     -10.467  10.836  66.639  1.00  0.00    -0.246 C  
HETATM   22  O   UNL     1     -11.341  10.202  67.219  1.00  0.00    -0.221 OA 
BRANCH  21  23
HETATM   23  C   UNL     1     -10.709  11.598  65.360  1.00  0.00    -0.341 C  
BRANCH  23  24
HETATM   24  C   UNL     1     -12.019  12.357  65.358  1.00  0.00    -0.457 C  
HETATM   25  C   UNL     1     -12.530  12.569  63.954  1.00  0.00    -0.445 C  
HETATM   26  O   UNL     1     -13.130  11.717  63.319  1.00  0.00    -0.598 OA 
HETATM   27  O   UNL     1     -12.248  13.788  63.453  1.00  0.00    -0.634 OA 
ENDBRANCH  23  24
ENDBRANCH  21  23
ENDBRANCH  20  21
ENDBRANCH  17  20
TORSDOF 4
ENDMDL
MODEL       69
REMARK 921   NORMALIZED FREE ENERGY PREDICTED BY IDOCK:   -5.39 KCAL/MOL
REMARK 922        TOTAL FREE ENERGY PREDICTED BY IDOCK:   -7.37 KCAL/MOL
REMARK 923 INTER-LIGAND FREE ENERGY PREDICTED BY IDOCK:   -6.55 KCAL/MOL
REMARK 924 INTRA-LIGAND FREE ENERGY PREDICTED BY IDOCK:   -0.82 KCAL/MOL
REMARK 927      BINDING AFFINITY PREDICTED BY RF-SCORE:    0.00 PKD
ROOT
HETATM    1  C   UNL     1     -10.931  12.738  67.448  1.00  0.00    -0.285 C  
HETATM    2  C   UNL     1     -11.815  13.888  68.000  1.00  0.00    -0.411 C  
HETATM    3  C   UNL     1     -11.692  14.070  69.514  1.00  0.00    -0.367 C  
HETATM    4  C   UNL     1     -11.933  12.769  70.307  1.00  0.00    -0.358 C  
HETATM    5  C   UNL     1     -13.046  12.911  71.340  1.00  0.00    -0.331 C  
HETATM    6  C   UNL     1     -12.134  11.575  69.332  1.00  0.00    -0.345 C  
HETATM    7  C   UNL     1     -12.447  10.258  70.025  1.00  0.00    -0.112 C  
HETATM    8  C   UNL     1     -11.234   9.713  70.738  1.00  0.00    -0.403 C  
HETATM    9  C   UNL     1     -10.061   9.401  69.774  1.00  0.00    -0.211 C  
HETATM   10  C   UNL     1      -9.317   8.212  70.410  1.00  0.00    -0.158 C  
HETATM   11  O   UNL     1      -9.109  10.461  69.695  1.00  0.00    -0.163 OA 
HETATM   12  O   UNL     1      -9.704  11.707  69.205  1.00  0.00     0.006 OA 
HETATM   13  C   UNL     1     -10.889  11.496  68.397  1.00  0.00    -0.211 C  
HETATM   14  C   UNL     1     -10.816  10.153  67.620  1.00  0.00    -0.290 C  
HETATM   15  O   UNL     1      -9.956  10.229  66.472  1.00  0.00    -0.205 OA 
HETATM   16  O   UNL     1     -10.469   9.028  68.456  1.00  0.00    -0.211 OA 
HETATM   17  C   UNL     1     -10.310  11.254  65.527  1.00  0.00    -0.266 C  
HETATM   18  C   UNL     1     -11.341  12.305  66.025  1.00  0.00    -0.398 C  
HETATM   19  C   UNL     1     -11.466  13.496  65.065  1.00  0.00    -0.334 C  
ENDROOT
BRANCH  17  20
HETATM   20  O   UNL     1     -10.617  10.741  64.205  1.00  0.00    -0.350 OA 
BRANCH  20  21
HETATM   21  C   UNL     1      -9.651  10.769  63.257  1.00  0.00    -0.350 C  
HETATM   22  O   UNL     1      -9.438  11.702  62.492  1.00  0.00    -0.203 OA 
BRANCH  21  23
HETATM   23  C   UNL     1      -8.822   9.508  63.275  1.00  0.00    -0.233 C  
BRANCH  23  24
HETATM   24  C   UNL     1      -7.334   9.775  63.350  1.00  0.00    -0.125 C  
HETATM   25  C   UNL     1      -6.817   9.611  64.759  1.00  0.00    -0.111 C  
HETATM   26  O   UNL     1      -6.553   8.529  65.258  1.00  0.00    -0.062 OA 
HETATM   27  O   UNL     1      -6.685  10.774  65.426  1.00  0.00    -0.064 OA 
ENDBRANCH  23  24
ENDBRANCH  21  23
ENDBRANCH  20  21
ENDBRANCH  17  20
TORSDOF 4
ENDMDL
MODEL       70
REMARK 921   NORMALIZED FREE ENERGY PREDICTED BY IDOCK:   -5.38 KCAL/MOL
REMARK 922        TOTAL FREE ENERGY PREDICTED BY IDOCK:   -7.36 KCAL/MOL
REMARK 923 INTER-LIGAND FREE ENERGY PREDICTED BY IDOCK:   -6.66 KCAL/MOL
REMARK 924 INTRA-LIGAND FREE ENERGY PREDICTED BY IDOCK:   -0.70 KCAL/MOL
REMARK 927      BINDING AFFINITY PREDICTED BY RF-SCORE:    0.00 PKD
ROOT
HETATM    1  C   UNL     1     -11.173   9.544  70.567  1.00  0.00    -0.345 C  
HETATM    2  C   UNL     1     -11.610   8.109  70.966  1.00  0.00    -0.301 C  
HETATM    3  C   UNL     1     -10.581   7.039  70.593  1.00  0.00    -0.246 C  
HETATM    4  C   UNL     1     -10.161   7.087  69.110  1.00  0.00    -0.193 C  
HETATM    5  C   UNL     1     -10.388   5.760  68.394  1.00  0.00    -0.269 C  
HETATM    6  C   UNL     1     -10.826   8.300  68.402  1.00  0.00     0.036 C  
HETATM    7  C   UNL     1     -10.523   8.390  66.915  1.00  0.00    -0.359 C  
HETATM    8  C   UNL     1      -9.089   8.796  66.672  1.00  0.00    -0.196 C  
HETATM    9  C   UNL     1      -8.758  10.198  67.244  1.00  0.00    -0.129 C  
HETATM   10  C   UNL     1      -7.683  10.777  66.306  1.00  0.00    -0.146 C  
HETATM   11  O   UNL     1      -8.160  10.145  68.538  1.00  0.00    -0.100 OA 
HETATM   12  O   UNL     1      -9.034   9.509  69.528  1.00  0.00    -0.155 OA 
HETATM   13  C   UNL     1     -10.440   9.592  69.186  1.00  0.00    -0.214 C  
HETATM   14  C   UNL     1     -10.757  10.886  68.388  1.00  0.00    -0.203 C  
HETATM   15  O   UNL     1     -10.816  12.049  69.229  1.00  0.00    -0.184 OA 
HETATM   16  O   UNL     1      -9.868  11.098  67.269  1.00  0.00    -0.173 OA 
HETATM   17  C   UNL     1     -11.769  11.962  70.302  1.00  0.00    -0.205 C  
HETATM   18  C   UNL     1     -12.346  10.546  70.582  1.00  0.00    -0.449 C  
HETATM   19  C   UNL     1     -13.145  10.492  71.890  1.00  0.00    -0.567 C  
ENDROOT
BRANCH  17  20
HETATM   20  O   UNL     1     -12.791  12.991  70.253  1.00  0.00     0.026 OA 
BRANCH  20  21
HETATM   21  C   UNL     1     -12.758  13.985  71.172  1.00  0.00    -0.364 C  
HETATM   22  O   UNL     1     -13.327  13.964  72.256  1.00  0.00    -0.415 OA 
BRANCH  21  23
HETATM   23  C   UNL     1     -11.890  15.131  70.715  1.00  0.00    -0.371 C  
BRANCH  23  24
HETATM   24  C   UNL     1     -12.267  15.654  69.345  1.00  0.00    -0.201 C  
HETATM   25  C   UNL     1     -11.043  15.970  68.521  1.00  0.00    -0.347 C  
HETATM   26  O   UNL     1     -10.400  15.126  67.919  1.00  0.00    -0.237 OA 
HETATM   27  O   UNL     1     -10.712  17.276  68.521  1.00  0.00    -0.353 OA 
ENDBRANCH  23  24
ENDBRANCH  21  23
ENDBRANCH  20  21
ENDBRANCH  17  20
TORSDOF 4
ENDMDL
MODEL       71
REMARK 921   NORMALIZED FREE ENERGY PREDICTED BY IDOCK:   -5.37 KCAL/MOL
REMARK 922        TOTAL FREE ENERGY PREDICTED BY IDOCK:   -7.35 KCAL/MOL
REMARK 923 INTER-LIGAND FREE ENERGY PREDICTED BY IDOCK:   -6.55 KCAL/MOL
REMARK 924 INTRA-LIGAND FREE ENERGY PREDICTED BY IDOCK:   -0.80 KCAL/MOL
REMARK 927      BINDING AFFINITY PREDICTED BY RF-SCORE:    0.00 PKD
ROOT
HETATM    1  C   UNL     1      -9.694  15.011  67.556  1.00  0.00    -0.215 C  
HETATM    2  C   UNL     1      -9.562  13.766  66.639  1.00  0.00    -0.295 C  
HETATM    3  C   UNL     1     -10.887  13.031  66.425  1.00  0.00    -0.294 C  
HETATM    4  C   UNL     1     -11.601  12.663  67.742  1.00  0.00    -0.403 C  
HETATM    5  C   UNL     1     -11.888  11.169  67.856  1.00  0.00    -0.162 C  
HETATM    6  C   UNL     1     -10.823  13.244  68.955  1.00  0.00    -0.212 C  
HETATM    7  C   UNL     1     -11.417  12.874  70.305  1.00  0.00     0.120 C  
HETATM    8  C   UNL     1     -12.715  13.605  70.550  1.00  0.00    -0.260 C  
HETATM    9  C   UNL     1     -12.540  15.144  70.588  1.00  0.00    -0.395 C  
HETATM   10  C   UNL     1     -13.612  15.652  71.568  1.00  0.00    -0.466 C  
HETATM   11  O   UNL     1     -12.827  15.767  69.337  1.00  0.00     0.173 OA 
HETATM   12  O   UNL     1     -11.947  15.294  68.265  1.00  0.00    -0.297 OA 
HETATM   13  C   UNL     1     -10.679  14.783  68.749  1.00  0.00    -0.253 C  
HETATM   14  C   UNL     1     -10.228  15.514  70.043  1.00  0.00    -0.273 C  
HETATM   15  O   UNL     1      -9.686  16.818  69.776  1.00  0.00     0.070 OA 
HETATM   16  O   UNL     1     -11.259  15.577  71.052  1.00  0.00    -0.332 OA 
HETATM   17  C   UNL     1      -8.573  16.827  68.867  1.00  0.00    -0.218 C  
HETATM   18  C   UNL     1      -8.331  15.508  68.080  1.00  0.00    -0.142 C  
HETATM   19  C   UNL     1      -7.301  15.683  66.956  1.00  0.00    -0.203 C  
ENDROOT
BRANCH  17  20
HETATM   20  O   UNL     1      -7.359  17.373  69.444  1.00  0.00    -0.131 OA 
BRANCH  20  21
HETATM   21  C   UNL     1      -6.890  18.554  68.976  1.00  0.00    -0.274 C  
HETATM   22  O   UNL     1      -5.718  18.796  68.715  1.00  0.00    -0.198 OA 
BRANCH  21  23
HETATM   23  C   UNL     1      -8.006  19.549  68.771  1.00  0.00    -0.362 C  
BRANCH  23  24
HETATM   24  C   UNL     1      -7.914  20.282  67.450  1.00  0.00    -0.366 C  
HETATM   25  C   UNL     1      -8.674  19.558  66.366  1.00  0.00    -0.361 C  
HETATM   26  O   UNL     1      -9.883  19.639  66.220  1.00  0.00    -0.388 OA 
HETATM   27  O   UNL     1      -7.894  18.794  65.575  1.00  0.00    -0.409 OA 
ENDBRANCH  23  24
ENDBRANCH  21  23
ENDBRANCH  20  21
ENDBRANCH  17  20
TORSDOF 4
ENDMDL
MODEL       72
REMARK 921   NORMALIZED FREE ENERGY PREDICTED BY IDOCK:   -5.29 KCAL/MOL
REMARK 922        TOTAL FREE ENERGY PREDICTED BY IDOCK:   -7.25 KCAL/MOL
REMARK 923 INTER-LIGAND FREE ENERGY PREDICTED BY IDOCK:   -6.74 KCAL/MOL
REMARK 924 INTRA-LIGAND FREE ENERGY PREDICTED BY IDOCK:   -0.51 KCAL/MOL
REMARK 927      BINDING AFFINITY PREDICTED BY RF-SCORE:    0.00 PKD
ROOT
HETATM    1  C   UNL     1     -10.911  12.660  65.743  1.00  0.00    -0.313 C  
HETATM    2  C   UNL     1     -10.911  12.847  64.202  1.00  0.00    -0.442 C  
HETATM    3  C   UNL     1     -10.950  11.524  63.434  1.00  0.00    -0.397 C  
HETATM    4  C   UNL     1      -9.845  10.537  63.863  1.00  0.00    -0.373 C  
HETATM    5  C   UNL     1      -8.972  10.091  62.693  1.00  0.00    -0.278 C  
HETATM    6  C   UNL     1      -9.039  11.118  65.057  1.00  0.00    -0.138 C  
HETATM    7  C   UNL     1      -7.880  10.242  65.506  1.00  0.00    -0.152 C  
HETATM    8  C   UNL     1      -8.374   8.997  66.203  1.00  0.00    -0.124 C  
HETATM    9  C   UNL     1      -9.176   9.309  67.492  1.00  0.00    -0.124 C  
HETATM   10  C   UNL     1      -8.910   8.121  68.435  1.00  0.00    -0.133 C  
HETATM   11  O   UNL     1     -10.586   9.330  67.279  1.00  0.00    -0.264 OA 
HETATM   12  O   UNL     1     -10.986  10.351  66.307  1.00  0.00    -0.030 OA 
HETATM   13  C   UNL     1     -10.041  11.446  66.207  1.00  0.00    -0.224 C  
HETATM   14  C   UNL     1      -9.326  11.706  67.560  1.00  0.00    -0.168 C  
HETATM   15  O   UNL     1     -10.159  12.413  68.494  1.00  0.00    -0.221 OA 
HETATM   16  O   UNL     1      -8.776  10.511  68.154  1.00  0.00    -0.125 OA 
HETATM   17  C   UNL     1     -10.651  13.677  68.018  1.00  0.00    -0.249 C  
HETATM   18  C   UNL     1     -10.483  13.938  66.495  1.00  0.00    -0.282 C  
HETATM   19  C   UNL     1     -11.258  15.178  66.029  1.00  0.00    -0.275 C  
ENDROOT
BRANCH  17  20
HETATM   20  O   UNL     1     -10.240  14.803  68.835  1.00  0.00    -0.227 OA 
BRANCH  20  21
HETATM   21  C   UNL     1     -11.193  15.608  69.360  1.00  0.00    -0.313 C  
HETATM   22  O   UNL     1     -12.367  15.300  69.523  1.00  0.00    -0.266 OA 
BRANCH  21  23
HETATM   23  C   UNL     1     -10.625  16.945  69.767  1.00  0.00    -0.098 C  
BRANCH  23  24
HETATM   24  C   UNL     1      -9.712  17.547  68.721  1.00  0.00    -0.298 C  
HETATM   25  C   UNL     1     -10.138  18.950  68.362  1.00  0.00    -0.392 C  
HETATM   26  O   UNL     1      -9.861  19.931  69.033  1.00  0.00    -0.362 OA 
HETATM   27  O   UNL     1     -10.869  19.022  67.232  1.00  0.00    -0.472 OA 
ENDBRANCH  23  24
ENDBRANCH  21  23
ENDBRANCH  20  21
ENDBRANCH  17  20
TORSDOF 4
ENDMDL
MODEL       73
REMARK 921   NORMALIZED FREE ENERGY PREDICTED BY IDOCK:   -5.28 KCAL/MOL
REMARK 922        TOTAL FREE ENERGY PREDICTED BY IDOCK:   -7.24 KCAL/MOL
REMARK 923 INTER-LIGAND FREE ENERGY PREDICTED BY IDOCK:   -6.52 KCAL/MOL
REMARK 924 INTRA-LIGAND FREE ENERGY PREDICTED BY IDOCK:   -0.72 KCAL/MOL
REMARK 927      BINDING AFFINITY PREDICTED BY RF-SCORE:    0.00 PKD
ROOT
HETATM    1  C   UNL     1     -10.262   9.653  68.866  1.00  0.00    -0.214 C  
HETATM    2  C   UNL     1     -11.393  10.707  68.727  1.00  0.00    -0.339 C  
HETATM    3  C   UNL     1     -11.720  11.417  70.042  1.00  0.00    -0.416 C  
HETATM    4  C   UNL     1     -12.021  10.446  71.202  1.00  0.00    -0.460 C  
HETATM    5  C   UNL     1     -13.387  10.693  71.834  1.00  0.00    -0.454 C  
HETATM    6  C   UNL     1     -11.801   8.978  70.744  1.00  0.00    -0.251 C  
HETATM    7  C   UNL     1     -12.139   7.942  71.805  1.00  0.00    -0.340 C  
HETATM    8  C   UNL     1     -11.119   7.945  72.917  1.00  0.00    -0.442 C  
HETATM    9  C   UNL     1      -9.695   7.578  72.426  1.00  0.00    -0.161 C  
HETATM   10  C   UNL     1      -9.025   6.865  73.615  1.00  0.00    -0.174 C  
HETATM   11  O   UNL     1      -8.889   8.723  72.153  1.00  0.00    -0.345 OA 
HETATM   12  O   UNL     1      -9.464   9.570  71.104  1.00  0.00    -0.200 OA 
HETATM   13  C   UNL     1     -10.343   8.849  70.205  1.00  0.00    -0.206 C  
HETATM   14  C   UNL     1      -9.900   7.370  70.041  1.00  0.00    -0.179 C  
HETATM   15  O   UNL     1      -8.768   7.230  69.167  1.00  0.00    -0.135 OA 
HETATM   16  O   UNL     1      -9.672   6.700  71.299  1.00  0.00    -0.173 OA 
HETATM   17  C   UNL     1      -8.961   7.770  67.848  1.00  0.00    -0.125 C  
HETATM   18  C   UNL     1     -10.205   8.684  67.667  1.00  0.00    -0.300 C  
HETATM   19  C   UNL     1     -10.194   9.419  66.320  1.00  0.00    -0.284 C  
ENDROOT
BRANCH  17  20
HETATM   20  O   UNL     1      -8.823   6.783  66.794  1.00  0.00    -0.116 OA 
BRANCH  20  21
HETATM   21  C   UNL     1      -9.691   5.745  66.758  1.00  0.00    -0.153 C  
HETATM   22  O   UNL     1     -10.911   5.840  66.831  1.00  0.00    -0.295 OA 
BRANCH  21  23
HETATM   23  C   UNL     1      -8.974   4.430  66.574  1.00  0.00    -0.117 C  
BRANCH  23  24
HETATM   24  C   UNL     1      -8.279   3.951  67.831  1.00  0.00    -0.095 C  
HETATM   25  C   UNL     1      -9.197   3.102  68.676  1.00  0.00    -0.167 C  
HETATM   26  O   UNL     1      -9.414   1.921  68.458  1.00  0.00    -0.178 OA 
HETATM   27  O   UNL     1      -9.772   3.773  69.694  1.00  0.00    -0.199 OA 
ENDBRANCH  23  24
ENDBRANCH  21  23
ENDBRANCH  20  21
ENDBRANCH  17  20
TORSDOF 4
ENDMDL
MODEL       74
REMARK 921   NORMALIZED FREE ENERGY PREDICTED BY IDOCK:   -5.28 KCAL/MOL
REMARK 922        TOTAL FREE ENERGY PREDICTED BY IDOCK:   -7.23 KCAL/MOL
REMARK 923 INTER-LIGAND FREE ENERGY PREDICTED BY IDOCK:   -6.56 KCAL/MOL
REMARK 924 INTRA-LIGAND FREE ENERGY PREDICTED BY IDOCK:   -0.67 KCAL/MOL
REMARK 927      BINDING AFFINITY PREDICTED BY RF-SCORE:    0.00 PKD
ROOT
HETATM    1  C   UNL     1      -8.095  13.491  67.543  1.00  0.00    -0.190 C  
HETATM    2  C   UNL     1      -8.036  12.324  68.565  1.00  0.00    -0.107 C  
HETATM    3  C   UNL     1      -8.886  11.120  68.156  1.00  0.00    -0.148 C  
HETATM    4  C   UNL     1     -10.349  11.487  67.834  1.00  0.00    -0.203 C  
HETATM    5  C   UNL     1     -11.349  10.700  68.675  1.00  0.00    -0.345 C  
HETATM    6  C   UNL     1     -10.546  13.026  67.907  1.00  0.00    -0.239 C  
HETATM    7  C   UNL     1     -11.978  13.479  67.670  1.00  0.00    -0.373 C  
HETATM    8  C   UNL     1     -12.372  13.310  66.222  1.00  0.00    -0.382 C  
HETATM    9  C   UNL     1     -11.508  14.165  65.261  1.00  0.00    -0.330 C  
HETATM   10  C   UNL     1     -12.437  14.524  64.088  1.00  0.00    -0.215 C  
HETATM   11  O   UNL     1     -10.423  13.435  64.691  1.00  0.00    -0.385 OA 
HETATM   12  O   UNL     1      -9.499  12.926  65.708  1.00  0.00    -0.138 OA 
HETATM   13  C   UNL     1      -9.523  13.694  66.937  1.00  0.00    -0.262 C  
HETATM   14  C   UNL     1      -9.850  15.188  66.669  1.00  0.00    -0.252 C  
HETATM   15  O   UNL     1      -8.722  15.912  66.151  1.00  0.00    -0.327 OA 
HETATM   16  O   UNL     1     -11.015  15.377  65.837  1.00  0.00    -0.325 OA 
HETATM   17  C   UNL     1      -7.552  15.871  66.984  1.00  0.00    -0.229 C  
HETATM   18  C   UNL     1      -7.572  14.819  68.128  1.00  0.00    -0.121 C  
HETATM   19  C   UNL     1      -6.201  14.663  68.799  1.00  0.00    -0.087 C  
ENDROOT
BRANCH  17  20
HETATM   20  O   UNL     1      -7.111  17.181  67.427  1.00  0.00    -0.144 OA 
BRANCH  20  21
HETATM   21  C   UNL     1      -8.045  18.098  67.774  1.00  0.00    -0.238 C  
HETATM   22  O   UNL     1      -8.794  18.013  68.740  1.00  0.00    -0.282 OA 
BRANCH  21  23
HETATM   23  C   UNL     1      -8.032  19.282  66.839  1.00  0.00    -0.278 C  
BRANCH  23  24
HETATM   24  C   UNL     1      -6.639  19.802  66.557  1.00  0.00    -0.203 C  
HETATM   25  C   UNL     1      -6.344  19.813  65.077  1.00  0.00    -0.279 C  
HETATM   26  O   UNL     1      -6.724  20.691  64.320  1.00  0.00    -0.250 OA 
HETATM   27  O   UNL     1      -5.631  18.748  64.659  1.00  0.00    -0.224 OA 
ENDBRANCH  23  24
ENDBRANCH  21  23
ENDBRANCH  20  21
ENDBRANCH  17  20
TORSDOF 4
ENDMDL
MODEL       75
REMARK 921   NORMALIZED FREE ENERGY PREDICTED BY IDOCK:   -5.28 KCAL/MOL
REMARK 922        TOTAL FREE ENERGY PREDICTED BY IDOCK:   -7.23 KCAL/MOL
REMARK 923 INTER-LIGAND FREE ENERGY PREDICTED BY IDOCK:   -6.56 KCAL/MOL
REMARK 924 INTRA-LIGAND FREE ENERGY PREDICTED BY IDOCK:   -0.67 KCAL/MOL
REMARK 927      BINDING AFFINITY PREDICTED BY RF-SCORE:    0.00 PKD
ROOT
HETATM    1  C   UNL     1      -8.400   9.676  67.088  1.00  0.00    -0.121 C  
HETATM    2  C   UNL     1      -7.459   8.863  66.160  1.00  0.00    -0.090 C  
HETATM    3  C   UNL     1      -6.953   9.666  64.960  1.00  0.00    -0.111 C  
HETATM    4  C   UNL     1      -8.085  10.325  64.145  1.00  0.00    -0.138 C  
HETATM    5  C   UNL     1      -8.059   9.921  62.674  1.00  0.00    -0.137 C  
HETATM    6  C   UNL     1      -9.456  10.080  64.836  1.00  0.00    -0.355 C  
HETATM    7  C   UNL     1     -10.644  10.637  64.066  1.00  0.00    -0.009 C  
HETATM    8  C   UNL     1     -10.673  12.145  64.121  1.00  0.00    -0.405 C  
HETATM    9  C   UNL     1     -10.829  12.690  65.563  1.00  0.00    -0.279 C  
HETATM   10  C   UNL     1     -11.610  14.008  65.419  1.00  0.00    -0.329 C  
HETATM   11  O   UNL     1      -9.582  13.038  66.164  1.00  0.00    -0.260 OA 
HETATM   12  O   UNL     1      -8.676  11.891  66.269  1.00  0.00    -0.167 OA 
HETATM   13  C   UNL     1      -9.367  10.617  66.297  1.00  0.00    -0.171 C  
HETATM   14  C   UNL     1     -10.761  10.741  66.969  1.00  0.00    -0.265 C  
HETATM   15  O   UNL     1     -10.676  10.811  68.401  1.00  0.00    -0.189 OA 
HETATM   16  O   UNL     1     -11.555  11.826  66.441  1.00  0.00    -0.462 OA 
HETATM   17  C   UNL     1     -10.001   9.701  69.015  1.00  0.00    -0.185 C  
HETATM   18  C   UNL     1      -9.204   8.777  68.051  1.00  0.00    -0.147 C  
HETATM   19  C   UNL     1      -8.311   7.783  68.805  1.00  0.00    -0.128 C  
ENDROOT
BRANCH  17  20
HETATM   20  O   UNL     1     -10.831   8.963  69.949  1.00  0.00    -0.229 OA 
BRANCH  20  21
HETATM   21  C   UNL     1     -10.772   9.283  71.263  1.00  0.00    -0.352 C  
HETATM   22  O   UNL     1      -9.748   9.551  71.880  1.00  0.00    -0.014 OA 
BRANCH  21  23
HETATM   23  C   UNL     1     -12.145   9.310  71.888  1.00  0.00    -0.440 C  
BRANCH  23  24
HETATM   24  C   UNL     1     -13.127  10.177  71.129  1.00  0.00    -0.480 C  
HETATM   25  C   UNL     1     -12.839  11.644  71.336  1.00  0.00    -0.356 C  
HETATM   26  O   UNL     1     -11.975  12.253  70.727  1.00  0.00    -0.266 OA 
HETATM   27  O   UNL     1     -13.618  12.223  72.271  1.00  0.00    -0.472 OA 
ENDBRANCH  23  24
ENDBRANCH  21  23
ENDBRANCH  20  21
ENDBRANCH  17  20
TORSDOF 4
ENDMDL
MODEL       76
REMARK 921   NORMALIZED FREE ENERGY PREDICTED BY IDOCK:   -5.27 KCAL/MOL
REMARK 922        TOTAL FREE ENERGY PREDICTED BY IDOCK:   -7.22 KCAL/MOL
REMARK 923 INTER-LIGAND FREE ENERGY PREDICTED BY IDOCK:   -6.53 KCAL/MOL
REMARK 924 INTRA-LIGAND FREE ENERGY PREDICTED BY IDOCK:   -0.68 KCAL/MOL
REMARK 927      BINDING AFFINITY PREDICTED BY RF-SCORE:    0.00 PKD
ROOT
HETATM    1  C   UNL     1     -11.443  11.013  68.895  1.00  0.00    -0.364 C  
HETATM    2  C   UNL     1     -11.725  11.306  70.393  1.00  0.00    -0.398 C  
HETATM    3  C   UNL     1     -12.548  12.576  70.615  1.00  0.00    -0.237 C  
HETATM    4  C   UNL     1     -11.953  13.819  69.920  1.00  0.00    -0.412 C  
HETATM    5  C   UNL     1     -11.690  14.964  70.892  1.00  0.00    -0.374 C  
HETATM    6  C   UNL     1     -10.712  13.418  69.075  1.00  0.00    -0.160 C  
HETATM    7  C   UNL     1     -10.016  14.593  68.405  1.00  0.00    -0.227 C  
HETATM    8  C   UNL     1     -10.844  15.144  67.269  1.00  0.00    -0.316 C  
HETATM    9  C   UNL     1     -11.079  14.109  66.141  1.00  0.00    -0.312 C  
HETATM   10  C   UNL     1     -11.172  14.934  64.844  1.00  0.00    -0.415 C  
HETATM   11  O   UNL     1     -12.328  13.428  66.261  1.00  0.00    -0.401 OA 
HETATM   12  O   UNL     1     -12.432  12.678  67.515  1.00  0.00    -0.139 OA 
HETATM   13  C   UNL     1     -11.145  12.308  68.070  1.00  0.00    -0.239 C  
HETATM   14  C   UNL     1     -10.091  12.075  66.954  1.00  0.00    -0.205 C  
HETATM   15  O   UNL     1     -10.257  10.807  66.298  1.00  0.00    -0.231 OA 
HETATM   16  O   UNL     1     -10.027  13.152  65.994  1.00  0.00    -0.278 OA 
HETATM   17  C   UNL     1     -10.212   9.670  67.177  1.00  0.00    -0.243 C  
HETATM   18  C   UNL     1     -10.311   9.984  68.696  1.00  0.00    -0.211 C  
HETATM   19  C   UNL     1     -10.516   8.718  69.539  1.00  0.00    -0.222 C  
ENDROOT
BRANCH  17  20
HETATM   20  O   UNL     1      -9.148   8.736  66.860  1.00  0.00    -0.131 OA 
BRANCH  20  21
HETATM   21  C   UNL     1      -7.866   9.167  66.917  1.00  0.00    -0.098 C  
HETATM   22  O   UNL     1      -7.243   9.398  67.946  1.00  0.00    -0.081 OA 
BRANCH  21  23
HETATM   23  C   UNL     1      -7.263   9.297  65.540  1.00  0.00    -0.086 C  
BRANCH  23  24
HETATM   24  C   UNL     1      -8.075   8.601  64.467  1.00  0.00    -0.162 C  
HETATM   25  C   UNL     1      -8.336   9.515  63.296  1.00  0.00    -0.181 C  
HETATM   26  O   UNL     1      -7.523   9.727  62.411  1.00  0.00    -0.108 OA 
HETATM   27  O   UNL     1      -9.554  10.093  63.321  1.00  0.00    -0.301 OA 
ENDBRANCH  23  24
ENDBRANCH  21  23
ENDBRANCH  20  21
ENDBRANCH  17  20
TORSDOF 4
ENDMDL
MODEL       77
REMARK 921   NORMALIZED FREE ENERGY PREDICTED BY IDOCK:   -5.22 KCAL/MOL
REMARK 922        TOTAL FREE ENERGY PREDICTED BY IDOCK:   -7.16 KCAL/MOL
REMARK 923 INTER-LIGAND FREE ENERGY PREDICTED BY IDOCK:   -6.51 KCAL/MOL
REMARK 924 INTRA-LIGAND FREE ENERGY PREDICTED BY IDOCK:   -0.65 KCAL/MOL
REMARK 927      BINDING AFFINITY PREDICTED BY RF-SCORE:    0.00 PKD
ROOT
HETATM    1  C   UNL     1     -12.192  12.199  70.064  1.00  0.00    -0.270 C  
HETATM    2  C   UNL     1     -12.655  12.567  71.498  1.00  0.00    -0.253 C  
HETATM    3  C   UNL     1     -13.269  13.966  71.594  1.00  0.00    -0.446 C  
HETATM    4  C   UNL     1     -12.363  15.071  71.014  1.00  0.00    -0.394 C  
HETATM    5  C   UNL     1     -12.063  16.174  72.024  1.00  0.00    -0.572 C  
HETATM    6  C   UNL     1     -11.091  14.445  70.377  1.00  0.00     0.034 C  
HETATM    7  C   UNL     1     -10.103  15.466  69.837  1.00  0.00    -0.253 C  
HETATM    8  C   UNL     1     -10.630  16.129  68.587  1.00  0.00    -0.283 C  
HETATM    9  C   UNL     1     -10.858  15.127  67.427  1.00  0.00    -0.302 C  
HETATM   10  C   UNL     1     -10.597  15.928  66.139  1.00  0.00    -0.310 C  
HETATM   11  O   UNL     1     -12.209  14.676  67.339  1.00  0.00    -0.289 OA 
HETATM   12  O   UNL     1     -12.642  13.981  68.555  1.00  0.00     0.060 OA 
HETATM   13  C   UNL     1     -11.545  13.405  69.307  1.00  0.00    -0.310 C  
HETATM   14  C   UNL     1     -10.383  12.970  68.374  1.00  0.00    -0.252 C  
HETATM   15  O   UNL     1     -10.660  11.736  67.690  1.00  0.00    -0.195 OA 
HETATM   16  O   UNL     1      -9.980  13.999  67.445  1.00  0.00    -0.238 OA 
HETATM   17  C   UNL     1     -10.955  10.627  68.556  1.00  0.00    -0.248 C  
HETATM   18  C   UNL     1     -11.240  10.985  70.041  1.00  0.00    -0.303 C  
HETATM   19  C   UNL     1     -11.795   9.792  70.830  1.00  0.00    -0.420 C  
ENDROOT
BRANCH  17  20
HETATM   20  O   UNL     1     -10.033   9.517  68.407  1.00  0.00    -0.155 OA 
BRANCH  20  21
HETATM   21  C   UNL     1      -8.712   9.781  68.276  1.00  0.00    -0.119 C  
HETATM   22  O   UNL     1      -8.105   9.842  67.214  1.00  0.00    -0.115 OA 
BRANCH  21  23
HETATM   23  C   UNL     1      -8.064  10.038  69.615  1.00  0.00    -0.180 C  
BRANCH  23  24
HETATM   24  C   UNL     1      -7.742   8.768  70.374  1.00  0.00    -0.091 C  
HETATM   25  C   UNL     1      -7.978   8.938  71.855  1.00  0.00     0.083 C  
HETATM   26  O   UNL     1      -9.078   8.858  72.376  1.00  0.00    -0.372 OA 
HETATM   27  O   UNL     1      -6.857   9.201  72.555  1.00  0.00    -0.315 OA 
ENDBRANCH  23  24
ENDBRANCH  21  23
ENDBRANCH  20  21
ENDBRANCH  17  20
TORSDOF 4
ENDMDL
MODEL       78
REMARK 921   NORMALIZED FREE ENERGY PREDICTED BY IDOCK:   -5.16 KCAL/MOL
REMARK 922        TOTAL FREE ENERGY PREDICTED BY IDOCK:   -7.09 KCAL/MOL
REMARK 923 INTER-LIGAND FREE ENERGY PREDICTED BY IDOCK:   -6.47 KCAL/MOL
REMARK 924 INTRA-LIGAND FREE ENERGY PREDICTED BY IDOCK:   -0.62 KCAL/MOL
REMARK 927      BINDING AFFINITY PREDICTED BY RF-SCORE:    0.00 PKD
ROOT
HETATM    1  C   UNL     1     -10.981  10.344  70.086  1.00  0.00    -0.365 C  
HETATM    2  C   UNL     1     -12.437  10.871  70.183  1.00  0.00    -0.356 C  
HETATM    3  C   UNL     1     -13.093  10.585  71.536  1.00  0.00    -0.532 C  
HETATM    4  C   UNL     1     -13.024   9.099  71.946  1.00  0.00    -0.473 C  
HETATM    5  C   UNL     1     -14.400   8.504  72.227  1.00  0.00    -0.483 C  
HETATM    6  C   UNL     1     -12.195   8.294  70.907  1.00  0.00    -0.101 C  
HETATM    7  C   UNL     1     -12.129   6.801  71.192  1.00  0.00    -0.422 C  
HETATM    8  C   UNL     1     -11.257   6.512  72.391  1.00  0.00    -0.310 C  
HETATM    9  C   UNL     1      -9.787   6.956  72.183  1.00  0.00    -0.147 C  
HETATM   10  C   UNL     1      -8.942   5.962  73.002  1.00  0.00    -0.121 C  
HETATM   11  O   UNL     1      -9.512   8.245  72.730  1.00  0.00    -0.260 OA 
HETATM   12  O   UNL     1     -10.332   9.294  72.119  1.00  0.00    -0.129 OA 
HETATM   13  C   UNL     1     -10.790   8.958  70.785  1.00  0.00    -0.241 C  
HETATM   14  C   UNL     1      -9.769   8.052  70.045  1.00  0.00    -0.173 C  
HETATM   15  O   UNL     1      -8.638   8.789  69.552  1.00  0.00    -0.125 OA 
HETATM   16  O   UNL     1      -9.347   6.912  70.824  1.00  0.00    -0.161 OA 
HETATM   17  C   UNL     1      -8.970   9.873  68.668  1.00  0.00    -0.128 C  
HETATM   18  C   UNL     1     -10.469  10.280  68.632  1.00  0.00    -0.215 C  
HETATM   19  C   UNL     1     -10.696  11.595  67.874  1.00  0.00    -0.241 C  
ENDROOT
BRANCH  17  20
HETATM   20  O   UNL     1      -8.386   9.742  67.347  1.00  0.00    -0.114 OA 
BRANCH  20  21
HETATM   21  C   UNL     1      -8.919   8.843  66.487  1.00  0.00    -0.155 C  
HETATM   22  O   UNL     1      -9.764   9.093  65.637  1.00  0.00    -0.270 OA 
BRANCH  21  23
HETATM   23  C   UNL     1      -8.312   7.474  66.672  1.00  0.00    -0.127 C  
BRANCH  23  24
HETATM   24  C   UNL     1      -9.034   6.392  65.897  1.00  0.00    -0.111 C  
HETATM   25  C   UNL     1     -10.140   5.774  66.717  1.00  0.00    -0.196 C  
HETATM   26  O   UNL     1     -11.241   6.280  66.855  1.00  0.00    -0.335 OA 
HETATM   27  O   UNL     1      -9.794   4.609  67.301  1.00  0.00    -0.178 OA 
ENDBRANCH  23  24
ENDBRANCH  21  23
ENDBRANCH  20  21
ENDBRANCH  17  20
TORSDOF 4
ENDMDL
MODEL       79
REMARK 921   NORMALIZED FREE ENERGY PREDICTED BY IDOCK:   -5.14 KCAL/MOL
REMARK 922        TOTAL FREE ENERGY PREDICTED BY IDOCK:   -7.06 KCAL/MOL
REMARK 923 INTER-LIGAND FREE ENERGY PREDICTED BY IDOCK:   -6.25 KCAL/MOL
REMARK 924 INTRA-LIGAND FREE ENERGY PREDICTED BY IDOCK:   -0.81 KCAL/MOL
REMARK 927      BINDING AFFINITY PREDICTED BY RF-SCORE:    0.00 PKD
ROOT
HETATM    1  C   UNL     1      -9.413  11.173  67.187  1.00  0.00    -0.187 C  
HETATM    2  C   UNL     1      -7.902  11.333  66.874  1.00  0.00    -0.156 C  
HETATM    3  C   UNL     1      -7.125  10.018  66.967  1.00  0.00    -0.089 C  
HETATM    4  C   UNL     1      -7.328   9.281  68.306  1.00  0.00    -0.078 C  
HETATM    5  C   UNL     1      -6.013   9.003  69.028  1.00  0.00    -0.043 C  
HETATM    6  C   UNL     1      -8.373  10.031  69.178  1.00  0.00    -0.146 C  
HETATM    7  C   UNL     1      -8.590   9.414  70.551  1.00  0.00    -0.265 C  
HETATM    8  C   UNL     1      -9.337   8.105  70.450  1.00  0.00    -0.158 C  
HETATM    9  C   UNL     1     -10.754   8.269  69.846  1.00  0.00    -0.234 C  
HETATM   10  C   UNL     1     -11.609   7.174  70.509  1.00  0.00    -0.331 C  
HETATM   11  O   UNL     1     -10.796   8.001  68.445  1.00  0.00    -0.074 OA 
HETATM   12  O   UNL     1      -9.932   8.906  67.681  1.00  0.00    -0.172 OA 
HETATM   13  C   UNL     1      -9.689  10.167  68.352  1.00  0.00    -0.147 C  
HETATM   14  C   UNL     1     -10.899  10.587  69.230  1.00  0.00    -0.243 C  
HETATM   15  O   UNL     1     -11.981  11.125  68.452  1.00  0.00    -0.561 OA 
HETATM   16  O   UNL     1     -11.360   9.537  70.106  1.00  0.00    -0.239 OA 
HETATM   17  C   UNL     1     -11.627  12.255  67.638  1.00  0.00    -0.354 C  
HETATM   18  C   UNL     1     -10.104  12.522  67.475  1.00  0.00    -0.207 C  
HETATM   19  C   UNL     1      -9.810  13.573  66.396  1.00  0.00    -0.299 C  
ENDROOT
BRANCH  17  20
HETATM   20  O   UNL     1     -12.382  13.454  67.953  1.00  0.00    -0.203 OA 
BRANCH  20  21
HETATM   21  C   UNL     1     -12.082  14.132  69.085  1.00  0.00    -0.325 C  
HETATM   22  O   UNL     1     -11.982  13.635  70.201  1.00  0.00    -0.318 OA 
BRANCH  21  23
HETATM   23  C   UNL     1     -11.841  15.595  68.807  1.00  0.00    -0.336 C  
BRANCH  23  24
HETATM   24  C   UNL     1     -10.827  16.220  69.741  1.00  0.00    -0.356 C  
HETATM   25  C   UNL     1      -9.471  16.325  69.089  1.00  0.00    -0.246 C  
HETATM   26  O   UNL     1      -9.163  17.214  68.312  1.00  0.00    -0.246 OA 
HETATM   27  O   UNL     1      -8.626  15.332  69.433  1.00  0.00    -0.238 OA 
ENDBRANCH  23  24
ENDBRANCH  21  23
ENDBRANCH  20  21
ENDBRANCH  17  20
TORSDOF 4
ENDMDL
MODEL       80
REMARK 921   NORMALIZED FREE ENERGY PREDICTED BY IDOCK:   -5.13 KCAL/MOL
REMARK 922        TOTAL FREE ENERGY PREDICTED BY IDOCK:   -7.05 KCAL/MOL
REMARK 923 INTER-LIGAND FREE ENERGY PREDICTED BY IDOCK:   -6.26 KCAL/MOL
REMARK 924 INTRA-LIGAND FREE ENERGY PREDICTED BY IDOCK:   -0.78 KCAL/MOL
REMARK 927      BINDING AFFINITY PREDICTED BY RF-SCORE:    0.00 PKD
ROOT
HETATM    1  C   UNL     1      -9.117  15.096  68.546  1.00  0.00    -0.191 C  
HETATM    2  C   UNL     1      -8.802  16.607  68.702  1.00  0.00    -0.249 C  
HETATM    3  C   UNL     1      -9.966  17.512  68.293  1.00  0.00    -0.330 C  
HETATM    4  C   UNL     1     -10.505  17.212  66.878  1.00  0.00    -0.274 C  
HETATM    5  C   UNL     1     -10.482  18.437  65.971  1.00  0.00    -0.400 C  
HETATM    6  C   UNL     1      -9.778  15.976  66.278  1.00  0.00    -0.332 C  
HETATM    7  C   UNL     1     -10.196  15.645  64.854  1.00  0.00    -0.046 C  
HETATM    8  C   UNL     1     -11.594  15.076  64.813  1.00  0.00    -0.395 C  
HETATM    9  C   UNL     1     -11.725  13.747  65.599  1.00  0.00    -0.347 C  
HETATM   10  C   UNL     1     -12.809  12.942  64.860  1.00  0.00    -0.370 C  
HETATM   11  O   UNL     1     -12.212  13.931  66.927  1.00  0.00    -0.424 OA 
HETATM   12  O   UNL     1     -11.329  14.781  67.730  1.00  0.00    -0.303 OA 
HETATM   13  C   UNL     1      -9.956  14.781  67.264  1.00  0.00    -0.231 C  
HETATM   14  C   UNL     1      -9.574  13.420  66.620  1.00  0.00    -0.270 C  
HETATM   15  O   UNL     1      -9.320  12.401  67.601  1.00  0.00    -0.177 OA 
HETATM   16  O   UNL     1     -10.527  12.967  65.635  1.00  0.00    -0.271 OA 
HETATM   17  C   UNL     1      -8.293  12.730  68.552  1.00  0.00    -0.054 C  
HETATM   18  C   UNL     1      -7.848  14.219  68.579  1.00  0.00    -0.143 C  
HETATM   19  C   UNL     1      -6.950  14.536  69.782  1.00  0.00    -0.095 C  
ENDROOT
BRANCH  17  20
HETATM   20  O   UNL     1      -7.176  11.805  68.540  1.00  0.00    -0.082 OA 
BRANCH  20  21
HETATM   21  C   UNL     1      -7.229  10.711  69.336  1.00  0.00    -0.126 C  
HETATM   22  O   UNL     1      -7.012  10.703  70.541  1.00  0.00    -0.280 OA 
BRANCH  21  23
HETATM   23  C   UNL     1      -7.634   9.482  68.560  1.00  0.00    -0.081 C  
BRANCH  23  24
HETATM   24  C   UNL     1      -8.798   8.741  69.183  1.00  0.00    -0.137 C  
HETATM   25  C   UNL     1     -10.107   9.137  68.543  1.00  0.00    -0.191 C  
HETATM   26  O   UNL     1     -10.504   8.680  67.484  1.00  0.00    -0.255 OA 
HETATM   27  O   UNL     1     -10.797  10.058  69.244  1.00  0.00    -0.213 OA 
ENDBRANCH  23  24
ENDBRANCH  21  23
ENDBRANCH  20  21
ENDBRANCH  17  20
TORSDOF 4
ENDMDL
MODEL       81
REMARK 921   NORMALIZED FREE ENERGY PREDICTED BY IDOCK:   -5.09 KCAL/MOL
REMARK 922        TOTAL FREE ENERGY PREDICTED BY IDOCK:   -7.00 KCAL/MOL
REMARK 923 INTER-LIGAND FREE ENERGY PREDICTED BY IDOCK:   -6.36 KCAL/MOL
REMARK 924 INTRA-LIGAND FREE ENERGY PREDICTED BY IDOCK:   -0.64 KCAL/MOL
REMARK 927      BINDING AFFINITY PREDICTED BY RF-SCORE:    0.00 PKD
ROOT
HETATM    1  C   UNL     1     -10.616   9.693  69.728  1.00  0.00    -0.267 C  
HETATM    2  C   UNL     1     -11.980  10.434  69.722  1.00  0.00    -0.242 C  
HETATM    3  C   UNL     1     -12.564  10.634  71.122  1.00  0.00    -0.526 C  
HETATM    4  C   UNL     1     -12.657   9.328  71.937  1.00  0.00    -0.468 C  
HETATM    5  C   UNL     1     -14.074   9.042  72.425  1.00  0.00    -0.478 C  
HETATM    6  C   UNL     1     -12.021   8.153  71.143  1.00  0.00    -0.296 C  
HETATM    7  C   UNL     1     -12.128   6.806  71.841  1.00  0.00    -0.375 C  
HETATM    8  C   UNL     1     -11.213   6.737  73.040  1.00  0.00    -0.193 C  
HETATM    9  C   UNL     1      -9.718   6.886  72.663  1.00  0.00    -0.149 C  
HETATM   10  C   UNL     1      -8.950   6.047  73.701  1.00  0.00    -0.127 C  
HETATM   11  O   UNL     1      -9.237   8.222  72.808  1.00  0.00    -0.240 OA 
HETATM   12  O   UNL     1      -9.958   9.167  71.952  1.00  0.00    -0.308 OA 
HETATM   13  C   UNL     1     -10.554   8.544  70.787  1.00  0.00    -0.206 C  
HETATM   14  C   UNL     1      -9.718   7.329  70.301  1.00  0.00    -0.175 C  
HETATM   15  O   UNL     1      -8.542   7.726  69.578  1.00  0.00    -0.133 OA 
HETATM   16  O   UNL     1      -9.391   6.402  71.358  1.00  0.00    -0.153 OA 
HETATM   17  C   UNL     1      -8.796   8.559  68.434  1.00  0.00    -0.139 C  
HETATM   18  C   UNL     1     -10.228   9.154  68.335  1.00  0.00    -0.230 C  
HETATM   19  C   UNL     1     -10.338  10.225  67.242  1.00  0.00    -0.284 C  
ENDROOT
BRANCH  17  20
HETATM   20  O   UNL     1      -8.335   7.981  67.185  1.00  0.00    -0.118 OA 
BRANCH  20  21
HETATM   21  C   UNL     1      -8.506   6.654  66.980  1.00  0.00    -0.113 C  
HETATM   22  O   UNL     1      -7.694   5.784  67.270  1.00  0.00    -0.098 OA 
BRANCH  21  23
HETATM   23  C   UNL     1      -9.856   6.358  66.376  1.00  0.00    -0.120 C  
BRANCH  23  24
HETATM   24  C   UNL     1     -10.230   4.892  66.442  1.00  0.00    -0.313 C  
HETATM   25  C   UNL     1     -10.139   4.239  65.085  1.00  0.00    -0.207 C  
HETATM   26  O   UNL     1      -9.092   3.854  64.591  1.00  0.00    -0.124 OA 
HETATM   27  O   UNL     1     -11.325   4.132  64.455  1.00  0.00    -0.279 OA 
ENDBRANCH  23  24
ENDBRANCH  21  23
ENDBRANCH  20  21
ENDBRANCH  17  20
TORSDOF 4
ENDMDL
MODEL       82
REMARK 921   NORMALIZED FREE ENERGY PREDICTED BY IDOCK:   -5.07 KCAL/MOL
REMARK 922        TOTAL FREE ENERGY PREDICTED BY IDOCK:   -6.98 KCAL/MOL
REMARK 923 INTER-LIGAND FREE ENERGY PREDICTED BY IDOCK:   -6.22 KCAL/MOL
REMARK 924 INTRA-LIGAND FREE ENERGY PREDICTED BY IDOCK:   -0.76 KCAL/MOL
REMARK 927      BINDING AFFINITY PREDICTED BY RF-SCORE:    0.00 PKD
ROOT
HETATM    1  C   UNL     1      -9.382  12.841  67.926  1.00  0.00    -0.208 C  
HETATM    2  C   UNL     1      -9.029  14.220  68.544  1.00  0.00    -0.185 C  
HETATM    3  C   UNL     1     -10.166  15.237  68.439  1.00  0.00    -0.223 C  
HETATM    4  C   UNL     1     -10.704  15.406  67.003  1.00  0.00    -0.321 C  
HETATM    5  C   UNL     1     -10.644  16.852  66.521  1.00  0.00    -0.185 C  
HETATM    6  C   UNL     1     -10.006  14.400  66.047  1.00  0.00    -0.337 C  
HETATM    7  C   UNL     1     -10.424  14.539  64.591  1.00  0.00    -0.240 C  
HETATM    8  C   UNL     1     -11.836  14.049  64.379  1.00  0.00    -0.453 C  
HETATM    9  C   UNL     1     -12.006  12.545  64.712  1.00  0.00    -0.409 C  
HETATM   10  C   UNL     1     -13.106  12.039  63.762  1.00  0.00    -0.190 C  
HETATM   11  O   UNL     1     -12.496  12.320  66.033  1.00  0.00    -0.503 OA 
HETATM   12  O   UNL     1     -11.596  12.854  67.058  1.00  0.00    -0.322 OA 
HETATM   13  C   UNL     1     -10.221  12.962  66.612  1.00  0.00    -0.247 C  
HETATM   14  C   UNL     1      -9.870  11.860  65.576  1.00  0.00    -0.232 C  
HETATM   15  O   UNL     1      -9.648  10.580  66.191  1.00  0.00    -0.176 OA 
HETATM   16  O   UNL     1     -10.829  11.761  64.501  1.00  0.00    -0.292 OA 
HETATM   17  C   UNL     1      -8.619  10.570  67.195  1.00  0.00    -0.127 C  
HETATM   18  C   UNL     1      -8.136  11.964  67.682  1.00  0.00    -0.148 C  
HETATM   19  C   UNL     1      -7.237  11.867  68.922  1.00  0.00    -0.098 C  
ENDROOT
BRANCH  17  20
HETATM   20  O   UNL     1      -7.526   9.665  66.893  1.00  0.00    -0.091 OA 
BRANCH  20  21
HETATM   21  C   UNL     1      -7.560   8.412  67.404  1.00  0.00    -0.098 C  
HETATM   22  O   UNL     1      -7.785   7.393  66.763  1.00  0.00    -0.104 OA 
BRANCH  21  23
HETATM   23  C   UNL     1      -7.244   8.407  68.880  1.00  0.00    -0.078 C  
BRANCH  23  24
HETATM   24  C   UNL     1      -8.394   7.917  69.733  1.00  0.00    -0.127 C  
HETATM   25  C   UNL     1      -8.957   9.026  70.587  1.00  0.00    -0.220 C  
HETATM   26  O   UNL     1      -9.744   9.862  70.173  1.00  0.00    -0.247 OA 
HETATM   27  O   UNL     1      -8.499   9.021  71.854  1.00  0.00    -0.363 OA 
ENDBRANCH  23  24
ENDBRANCH  21  23
ENDBRANCH  20  21
ENDBRANCH  17  20
TORSDOF 4
ENDMDL
MODEL       83
REMARK 921   NORMALIZED FREE ENERGY PREDICTED BY IDOCK:   -5.06 KCAL/MOL
REMARK 922        TOTAL FREE ENERGY PREDICTED BY IDOCK:   -6.97 KCAL/MOL
REMARK 923 INTER-LIGAND FREE ENERGY PREDICTED BY IDOCK:   -6.36 KCAL/MOL
REMARK 924 INTRA-LIGAND FREE ENERGY PREDICTED BY IDOCK:   -0.61 KCAL/MOL
REMARK 927      BINDING AFFINITY PREDICTED BY RF-SCORE:    0.00 PKD
ROOT
HETATM    1  C   UNL     1     -11.514  10.399  70.460  1.00  0.00    -0.431 C  
HETATM    2  C   UNL     1     -13.021  10.528  70.806  1.00  0.00    -0.413 C  
HETATM    3  C   UNL     1     -13.439   9.676  72.007  1.00  0.00    -0.514 C  
HETATM    4  C   UNL     1     -13.035   8.194  71.874  1.00  0.00    -0.356 C  
HETATM    5  C   UNL     1     -14.226   7.249  72.001  1.00  0.00    -0.370 C  
HETATM    6  C   UNL     1     -12.201   7.978  70.581  1.00  0.00     0.080 C  
HETATM    7  C   UNL     1     -11.814   6.528  70.330  1.00  0.00    -0.361 C  
HETATM    8  C   UNL     1     -10.763   6.065  71.309  1.00  0.00    -0.320 C  
HETATM    9  C   UNL     1      -9.442   6.867  71.195  1.00  0.00    -0.166 C  
HETATM   10  C   UNL     1      -8.329   5.875  71.577  1.00  0.00    -0.127 C  
HETATM   11  O   UNL     1      -9.355   7.934  72.139  1.00  0.00    -0.145 OA 
HETATM   12  O   UNL     1     -10.431   8.915  71.970  1.00  0.00    -0.338 OA 
HETATM   13  C   UNL     1     -10.975   8.940  70.627  1.00  0.00    -0.241 C  
HETATM   14  C   UNL     1      -9.897   8.578  69.569  1.00  0.00    -0.187 C  
HETATM   15  O   UNL     1      -8.998   9.667  69.306  1.00  0.00    -0.151 OA 
HETATM   16  O   UNL     1      -9.172   7.369  69.884  1.00  0.00    -0.145 OA 
HETATM   17  C   UNL     1      -9.639  10.878  68.869  1.00  0.00    -0.181 C  
HETATM   18  C   UNL     1     -11.182  10.930  69.050  1.00  0.00    -0.327 C  
HETATM   19  C   UNL     1     -11.748  12.335  68.806  1.00  0.00    -0.390 C  
ENDROOT
BRANCH  17  20
HETATM   20  O   UNL     1      -9.207  11.320  67.557  1.00  0.00    -0.156 OA 
BRANCH  20  21
HETATM   21  C   UNL     1      -9.684  10.677  66.465  1.00  0.00    -0.194 C  
HETATM   22  O   UNL     1     -10.746  10.923  65.907  1.00  0.00    -0.215 OA 
BRANCH  21  23
HETATM   23  C   UNL     1      -8.718   9.624  65.977  1.00  0.00    -0.155 C  
BRANCH  23  24
HETATM   24  C   UNL     1      -9.287   8.222  66.037  1.00  0.00    -0.217 C  
HETATM   25  C   UNL     1      -8.201   7.183  65.903  1.00  0.00    -0.132 C  
HETATM   26  O   UNL     1      -7.486   6.831  66.828  1.00  0.00    -0.079 OA 
HETATM   27  O   UNL     1      -8.080   6.683  64.658  1.00  0.00    -0.124 OA 
ENDBRANCH  23  24
ENDBRANCH  21  23
ENDBRANCH  20  21
ENDBRANCH  17  20
TORSDOF 4
ENDMDL
MODEL       84
REMARK 921   NORMALIZED FREE ENERGY PREDICTED BY IDOCK:   -5.06 KCAL/MOL
REMARK 922        TOTAL FREE ENERGY PREDICTED BY IDOCK:   -6.97 KCAL/MOL
REMARK 923 INTER-LIGAND FREE ENERGY PREDICTED BY IDOCK:   -6.25 KCAL/MOL
REMARK 924 INTRA-LIGAND FREE ENERGY PREDICTED BY IDOCK:   -0.72 KCAL/MOL
REMARK 927      BINDING AFFINITY PREDICTED BY RF-SCORE:    0.00 PKD
ROOT
HETATM    1  C   UNL     1      -8.594  12.766  68.232  1.00  0.00    -0.166 C  
HETATM    2  C   UNL     1      -7.563  13.326  67.217  1.00  0.00    -0.079 C  
HETATM    3  C   UNL     1      -7.366  14.839  67.330  1.00  0.00    -0.147 C  
HETATM    4  C   UNL     1      -8.686  15.634  67.260  1.00  0.00    -0.213 C  
HETATM    5  C   UNL     1      -8.683  16.678  66.147  1.00  0.00    -0.322 C  
HETATM    6  C   UNL     1      -9.896  14.661  67.200  1.00  0.00    -0.237 C  
HETATM    7  C   UNL     1     -11.242  15.356  67.060  1.00  0.00    -0.229 C  
HETATM    8  C   UNL     1     -11.630  16.059  68.339  1.00  0.00    -0.279 C  
HETATM    9  C   UNL     1     -11.794  15.084  69.532  1.00  0.00    -0.330 C  
HETATM   10  C   UNL     1     -12.880  15.712  70.424  1.00  0.00    -0.252 C  
HETATM   11  O   UNL     1     -10.624  14.996  70.344  1.00  0.00    -0.172 OA 
HETATM   12  O   UNL     1      -9.463  14.512  69.594  1.00  0.00     0.177 OA 
HETATM   13  C   UNL     1      -9.820  13.715  68.437  1.00  0.00    -0.223 C  
HETATM   14  C   UNL     1     -11.144  12.937  68.669  1.00  0.00    -0.269 C  
HETATM   15  O   UNL     1     -10.962  11.781  69.503  1.00  0.00    -0.181 OA 
HETATM   16  O   UNL     1     -12.217  13.769  69.162  1.00  0.00    -0.344 OA 
HETATM   17  C   UNL     1      -9.991  10.840  69.015  1.00  0.00    -0.199 C  
HETATM   18  C   UNL     1      -9.076  11.347  67.866  1.00  0.00    -0.164 C  
HETATM   19  C   UNL     1      -7.911  10.388  67.585  1.00  0.00    -0.105 C  
ENDROOT
BRANCH  17  20
HETATM   20  O   UNL     1     -10.539   9.521  68.763  1.00  0.00    -0.215 OA 
BRANCH  20  21
HETATM   21  C   UNL     1     -10.335   8.546  69.680  1.00  0.00    -0.218 C  
HETATM   22  O   UNL     1      -9.269   7.977  69.881  1.00  0.00    -0.151 OA 
BRANCH  21  23
HETATM   23  C   UNL     1     -11.588   8.259  70.471  1.00  0.00    -0.133 C  
BRANCH  23  24
HETATM   24  C   UNL     1     -11.628   8.979  71.802  1.00  0.00    -0.444 C  
HETATM   25  C   UNL     1     -12.998   9.550  72.076  1.00  0.00    -0.426 C  
HETATM   26  O   UNL     1     -13.928   8.890  72.511  1.00  0.00    -0.462 OA 
HETATM   27  O   UNL     1     -13.109  10.860  71.783  1.00  0.00    -0.464 OA 
ENDBRANCH  23  24
ENDBRANCH  21  23
ENDBRANCH  20  21
ENDBRANCH  17  20
TORSDOF 4
ENDMDL
MODEL       85
REMARK 921   NORMALIZED FREE ENERGY PREDICTED BY IDOCK:   -5.03 KCAL/MOL
REMARK 922        TOTAL FREE ENERGY PREDICTED BY IDOCK:   -6.93 KCAL/MOL
REMARK 923 INTER-LIGAND FREE ENERGY PREDICTED BY IDOCK:   -6.81 KCAL/MOL
REMARK 924 INTRA-LIGAND FREE ENERGY PREDICTED BY IDOCK:   -0.12 KCAL/MOL
REMARK 927      BINDING AFFINITY PREDICTED BY RF-SCORE:    0.00 PKD
ROOT
HETATM    1  C   UNL     1     -10.784  13.414  68.348  1.00  0.00    -0.271 C  
HETATM    2  C   UNL     1     -10.025  14.677  68.833  1.00  0.00    -0.228 C  
HETATM    3  C   UNL     1      -8.939  15.139  67.860  1.00  0.00    -0.174 C  
HETATM    4  C   UNL     1      -7.947  14.022  67.477  1.00  0.00    -0.199 C  
HETATM    5  C   UNL     1      -6.499  14.396  67.778  1.00  0.00    -0.181 C  
HETATM    6  C   UNL     1      -8.387  12.673  68.110  1.00  0.00    -0.175 C  
HETATM    7  C   UNL     1      -7.429  11.522  67.842  1.00  0.00    -0.103 C  
HETATM    8  C   UNL     1      -7.493  11.081  66.400  1.00  0.00    -0.131 C  
HETATM    9  C   UNL     1      -8.892  10.552  65.996  1.00  0.00    -0.165 C  
HETATM   10  C   UNL     1      -8.628   9.480  64.923  1.00  0.00    -0.191 C  
HETATM   11  O   UNL     1      -9.703  11.543  65.367  1.00  0.00    -0.224 OA 
HETATM   12  O   UNL     1      -9.951  12.693  66.241  1.00  0.00    -0.248 OA 
HETATM   13  C   UNL     1      -9.847  12.374  67.651  1.00  0.00    -0.198 C  
HETATM   14  C   UNL     1     -10.269  10.906  67.934  1.00  0.00    -0.179 C  
HETATM   15  O   UNL     1     -11.695  10.733  67.923  1.00  0.00    -0.543 OA 
HETATM   16  O   UNL     1      -9.623   9.949  67.067  1.00  0.00    -0.164 OA 
HETATM   17  C   UNL     1     -12.406  11.571  68.850  1.00  0.00     0.134 C  
HETATM   18  C   UNL     1     -11.585  12.733  69.478  1.00  0.00    -0.342 C  
HETATM   19  C   UNL     1     -12.472  13.723  70.244  1.00  0.00    -0.357 C  
ENDROOT
BRANCH  17  20
HETATM   20  O   UNL     1     -13.175  10.827  69.830  1.00  0.00    -0.017 OA 
BRANCH  20  21
HETATM   21  C   UNL     1     -12.649  10.641  71.064  1.00  0.00    -0.416 C  
HETATM   22  O   UNL     1     -13.063  11.159  72.094  1.00  0.00    -0.463 OA 
BRANCH  21  23
HETATM   23  C   UNL     1     -11.493   9.671  71.032  1.00  0.00    -0.444 C  
BRANCH  23  24
HETATM   24  C   UNL     1     -11.703   8.466  71.924  1.00  0.00    -0.398 C  
HETATM   25  C   UNL     1     -12.341   7.327  71.168  1.00  0.00    -0.345 C  
HETATM   26  O   UNL     1     -11.720   6.566  70.444  1.00  0.00    -0.393 OA 
HETATM   27  O   UNL     1     -13.673   7.233  71.353  1.00  0.00    -0.389 OA 
ENDBRANCH  23  24
ENDBRANCH  21  23
ENDBRANCH  20  21
ENDBRANCH  17  20
TORSDOF 4
ENDMDL
MODEL       86
REMARK 921   NORMALIZED FREE ENERGY PREDICTED BY IDOCK:   -5.00 KCAL/MOL
REMARK 922        TOTAL FREE ENERGY PREDICTED BY IDOCK:   -6.89 KCAL/MOL
REMARK 923 INTER-LIGAND FREE ENERGY PREDICTED BY IDOCK:   -6.23 KCAL/MOL
REMARK 924 INTRA-LIGAND FREE ENERGY PREDICTED BY IDOCK:   -0.65 KCAL/MOL
REMARK 927      BINDING AFFINITY PREDICTED BY RF-SCORE:    0.00 PKD
ROOT
HETATM    1  C   UNL     1     -10.238  16.556  66.748  1.00  0.00    -0.295 C  
HETATM    2  C   UNL     1     -10.431  15.869  65.370  1.00  0.00    -0.429 C  
HETATM    3  C   UNL     1     -11.695  15.010  65.297  1.00  0.00    -0.200 C  
HETATM    4  C   UNL     1     -11.800  13.979  66.439  1.00  0.00    -0.437 C  
HETATM    5  C   UNL     1     -11.950  12.550  65.927  1.00  0.00    -0.472 C  
HETATM    6  C   UNL     1     -10.626  14.164  67.439  1.00  0.00    -0.279 C  
HETATM    7  C   UNL     1     -10.608  13.144  68.567  1.00  0.00    -0.274 C  
HETATM    8  C   UNL     1     -11.728  13.393  69.548  1.00  0.00    -0.385 C  
HETATM    9  C   UNL     1     -11.622  14.774  70.243  1.00  0.00    -0.282 C  
HETATM   10  C   UNL     1     -12.229  14.574  71.643  1.00  0.00    -0.403 C  
HETATM   11  O   UNL     1     -12.417  15.778  69.612  1.00  0.00    -0.233 OA 
HETATM   12  O   UNL     1     -12.023  16.003  68.218  1.00  0.00    -0.163 OA 
HETATM   13  C   UNL     1     -10.647  15.639  67.947  1.00  0.00    -0.278 C  
HETATM   14  C   UNL     1      -9.745  15.849  69.193  1.00  0.00    -0.249 C  
HETATM   15  O   UNL     1      -9.416  17.232  69.405  1.00  0.00    -0.017 OA 
HETATM   16  O   UNL     1     -10.283  15.253  70.394  1.00  0.00    -0.192 OA 
HETATM   17  C   UNL     1      -8.765  17.868  68.293  1.00  0.00    -0.275 C  
HETATM   18  C   UNL     1      -8.803  17.086  66.950  1.00  0.00    -0.251 C  
HETATM   19  C   UNL     1      -8.323  17.939  65.767  1.00  0.00     0.242 C  
ENDROOT
BRANCH  17  20
HETATM   20  O   UNL     1      -7.448  18.384  68.611  1.00  0.00    -0.283 OA 
BRANCH  20  21
HETATM   21  C   UNL     1      -6.494  17.519  69.030  1.00  0.00    -0.227 C  
HETATM   22  O   UNL     1      -6.238  17.262  70.200  1.00  0.00    -0.143 OA 
BRANCH  21  23
HETATM   23  C   UNL     1      -5.793  16.863  67.867  1.00  0.00    -0.135 C  
BRANCH  23  24
HETATM   24  C   UNL     1      -5.272  15.478  68.190  1.00  0.00    -0.122 C  
HETATM   25  C   UNL     1      -6.393  14.471  68.256  1.00  0.00    -0.121 C  
HETATM   26  O   UNL     1      -6.891  13.951  67.270  1.00  0.00    -0.205 OA 
HETATM   27  O   UNL     1      -6.810  14.204  69.509  1.00  0.00    -0.125 OA 
ENDBRANCH  23  24
ENDBRANCH  21  23
ENDBRANCH  20  21
ENDBRANCH  17  20
TORSDOF 4
ENDMDL
MODEL       87
REMARK 921   NORMALIZED FREE ENERGY PREDICTED BY IDOCK:   -4.96 KCAL/MOL
REMARK 922        TOTAL FREE ENERGY PREDICTED BY IDOCK:   -6.84 KCAL/MOL
REMARK 923 INTER-LIGAND FREE ENERGY PREDICTED BY IDOCK:   -6.13 KCAL/MOL
REMARK 924 INTRA-LIGAND FREE ENERGY PREDICTED BY IDOCK:   -0.71 KCAL/MOL
REMARK 927      BINDING AFFINITY PREDICTED BY RF-SCORE:    0.00 PKD
ROOT
HETATM    1  C   UNL     1     -10.768   9.700  67.731  1.00  0.00    -0.316 C  
HETATM    2  C   UNL     1     -10.513  10.879  66.756  1.00  0.00    -0.302 C  
HETATM    3  C   UNL     1     -10.234  10.426  65.321  1.00  0.00    -0.332 C  
HETATM    4  C   UNL     1      -9.104   9.381  65.220  1.00  0.00    -0.287 C  
HETATM    5  C   UNL     1      -7.981   9.821  64.285  1.00  0.00    -0.143 C  
HETATM    6  C   UNL     1      -8.614   8.980  66.639  1.00  0.00    -0.134 C  
HETATM    7  C   UNL     1      -7.450   8.001  66.637  1.00  0.00    -0.089 C  
HETATM    8  C   UNL     1      -7.893   6.626  66.198  1.00  0.00    -0.102 C  
HETATM    9  C   UNL     1      -8.950   6.004  67.145  1.00  0.00    -0.114 C  
HETATM   10  C   UNL     1      -8.705   4.486  67.089  1.00  0.00    -0.104 C  
HETATM   11  O   UNL     1     -10.288   6.201  66.691  1.00  0.00    -0.201 OA 
HETATM   12  O   UNL     1     -10.636   7.620  66.585  1.00  0.00    -0.274 OA 
HETATM   13  C   UNL     1      -9.844   8.470  67.452  1.00  0.00    -0.187 C  
HETATM   14  C   UNL     1      -9.428   7.728  68.751  1.00  0.00    -0.149 C  
HETATM   15  O   UNL     1     -10.504   7.638  69.699  1.00  0.00    -0.225 OA 
HETATM   16  O   UNL     1      -8.842   6.431  68.505  1.00  0.00    -0.120 OA 
HETATM   17  C   UNL     1     -11.065   8.903  70.088  1.00  0.00    -0.201 C  
HETATM   18  C   UNL     1     -10.659  10.121  69.212  1.00  0.00    -0.254 C  
HETATM   19  C   UNL     1     -11.494  11.369  69.528  1.00  0.00    -0.381 C  
ENDROOT
BRANCH  17  20
HETATM   20  O   UNL     1     -10.963   9.168  71.510  1.00  0.00    -0.314 OA 
BRANCH  20  21
HETATM   21  C   UNL     1     -11.791   8.510  72.355  1.00  0.00    -0.367 C  
HETATM   22  O   UNL     1     -12.988   8.732  72.487  1.00  0.00    -0.397 OA 
BRANCH  21  23
HETATM   23  C   UNL     1     -11.063   7.422  73.106  1.00  0.00    -0.357 C  
BRANCH  23  24
HETATM   24  C   UNL     1     -11.472   6.028  72.679  1.00  0.00    -0.297 C  
HETATM   25  C   UNL     1     -10.290   5.090  72.660  1.00  0.00    -0.199 C  
HETATM   26  O   UNL     1      -9.842   4.551  73.659  1.00  0.00    -0.129 OA 
HETATM   27  O   UNL     1      -9.760   4.911  71.435  1.00  0.00    -0.158 OA 
ENDBRANCH  23  24
ENDBRANCH  21  23
ENDBRANCH  20  21
ENDBRANCH  17  20
TORSDOF 4
ENDMDL
MODEL       88
REMARK 921   NORMALIZED FREE ENERGY PREDICTED BY IDOCK:   -4.96 KCAL/MOL
REMARK 922        TOTAL FREE ENERGY PREDICTED BY IDOCK:   -6.84 KCAL/MOL
REMARK 923 INTER-LIGAND FREE ENERGY PREDICTED BY IDOCK:   -6.75 KCAL/MOL
REMARK 924 INTRA-LIGAND FREE ENERGY PREDICTED BY IDOCK:   -0.08 KCAL/MOL
REMARK 927      BINDING AFFINITY PREDICTED BY RF-SCORE:    0.00 PKD
ROOT
HETATM    1  C   UNL     1      -8.873   8.030  66.392  1.00  0.00    -0.183 C  
HETATM    2  C   UNL     1      -7.756   6.960  66.259  1.00  0.00    -0.094 C  
HETATM    3  C   UNL     1      -7.770   5.930  67.390  1.00  0.00    -0.097 C  
HETATM    4  C   UNL     1      -7.750   6.566  68.795  1.00  0.00    -0.109 C  
HETATM    5  C   UNL     1      -6.583   6.073  69.645  1.00  0.00    -0.044 C  
HETATM    6  C   UNL     1      -7.833   8.114  68.686  1.00  0.00    -0.114 C  
HETATM    7  C   UNL     1      -7.751   8.834  70.023  1.00  0.00    -0.082 C  
HETATM    8  C   UNL     1      -9.013   8.636  70.828  1.00  0.00    -0.209 C  
HETATM    9  C   UNL     1     -10.268   9.215  70.127  1.00  0.00    -0.205 C  
HETATM   10  C   UNL     1     -11.199   9.666  71.267  1.00  0.00    -0.446 C  
HETATM   11  O   UNL     1     -10.997   8.233  69.392  1.00  0.00    -0.144 OA 
HETATM   12  O   UNL     1     -10.194   7.626  68.328  1.00  0.00    -0.184 OA 
HETATM   13  C   UNL     1      -9.112   8.476  67.871  1.00  0.00    -0.140 C  
HETATM   14  C   UNL     1      -9.483   9.980  67.989  1.00  0.00    -0.137 C  
HETATM   15  O   UNL     1     -10.364  10.411  66.939  1.00  0.00    -0.221 OA 
HETATM   16  O   UNL     1     -10.003  10.340  69.286  1.00  0.00    -0.205 OA 
HETATM   17  C   UNL     1      -9.862  10.194  65.610  1.00  0.00    -0.280 C  
HETATM   18  C   UNL     1      -8.623   9.263  65.499  1.00  0.00    -0.172 C  
HETATM   19  C   UNL     1      -8.313   8.879  64.046  1.00  0.00    -0.168 C  
ENDROOT
BRANCH  17  20
HETATM   20  O   UNL     1      -9.724  11.415  64.838  1.00  0.00    -0.240 OA 
BRANCH  20  21
HETATM   21  C   UNL     1     -10.251  11.458  63.591  1.00  0.00    -0.397 C  
HETATM   22  O   UNL     1      -9.658  11.158  62.562  1.00  0.00    -0.268 OA 
BRANCH  21  23
HETATM   23  C   UNL     1     -11.697  11.891  63.616  1.00  0.00    -0.572 C  
BRANCH  23  24
HETATM   24  C   UNL     1     -12.021  12.817  64.769  1.00  0.00    -0.455 C  
HETATM   25  C   UNL     1     -11.868  14.265  64.371  1.00  0.00    -0.426 C  
HETATM   26  O   UNL     1     -12.718  14.887  63.755  1.00  0.00    -0.754 OA 
HETATM   27  O   UNL     1     -10.694  14.810  64.746  1.00  0.00    -0.407 OA 
ENDBRANCH  23  24
ENDBRANCH  21  23
ENDBRANCH  20  21
ENDBRANCH  17  20
TORSDOF 4
ENDMDL
MODEL       89
REMARK 921   NORMALIZED FREE ENERGY PREDICTED BY IDOCK:   -4.89 KCAL/MOL
REMARK 922        TOTAL FREE ENERGY PREDICTED BY IDOCK:   -6.75 KCAL/MOL
REMARK 923 INTER-LIGAND FREE ENERGY PREDICTED BY IDOCK:   -6.22 KCAL/MOL
REMARK 924 INTRA-LIGAND FREE ENERGY PREDICTED BY IDOCK:   -0.53 KCAL/MOL
REMARK 927      BINDING AFFINITY PREDICTED BY RF-SCORE:    0.00 PKD
ROOT
HETATM    1  C   UNL     1      -9.278  12.796  67.954  1.00  0.00    -0.205 C  
HETATM    2  C   UNL     1      -8.933  14.147  68.637  1.00  0.00    -0.132 C  
HETATM    3  C   UNL     1     -10.083  15.156  68.591  1.00  0.00    -0.222 C  
HETATM    4  C   UNL     1     -10.634  15.389  67.169  1.00  0.00    -0.305 C  
HETATM    5  C   UNL     1     -10.593  16.858  66.759  1.00  0.00    -0.201 C  
HETATM    6  C   UNL     1      -9.934  14.438  66.159  1.00  0.00    -0.328 C  
HETATM    7  C   UNL     1     -10.366  14.644  64.715  1.00  0.00    -0.286 C  
HETATM    8  C   UNL     1     -11.775  14.150  64.490  1.00  0.00    -0.426 C  
HETATM    9  C   UNL     1     -11.927  12.630  64.751  1.00  0.00    -0.402 C  
HETATM   10  C   UNL     1     -13.030  12.159  63.787  1.00  0.00    -0.343 C  
HETATM   11  O   UNL     1     -12.403  12.335  66.063  1.00  0.00    -0.609 OA 
HETATM   12  O   UNL     1     -11.499  12.828  67.106  1.00  0.00    -0.299 OA 
HETATM   13  C   UNL     1     -10.129  12.973  66.655  1.00  0.00    -0.251 C  
HETATM   14  C   UNL     1      -9.777  11.926  65.563  1.00  0.00    -0.215 C  
HETATM   15  O   UNL     1      -9.536  10.620  66.112  1.00  0.00    -0.176 OA 
HETATM   16  O   UNL     1     -10.744  11.870  64.492  1.00  0.00    -0.280 OA 
HETATM   17  C   UNL     1      -8.498  10.572  67.106  1.00  0.00    -0.127 C  
HETATM   18  C   UNL     1      -8.025  11.946  67.657  1.00  0.00    -0.146 C  
HETATM   19  C   UNL     1      -7.114  11.798  68.883  1.00  0.00    -0.114 C  
ENDROOT
BRANCH  17  20
HETATM   20  O   UNL     1      -7.399   9.695  66.751  1.00  0.00    -0.090 OA 
BRANCH  20  21
HETATM   21  C   UNL     1      -7.241   8.539  67.438  1.00  0.00    -0.084 C  
HETATM   22  O   UNL     1      -6.449   8.365  68.356  1.00  0.00    -0.056 OA 
BRANCH  21  23
HETATM   23  C   UNL     1      -8.201   7.477  66.962  1.00  0.00    -0.124 C  
BRANCH  23  24
HETATM   24  C   UNL     1      -9.275   7.146  67.977  1.00  0.00    -0.130 C  
HETATM   25  C   UNL     1     -10.188   6.055  67.474  1.00  0.00    -0.184 C  
HETATM   26  O   UNL     1      -9.910   4.868  67.522  1.00  0.00    -0.158 OA 
HETATM   27  O   UNL     1     -11.343   6.513  66.951  1.00  0.00    -0.330 OA 
ENDBRANCH  23  24
ENDBRANCH  21  23
ENDBRANCH  20  21
ENDBRANCH  17  20
TORSDOF 4
ENDMDL
MODEL       90
REMARK 921   NORMALIZED FREE ENERGY PREDICTED BY IDOCK:   -4.87 KCAL/MOL
REMARK 922        TOTAL FREE ENERGY PREDICTED BY IDOCK:   -6.73 KCAL/MOL
REMARK 923 INTER-LIGAND FREE ENERGY PREDICTED BY IDOCK:   -5.96 KCAL/MOL
REMARK 924 INTRA-LIGAND FREE ENERGY PREDICTED BY IDOCK:   -0.77 KCAL/MOL
REMARK 927      BINDING AFFINITY PREDICTED BY RF-SCORE:    0.00 PKD
ROOT
HETATM    1  C   UNL     1      -9.409  10.443  67.031  1.00  0.00    -0.176 C  
HETATM    2  C   UNL     1      -9.804  11.852  66.512  1.00  0.00    -0.225 C  
HETATM    3  C   UNL     1      -9.897  12.900  67.623  1.00  0.00    -0.211 C  
HETATM    4  C   UNL     1     -10.812  12.473  68.790  1.00  0.00    -0.276 C  
HETATM    5  C   UNL     1     -11.927  13.478  69.057  1.00  0.00    -0.376 C  
HETATM    6  C   UNL     1     -11.318  11.021  68.571  1.00  0.00    -0.355 C  
HETATM    7  C   UNL     1     -12.285  10.536  69.641  1.00  0.00    -0.208 C  
HETATM    8  C   UNL     1     -11.574  10.290  70.950  1.00  0.00    -0.454 C  
HETATM    9  C   UNL     1     -10.491   9.187  70.846  1.00  0.00    -0.278 C  
HETATM   10  C   UNL     1     -10.456   8.519  72.232  1.00  0.00    -0.402 C  
HETATM   11  O   UNL     1      -9.181   9.711  70.632  1.00  0.00    -0.229 OA 
HETATM   12  O   UNL     1      -9.087  10.478  69.386  1.00  0.00    -0.181 OA 
HETATM   13  C   UNL     1     -10.077  10.092  68.401  1.00  0.00    -0.164 C  
HETATM   14  C   UNL     1     -10.441   8.588  68.519  1.00  0.00    -0.167 C  
HETATM   15  O   UNL     1      -9.435   7.733  67.951  1.00  0.00    -0.142 OA 
HETATM   16  O   UNL     1     -10.768   8.183  69.866  1.00  0.00    -0.244 OA 
HETATM   17  C   UNL     1      -9.138   7.996  66.570  1.00  0.00    -0.173 C  
HETATM   18  C   UNL     1      -9.694   9.331  66.000  1.00  0.00    -0.359 C  
HETATM   19  C   UNL     1      -9.120   9.656  64.615  1.00  0.00    -0.286 C  
ENDROOT
BRANCH  17  20
HETATM   20  O   UNL     1      -9.384   6.862  65.699  1.00  0.00     0.103 OA 
BRANCH  20  21
HETATM   21  C   UNL     1      -8.871   5.657  66.041  1.00  0.00    -0.146 C  
HETATM   22  O   UNL     1      -7.689   5.345  65.965  1.00  0.00    -0.089 OA 
BRANCH  21  23
HETATM   23  C   UNL     1      -9.938   4.732  66.573  1.00  0.00    -0.262 C  
BRANCH  23  24
HETATM   24  C   UNL     1      -9.419   3.759  67.610  1.00  0.00    -0.234 C  
HETATM   25  C   UNL     1      -9.293   4.414  68.964  1.00  0.00    -0.154 C  
HETATM   26  O   UNL     1     -10.234   4.577  69.724  1.00  0.00    -0.201 OA 
HETATM   27  O   UNL     1      -8.042   4.820  69.256  1.00  0.00    -0.073 OA 
ENDBRANCH  23  24
ENDBRANCH  21  23
ENDBRANCH  20  21
ENDBRANCH  17  20
TORSDOF 4
ENDMDL
MODEL       91
REMARK 921   NORMALIZED FREE ENERGY PREDICTED BY IDOCK:   -4.81 KCAL/MOL
REMARK 922        TOTAL FREE ENERGY PREDICTED BY IDOCK:   -6.66 KCAL/MOL
REMARK 923 INTER-LIGAND FREE ENERGY PREDICTED BY IDOCK:   -6.21 KCAL/MOL
REMARK 924 INTRA-LIGAND FREE ENERGY PREDICTED BY IDOCK:   -0.45 KCAL/MOL
REMARK 927      BINDING AFFINITY PREDICTED BY RF-SCORE:    0.00 PKD
ROOT
HETATM    1  C   UNL     1      -8.251   9.352  68.581  1.00  0.00    -0.112 C  
HETATM    2  C   UNL     1      -7.938  10.082  69.913  1.00  0.00    -0.184 C  
HETATM    3  C   UNL     1      -7.355   9.159  70.985  1.00  0.00    -0.116 C  
HETATM    4  C   UNL     1      -8.213   7.903  71.241  1.00  0.00    -0.107 C  
HETATM    5  C   UNL     1      -8.627   7.764  72.703  1.00  0.00    -0.191 C  
HETATM    6  C   UNL     1      -9.407   7.856  70.247  1.00  0.00    -0.159 C  
HETATM    7  C   UNL     1     -10.350   6.684  70.469  1.00  0.00    -0.231 C  
HETATM    8  C   UNL     1      -9.711   5.381  70.054  1.00  0.00    -0.248 C  
HETATM    9  C   UNL     1      -9.355   5.342  68.546  1.00  0.00    -0.121 C  
HETATM   10  C   UNL     1      -9.498   3.866  68.133  1.00  0.00    -0.219 C  
HETATM   11  O   UNL     1      -7.997   5.691  68.285  1.00  0.00    -0.098 OA 
HETATM   12  O   UNL     1      -7.677   7.049  68.732  1.00  0.00    -0.105 OA 
HETATM   13  C   UNL     1      -8.835   7.918  68.798  1.00  0.00    -0.138 C  
HETATM   14  C   UNL     1      -9.894   7.536  67.727  1.00  0.00    -0.155 C  
HETATM   15  O   UNL     1      -9.533   7.992  66.413  1.00  0.00    -0.198 OA 
HETATM   16  O   UNL     1     -10.216   6.129  67.720  1.00  0.00    -0.139 OA 
HETATM   17  C   UNL     1      -9.311   9.408  66.312  1.00  0.00    -0.198 C  
HETATM   18  C   UNL     1      -9.180  10.170  67.660  1.00  0.00    -0.151 C  
HETATM   19  C   UNL     1      -8.690  11.612  67.467  1.00  0.00    -0.156 C  
ENDROOT
BRANCH  17  20
HETATM   20  O   UNL     1     -10.198  10.067  65.372  1.00  0.00    -0.289 OA 
BRANCH  20  21
HETATM   21  C   UNL     1      -9.663  10.661  64.279  1.00  0.00    -0.314 C  
HETATM   22  O   UNL     1      -8.950  10.107  63.452  1.00  0.00    -0.200 OA 
BRANCH  21  23
HETATM   23  C   UNL     1     -10.086  12.106  64.172  1.00  0.00    -0.335 C  
BRANCH  23  24
HETATM   24  C   UNL     1     -11.244  12.318  63.221  1.00  0.00    -0.399 C  
HETATM   25  C   UNL     1     -12.465  12.827  63.946  1.00  0.00    -0.367 C  
HETATM   26  O   UNL     1     -12.628  13.996  64.256  1.00  0.00    -0.670 OA 
HETATM   27  O   UNL     1     -13.363  11.864  64.237  1.00  0.00    -0.610 OA 
ENDBRANCH  23  24
ENDBRANCH  21  23
ENDBRANCH  20  21
ENDBRANCH  17  20
TORSDOF 4
ENDMDL
MODEL       92
REMARK 921   NORMALIZED FREE ENERGY PREDICTED BY IDOCK:   -4.81 KCAL/MOL
REMARK 922        TOTAL FREE ENERGY PREDICTED BY IDOCK:   -6.66 KCAL/MOL
REMARK 923 INTER-LIGAND FREE ENERGY PREDICTED BY IDOCK:   -5.79 KCAL/MOL
REMARK 924 INTRA-LIGAND FREE ENERGY PREDICTED BY IDOCK:   -0.87 KCAL/MOL
REMARK 927      BINDING AFFINITY PREDICTED BY RF-SCORE:    0.00 PKD
ROOT
HETATM    1  C   UNL     1     -10.385   9.618  68.913  1.00  0.00    -0.220 C  
HETATM    2  C   UNL     1     -11.604  10.575  68.838  1.00  0.00    -0.266 C  
HETATM    3  C   UNL     1     -11.899  11.282  70.162  1.00  0.00    -0.449 C  
HETATM    4  C   UNL     1     -12.041  10.313  71.354  1.00  0.00    -0.457 C  
HETATM    5  C   UNL     1     -13.377  10.462  72.075  1.00  0.00    -0.440 C  
HETATM    6  C   UNL     1     -11.734   8.858  70.902  1.00  0.00    -0.312 C  
HETATM    7  C   UNL     1     -11.915   7.819  71.998  1.00  0.00    -0.350 C  
HETATM    8  C   UNL     1     -10.825   7.925  73.038  1.00  0.00    -0.408 C  
HETATM    9  C   UNL     1      -9.413   7.665  72.455  1.00  0.00    -0.169 C  
HETATM   10  C   UNL     1      -8.609   7.031  73.605  1.00  0.00    -0.164 C  
HETATM   11  O   UNL     1      -8.723   8.865  72.111  1.00  0.00    -0.386 OA 
HETATM   12  O   UNL     1      -9.434   9.642  71.093  1.00  0.00    -0.164 OA 
HETATM   13  C   UNL     1     -10.310   8.836  70.266  1.00  0.00    -0.203 C  
HETATM   14  C   UNL     1      -9.761   7.394  70.093  1.00  0.00    -0.175 C  
HETATM   15  O   UNL     1      -8.683   7.328  69.145  1.00  0.00    -0.135 OA 
HETATM   16  O   UNL     1      -9.395   6.769  71.341  1.00  0.00    -0.157 OA 
HETATM   17  C   UNL     1      -9.007   7.825  67.836  1.00  0.00    -0.125 C  
HETATM   18  C   UNL     1     -10.330   8.633  67.727  1.00  0.00    -0.303 C  
HETATM   19  C   UNL     1     -10.470   9.340  66.373  1.00  0.00    -0.157 C  
ENDROOT
BRANCH  17  20
HETATM   20  O   UNL     1      -8.861   6.832  66.788  1.00  0.00    -0.116 OA 
BRANCH  20  21
HETATM   21  C   UNL     1      -7.617   6.529  66.348  1.00  0.00    -0.090 C  
HETATM   22  O   UNL     1      -7.210   5.400  66.103  1.00  0.00    -0.074 OA 
BRANCH  21  23
HETATM   23  C   UNL     1      -6.782   7.770  66.152  1.00  0.00    -0.053 C  
BRANCH  23  24
HETATM   24  C   UNL     1      -6.455   8.044  64.699  1.00  0.00    -0.056 C  
HETATM   25  C   UNL     1      -7.573   8.794  64.016  1.00  0.00    -0.123 C  
HETATM   26  O   UNL     1      -7.732  10.000  64.111  1.00  0.00    -0.138 OA 
HETATM   27  O   UNL     1      -8.396   8.004  63.298  1.00  0.00    -0.096 OA 
ENDBRANCH  23  24
ENDBRANCH  21  23
ENDBRANCH  20  21
ENDBRANCH  17  20
TORSDOF 4
ENDMDL
MODEL       93
REMARK 921   NORMALIZED FREE ENERGY PREDICTED BY IDOCK:   -4.80 KCAL/MOL
REMARK 922        TOTAL FREE ENERGY PREDICTED BY IDOCK:   -6.64 KCAL/MOL
REMARK 923 INTER-LIGAND FREE ENERGY PREDICTED BY IDOCK:   -6.13 KCAL/MOL
REMARK 924 INTRA-LIGAND FREE ENERGY PREDICTED BY IDOCK:   -0.51 KCAL/MOL
REMARK 927      BINDING AFFINITY PREDICTED BY RF-SCORE:    0.00 PKD
ROOT
HETATM    1  C   UNL     1     -10.363   4.855  70.149  1.00  0.00    -0.253 C  
HETATM    2  C   UNL     1      -9.735   3.956  71.248  1.00  0.00    -0.247 C  
HETATM    3  C   UNL     1     -10.255   4.270  72.652  1.00  0.00    -0.232 C  
HETATM    4  C   UNL     1     -10.131   5.760  73.031  1.00  0.00    -0.198 C  
HETATM    5  C   UNL     1      -9.333   5.974  74.314  1.00  0.00    -0.150 C  
HETATM    6  C   UNL     1      -9.601   6.579  71.821  1.00  0.00    -0.158 C  
HETATM    7  C   UNL     1      -9.381   8.054  72.122  1.00  0.00    -0.251 C  
HETATM    8  C   UNL     1     -10.694   8.782  72.279  1.00  0.00    -0.322 C  
HETATM    9  C   UNL     1     -11.555   8.750  70.991  1.00  0.00    -0.288 C  
HETATM   10  C   UNL     1     -12.348  10.069  70.998  1.00  0.00    -0.458 C  
HETATM   11  O   UNL     1     -12.529   7.708  70.998  1.00  0.00    -0.274 OA 
HETATM   12  O   UNL     1     -11.920   6.379  71.100  1.00  0.00    -0.328 OA 
HETATM   13  C   UNL     1     -10.556   6.335  70.613  1.00  0.00    -0.246 C  
HETATM   14  C   UNL     1     -10.329   7.355  69.464  1.00  0.00    -0.217 C  
HETATM   15  O   UNL     1     -10.870   6.901  68.212  1.00  0.00    -0.217 OA 
HETATM   16  O   UNL     1     -10.797   8.685  69.780  1.00  0.00    -0.232 OA 
HETATM   17  C   UNL     1     -10.361   5.632  67.768  1.00  0.00    -0.206 C  
HETATM   18  C   UNL     1      -9.571   4.812  68.825  1.00  0.00    -0.227 C  
HETATM   19  C   UNL     1      -9.291   3.377  68.357  1.00  0.00    -0.238 C  
ENDROOT
BRANCH  17  20
HETATM   20  O   UNL     1      -9.689   5.697  66.483  1.00  0.00    -0.148 OA 
BRANCH  20  21
HETATM   21  C   UNL     1      -8.572   6.452  66.371  1.00  0.00    -0.134 C  
HETATM   22  O   UNL     1      -7.496   6.207  66.903  1.00  0.00    -0.084 OA 
BRANCH  21  23
HETATM   23  C   UNL     1      -8.795   7.638  65.465  1.00  0.00    -0.029 C  
BRANCH  23  24
HETATM   24  C   UNL     1      -9.301   8.861  66.198  1.00  0.00    -0.301 C  
HETATM   25  C   UNL     1      -9.307  10.076  65.303  1.00  0.00    -0.237 C  
HETATM   26  O   UNL     1     -10.190  10.312  64.494  1.00  0.00    -0.314 OA 
HETATM   27  O   UNL     1      -8.236  10.877  65.467  1.00  0.00    -0.143 OA 
ENDBRANCH  23  24
ENDBRANCH  21  23
ENDBRANCH  20  21
ENDBRANCH  17  20
TORSDOF 4
ENDMDL
MODEL       94
REMARK 921   NORMALIZED FREE ENERGY PREDICTED BY IDOCK:   -4.77 KCAL/MOL
REMARK 922        TOTAL FREE ENERGY PREDICTED BY IDOCK:   -6.60 KCAL/MOL
REMARK 923 INTER-LIGAND FREE ENERGY PREDICTED BY IDOCK:   -5.90 KCAL/MOL
REMARK 924 INTRA-LIGAND FREE ENERGY PREDICTED BY IDOCK:   -0.70 KCAL/MOL
REMARK 927      BINDING AFFINITY PREDICTED BY RF-SCORE:    0.00 PKD
ROOT
HETATM    1  C   UNL     1     -10.651   8.621  72.043  1.00  0.00    -0.421 C  
HETATM    2  C   UNL     1     -11.281   7.538  72.959  1.00  0.00    -0.373 C  
HETATM    3  C   UNL     1     -10.280   6.917  73.935  1.00  0.00    -0.401 C  
HETATM    4  C   UNL     1      -9.011   6.376  73.247  1.00  0.00    -0.134 C  
HETATM    5  C   UNL     1      -8.765   4.900  73.546  1.00  0.00    -0.104 C  
HETATM    6  C   UNL     1      -9.039   6.709  71.729  1.00  0.00    -0.144 C  
HETATM    7  C   UNL     1      -7.856   6.153  70.952  1.00  0.00    -0.107 C  
HETATM    8  C   UNL     1      -6.585   6.900  71.283  1.00  0.00    -0.049 C  
HETATM    9  C   UNL     1      -6.656   8.401  70.905  1.00  0.00    -0.041 C  
HETATM   10  C   UNL     1      -5.215   8.796  70.536  1.00  0.00    -0.020 C  
HETATM   11  O   UNL     1      -7.021   9.235  72.003  1.00  0.00    -0.313 OA 
HETATM   12  O   UNL     1      -8.342   8.899  72.541  1.00  0.00    -0.388 OA 
HETATM   13  C   UNL     1      -9.206   8.252  71.573  1.00  0.00    -0.177 C  
HETATM   14  C   UNL     1      -8.906   8.736  70.129  1.00  0.00    -0.154 C  
HETATM   15  O   UNL     1      -9.456  10.037  69.861  1.00  0.00    -0.225 OA 
HETATM   16  O   UNL     1      -7.503   8.685  69.789  1.00  0.00    -0.058 OA 
HETATM   17  C   UNL     1     -10.876  10.137  70.062  1.00  0.00    -0.307 C  
HETATM   18  C   UNL     1     -11.537   8.955  70.825  1.00  0.00    -0.301 C  
HETATM   19  C   UNL     1     -12.988   9.258  71.222  1.00  0.00    -0.342 C  
ENDROOT
BRANCH  17  20
HETATM   20  O   UNL     1     -11.604  10.518  68.867  1.00  0.00    -0.253 OA 
BRANCH  20  21
HETATM   21  C   UNL     1     -11.148  10.092  67.665  1.00  0.00    -0.206 C  
HETATM   22  O   UNL     1     -11.008   8.920  67.337  1.00  0.00    -0.125 OA 
BRANCH  21  23
HETATM   23  C   UNL     1     -10.862  11.250  66.740  1.00  0.00    -0.334 C  
BRANCH  23  24
HETATM   24  C   UNL     1      -9.502  11.874  66.970  1.00  0.00    -0.192 C  
HETATM   25  C   UNL     1      -9.622  13.329  67.353  1.00  0.00    -0.223 C  
HETATM   26  O   UNL     1      -9.884  13.709  68.482  1.00  0.00    -0.230 OA 
HETATM   27  O   UNL     1      -9.428  14.177  66.324  1.00  0.00    -0.283 OA 
ENDBRANCH  23  24
ENDBRANCH  21  23
ENDBRANCH  20  21
ENDBRANCH  17  20
TORSDOF 4
ENDMDL
MODEL       95
REMARK 921   NORMALIZED FREE ENERGY PREDICTED BY IDOCK:   -4.75 KCAL/MOL
REMARK 922        TOTAL FREE ENERGY PREDICTED BY IDOCK:   -6.58 KCAL/MOL
REMARK 923 INTER-LIGAND FREE ENERGY PREDICTED BY IDOCK:   -6.17 KCAL/MOL
REMARK 924 INTRA-LIGAND FREE ENERGY PREDICTED BY IDOCK:   -0.41 KCAL/MOL
REMARK 927      BINDING AFFINITY PREDICTED BY RF-SCORE:    0.00 PKD
ROOT
HETATM    1  C   UNL     1     -10.786  11.342  68.098  1.00  0.00    -0.241 C  
HETATM    2  C   UNL     1     -10.890  12.158  69.413  1.00  0.00    -0.032 C  
HETATM    3  C   UNL     1     -11.974  13.237  69.370  1.00  0.00    -0.356 C  
HETATM    4  C   UNL     1     -11.850  14.178  68.154  1.00  0.00    -0.387 C  
HETATM    5  C   UNL     1     -11.747  15.646  68.557  1.00  0.00    -0.339 C  
HETATM    6  C   UNL     1     -10.701  13.704  67.222  1.00  0.00    -0.283 C  
HETATM    7  C   UNL     1     -10.458  14.613  66.027  1.00  0.00    -0.313 C  
HETATM    8  C   UNL     1     -11.575  14.498  65.018  1.00  0.00    -0.382 C  
HETATM    9  C   UNL     1     -11.706  13.071  64.428  1.00  0.00    -0.373 C  
HETATM   10  C   UNL     1     -12.223  13.270  62.991  1.00  0.00     0.037 C  
HETATM   11  O   UNL     1     -12.693  12.282  65.092  1.00  0.00    -0.571 OA 
HETATM   12  O   UNL     1     -12.391  12.097  66.514  1.00  0.00    -0.474 OA 
HETATM   13  C   UNL     1     -10.980  12.223  66.820  1.00  0.00    -0.276 C  
HETATM   14  C   UNL     1     -10.096  11.755  65.632  1.00  0.00    -0.243 C  
HETATM   15  O   UNL     1     -10.023  10.323  65.533  1.00  0.00    -0.267 OA 
HETATM   16  O   UNL     1     -10.476  12.345  64.371  1.00  0.00    -0.305 OA 
HETATM   17  C   UNL     1      -9.537   9.667  66.716  1.00  0.00    -0.173 C  
HETATM   18  C   UNL     1      -9.469  10.544  67.998  1.00  0.00    -0.157 C  
HETATM   19  C   UNL     1      -9.192   9.713  69.257  1.00  0.00    -0.186 C  
ENDROOT
BRANCH  17  20
HETATM   20  O   UNL     1      -8.329   8.895  66.494  1.00  0.00    -0.112 OA 
BRANCH  20  21
HETATM   21  C   UNL     1      -8.420   7.545  66.445  1.00  0.00    -0.131 C  
HETATM   22  O   UNL     1      -8.700   6.820  67.391  1.00  0.00    -0.119 OA 
BRANCH  21  23
HETATM   23  C   UNL     1      -8.170   7.024  65.050  1.00  0.00    -0.091 C  
BRANCH  23  24
HETATM   24  C   UNL     1      -8.517   5.559  64.891  1.00  0.00    -0.139 C  
HETATM   25  C   UNL     1      -7.921   4.988  63.627  1.00  0.00    -0.098 C  
HETATM   26  O   UNL     1      -6.759   4.627  63.533  1.00  0.00    -0.036 OA 
HETATM   27  O   UNL     1      -8.790   4.925  62.599  1.00  0.00    -0.125 OA 
ENDBRANCH  23  24
ENDBRANCH  21  23
ENDBRANCH  20  21
ENDBRANCH  17  20
TORSDOF 4
ENDMDL
MODEL       96
REMARK 921   NORMALIZED FREE ENERGY PREDICTED BY IDOCK:   -4.71 KCAL/MOL
REMARK 922        TOTAL FREE ENERGY PREDICTED BY IDOCK:   -6.53 KCAL/MOL
REMARK 923 INTER-LIGAND FREE ENERGY PREDICTED BY IDOCK:   -5.88 KCAL/MOL
REMARK 924 INTRA-LIGAND FREE ENERGY PREDICTED BY IDOCK:   -0.65 KCAL/MOL
REMARK 927      BINDING AFFINITY PREDICTED BY RF-SCORE:    0.00 PKD
ROOT
HETATM    1  C   UNL     1     -10.089  16.420  67.727  1.00  0.00    -0.262 C  
HETATM    2  C   UNL     1     -11.118  17.428  68.305  1.00  0.00    -0.010 C  
HETATM    3  C   UNL     1     -11.032  18.813  67.661  1.00  0.00    -0.255 C  
HETATM    4  C   UNL     1      -9.611  19.411  67.686  1.00  0.00    -0.414 C  
HETATM    5  C   UNL     1      -9.561  20.775  68.369  1.00  0.00     0.306 C  
HETATM    6  C   UNL     1      -8.605  18.382  68.273  1.00  0.00    -0.321 C  
HETATM    7  C   UNL     1      -7.184  18.909  68.400  1.00  0.00    -0.309 C  
HETATM    8  C   UNL     1      -6.532  19.056  67.047  1.00  0.00    -0.198 C  
HETATM    9  C   UNL     1      -6.403  17.708  66.294  1.00  0.00    -0.244 C  
HETATM   10  C   UNL     1      -5.127  17.838  65.442  1.00  0.00    -0.067 C  
HETATM   11  O   UNL     1      -7.467  17.482  65.371  1.00  0.00    -0.193 OA 
HETATM   12  O   UNL     1      -8.775  17.444  66.030  1.00  0.00    -0.499 OA 
HETATM   13  C   UNL     1      -8.700  17.074  67.429  1.00  0.00    -0.202 C  
HETATM   14  C   UNL     1      -7.515  16.107  67.699  1.00  0.00    -0.145 C  
HETATM   15  O   UNL     1      -7.798  14.762  67.282  1.00  0.00    -0.188 OA 
HETATM   16  O   UNL     1      -6.264  16.570  67.148  1.00  0.00    -0.158 OA 
HETATM   17  C   UNL     1      -8.970  14.184  67.882  1.00  0.00    -0.185 C  
HETATM   18  C   UNL     1      -9.910  15.176  68.622  1.00  0.00    -0.218 C  
HETATM   19  C   UNL     1     -11.249  14.532  69.004  1.00  0.00    -0.289 C  
ENDROOT
BRANCH  17  20
HETATM   20  O   UNL     1      -8.694  12.984  68.650  1.00  0.00    -0.084 OA 
BRANCH  20  21
HETATM   21  C   UNL     1      -8.499  11.820  67.988  1.00  0.00    -0.157 C  
HETATM   22  O   UNL     1      -8.183  10.756  68.507  1.00  0.00    -0.121 OA 
BRANCH  21  23
HETATM   23  C   UNL     1      -8.757  11.974  66.509  1.00  0.00    -0.138 C  
BRANCH  23  24
HETATM   24  C   UNL     1      -9.884  11.096  66.007  1.00  0.00    -0.270 C  
HETATM   25  C   UNL     1     -11.229  11.631  66.433  1.00  0.00    -0.287 C  
HETATM   26  O   UNL     1     -11.806  12.539  65.858  1.00  0.00    -0.410 OA 
HETATM   27  O   UNL     1     -11.734  11.021  67.523  1.00  0.00    -0.565 OA 
ENDBRANCH  23  24
ENDBRANCH  21  23
ENDBRANCH  20  21
ENDBRANCH  17  20
TORSDOF 4
ENDMDL
MODEL       97
REMARK 921   NORMALIZED FREE ENERGY PREDICTED BY IDOCK:   -4.68 KCAL/MOL
REMARK 922        TOTAL FREE ENERGY PREDICTED BY IDOCK:   -6.49 KCAL/MOL
REMARK 923 INTER-LIGAND FREE ENERGY PREDICTED BY IDOCK:   -5.99 KCAL/MOL
REMARK 924 INTRA-LIGAND FREE ENERGY PREDICTED BY IDOCK:   -0.50 KCAL/MOL
REMARK 927      BINDING AFFINITY PREDICTED BY RF-SCORE:    0.00 PKD
ROOT
HETATM    1  C   UNL     1      -8.991   5.000  69.768  1.00  0.00    -0.141 C  
HETATM    2  C   UNL     1      -8.562   3.509  69.808  1.00  0.00    -0.107 C  
HETATM    3  C   UNL     1      -7.468   3.169  68.794  1.00  0.00    -0.049 C  
HETATM    4  C   UNL     1      -7.816   3.597  67.354  1.00  0.00    -0.079 C  
HETATM    5  C   UNL     1      -7.762   2.433  66.368  1.00  0.00    -0.072 C  
HETATM    6  C   UNL     1      -9.164   4.370  67.334  1.00  0.00    -0.162 C  
HETATM    7  C   UNL     1      -9.625   4.773  65.942  1.00  0.00    -0.188 C  
HETATM    8  C   UNL     1      -8.767   5.882  65.382  1.00  0.00    -0.109 C  
HETATM    9  C   UNL     1      -8.833   7.178  66.228  1.00  0.00    -0.148 C  
HETATM   10  C   UNL     1      -8.641   8.330  65.224  1.00  0.00    -0.159 C  
HETATM   11  O   UNL     1      -7.760   7.290  67.161  1.00  0.00    -0.107 OA 
HETATM   12  O   UNL     1      -7.746   6.187  68.126  1.00  0.00    -0.099 OA 
HETATM   13  C   UNL     1      -9.047   5.576  68.315  1.00  0.00    -0.108 C  
HETATM   14  C   UNL     1     -10.193   6.607  68.126  1.00  0.00    -0.170 C  
HETATM   15  O   UNL     1     -10.349   7.469  69.265  1.00  0.00    -0.200 OA 
HETATM   16  O   UNL     1     -10.076   7.372  66.906  1.00  0.00    -0.219 OA 
HETATM   17  C   UNL     1     -10.589   6.783  70.505  1.00  0.00    -0.225 C  
HETATM   18  C   UNL     1     -10.332   5.250  70.491  1.00  0.00    -0.336 C  
HETATM   19  C   UNL     1     -10.359   4.643  71.900  1.00  0.00    -0.220 C  
ENDROOT
BRANCH  17  20
HETATM   20  O   UNL     1     -11.850   7.140  71.128  1.00  0.00    -0.293 OA 
BRANCH  20  21
HETATM   21  C   UNL     1     -11.841   8.027  72.151  1.00  0.00    -0.349 C  
HETATM   22  O   UNL     1     -11.426   7.800  73.281  1.00  0.00    -0.295 OA 
BRANCH  21  23
HETATM   23  C   UNL     1     -12.375   9.371  71.721  1.00  0.00    -0.471 C  
BRANCH  23  24
HETATM   24  C   UNL     1     -11.375  10.183  70.925  1.00  0.00    -0.420 C  
HETATM   25  C   UNL     1     -12.044  11.330  70.209  1.00  0.00    -0.373 C  
HETATM   26  O   UNL     1     -12.331  12.386  70.748  1.00  0.00    -0.377 OA 
HETATM   27  O   UNL     1     -12.312  11.077  68.912  1.00  0.00    -0.516 OA 
ENDBRANCH  23  24
ENDBRANCH  21  23
ENDBRANCH  20  21
ENDBRANCH  17  20
TORSDOF 4
ENDMDL
MODEL       98
REMARK 921   NORMALIZED FREE ENERGY PREDICTED BY IDOCK:   -4.63 KCAL/MOL
REMARK 922        TOTAL FREE ENERGY PREDICTED BY IDOCK:   -6.43 KCAL/MOL
REMARK 923 INTER-LIGAND FREE ENERGY PREDICTED BY IDOCK:   -5.81 KCAL/MOL
REMARK 924 INTRA-LIGAND FREE ENERGY PREDICTED BY IDOCK:   -0.62 KCAL/MOL
REMARK 927      BINDING AFFINITY PREDICTED BY RF-SCORE:    0.00 PKD
ROOT
HETATM    1  C   UNL     1     -10.032  10.397  68.071  1.00  0.00    -0.178 C  
HETATM    2  C   UNL     1     -11.290  11.305  68.106  1.00  0.00    -0.372 C  
HETATM    3  C   UNL     1     -11.540  11.935  69.478  1.00  0.00    -0.394 C  
HETATM    4  C   UNL     1     -11.579  10.905  70.625  1.00  0.00    -0.341 C  
HETATM    5  C   UNL     1     -12.879  10.965  71.421  1.00  0.00    -0.554 C  
HETATM    6  C   UNL     1     -11.241   9.488  70.087  1.00  0.00    -0.275 C  
HETATM    7  C   UNL     1     -11.322   8.391  71.138  1.00  0.00    -0.310 C  
HETATM    8  C   UNL     1     -10.183   8.493  72.123  1.00  0.00    -0.403 C  
HETATM    9  C   UNL     1      -8.795   8.319  71.456  1.00  0.00    -0.168 C  
HETATM   10  C   UNL     1      -7.906   7.665  72.529  1.00  0.00    -0.119 C  
HETATM   11  O   UNL     1      -8.171   9.562  71.136  1.00  0.00    -0.295 OA 
HETATM   12  O   UNL     1      -8.966  10.357  70.196  1.00  0.00     0.124 OA 
HETATM   13  C   UNL     1      -9.854   9.556  69.377  1.00  0.00    -0.186 C  
HETATM   14  C   UNL     1      -9.259   8.148  69.104  1.00  0.00    -0.151 C  
HETATM   15  O   UNL     1      -8.231   8.171  68.099  1.00  0.00    -0.126 OA 
HETATM   16  O   UNL     1      -8.802   7.479  70.299  1.00  0.00    -0.144 OA 
HETATM   17  C   UNL     1      -8.645   8.716  66.835  1.00  0.00    -0.120 C  
HETATM   18  C   UNL     1     -10.003   9.472  66.835  1.00  0.00    -0.278 C  
HETATM   19  C   UNL     1     -10.243  10.237  65.527  1.00  0.00    -0.308 C  
ENDROOT
BRANCH  17  20
HETATM   20  O   UNL     1      -8.518   7.781  65.733  1.00  0.00    -0.133 OA 
BRANCH  20  21
HETATM   21  C   UNL     1      -8.448   6.458  66.008  1.00  0.00    -0.144 C  
HETATM   22  O   UNL     1      -7.413   5.822  66.169  1.00  0.00    -0.080 OA 
BRANCH  21  23
HETATM   23  C   UNL     1      -9.822   5.847  66.136  1.00  0.00    -0.058 C  
BRANCH  23  24
HETATM   24  C   UNL     1      -9.837   4.355  65.876  1.00  0.00    -0.237 C  
HETATM   25  C   UNL     1     -10.035   4.054  64.411  1.00  0.00    -0.186 C  
HETATM   26  O   UNL     1      -9.136   4.094  63.587  1.00  0.00    -0.127 OA 
HETATM   27  O   UNL     1     -11.307   3.749  64.088  1.00  0.00    -0.247 OA 
ENDBRANCH  23  24
ENDBRANCH  21  23
ENDBRANCH  20  21
ENDBRANCH  17  20
TORSDOF 4
ENDMDL
MODEL       99
REMARK 921   NORMALIZED FREE ENERGY PREDICTED BY IDOCK:   -4.63 KCAL/MOL
REMARK 922        TOTAL FREE ENERGY PREDICTED BY IDOCK:   -6.43 KCAL/MOL
REMARK 923 INTER-LIGAND FREE ENERGY PREDICTED BY IDOCK:   -5.96 KCAL/MOL
REMARK 924 INTRA-LIGAND FREE ENERGY PREDICTED BY IDOCK:   -0.48 KCAL/MOL
REMARK 927      BINDING AFFINITY PREDICTED BY RF-SCORE:    0.00 PKD
ROOT
HETATM    1  C   UNL     1      -9.186   7.544  65.688  1.00  0.00     0.138 C  
HETATM    2  C   UNL     1      -8.093   6.641  65.058  1.00  0.00    -0.124 C  
HETATM    3  C   UNL     1      -8.150   5.193  65.550  1.00  0.00    -0.117 C  
HETATM    4  C   UNL     1      -8.139   5.069  67.087  1.00  0.00    -0.107 C  
HETATM    5  C   UNL     1      -6.999   4.193  67.596  1.00  0.00    -0.056 C  
HETATM    6  C   UNL     1      -8.183   6.479  67.740  1.00  0.00    -0.115 C  
HETATM    7  C   UNL     1      -8.106   6.460  69.258  1.00  0.00    -0.111 C  
HETATM    8  C   UNL     1      -9.386   5.934  69.864  1.00  0.00    -0.173 C  
HETATM    9  C   UNL     1     -10.615   6.816  69.526  1.00  0.00    -0.232 C  
HETATM   10  C   UNL     1     -11.554   6.686  70.739  1.00  0.00    -0.432 C  
HETATM   11  O   UNL     1     -11.355   6.333  68.406  1.00  0.00    -0.298 OA 
HETATM   12  O   UNL     1     -10.548   6.293  67.183  1.00  0.00    -0.229 OA 
HETATM   13  C   UNL     1      -9.440   7.227  67.198  1.00  0.00    -0.145 C  
HETATM   14  C   UNL     1      -9.776   8.496  68.027  1.00  0.00    -0.154 C  
HETATM   15  O   UNL     1     -10.630   9.407  67.314  1.00  0.00    -0.267 OA 
HETATM   16  O   UNL     1     -10.310   8.199  69.335  1.00  0.00    -0.211 OA 
HETATM   17  C   UNL     1     -10.110   9.845  66.048  1.00  0.00    -0.244 C  
HETATM   18  C   UNL     1      -8.892   9.048  65.503  1.00  0.00    -0.233 C  
HETATM   19  C   UNL     1      -8.567   9.405  64.047  1.00  0.00    -0.222 C  
ENDROOT
BRANCH  17  20
HETATM   20  O   UNL     1      -9.931  11.282  65.962  1.00  0.00    -0.215 OA 
BRANCH  20  21
HETATM   21  C   UNL     1     -10.724  11.988  65.123  1.00  0.00    -0.288 C  
HETATM   22  O   UNL     1     -11.359  11.517  64.187  1.00  0.00    -0.342 OA 
BRANCH  21  23
HETATM   23  C   UNL     1     -10.771  13.447  65.502  1.00  0.00    -0.301 C  
BRANCH  23  24
HETATM   24  C   UNL     1     -12.103  13.868  66.087  1.00  0.00    -0.478 C  
HETATM   25  C   UNL     1     -11.956  14.322  67.518  1.00  0.00    -0.376 C  
HETATM   26  O   UNL     1     -11.571  15.436  67.836  1.00  0.00    -0.332 OA 
HETATM   27  O   UNL     1     -12.277  13.376  68.423  1.00  0.00    -0.293 OA 
ENDBRANCH  23  24
ENDBRANCH  21  23
ENDBRANCH  20  21
ENDBRANCH  17  20
TORSDOF 4
ENDMDL
MODEL      100
REMARK 921   NORMALIZED FREE ENERGY PREDICTED BY IDOCK:   -4.62 KCAL/MOL
REMARK 922        TOTAL FREE ENERGY PREDICTED BY IDOCK:   -6.42 KCAL/MOL
REMARK 923 INTER-LIGAND FREE ENERGY PREDICTED BY IDOCK:   -5.55 KCAL/MOL
REMARK 924 INTRA-LIGAND FREE ENERGY PREDICTED BY IDOCK:   -0.88 KCAL/MOL
REMARK 927      BINDING AFFINITY PREDICTED BY RF-SCORE:    0.00 PKD
ROOT
HETATM    1  C   UNL     1     -10.870   8.253  68.661  1.00  0.00     0.031 C  
HETATM    2  C   UNL     1     -10.274   9.624  68.242  1.00  0.00    -0.216 C  
HETATM    3  C   UNL     1      -9.753   9.640  66.804  1.00  0.00    -0.252 C  
HETATM    4  C   UNL     1      -8.760   8.500  66.501  1.00  0.00    -0.149 C  
HETATM    5  C   UNL     1      -7.420   9.012  65.982  1.00  0.00    -0.094 C  
HETATM    6  C   UNL     1      -8.635   7.556  67.729  1.00  0.00    -0.120 C  
HETATM    7  C   UNL     1      -7.622   6.436  67.547  1.00  0.00    -0.100 C  
HETATM    8  C   UNL     1      -8.122   5.401  66.568  1.00  0.00    -0.105 C  
HETATM    9  C   UNL     1      -9.423   4.705  67.042  1.00  0.00    -0.160 C  
HETATM   10  C   UNL     1      -9.354   3.278  66.469  1.00  0.00    -0.145 C  
HETATM   11  O   UNL     1     -10.601   5.292  66.491  1.00  0.00    -0.287 OA 
HETATM   12  O   UNL     1     -10.747   6.701  66.864  1.00  0.00    -0.306 OA 
HETATM   13  C   UNL     1     -10.061   7.041  68.095  1.00  0.00    -0.169 C  
HETATM   14  C   UNL     1     -10.023   5.838  69.076  1.00  0.00    -0.169 C  
HETATM   15  O   UNL     1     -11.278   5.635  69.744  1.00  0.00    -0.274 OA 
HETATM   16  O   UNL     1      -9.556   4.617  68.463  1.00  0.00    -0.145 OA 
HETATM   17  C   UNL     1     -11.754   6.775  70.480  1.00  0.00    -0.375 C  
HETATM   18  C   UNL     1     -11.029   8.118  70.190  1.00  0.00    -0.223 C  
HETATM   19  C   UNL     1     -11.757   9.318  70.811  1.00  0.00    -0.328 C  
ENDROOT
BRANCH  17  20
HETATM   20  O   UNL     1     -11.926   6.518  71.897  1.00  0.00    -0.323 OA 
BRANCH  20  21
HETATM   21  C   UNL     1     -10.856   6.109  72.618  1.00  0.00    -0.245 C  
HETATM   22  O   UNL     1     -10.330   5.006  72.539  1.00  0.00    -0.189 OA 
BRANCH  21  23
HETATM   23  C   UNL     1     -10.347   7.205  73.523  1.00  0.00    -0.412 C  
BRANCH  23  24
HETATM   24  C   UNL     1      -8.846   7.168  73.717  1.00  0.00    -0.214 C  
HETATM   25  C   UNL     1      -8.122   7.705  72.506  1.00  0.00    -0.113 C  
HETATM   26  O   UNL     1      -7.970   8.895  72.284  1.00  0.00    -0.371 OA 
HETATM   27  O   UNL     1      -7.667   6.744  71.677  1.00  0.00    -0.094 OA 
ENDBRANCH  23  24
ENDBRANCH  21  23
ENDBRANCH  20  21
ENDBRANCH  17  20
TORSDOF 4
ENDMDL
MODEL      101
REMARK 921   NORMALIZED FREE ENERGY PREDICTED BY IDOCK:   -4.62 KCAL/MOL
REMARK 922        TOTAL FREE ENERGY PREDICTED BY IDOCK:   -6.42 KCAL/MOL
REMARK 923 INTER-LIGAND FREE ENERGY PREDICTED BY IDOCK:   -6.79 KCAL/MOL
REMARK 924 INTRA-LIGAND FREE ENERGY PREDICTED BY IDOCK:    0.37 KCAL/MOL
REMARK 927      BINDING AFFINITY PREDICTED BY RF-SCORE:    0.00 PKD
ROOT
HETATM    1  C   UNL     1      -8.859  13.981  67.699  1.00  0.00    -0.190 C  
HETATM    2  C   UNL     1      -7.578  13.226  68.140  1.00  0.00    -0.141 C  
HETATM    3  C   UNL     1      -7.019  12.301  67.057  1.00  0.00    -0.036 C  
HETATM    4  C   UNL     1      -8.065  11.316  66.495  1.00  0.00    -0.160 C  
HETATM    5  C   UNL     1      -7.626   9.861  66.621  1.00  0.00    -0.103 C  
HETATM    6  C   UNL     1      -9.461  11.604  67.115  1.00  0.00    -0.183 C  
HETATM    7  C   UNL     1     -10.546  10.636  66.671  1.00  0.00    -0.276 C  
HETATM    8  C   UNL     1     -10.931  10.870  65.230  1.00  0.00    -0.033 C  
HETATM    9  C   UNL     1     -11.518  12.283  64.988  1.00  0.00    -0.336 C  
HETATM   10  C   UNL     1     -12.529  12.113  63.839  1.00  0.00    -0.581 C  
HETATM   11  O   UNL     1     -10.547  13.216  64.517  1.00  0.00    -0.363 OA 
HETATM   12  O   UNL     1      -9.448  13.401  65.469  1.00  0.00    -0.012 OA 
HETATM   13  C   UNL     1      -9.819  13.096  66.837  1.00  0.00    -0.249 C  
HETATM   14  C   UNL     1     -11.317  13.406  67.103  1.00  0.00    -0.315 C  
HETATM   15  O   UNL     1     -11.565  14.811  67.271  1.00  0.00    -0.370 OA 
HETATM   16  O   UNL     1     -12.202  12.835  66.115  1.00  0.00    -0.521 OA 
HETATM   17  C   UNL     1     -10.805  15.431  68.321  1.00  0.00    -0.269 C  
HETATM   18  C   UNL     1      -9.627  14.591  68.890  1.00  0.00    -0.158 C  
HETATM   19  C   UNL     1      -8.718  15.415  69.812  1.00  0.00    -0.010 C  
ENDROOT
BRANCH  17  20
HETATM   20  O   UNL     1     -11.628  16.027  69.357  1.00  0.00    -0.343 OA 
BRANCH  20  21
HETATM   21  C   UNL     1     -12.415  15.220  70.106  1.00  0.00    -0.334 C  
HETATM   22  O   UNL     1     -13.561  15.475  70.456  1.00  0.00    -0.335 OA 
BRANCH  21  23
HETATM   23  C   UNL     1     -11.720  13.922  70.438  1.00  0.00    -0.269 C  
BRANCH  23  24
HETATM   24  C   UNL     1     -12.680  12.789  70.730  1.00  0.00    -0.217 C  
HETATM   25  C   UNL     1     -12.147  11.472  70.223  1.00  0.00    -0.359 C  
HETATM   26  O   UNL     1     -11.323  10.802  70.824  1.00  0.00    -0.256 OA 
HETATM   27  O   UNL     1     -12.656  11.104  69.031  1.00  0.00    -0.370 OA 
ENDBRANCH  23  24
ENDBRANCH  21  23
ENDBRANCH  20  21
ENDBRANCH  17  20
TORSDOF 4
ENDMDL
MODEL      102
REMARK 921   NORMALIZED FREE ENERGY PREDICTED BY IDOCK:   -4.58 KCAL/MOL
REMARK 922        TOTAL FREE ENERGY PREDICTED BY IDOCK:   -6.37 KCAL/MOL
REMARK 923 INTER-LIGAND FREE ENERGY PREDICTED BY IDOCK:   -5.67 KCAL/MOL
REMARK 924 INTRA-LIGAND FREE ENERGY PREDICTED BY IDOCK:   -0.71 KCAL/MOL
REMARK 927      BINDING AFFINITY PREDICTED BY RF-SCORE:    0.00 PKD
ROOT
HETATM    1  C   UNL     1      -8.915   4.451  69.254  1.00  0.00    -0.148 C  
HETATM    2  C   UNL     1      -9.489   3.233  68.482  1.00  0.00    -0.206 C  
HETATM    3  C   UNL     1      -9.234   3.300  66.975  1.00  0.00    -0.206 C  
HETATM    4  C   UNL     1      -9.703   4.622  66.334  1.00  0.00    -0.212 C  
HETATM    5  C   UNL     1     -10.690   4.401  65.192  1.00  0.00    -0.144 C  
HETATM    6  C   UNL     1     -10.222   5.595  67.428  1.00  0.00    -0.249 C  
HETATM    7  C   UNL     1     -10.771   6.904  66.882  1.00  0.00    -0.386 C  
HETATM    8  C   UNL     1      -9.663   7.786  66.358  1.00  0.00    -0.219 C  
HETATM    9  C   UNL     1      -8.650   8.193  67.458  1.00  0.00    -0.129 C  
HETATM   10  C   UNL     1      -8.146   9.589  67.050  1.00  0.00    -0.113 C  
HETATM   11  O   UNL     1      -7.496   7.355  67.491  1.00  0.00    -0.095 OA 
HETATM   12  O   UNL     1      -7.835   5.955  67.763  1.00  0.00    -0.096 OA 
HETATM   13  C   UNL     1      -9.086   5.797  68.478  1.00  0.00    -0.114 C  
HETATM   14  C   UNL     1      -9.358   7.000  69.421  1.00  0.00    -0.146 C  
HETATM   15  O   UNL     1      -8.577   6.941  70.626  1.00  0.00    -0.138 OA 
HETATM   16  O   UNL     1      -9.213   8.281  68.770  1.00  0.00    -0.144 OA 
HETATM   17  C   UNL     1      -8.757   5.740  71.396  1.00  0.00    -0.133 C  
HETATM   18  C   UNL     1      -9.500   4.580  70.676  1.00  0.00    -0.240 C  
HETATM   19  C   UNL     1      -9.422   3.264  71.462  1.00  0.00    -0.217 C  
ENDROOT
BRANCH  17  20
HETATM   20  O   UNL     1      -9.252   5.984  72.738  1.00  0.00    -0.143 OA 
BRANCH  20  21
HETATM   21  C   UNL     1      -9.439   7.263  73.140  1.00  0.00    -0.184 C  
HETATM   22  O   UNL     1      -8.547   8.079  73.336  1.00  0.00    -0.197 OA 
BRANCH  21  23
HETATM   23  C   UNL     1     -10.905   7.588  73.285  1.00  0.00    -0.409 C  
BRANCH  23  24
HETATM   24  C   UNL     1     -11.487   8.271  72.065  1.00  0.00    -0.399 C  
HETATM   25  C   UNL     1     -12.627   7.474  71.481  1.00  0.00    -0.355 C  
HETATM   26  O   UNL     1     -13.764   7.501  71.922  1.00  0.00    -0.313 OA 
HETATM   27  O   UNL     1     -12.272   6.711  70.428  1.00  0.00    -0.332 OA 
ENDBRANCH  23  24
ENDBRANCH  21  23
ENDBRANCH  20  21
ENDBRANCH  17  20
TORSDOF 4
ENDMDL
MODEL      103
REMARK 921   NORMALIZED FREE ENERGY PREDICTED BY IDOCK:   -4.56 KCAL/MOL
REMARK 922        TOTAL FREE ENERGY PREDICTED BY IDOCK:   -6.35 KCAL/MOL
REMARK 923 INTER-LIGAND FREE ENERGY PREDICTED BY IDOCK:   -5.76 KCAL/MOL
REMARK 924 INTRA-LIGAND FREE ENERGY PREDICTED BY IDOCK:   -0.59 KCAL/MOL
REMARK 927      BINDING AFFINITY PREDICTED BY RF-SCORE:    0.00 PKD
ROOT
HETATM    1  C   UNL     1     -10.089   8.842  67.214  1.00  0.00    -0.303 C  
HETATM    2  C   UNL     1      -9.499   7.859  66.168  1.00  0.00    -0.158 C  
HETATM    3  C   UNL     1      -9.445   6.413  66.663  1.00  0.00    -0.191 C  
HETATM    4  C   UNL     1      -8.728   6.258  68.020  1.00  0.00    -0.114 C  
HETATM    5  C   UNL     1      -7.563   5.275  67.958  1.00  0.00    -0.080 C  
HETATM    6  C   UNL     1      -8.340   7.653  68.584  1.00  0.00    -0.129 C  
HETATM    7  C   UNL     1      -7.565   7.597  69.892  1.00  0.00    -0.092 C  
HETATM    8  C   UNL     1      -8.454   7.173  71.036  1.00  0.00    -0.129 C  
HETATM    9  C   UNL     1      -9.617   8.165  71.291  1.00  0.00    -0.162 C  
HETATM   10  C   UNL     1      -9.889   8.095  72.804  1.00  0.00    -0.353 C  
HETATM   11  O   UNL     1     -10.833   7.772  70.657  1.00  0.00    -0.229 OA 
HETATM   12  O   UNL     1     -10.698   7.686  69.200  1.00  0.00    -0.214 OA 
HETATM   13  C   UNL     1      -9.634   8.518  68.675  1.00  0.00    -0.149 C  
HETATM   14  C   UNL     1      -9.433   9.796  69.534  1.00  0.00    -0.212 C  
HETATM   15  O   UNL     1     -10.438  10.791  69.281  1.00  0.00    -0.210 OA 
HETATM   16  O   UNL     1      -9.318   9.520  70.947  1.00  0.00    -0.229 OA 
HETATM   17  C   UNL     1     -10.535  11.207  67.909  1.00  0.00    -0.190 C  
HETATM   18  C   UNL     1      -9.786  10.318  66.878  1.00  0.00    -0.229 C  
HETATM   19  C   UNL     1     -10.148  10.674  65.430  1.00  0.00    -0.356 C  
ENDROOT
BRANCH  17  20
HETATM   20  O   UNL     1     -10.292  12.625  67.716  1.00  0.00    -0.212 OA 
BRANCH  20  21
HETATM   21  C   UNL     1     -11.317  13.490  67.899  1.00  0.00    -0.289 C  
HETATM   22  O   UNL     1     -12.285  13.297  68.624  1.00  0.00    -0.277 OA 
BRANCH  21  23
HETATM   23  C   UNL     1     -11.109  14.766  67.119  1.00  0.00    -0.333 C  
BRANCH  23  24
HETATM   24  C   UNL     1      -9.741  14.853  66.476  1.00  0.00    -0.294 C  
HETATM   25  C   UNL     1      -8.925  15.974  67.070  1.00  0.00    -0.214 C  
HETATM   26  O   UNL     1      -8.318  15.881  68.125  1.00  0.00    -0.157 OA 
HETATM   27  O   UNL     1      -8.936  17.103  66.334  1.00  0.00    -0.252 OA 
ENDBRANCH  23  24
ENDBRANCH  21  23
ENDBRANCH  20  21
ENDBRANCH  17  20
TORSDOF 4
ENDMDL
MODEL      104
REMARK 921   NORMALIZED FREE ENERGY PREDICTED BY IDOCK:   -4.54 KCAL/MOL
REMARK 922        TOTAL FREE ENERGY PREDICTED BY IDOCK:   -6.33 KCAL/MOL
REMARK 923 INTER-LIGAND FREE ENERGY PREDICTED BY IDOCK:   -5.55 KCAL/MOL
REMARK 924 INTRA-LIGAND FREE ENERGY PREDICTED BY IDOCK:   -0.78 KCAL/MOL
REMARK 927      BINDING AFFINITY PREDICTED BY RF-SCORE:    0.00 PKD
ROOT
HETATM    1  C   UNL     1     -10.414  11.565  68.375  1.00  0.00    -0.226 C  
HETATM    2  C   UNL     1      -9.825  11.441  66.944  1.00  0.00    -0.218 C  
HETATM    3  C   UNL     1      -9.063  12.689  66.495  1.00  0.00    -0.163 C  
HETATM    4  C   UNL     1      -9.883  13.988  66.634  1.00  0.00    -0.288 C  
HETATM    5  C   UNL     1     -10.001  14.751  65.318  1.00  0.00    -0.331 C  
HETATM    6  C   UNL     1     -11.251  13.689  67.308  1.00  0.00    -0.329 C  
HETATM    7  C   UNL     1     -12.160  14.903  67.427  1.00  0.00    -0.024 C  
HETATM    8  C   UNL     1     -11.648  15.870  68.466  1.00  0.00    -0.351 C  
HETATM    9  C   UNL     1     -11.600  15.254  69.887  1.00  0.00    -0.311 C  
HETATM   10  C   UNL     1     -11.858  16.428  70.849  1.00  0.00    -0.015 C  
HETATM   11  O   UNL     1     -10.312  14.744  70.230  1.00  0.00     0.049 OA 
HETATM   12  O   UNL     1      -9.877  13.680  69.321  1.00  0.00     0.183 OA 
HETATM   13  C   UNL     1     -10.978  12.992  68.676  1.00  0.00    -0.265 C  
HETATM   14  C   UNL     1     -12.237  12.956  69.585  1.00  0.00    -0.141 C  
HETATM   15  O   UNL     1     -12.134  11.972  70.626  1.00  0.00    -0.373 OA 
HETATM   16  O   UNL     1     -12.589  14.249  70.124  1.00  0.00    -0.350 OA 
HETATM   17  C   UNL     1     -11.902  10.632  70.161  1.00  0.00    -0.337 C  
HETATM   18  C   UNL     1     -11.487  10.496  68.669  1.00  0.00    -0.290 C  
HETATM   19  C   UNL     1     -11.011   9.079  68.324  1.00  0.00     0.025 C  
ENDROOT
BRANCH  17  20
HETATM   20  O   UNL     1     -12.942   9.697  70.546  1.00  0.00    -0.052 OA 
BRANCH  20  21
HETATM   21  C   UNL     1     -12.873   9.114  71.767  1.00  0.00    -0.377 C  
HETATM   22  O   UNL     1     -13.147   9.662  72.828  1.00  0.00    -0.153 OA 
BRANCH  21  23
HETATM   23  C   UNL     1     -12.447   7.670  71.666  1.00  0.00    -0.362 C  
BRANCH  23  24
HETATM   24  C   UNL     1     -11.225   7.350  72.500  1.00  0.00    -0.363 C  
HETATM   25  C   UNL     1     -10.019   7.093  71.630  1.00  0.00    -0.177 C  
HETATM   26  O   UNL     1      -9.338   7.980  71.141  1.00  0.00    -0.145 OA 
HETATM   27  O   UNL     1      -9.766   5.785  71.427  1.00  0.00    -0.163 OA 
ENDBRANCH  23  24
ENDBRANCH  21  23
ENDBRANCH  20  21
ENDBRANCH  17  20
TORSDOF 4
ENDMDL
MODEL      105
REMARK 921   NORMALIZED FREE ENERGY PREDICTED BY IDOCK:   -4.54 KCAL/MOL
REMARK 922        TOTAL FREE ENERGY PREDICTED BY IDOCK:   -6.32 KCAL/MOL
REMARK 923 INTER-LIGAND FREE ENERGY PREDICTED BY IDOCK:   -6.61 KCAL/MOL
REMARK 924 INTRA-LIGAND FREE ENERGY PREDICTED BY IDOCK:    0.29 KCAL/MOL
REMARK 927      BINDING AFFINITY PREDICTED BY RF-SCORE:    0.00 PKD
ROOT
HETATM    1  C   UNL     1     -10.358  15.654  69.074  1.00  0.00    -0.225 C  
HETATM    2  C   UNL     1     -11.264  16.206  70.206  1.00  0.00    -0.389 C  
HETATM    3  C   UNL     1     -11.374  15.262  71.405  1.00  0.00    -0.419 C  
HETATM    4  C   UNL     1     -11.796  13.830  71.019  1.00  0.00    -0.063 C  
HETATM    5  C   UNL     1     -13.051  13.371  71.756  1.00  0.00    -0.479 C  
HETATM    6  C   UNL     1     -11.896  13.698  69.474  1.00  0.00    -0.394 C  
HETATM    7  C   UNL     1     -12.374  12.334  69.000  1.00  0.00     0.160 C  
HETATM    8  C   UNL     1     -11.314  11.279  69.209  1.00  0.00    -0.354 C  
HETATM    9  C   UNL     1     -10.020  11.562  68.405  1.00  0.00    -0.206 C  
HETATM   10  C   UNL     1      -9.440  10.177  68.066  1.00  0.00    -0.156 C  
HETATM   11  O   UNL     1      -9.019  12.226  69.177  1.00  0.00     0.340 OA 
HETATM   12  O   UNL     1      -9.472  13.529  69.670  1.00  0.00     0.955 OA 
HETATM   13  C   UNL     1     -10.523  14.113  68.861  1.00  0.00    -0.222 C  
HETATM   14  C   UNL     1     -10.391  13.699  67.370  1.00  0.00    -0.244 C  
HETATM   15  O   UNL     1      -9.358  14.429  66.688  1.00  0.00    -0.258 OA 
HETATM   16  O   UNL     1     -10.231  12.276  67.185  1.00  0.00    -0.210 OA 
HETATM   17  C   UNL     1      -9.511  15.857  66.725  1.00  0.00    -0.235 C  
HETATM   18  C   UNL     1     -10.558  16.399  67.738  1.00  0.00    -0.321 C  
HETATM   19  C   UNL     1     -10.476  17.923  67.900  1.00  0.00    -0.404 C  
ENDROOT
BRANCH  17  20
HETATM   20  O   UNL     1      -9.628  16.461  65.411  1.00  0.00    -0.455 OA 
BRANCH  20  21
HETATM   21  C   UNL     1     -10.698  16.145  64.644  1.00  0.00     0.002 C  
HETATM   22  O   UNL     1     -11.437  16.953  64.094  1.00  0.00    -1.174 OA 
BRANCH  21  23
HETATM   23  C   UNL     1     -10.859  14.651  64.507  1.00  0.00    -0.209 C  
BRANCH  23  24
HETATM   24  C   UNL     1     -12.099  14.253  63.735  1.00  0.00    -0.114 C  
HETATM   25  C   UNL     1     -12.517  12.839  64.056  1.00  0.00    -0.360 C  
HETATM   26  O   UNL     1     -13.153  12.534  65.051  1.00  0.00    -0.765 OA 
HETATM   27  O   UNL     1     -12.109  11.934  63.145  1.00  0.00    -0.411 OA 
ENDBRANCH  23  24
ENDBRANCH  21  23
ENDBRANCH  20  21
ENDBRANCH  17  20
TORSDOF 4
ENDMDL
MODEL      106
REMARK 921   NORMALIZED FREE ENERGY PREDICTED BY IDOCK:   -4.52 KCAL/MOL
REMARK 922        TOTAL FREE ENERGY PREDICTED BY IDOCK:   -6.30 KCAL/MOL
REMARK 923 INTER-LIGAND FREE ENERGY PREDICTED BY IDOCK:   -5.62 KCAL/MOL
REMARK 924 INTRA-LIGAND FREE ENERGY PREDICTED BY IDOCK:   -0.68 KCAL/MOL
REMARK 927      BINDING AFFINITY PREDICTED BY RF-SCORE:    0.00 PKD
ROOT
HETATM    1  C   UNL     1      -7.411  14.114  68.309  1.00  0.00    -0.120 C  
HETATM    2  C   UNL     1      -6.343  15.139  67.844  1.00  0.00    -0.176 C  
HETATM    3  C   UNL     1      -6.537  16.530  68.451  1.00  0.00    -0.138 C  
HETATM    4  C   UNL     1      -7.958  17.094  68.245  1.00  0.00    -0.236 C  
HETATM    5  C   UNL     1      -7.955  18.447  67.541  1.00  0.00    -0.241 C  
HETATM    6  C   UNL     1      -8.861  16.033  67.557  1.00  0.00    -0.198 C  
HETATM    7  C   UNL     1     -10.268  16.524  67.250  1.00  0.00    -0.287 C  
HETATM    8  C   UNL     1     -11.083  16.672  68.513  1.00  0.00    -0.301 C  
HETATM    9  C   UNL     1     -11.272  15.331  69.265  1.00  0.00    -0.284 C  
HETATM   10  C   UNL     1     -12.645  15.440  69.954  1.00  0.00    -0.203 C  
HETATM   11  O   UNL     1     -10.323  15.142  70.314  1.00  0.00    -0.199 OA 
HETATM   12  O   UNL     1      -8.944  15.127  69.818  1.00  0.00    -0.149 OA 
HETATM   13  C   UNL     1      -8.840  14.738  68.426  1.00  0.00    -0.181 C  
HETATM   14  C   UNL     1      -9.961  13.740  68.029  1.00  0.00    -0.246 C  
HETATM   15  O   UNL     1      -9.701  12.407  68.498  1.00  0.00    -0.206 OA 
HETATM   16  O   UNL     1     -11.281  14.180  68.418  1.00  0.00    -0.244 OA 
HETATM   17  C   UNL     1      -8.453  11.850  68.053  1.00  0.00    -0.162 C  
HETATM   18  C   UNL     1      -7.452  12.856  67.417  1.00  0.00    -0.135 C  
HETATM   19  C   UNL     1      -6.062  12.240  67.210  1.00  0.00    -0.153 C  
ENDROOT
BRANCH  17  20
HETATM   20  O   UNL     1      -8.606  10.635  67.276  1.00  0.00    -0.126 OA 
BRANCH  20  21
HETATM   21  C   UNL     1      -9.571   9.755  67.630  1.00  0.00    -0.145 C  
HETATM   22  O   UNL     1     -10.468   9.357  66.896  1.00  0.00    -0.245 OA 
BRANCH  21  23
HETATM   23  C   UNL     1      -9.392   9.277  69.050  1.00  0.00    -0.151 C  
BRANCH  23  24
HETATM   24  C   UNL     1     -10.657   8.703  69.649  1.00  0.00    -0.219 C  
HETATM   25  C   UNL     1     -11.458   9.764  70.364  1.00  0.00    -0.280 C  
HETATM   26  O   UNL     1     -12.197  10.549  69.793  1.00  0.00    -0.266 OA 
HETATM   27  O   UNL     1     -11.272   9.776  71.699  1.00  0.00    -0.331 OA 
ENDBRANCH  23  24
ENDBRANCH  21  23
ENDBRANCH  20  21
ENDBRANCH  17  20
TORSDOF 4
ENDMDL
MODEL      107
REMARK 921   NORMALIZED FREE ENERGY PREDICTED BY IDOCK:   -4.52 KCAL/MOL
REMARK 922        TOTAL FREE ENERGY PREDICTED BY IDOCK:   -6.30 KCAL/MOL
REMARK 923 INTER-LIGAND FREE ENERGY PREDICTED BY IDOCK:   -5.56 KCAL/MOL
REMARK 924 INTRA-LIGAND FREE ENERGY PREDICTED BY IDOCK:   -0.74 KCAL/MOL
REMARK 927      BINDING AFFINITY PREDICTED BY RF-SCORE:    0.00 PKD
ROOT
HETATM    1  C   UNL     1     -10.574   9.314  69.956  1.00  0.00    -0.256 C  
HETATM    2  C   UNL     1     -11.501  10.370  70.615  1.00  0.00    -0.438 C  
HETATM    3  C   UNL     1     -12.402  11.091  69.611  1.00  0.00    -0.303 C  
HETATM    4  C   UNL     1     -11.628  11.708  68.428  1.00  0.00    -0.376 C  
HETATM    5  C   UNL     1     -11.879  13.206  68.281  1.00  0.00    -0.384 C  
HETATM    6  C   UNL     1     -10.123  11.333  68.517  1.00  0.00    -0.210 C  
HETATM    7  C   UNL     1      -9.265  11.955  67.427  1.00  0.00    -0.177 C  
HETATM    8  C   UNL     1      -9.536  11.317  66.086  1.00  0.00    -0.241 C  
HETATM    9  C   UNL     1      -9.197   9.805  66.062  1.00  0.00    -0.179 C  
HETATM   10  C   UNL     1      -8.753   9.510  64.617  1.00  0.00    -0.233 C  
HETATM   11  O   UNL     1     -10.334   8.976  66.298  1.00  0.00    -0.247 OA 
HETATM   12  O   UNL     1     -10.940   9.225  67.608  1.00  0.00    -0.204 OA 
HETATM   13  C   UNL     1     -10.011   9.778  68.573  1.00  0.00    -0.160 C  
HETATM   14  C   UNL     1      -8.563   9.279  68.319  1.00  0.00    -0.125 C  
HETATM   15  O   UNL     1      -8.357   7.934  68.782  1.00  0.00    -0.125 OA 
HETATM   16  O   UNL     1      -8.140   9.427  66.947  1.00  0.00    -0.108 OA 
HETATM   17  C   UNL     1      -8.644   7.731  70.176  1.00  0.00    -0.139 C  
HETATM   18  C   UNL     1      -9.418   8.880  70.881  1.00  0.00    -0.295 C  
HETATM   19  C   UNL     1      -9.906   8.479  72.279  1.00  0.00    -0.383 C  
ENDROOT
BRANCH  17  20
HETATM   20  O   UNL     1      -7.502   7.265  70.939  1.00  0.00    -0.074 OA 
BRANCH  20  21
HETATM   21  C   UNL     1      -7.488   5.981  71.368  1.00  0.00    -0.093 C  
HETATM   22  O   UNL     1      -7.550   5.626  72.539  1.00  0.00    -0.095 OA 
BRANCH  21  23
HETATM   23  C   UNL     1      -7.425   5.012  70.213  1.00  0.00    -0.059 C  
BRANCH  23  24
HETATM   24  C   UNL     1      -8.556   4.005  70.218  1.00  0.00    -0.106 C  
HETATM   25  C   UNL     1      -9.572   4.315  69.146  1.00  0.00    -0.179 C  
HETATM   26  O   UNL     1      -9.430   4.009  67.973  1.00  0.00    -0.161 OA 
HETATM   27  O   UNL     1     -10.654   4.978  69.601  1.00  0.00    -0.212 OA 
ENDBRANCH  23  24
ENDBRANCH  21  23
ENDBRANCH  20  21
ENDBRANCH  17  20
TORSDOF 4
ENDMDL
MODEL      108
REMARK 921   NORMALIZED FREE ENERGY PREDICTED BY IDOCK:   -4.52 KCAL/MOL
REMARK 922        TOTAL FREE ENERGY PREDICTED BY IDOCK:   -6.30 KCAL/MOL
REMARK 923 INTER-LIGAND FREE ENERGY PREDICTED BY IDOCK:   -5.42 KCAL/MOL
REMARK 924 INTRA-LIGAND FREE ENERGY PREDICTED BY IDOCK:   -0.88 KCAL/MOL
REMARK 927      BINDING AFFINITY PREDICTED BY RF-SCORE:    0.00 PKD
ROOT
HETATM    1  C   UNL     1      -7.700   7.819  69.882  1.00  0.00    -0.095 C  
HETATM    2  C   UNL     1      -6.961   6.727  69.064  1.00  0.00    -0.082 C  
HETATM    3  C   UNL     1      -6.740   7.114  67.601  1.00  0.00    -0.064 C  
HETATM    4  C   UNL     1      -8.033   7.550  66.882  1.00  0.00    -0.115 C  
HETATM    5  C   UNL     1      -8.313   6.728  65.628  1.00  0.00    -0.147 C  
HETATM    6  C   UNL     1      -9.220   7.584  67.885  1.00  0.00    -0.137 C  
HETATM    7  C   UNL     1     -10.556   7.938  67.250  1.00  0.00    -0.365 C  
HETATM    8  C   UNL     1     -10.604   9.395  66.856  1.00  0.00    -0.238 C  
HETATM    9  C   UNL     1     -10.459  10.350  68.068  1.00  0.00    -0.196 C  
HETATM   10  C   UNL     1     -11.281  11.599  67.703  1.00  0.00    -0.345 C  
HETATM   11  O   UNL     1      -9.121  10.805  68.262  1.00  0.00    -0.145 OA 
HETATM   12  O   UNL     1      -8.190   9.702  68.513  1.00  0.00    -0.103 OA 
HETATM   13  C   UNL     1      -8.832   8.526  69.066  1.00  0.00    -0.145 C  
HETATM   14  C   UNL     1     -10.054   8.905  69.946  1.00  0.00    -0.195 C  
HETATM   15  O   UNL     1      -9.667   9.394  71.241  1.00  0.00    -0.262 OA 
HETATM   16  O   UNL     1     -10.964   9.819  69.296  1.00  0.00    -0.228 OA 
HETATM   17  C   UNL     1      -8.853   8.486  72.003  1.00  0.00    -0.216 C  
HETATM   18  C   UNL     1      -8.261   7.284  71.216  1.00  0.00    -0.106 C  
HETATM   19  C   UNL     1      -7.208   6.519  72.028  1.00  0.00    -0.086 C  
ENDROOT
BRANCH  17  20
HETATM   20  O   UNL     1      -9.449   8.097  73.267  1.00  0.00    -0.270 OA 
BRANCH  20  21
HETATM   21  C   UNL     1     -10.563   7.328  73.251  1.00  0.00    -0.382 C  
HETATM   22  O   UNL     1     -11.630   7.640  72.735  1.00  0.00    -0.337 OA 
BRANCH  21  23
HETATM   23  C   UNL     1     -10.326   5.997  73.921  1.00  0.00    -0.293 C  
BRANCH  23  24
HETATM   24  C   UNL     1     -10.991   4.842  73.202  1.00  0.00    -0.376 C  
HETATM   25  C   UNL     1     -10.064   4.221  72.186  1.00  0.00    -0.185 C  
HETATM   26  O   UNL     1      -9.191   3.418  72.472  1.00  0.00    -0.097 OA 
HETATM   27  O   UNL     1     -10.279   4.646  70.925  1.00  0.00    -0.211 OA 
ENDBRANCH  23  24
ENDBRANCH  21  23
ENDBRANCH  20  21
ENDBRANCH  17  20
TORSDOF 4
ENDMDL
MODEL      109
REMARK 921   NORMALIZED FREE ENERGY PREDICTED BY IDOCK:   -4.52 KCAL/MOL
REMARK 922        TOTAL FREE ENERGY PREDICTED BY IDOCK:   -6.29 KCAL/MOL
REMARK 923 INTER-LIGAND FREE ENERGY PREDICTED BY IDOCK:   -5.75 KCAL/MOL
REMARK 924 INTRA-LIGAND FREE ENERGY PREDICTED BY IDOCK:   -0.54 KCAL/MOL
REMARK 927      BINDING AFFINITY PREDICTED BY RF-SCORE:    0.00 PKD
ROOT
HETATM    1  C   UNL     1     -11.262  10.048  69.643  1.00  0.00    -0.285 C  
HETATM    2  C   UNL     1     -11.849  11.320  70.311  1.00  0.00    -0.446 C  
HETATM    3  C   UNL     1     -12.148  12.442  69.314  1.00  0.00    -0.218 C  
HETATM    4  C   UNL     1     -10.944  12.803  68.420  1.00  0.00    -0.281 C  
HETATM    5  C   UNL     1     -10.569  14.279  68.510  1.00  0.00    -0.260 C  
HETATM    6  C   UNL     1      -9.758  11.839  68.703  1.00  0.00    -0.135 C  
HETATM    7  C   UNL     1      -8.498  12.161  67.914  1.00  0.00    -0.163 C  
HETATM    8  C   UNL     1      -8.667  11.825  66.452  1.00  0.00    -0.147 C  
HETATM    9  C   UNL     1      -8.928  10.317  66.210  1.00  0.00    -0.153 C  
HETATM   10  C   UNL     1      -8.301  10.010  64.838  1.00  0.00    -0.160 C  
HETATM   11  O   UNL     1     -10.314  10.004  66.085  1.00  0.00    -0.224 OA 
HETATM   12  O   UNL     1     -11.072  10.349  67.291  1.00  0.00    -0.278 OA 
HETATM   13  C   UNL     1     -10.258  10.377  68.490  1.00  0.00    -0.173 C  
HETATM   14  C   UNL     1      -9.089   9.358  68.408  1.00  0.00    -0.128 C  
HETATM   15  O   UNL     1      -9.521   8.008  68.644  1.00  0.00    -0.146 OA 
HETATM   16  O   UNL     1      -8.331   9.455  67.183  1.00  0.00    -0.122 OA 
HETATM   17  C   UNL     1     -10.182   7.803  69.904  1.00  0.00    -0.213 C  
HETATM   18  C   UNL     1     -10.608   9.092  70.661  1.00  0.00    -0.305 C  
HETATM   19  C   UNL     1     -11.526   8.789  71.853  1.00  0.00    -0.428 C  
ENDROOT
BRANCH  17  20
HETATM   20  O   UNL     1      -9.515   6.839  70.757  1.00  0.00    -0.165 OA 
BRANCH  20  21
HETATM   21  C   UNL     1      -9.768   5.522  70.571  1.00  0.00    -0.183 C  
HETATM   22  O   UNL     1     -10.657   5.066  69.863  1.00  0.00    -0.237 OA 
BRANCH  21  23
HETATM   23  C   UNL     1      -8.782   4.658  71.320  1.00  0.00    -0.139 C  
BRANCH  23  24
HETATM   24  C   UNL     1      -8.936   4.748  72.824  1.00  0.00    -0.127 C  
HETATM   25  C   UNL     1     -10.327   4.357  73.259  1.00  0.00    -0.173 C  
HETATM   26  O   UNL     1     -10.694   3.201  73.385  1.00  0.00    -0.170 OA 
HETATM   27  O   UNL     1     -11.139   5.409  73.484  1.00  0.00    -0.295 OA 
ENDBRANCH  23  24
ENDBRANCH  21  23
ENDBRANCH  20  21
ENDBRANCH  17  20
TORSDOF 4
ENDMDL
MODEL      110
REMARK 921   NORMALIZED FREE ENERGY PREDICTED BY IDOCK:   -4.49 KCAL/MOL
REMARK 922        TOTAL FREE ENERGY PREDICTED BY IDOCK:   -6.26 KCAL/MOL
REMARK 923 INTER-LIGAND FREE ENERGY PREDICTED BY IDOCK:   -5.81 KCAL/MOL
REMARK 924 INTRA-LIGAND FREE ENERGY PREDICTED BY IDOCK:   -0.45 KCAL/MOL
REMARK 927      BINDING AFFINITY PREDICTED BY RF-SCORE:    0.00 PKD
ROOT
HETATM    1  C   UNL     1     -10.028   6.228  68.580  1.00  0.00    -0.163 C  
HETATM    2  C   UNL     1      -9.123   5.016  68.924  1.00  0.00    -0.142 C  
HETATM    3  C   UNL     1      -9.551   4.286  70.200  1.00  0.00    -0.269 C  
HETATM    4  C   UNL     1      -9.696   5.221  71.418  1.00  0.00    -0.219 C  
HETATM    5  C   UNL     1      -8.833   4.784  72.598  1.00  0.00    -0.119 C  
HETATM    6  C   UNL     1      -9.469   6.698  70.992  1.00  0.00    -0.168 C  
HETATM    7  C   UNL     1      -9.525   7.689  72.144  1.00  0.00    -0.201 C  
HETATM    8  C   UNL     1     -10.937   7.857  72.653  1.00  0.00    -0.440 C  
HETATM    9  C   UNL     1     -11.899   8.422  71.578  1.00  0.00    -0.297 C  
HETATM   10  C   UNL     1     -12.940   9.247  72.357  1.00  0.00    -0.450 C  
HETATM   11  O   UNL     1     -12.634   7.406  70.899  1.00  0.00    -0.257 OA 
HETATM   12  O   UNL     1     -11.760   6.466  70.193  1.00  0.00    -0.422 OA 
HETATM   13  C   UNL     1     -10.472   7.033  69.845  1.00  0.00    -0.217 C  
HETATM   14  C   UNL     1     -10.576   8.559  69.576  1.00  0.00    -0.211 C  
HETATM   15  O   UNL     1     -11.136   8.851  68.286  1.00  0.00     0.044 OA 
HETATM   16  O   UNL     1     -11.270   9.276  70.619  1.00  0.00    -0.248 OA 
HETATM   17  C   UNL     1     -10.427   8.267  67.180  1.00  0.00    -0.316 C  
HETATM   18  C   UNL     1      -9.383   7.176  67.547  1.00  0.00    -0.137 C  
HETATM   19  C   UNL     1      -8.865   6.428  66.311  1.00  0.00    -0.152 C  
ENDROOT
BRANCH  17  20
HETATM   20  O   UNL     1      -9.917   9.245  66.239  1.00  0.00    -0.269 OA 
BRANCH  20  21
HETATM   21  C   UNL     1     -10.202  10.553  66.442  1.00  0.00    -0.237 C  
HETATM   22  O   UNL     1     -11.328  11.034  66.481  1.00  0.00    -0.235 OA 
BRANCH  21  23
HETATM   23  C   UNL     1      -8.948  11.365  66.657  1.00  0.00    -0.183 C  
BRANCH  23  24
HETATM   24  C   UNL     1      -7.743  10.519  67.007  1.00  0.00    -0.110 C  
HETATM   25  C   UNL     1      -6.464  11.155  66.519  1.00  0.00    -0.129 C  
HETATM   26  O   UNL     1      -5.889  12.052  67.113  1.00  0.00    -0.131 OA 
HETATM   27  O   UNL     1      -6.018  10.649  65.352  1.00  0.00    -0.131 OA 
ENDBRANCH  23  24
ENDBRANCH  21  23
ENDBRANCH  20  21
ENDBRANCH  17  20
TORSDOF 4
ENDMDL
MODEL      111
REMARK 921   NORMALIZED FREE ENERGY PREDICTED BY IDOCK:   -4.46 KCAL/MOL
REMARK 922        TOTAL FREE ENERGY PREDICTED BY IDOCK:   -6.22 KCAL/MOL
REMARK 923 INTER-LIGAND FREE ENERGY PREDICTED BY IDOCK:   -5.68 KCAL/MOL
REMARK 924 INTRA-LIGAND FREE ENERGY PREDICTED BY IDOCK:   -0.54 KCAL/MOL
REMARK 927      BINDING AFFINITY PREDICTED BY RF-SCORE:    0.00 PKD
ROOT
HETATM    1  C   UNL     1      -7.445  10.528  68.847  1.00  0.00    -0.104 C  
HETATM    2  C   UNL     1      -6.510  10.723  70.070  1.00  0.00    -0.151 C  
HETATM    3  C   UNL     1      -6.140   9.410  70.762  1.00  0.00    -0.067 C  
HETATM    4  C   UNL     1      -7.365   8.554  71.144  1.00  0.00    -0.080 C  
HETATM    5  C   UNL     1      -7.404   8.219  72.631  1.00  0.00    -0.141 C  
HETATM    6  C   UNL     1      -8.668   9.216  70.618  1.00  0.00    -0.272 C  
HETATM    7  C   UNL     1      -9.938   8.476  71.007  1.00  0.00    -0.255 C  
HETATM    8  C   UNL     1     -10.070   7.178  70.247  1.00  0.00    -0.195 C  
HETATM    9  C   UNL     1     -10.170   7.388  68.715  1.00  0.00    -0.191 C  
HETATM   10  C   UNL     1     -11.050   6.233  68.202  1.00  0.00    -0.364 C  
HETATM   11  O   UNL     1      -8.916   7.248  68.050  1.00  0.00    -0.132 OA 
HETATM   12  O   UNL     1      -7.927   8.223  68.519  1.00  0.00    -0.118 OA 
HETATM   13  C   UNL     1      -8.524   9.420  69.078  1.00  0.00    -0.129 C  
HETATM   14  C   UNL     1      -9.878   9.752  68.395  1.00  0.00    -0.152 C  
HETATM   15  O   UNL     1      -9.707  10.352  67.101  1.00  0.00    -0.165 OA 
HETATM   16  O   UNL     1     -10.777   8.625  68.331  1.00  0.00    -0.160 OA 
HETATM   17  C   UNL     1      -8.917  11.554  67.099  1.00  0.00    -0.166 C  
HETATM   18  C   UNL     1      -8.121  11.842  68.402  1.00  0.00    -0.155 C  
HETATM   19  C   UNL     1      -7.115  12.987  68.227  1.00  0.00    -0.103 C  
ENDROOT
BRANCH  17  20
HETATM   20  O   UNL     1      -9.632  12.715  66.604  1.00  0.00    -0.236 OA 
BRANCH  20  21
HETATM   21  C   UNL     1     -10.962  12.609  66.370  1.00  0.00    -0.272 C  
HETATM   22  O   UNL     1     -11.468  12.270  65.308  1.00  0.00    -0.331 OA 
BRANCH  21  23
HETATM   23  C   UNL     1     -11.767  12.925  67.607  1.00  0.00    -0.422 C  
BRANCH  23  24
HETATM   24  C   UNL     1     -11.003  13.751  68.620  1.00  0.00    -0.287 C  
HETATM   25  C   UNL     1     -11.907  14.735  69.321  1.00  0.00    -0.318 C  
HETATM   26  O   UNL     1     -12.635  14.436  70.253  1.00  0.00    -0.345 OA 
HETATM   27  O   UNL     1     -11.850  15.981  68.812  1.00  0.00    -0.375 OA 
ENDBRANCH  23  24
ENDBRANCH  21  23
ENDBRANCH  20  21
ENDBRANCH  17  20
TORSDOF 4
ENDMDL
MODEL      112
REMARK 921   NORMALIZED FREE ENERGY PREDICTED BY IDOCK:   -4.45 KCAL/MOL
REMARK 922        TOTAL FREE ENERGY PREDICTED BY IDOCK:   -6.21 KCAL/MOL
REMARK 923 INTER-LIGAND FREE ENERGY PREDICTED BY IDOCK:   -5.63 KCAL/MOL
REMARK 924 INTRA-LIGAND FREE ENERGY PREDICTED BY IDOCK:   -0.58 KCAL/MOL
REMARK 927      BINDING AFFINITY PREDICTED BY RF-SCORE:    0.00 PKD
ROOT
HETATM    1  C   UNL     1      -7.512  14.230  68.066  1.00  0.00    -0.144 C  
HETATM    2  C   UNL     1      -6.536  15.240  67.405  1.00  0.00    -0.120 C  
HETATM    3  C   UNL     1      -6.744  16.679  67.881  1.00  0.00    -0.155 C  
HETATM    4  C   UNL     1      -8.202  17.163  67.744  1.00  0.00    -0.200 C  
HETATM    5  C   UNL     1      -8.323  18.432  66.906  1.00  0.00    -0.261 C  
HETATM    6  C   UNL     1      -9.109  16.001  67.252  1.00  0.00    -0.217 C  
HETATM    7  C   UNL     1     -10.558  16.403  67.021  1.00  0.00    -0.260 C  
HETATM    8  C   UNL     1     -11.270  16.654  68.329  1.00  0.00    -0.220 C  
HETATM    9  C   UNL     1     -11.332  15.394  69.229  1.00  0.00    -0.315 C  
HETATM   10  C   UNL     1     -12.646  15.524  70.022  1.00  0.00    -0.232 C  
HETATM   11  O   UNL     1     -10.291  15.355  70.204  1.00  0.00    -0.295 OA 
HETATM   12  O   UNL     1      -8.959  15.340  69.593  1.00  0.00    -0.232 OA 
HETATM   13  C   UNL     1      -8.954  14.808  68.244  1.00  0.00    -0.181 C  
HETATM   14  C   UNL     1     -10.057  13.731  68.053  1.00  0.00    -0.245 C  
HETATM   15  O   UNL     1      -9.695  12.467  68.633  1.00  0.00    -0.163 OA 
HETATM   16  O   UNL     1     -11.358  14.159  68.510  1.00  0.00    -0.253 OA 
HETATM   17  C   UNL     1      -8.463  11.914  68.139  1.00  0.00    -0.163 C  
HETATM   18  C   UNL     1      -7.568  12.883  67.317  1.00  0.00    -0.104 C  
HETATM   19  C   UNL     1      -6.173  12.302  67.052  1.00  0.00    -0.052 C  
ENDROOT
BRANCH  17  20
HETATM   20  O   UNL     1      -8.624  10.617  67.508  1.00  0.00    -0.122 OA 
BRANCH  20  21
HETATM   21  C   UNL     1      -9.739  10.383  66.778  1.00  0.00    -0.181 C  
HETATM   22  O   UNL     1      -9.929  10.774  65.632  1.00  0.00    -0.234 OA 
BRANCH  21  23
HETATM   23  C   UNL     1     -10.729   9.534  67.536  1.00  0.00    -0.311 C  
BRANCH  23  24
HETATM   24  C   UNL     1     -10.105   8.301  68.155  1.00  0.00    -0.238 C  
HETATM   25  C   UNL     1     -10.202   7.113  67.230  1.00  0.00    -0.245 C  
HETATM   26  O   UNL     1      -9.436   6.919  66.300  1.00  0.00    -0.155 OA 
HETATM   27  O   UNL     1     -11.226   6.286  67.515  1.00  0.00    -0.328 OA 
ENDBRANCH  23  24
ENDBRANCH  21  23
ENDBRANCH  20  21
ENDBRANCH  17  20
TORSDOF 4
ENDMDL
MODEL      113
REMARK 921   NORMALIZED FREE ENERGY PREDICTED BY IDOCK:   -4.43 KCAL/MOL
REMARK 922        TOTAL FREE ENERGY PREDICTED BY IDOCK:   -6.19 KCAL/MOL
REMARK 923 INTER-LIGAND FREE ENERGY PREDICTED BY IDOCK:   -5.61 KCAL/MOL
REMARK 924 INTRA-LIGAND FREE ENERGY PREDICTED BY IDOCK:   -0.58 KCAL/MOL
REMARK 927      BINDING AFFINITY PREDICTED BY RF-SCORE:    0.00 PKD
ROOT
HETATM    1  C   UNL     1     -10.436   7.226  69.728  1.00  0.00    -0.236 C  
HETATM    2  C   UNL     1     -11.618   6.357  70.235  1.00  0.00    -0.451 C  
HETATM    3  C   UNL     1     -11.827   6.447  71.748  1.00  0.00    -0.374 C  
HETATM    4  C   UNL     1     -10.549   6.154  72.560  1.00  0.00    -0.244 C  
HETATM    5  C   UNL     1     -10.739   5.019  73.562  1.00  0.00    -0.339 C  
HETATM    6  C   UNL     1      -9.341   5.947  71.604  1.00  0.00    -0.162 C  
HETATM    7  C   UNL     1      -8.046   5.584  72.314  1.00  0.00    -0.108 C  
HETATM    8  C   UNL     1      -7.486   6.766  73.068  1.00  0.00    -0.086 C  
HETATM    9  C   UNL     1      -7.126   7.954  72.141  1.00  0.00    -0.076 C  
HETATM   10  C   UNL     1      -5.933   8.653  72.817  1.00  0.00    -0.080 C  
HETATM   11  O   UNL     1      -8.161   8.934  72.065  1.00  0.00    -0.355 OA 
HETATM   12  O   UNL     1      -9.411   8.383  71.535  1.00  0.00    -0.162 OA 
HETATM   13  C   UNL     1      -9.212   7.213  70.702  1.00  0.00    -0.158 C  
HETATM   14  C   UNL     1      -7.853   7.272  69.954  1.00  0.00    -0.112 C  
HETATM   15  O   UNL     1      -7.885   8.162  68.826  1.00  0.00    -0.109 OA 
HETATM   16  O   UNL     1      -6.737   7.570  70.820  1.00  0.00    -0.043 OA 
HETATM   17  C   UNL     1      -8.899   7.857  67.853  1.00  0.00    -0.123 C  
HETATM   18  C   UNL     1      -9.985   6.840  68.304  1.00  0.00    -0.153 C  
HETATM   19  C   UNL     1     -11.158   6.768  67.318  1.00  0.00    -0.394 C  
ENDROOT
BRANCH  17  20
HETATM   20  O   UNL     1      -8.367   7.570  66.534  1.00  0.00    -0.117 OA 
BRANCH  20  21
HETATM   21  C   UNL     1      -8.513   8.498  65.559  1.00  0.00    -0.167 C  
HETATM   22  O   UNL     1      -8.050   8.413  64.428  1.00  0.00    -0.151 OA 
BRANCH  21  23
HETATM   23  C   UNL     1      -9.363   9.656  66.020  1.00  0.00    -0.263 C  
BRANCH  23  24
HETATM   24  C   UNL     1      -9.792  10.567  64.890  1.00  0.00    -0.379 C  
HETATM   25  C   UNL     1     -10.264  11.903  65.409  1.00  0.00    -0.263 C  
HETATM   26  O   UNL     1      -9.509  12.808  65.726  1.00  0.00    -0.154 OA 
HETATM   27  O   UNL     1     -11.605  12.004  65.506  1.00  0.00    -0.350 OA 
ENDBRANCH  23  24
ENDBRANCH  21  23
ENDBRANCH  20  21
ENDBRANCH  17  20
TORSDOF 4
ENDMDL
MODEL      114
REMARK 921   NORMALIZED FREE ENERGY PREDICTED BY IDOCK:   -4.43 KCAL/MOL
REMARK 922        TOTAL FREE ENERGY PREDICTED BY IDOCK:   -6.19 KCAL/MOL
REMARK 923 INTER-LIGAND FREE ENERGY PREDICTED BY IDOCK:   -5.82 KCAL/MOL
REMARK 924 INTRA-LIGAND FREE ENERGY PREDICTED BY IDOCK:   -0.37 KCAL/MOL
REMARK 927      BINDING AFFINITY PREDICTED BY RF-SCORE:    0.00 PKD
ROOT
HETATM    1  C   UNL     1      -7.790  13.131  67.444  1.00  0.00    -0.169 C  
HETATM    2  C   UNL     1      -6.896  11.963  67.938  1.00  0.00    -0.083 C  
HETATM    3  C   UNL     1      -7.015  10.706  67.075  1.00  0.00    -0.095 C  
HETATM    4  C   UNL     1      -8.470  10.232  66.882  1.00  0.00    -0.126 C  
HETATM    5  C   UNL     1      -8.681   8.789  67.330  1.00  0.00    -0.133 C  
HETATM    6  C   UNL     1      -9.454  11.240  67.540  1.00  0.00    -0.177 C  
HETATM    7  C   UNL     1     -10.913  10.821  67.460  1.00  0.00    -0.372 C  
HETATM    8  C   UNL     1     -11.440  10.939  66.049  1.00  0.00     0.535 C  
HETATM    9  C   UNL     1     -11.401  12.393  65.515  1.00  0.00    -0.346 C  
HETATM   10  C   UNL     1     -12.594  12.504  64.549  1.00  0.00    -0.503 C  
HETATM   11  O   UNL     1     -10.239  12.669  64.734  1.00  0.00    -0.302 OA 
HETATM   12  O   UNL     1      -9.002  12.495  65.499  1.00  0.00     0.280 OA 
HETATM   13  C   UNL     1      -9.186  12.650  66.929  1.00  0.00    -0.216 C  
HETATM   14  C   UNL     1     -10.321  13.660  67.249  1.00  0.00    -0.249 C  
HETATM   15  O   UNL     1      -9.906  15.025  67.079  1.00  0.00    -0.232 OA 
HETATM   16  O   UNL     1     -11.543  13.394  66.526  1.00  0.00    -0.327 OA 
HETATM   17  C   UNL     1      -8.761  15.402  67.862  1.00  0.00    -0.160 C  
HETATM   18  C   UNL     1      -7.968  14.233  68.510  1.00  0.00    -0.145 C  
HETATM   19  C   UNL     1      -6.631  14.695  69.102  1.00  0.00    -0.112 C  
ENDROOT
BRANCH  17  20
HETATM   20  O   UNL     1      -9.025  16.489  68.786  1.00  0.00    -0.232 OA 
BRANCH  20  21
HETATM   21  C   UNL     1     -10.309  16.861  69.002  1.00  0.00    -0.333 C  
HETATM   22  O   UNL     1     -10.970  16.580  69.994  1.00  0.00    -0.350 OA 
BRANCH  21  23
HETATM   23  C   UNL     1     -10.833  17.715  67.873  1.00  0.00    -0.245 C  
BRANCH  23  24
HETATM   24  C   UNL     1     -10.049  18.995  67.681  1.00  0.00    -0.448 C  
HETATM   25  C   UNL     1      -9.728  19.230  66.225  1.00  0.00    -0.374 C  
HETATM   26  O   UNL     1     -10.520  19.706  65.429  1.00  0.00    -0.427 OA 
HETATM   27  O   UNL     1      -8.482  18.850  65.876  1.00  0.00    -0.474 OA 
ENDBRANCH  23  24
ENDBRANCH  21  23
ENDBRANCH  20  21
ENDBRANCH  17  20
TORSDOF 4
ENDMDL
MODEL      115
REMARK 921   NORMALIZED FREE ENERGY PREDICTED BY IDOCK:   -4.42 KCAL/MOL
REMARK 922        TOTAL FREE ENERGY PREDICTED BY IDOCK:   -6.17 KCAL/MOL
REMARK 923 INTER-LIGAND FREE ENERGY PREDICTED BY IDOCK:   -5.57 KCAL/MOL
REMARK 924 INTRA-LIGAND FREE ENERGY PREDICTED BY IDOCK:   -0.60 KCAL/MOL
REMARK 927      BINDING AFFINITY PREDICTED BY RF-SCORE:    0.00 PKD
ROOT
HETATM    1  C   UNL     1     -10.085   8.427  68.683  1.00  0.00    -0.210 C  
HETATM    2  C   UNL     1     -10.590   9.812  68.199  1.00  0.00    -0.276 C  
HETATM    3  C   UNL     1     -10.602  10.870  69.303  1.00  0.00    -0.251 C  
HETATM    4  C   UNL     1     -11.364  10.425  70.568  1.00  0.00    -0.424 C  
HETATM    5  C   UNL     1     -12.483  11.390  70.948  1.00  0.00    -0.478 C  
HETATM    6  C   UNL     1     -11.834   8.951  70.420  1.00  0.00     0.010 C  
HETATM    7  C   UNL     1     -12.657   8.444  71.595  1.00  0.00    -0.362 C  
HETATM    8  C   UNL     1     -11.797   8.243  72.819  1.00  0.00    -0.273 C  
HETATM    9  C   UNL     1     -10.689   7.181  72.606  1.00  0.00    -0.268 C  
HETATM   10  C   UNL     1     -10.474   6.534  73.986  1.00  0.00    -0.306 C  
HETATM   11  O   UNL     1      -9.432   7.753  72.243  1.00  0.00    -0.150 OA 
HETATM   12  O   UNL     1      -9.506   8.505  70.988  1.00  0.00    -0.161 OA 
HETATM   13  C   UNL     1     -10.583   8.069  70.122  1.00  0.00    -0.237 C  
HETATM   14  C   UNL     1     -10.873   6.553  70.294  1.00  0.00    -0.279 C  
HETATM   15  O   UNL     1      -9.902   5.730  69.626  1.00  0.00    -0.158 OA 
HETATM   16  O   UNL     1     -11.032   6.155  71.672  1.00  0.00    -0.248 OA 
HETATM   17  C   UNL     1      -9.769   5.985  68.218  1.00  0.00    -0.124 C  
HETATM   18  C   UNL     1     -10.438   7.290  67.701  1.00  0.00    -0.310 C  
HETATM   19  C   UNL     1     -10.034   7.618  66.258  1.00  0.00    -0.021 C  
ENDROOT
BRANCH  17  20
HETATM   20  O   UNL     1     -10.065   4.831  67.390  1.00  0.00    -0.174 OA 
BRANCH  20  21
HETATM   21  C   UNL     1      -9.035   4.130  66.861  1.00  0.00    -0.127 C  
HETATM   22  O   UNL     1      -7.898   4.092  67.316  1.00  0.00    -0.090 OA 
BRANCH  21  23
HETATM   23  C   UNL     1      -9.465   3.350  65.643  1.00  0.00    -0.119 C  
BRANCH  23  24
HETATM   24  C   UNL     1     -10.768   3.843  65.050  1.00  0.00     0.033 C  
HETATM   25  C   UNL     1     -10.968   3.319  63.649  1.00  0.00    -0.081 C  
HETATM   26  O   UNL     1     -11.387   2.200  63.401  1.00  0.00    -0.308 OA 
HETATM   27  O   UNL     1     -10.626   4.199  62.688  1.00  0.00    -0.181 OA 
ENDBRANCH  23  24
ENDBRANCH  21  23
ENDBRANCH  20  21
ENDBRANCH  17  20
TORSDOF 4
ENDMDL
MODEL      116
REMARK 921   NORMALIZED FREE ENERGY PREDICTED BY IDOCK:   -4.41 KCAL/MOL
REMARK 922        TOTAL FREE ENERGY PREDICTED BY IDOCK:   -6.16 KCAL/MOL
REMARK 923 INTER-LIGAND FREE ENERGY PREDICTED BY IDOCK:   -5.49 KCAL/MOL
REMARK 924 INTRA-LIGAND FREE ENERGY PREDICTED BY IDOCK:   -0.67 KCAL/MOL
REMARK 927      BINDING AFFINITY PREDICTED BY RF-SCORE:    0.00 PKD
ROOT
HETATM    1  C   UNL     1      -9.098   9.623  68.185  1.00  0.00    -0.123 C  
HETATM    2  C   UNL     1      -9.033  10.190  69.628  1.00  0.00    -0.190 C  
HETATM    3  C   UNL     1      -8.501   9.181  70.649  1.00  0.00    -0.246 C  
HETATM    4  C   UNL     1      -9.253   7.835  70.626  1.00  0.00    -0.161 C  
HETATM    5  C   UNL     1      -9.833   7.464  71.987  1.00  0.00    -0.191 C  
HETATM    6  C   UNL     1     -10.300   7.824  69.477  1.00  0.00    -0.219 C  
HETATM    7  C   UNL     1     -11.140   6.557  69.419  1.00  0.00    -0.407 C  
HETATM    8  C   UNL     1     -10.324   5.381  68.939  1.00  0.00    -0.260 C  
HETATM    9  C   UNL     1      -9.778   5.577  67.502  1.00  0.00    -0.128 C  
HETATM   10  C   UNL     1      -9.716   4.164  66.894  1.00  0.00    -0.232 C  
HETATM   11  O   UNL     1      -8.439   6.071  67.478  1.00  0.00    -0.108 OA 
HETATM   12  O   UNL     1      -8.318   7.378  68.130  1.00  0.00    -0.123 OA 
HETATM   13  C   UNL     1      -9.558   8.129  68.140  1.00  0.00    -0.149 C  
HETATM   14  C   UNL     1     -10.427   7.809  66.894  1.00  0.00    -0.317 C  
HETATM   15  O   UNL     1      -9.951   8.468  65.708  1.00  0.00    -0.004 OA 
HETATM   16  O   UNL     1     -10.602   6.394  66.667  1.00  0.00    -0.231 OA 
HETATM   17  C   UNL     1      -9.862   9.899  65.815  1.00  0.00    -0.287 C  
HETATM   18  C   UNL     1      -9.981  10.479  67.252  1.00  0.00    -0.224 C  
HETATM   19  C   UNL     1      -9.619  11.969  67.309  1.00  0.00    -0.185 C  
ENDROOT
BRANCH  17  20
HETATM   20  O   UNL     1     -10.685  10.603  64.850  1.00  0.00    -0.217 OA 
BRANCH  20  21
HETATM   21  C   UNL     1     -10.088  11.155  63.767  1.00  0.00    -0.361 C  
HETATM   22  O   UNL     1     -10.102  12.346  63.483  1.00  0.00    -0.393 OA 
BRANCH  21  23
HETATM   23  C   UNL     1      -9.354  10.118  62.951  1.00  0.00    -0.320 C  
BRANCH  23  24
HETATM   24  C   UNL     1      -7.873  10.402  62.823  1.00  0.00    -0.153 C  
HETATM   25  C   UNL     1      -7.047   9.206  63.227  1.00  0.00    -0.088 C  
HETATM   26  O   UNL     1      -6.833   8.255  62.493  1.00  0.00    -0.090 OA 
HETATM   27  O   UNL     1      -6.574   9.275  64.487  1.00  0.00    -0.078 OA 
ENDBRANCH  23  24
ENDBRANCH  21  23
ENDBRANCH  20  21
ENDBRANCH  17  20
TORSDOF 4
ENDMDL
MODEL      117
REMARK 921   NORMALIZED FREE ENERGY PREDICTED BY IDOCK:   -4.37 KCAL/MOL
REMARK 922        TOTAL FREE ENERGY PREDICTED BY IDOCK:   -6.11 KCAL/MOL
REMARK 923 INTER-LIGAND FREE ENERGY PREDICTED BY IDOCK:   -5.24 KCAL/MOL
REMARK 924 INTRA-LIGAND FREE ENERGY PREDICTED BY IDOCK:   -0.87 KCAL/MOL
REMARK 927      BINDING AFFINITY PREDICTED BY RF-SCORE:    0.00 PKD
ROOT
HETATM    1  C   UNL     1      -9.310  10.292  67.023  1.00  0.00    -0.177 C  
HETATM    2  C   UNL     1      -9.642  11.703  66.468  1.00  0.00    -0.226 C  
HETATM    3  C   UNL     1      -9.741  12.772  67.558  1.00  0.00    -0.201 C  
HETATM    4  C   UNL     1     -10.710  12.394  68.698  1.00  0.00    -0.260 C  
HETATM    5  C   UNL     1     -11.802  13.438  68.908  1.00  0.00    -0.373 C  
HETATM    6  C   UNL     1     -11.254  10.954  68.485  1.00  0.00    -0.335 C  
HETATM    7  C   UNL     1     -12.272  10.518  69.526  1.00  0.00    -0.154 C  
HETATM    8  C   UNL     1     -11.616  10.273  70.864  1.00  0.00    -0.454 C  
HETATM    9  C   UNL     1     -10.565   9.135  70.817  1.00  0.00    -0.260 C  
HETATM   10  C   UNL     1     -10.600   8.490  72.214  1.00  0.00    -0.408 C  
HETATM   11  O   UNL     1      -9.233   9.615  70.641  1.00  0.00    -0.229 OA 
HETATM   12  O   UNL     1      -9.070  10.357  69.388  1.00  0.00    -0.196 OA 
HETATM   13  C   UNL     1     -10.036   9.986  68.374  1.00  0.00    -0.165 C  
HETATM   14  C   UNL     1     -10.452   8.495  68.503  1.00  0.00    -0.167 C  
HETATM   15  O   UNL     1      -9.454   7.600  67.986  1.00  0.00    -0.142 OA 
HETATM   16  O   UNL     1     -10.838   8.124  69.844  1.00  0.00    -0.247 OA 
HETATM   17  C   UNL     1      -9.099   7.830  66.612  1.00  0.00    -0.161 C  
HETATM   18  C   UNL     1      -9.594   9.172  66.001  1.00  0.00    -0.342 C  
HETATM   19  C   UNL     1      -8.961   9.455  64.632  1.00  0.00    -0.233 C  
ENDROOT
BRANCH  17  20
HETATM   20  O   UNL     1      -9.350   6.690  65.751  1.00  0.00    -0.001 OA 
BRANCH  20  21
HETATM   21  C   UNL     1      -8.346   5.809  65.530  1.00  0.00    -0.140 C  
HETATM   22  O   UNL     1      -8.477   4.698  65.030  1.00  0.00    -0.122 OA 
BRANCH  21  23
HETATM   23  C   UNL     1      -7.010   6.378  65.943  1.00  0.00    -0.061 C  
BRANCH  23  24
HETATM   24  C   UNL     1      -5.953   6.254  64.867  1.00  0.00    -0.026 C  
HETATM   25  C   UNL     1      -6.060   7.373  63.859  1.00  0.00    -0.048 C  
HETATM   26  O   UNL     1      -5.608   8.491  64.043  1.00  0.00    -0.062 OA 
HETATM   27  O   UNL     1      -6.718   7.028  62.734  1.00  0.00    -0.050 OA 
ENDBRANCH  23  24
ENDBRANCH  21  23
ENDBRANCH  20  21
ENDBRANCH  17  20
TORSDOF 4
ENDMDL
MODEL      118
REMARK 921   NORMALIZED FREE ENERGY PREDICTED BY IDOCK:   -4.36 KCAL/MOL
REMARK 922        TOTAL FREE ENERGY PREDICTED BY IDOCK:   -6.10 KCAL/MOL
REMARK 923 INTER-LIGAND FREE ENERGY PREDICTED BY IDOCK:   -5.41 KCAL/MOL
REMARK 924 INTRA-LIGAND FREE ENERGY PREDICTED BY IDOCK:   -0.69 KCAL/MOL
REMARK 927      BINDING AFFINITY PREDICTED BY RF-SCORE:    0.00 PKD
ROOT
HETATM    1  C   UNL     1     -10.268   8.695  71.178  1.00  0.00    -0.294 C  
HETATM    2  C   UNL     1     -11.324   8.478  72.294  1.00  0.00    -0.441 C  
HETATM    3  C   UNL     1     -10.898   7.440  73.334  1.00  0.00    -0.362 C  
HETATM    4  C   UNL     1     -10.477   6.091  72.714  1.00  0.00    -0.243 C  
HETATM    5  C   UNL     1     -11.278   4.917  73.267  1.00  0.00    -0.423 C  
HETATM    6  C   UNL     1     -10.495   6.185  71.163  1.00  0.00    -0.281 C  
HETATM    7  C   UNL     1     -10.158   4.878  70.462  1.00  0.00    -0.312 C  
HETATM    8  C   UNL     1      -8.694   4.539  70.611  1.00  0.00    -0.127 C  
HETATM    9  C   UNL     1      -7.764   5.600  69.970  1.00  0.00    -0.083 C  
HETATM   10  C   UNL     1      -6.527   4.821  69.490  1.00  0.00    -0.035 C  
HETATM   11  O   UNL     1      -7.282   6.558  70.911  1.00  0.00    -0.068 OA 
HETATM   12  O   UNL     1      -8.368   7.312  71.542  1.00  0.00    -0.108 OA 
HETATM   13  C   UNL     1      -9.571   7.366  70.736  1.00  0.00    -0.170 C  
HETATM   14  C   UNL     1      -9.241   7.341  69.219  1.00  0.00    -0.144 C  
HETATM   15  O   UNL     1      -8.772   8.612  68.738  1.00  0.00    -0.133 OA 
HETATM   16  O   UNL     1      -8.335   6.279  68.849  1.00  0.00    -0.118 OA 
HETATM   17  C   UNL     1      -9.677   9.706  68.963  1.00  0.00    -0.169 C  
HETATM   18  C   UNL     1     -10.847   9.425  69.948  1.00  0.00    -0.259 C  
HETATM   19  C   UNL     1     -11.604  10.704  70.330  1.00  0.00    -0.441 C  
ENDROOT
BRANCH  17  20
HETATM   20  O   UNL     1     -10.109  10.360  67.743  1.00  0.00    -0.170 OA 
BRANCH  20  21
HETATM   21  C   UNL     1     -10.329   9.603  66.642  1.00  0.00    -0.208 C  
HETATM   22  O   UNL     1     -11.015   8.588  66.608  1.00  0.00     0.072 OA 
BRANCH  21  23
HETATM   23  C   UNL     1      -9.651  10.184  65.426  1.00  0.00    -0.325 C  
BRANCH  23  24
HETATM   24  C   UNL     1      -8.214   9.733  65.273  1.00  0.00    -0.137 C  
HETATM   25  C   UNL     1      -8.123   8.440  64.500  1.00  0.00    -0.152 C  
HETATM   26  O   UNL     1      -8.173   8.378  63.283  1.00  0.00    -0.166 OA 
HETATM   27  O   UNL     1      -7.994   7.350  65.281  1.00  0.00    -0.113 OA 
ENDBRANCH  23  24
ENDBRANCH  21  23
ENDBRANCH  20  21
ENDBRANCH  17  20
TORSDOF 4
ENDMDL
MODEL      119
REMARK 921   NORMALIZED FREE ENERGY PREDICTED BY IDOCK:   -4.35 KCAL/MOL
REMARK 922        TOTAL FREE ENERGY PREDICTED BY IDOCK:   -6.09 KCAL/MOL
REMARK 923 INTER-LIGAND FREE ENERGY PREDICTED BY IDOCK:   -5.42 KCAL/MOL
REMARK 924 INTRA-LIGAND FREE ENERGY PREDICTED BY IDOCK:   -0.67 KCAL/MOL
REMARK 927      BINDING AFFINITY PREDICTED BY RF-SCORE:    0.00 PKD
ROOT
HETATM    1  C   UNL     1      -7.236  14.044  68.200  1.00  0.00    -0.129 C  
HETATM    2  C   UNL     1      -6.073  14.973  67.761  1.00  0.00    -0.154 C  
HETATM    3  C   UNL     1      -6.147  16.368  68.385  1.00  0.00    -0.119 C  
HETATM    4  C   UNL     1      -7.508  17.062  68.170  1.00  0.00    -0.195 C  
HETATM    5  C   UNL     1      -7.373  18.418  67.484  1.00  0.00    -0.219 C  
HETATM    6  C   UNL     1      -8.496  16.097  67.457  1.00  0.00    -0.177 C  
HETATM    7  C   UNL     1      -9.847  16.719  67.141  1.00  0.00    -0.259 C  
HETATM    8  C   UNL     1     -10.662  16.925  68.396  1.00  0.00    -0.368 C  
HETATM    9  C   UNL     1     -10.982  15.597  69.128  1.00  0.00    -0.259 C  
HETATM   10  C   UNL     1     -12.347  15.823  69.802  1.00  0.00    -0.161 C  
HETATM   11  O   UNL     1     -10.067  15.309  70.184  1.00  0.00    -0.238 OA 
HETATM   12  O   UNL     1      -8.689  15.175  69.705  1.00  0.00    -0.189 OA 
HETATM   13  C   UNL     1      -8.604  14.795  68.309  1.00  0.00    -0.164 C  
HETATM   14  C   UNL     1      -9.807  13.908  67.886  1.00  0.00    -0.228 C  
HETATM   15  O   UNL     1      -9.675  12.552  68.340  1.00  0.00    -0.221 OA 
HETATM   16  O   UNL     1     -11.085  14.462  68.265  1.00  0.00    -0.244 OA 
HETATM   17  C   UNL     1      -8.477  11.889  67.902  1.00  0.00    -0.154 C  
HETATM   18  C   UNL     1      -7.381  12.806  67.291  1.00  0.00    -0.095 C  
HETATM   19  C   UNL     1      -6.050  12.068  67.092  1.00  0.00    -0.155 C  
ENDROOT
BRANCH  17  20
HETATM   20  O   UNL     1      -8.730  10.702  67.107  1.00  0.00    -0.130 OA 
BRANCH  20  21
HETATM   21  C   UNL     1     -10.013  10.360  66.841  1.00  0.00    -0.206 C  
HETATM   22  O   UNL     1     -10.741   9.715  67.585  1.00  0.00    -0.267 OA 
BRANCH  21  23
HETATM   23  C   UNL     1     -10.467  10.908  65.510  1.00  0.00    -0.286 C  
BRANCH  23  24
HETATM   24  C   UNL     1      -9.318  11.288  64.600  1.00  0.00    -0.156 C  
HETATM   25  C   UNL     1      -9.107  10.253  63.521  1.00  0.00    -0.264 C  
HETATM   26  O   UNL     1      -9.774  10.198  62.501  1.00  0.00    -0.248 OA 
HETATM   27  O   UNL     1      -8.117   9.380  63.794  1.00  0.00    -0.136 OA 
ENDBRANCH  23  24
ENDBRANCH  21  23
ENDBRANCH  20  21
ENDBRANCH  17  20
TORSDOF 4
ENDMDL
MODEL      120
REMARK 921   NORMALIZED FREE ENERGY PREDICTED BY IDOCK:   -4.33 KCAL/MOL
REMARK 922        TOTAL FREE ENERGY PREDICTED BY IDOCK:   -6.07 KCAL/MOL
REMARK 923 INTER-LIGAND FREE ENERGY PREDICTED BY IDOCK:   -5.54 KCAL/MOL
REMARK 924 INTRA-LIGAND FREE ENERGY PREDICTED BY IDOCK:   -0.52 KCAL/MOL
REMARK 927      BINDING AFFINITY PREDICTED BY RF-SCORE:    0.00 PKD
ROOT
HETATM    1  C   UNL     1      -9.025   6.325  68.505  1.00  0.00    -0.123 C  
HETATM    2  C   UNL     1      -8.159   5.048  68.673  1.00  0.00    -0.085 C  
HETATM    3  C   UNL     1      -8.903   3.901  69.359  1.00  0.00    -0.148 C  
HETATM    4  C   UNL     1      -9.544   4.305  70.703  1.00  0.00    -0.260 C  
HETATM    5  C   UNL     1      -9.078   3.429  71.861  1.00  0.00    -0.164 C  
HETATM    6  C   UNL     1      -9.350   5.826  70.954  1.00  0.00    -0.185 C  
HETATM    7  C   UNL     1      -9.892   6.306  72.292  1.00  0.00    -0.175 C  
HETATM    8  C   UNL     1     -11.402   6.306  72.302  1.00  0.00    -0.337 C  
HETATM    9  C   UNL     1     -12.009   7.265  71.247  1.00  0.00    -0.324 C  
HETATM   10  C   UNL     1     -13.332   7.759  71.859  1.00  0.00    -0.308 C  
HETATM   11  O   UNL     1     -12.363   6.604  70.033  1.00  0.00    -0.081 OA 
HETATM   12  O   UNL     1     -11.208   5.979  69.383  1.00  0.00    -0.395 OA 
HETATM   13  C   UNL     1      -9.947   6.600  69.738  1.00  0.00    -0.173 C  
HETATM   14  C   UNL     1     -10.121   8.116  70.027  1.00  0.00    -0.196 C  
HETATM   15  O   UNL     1     -10.250   8.892  68.825  1.00  0.00    -0.196 OA 
HETATM   16  O   UNL     1     -11.194   8.401  70.949  1.00  0.00    -0.253 OA 
HETATM   17  C   UNL     1      -9.156   8.753  67.903  1.00  0.00    -0.139 C  
HETATM   18  C   UNL     1      -8.181   7.576  68.183  1.00  0.00    -0.125 C  
HETATM   19  C   UNL     1      -7.205   7.341  67.023  1.00  0.00    -0.092 C  
ENDROOT
BRANCH  17  20
HETATM   20  O   UNL     1      -8.472  10.002  67.626  1.00  0.00    -0.115 OA 
BRANCH  20  21
HETATM   21  C   UNL     1      -8.371  10.922  68.613  1.00  0.00    -0.148 C  
HETATM   22  O   UNL     1      -7.704  10.795  69.633  1.00  0.00    -0.120 OA 
BRANCH  21  23
HETATM   23  C   UNL     1      -9.161  12.167  68.292  1.00  0.00    -0.192 C  
BRANCH  23  24
HETATM   24  C   UNL     1     -10.543  11.871  67.749  1.00  0.00    -0.233 C  
HETATM   25  C   UNL     1     -11.618  12.443  68.641  1.00  0.00    -0.319 C  
HETATM   26  O   UNL     1     -11.962  13.613  68.617  1.00  0.00    -0.350 OA 
HETATM   27  O   UNL     1     -12.160  11.541  69.483  1.00  0.00    -0.308 OA 
ENDBRANCH  23  24
ENDBRANCH  21  23
ENDBRANCH  20  21
ENDBRANCH  17  20
TORSDOF 4
ENDMDL
MODEL      121
REMARK 921   NORMALIZED FREE ENERGY PREDICTED BY IDOCK:   -4.33 KCAL/MOL
REMARK 922        TOTAL FREE ENERGY PREDICTED BY IDOCK:   -6.06 KCAL/MOL
REMARK 923 INTER-LIGAND FREE ENERGY PREDICTED BY IDOCK:   -5.52 KCAL/MOL
REMARK 924 INTRA-LIGAND FREE ENERGY PREDICTED BY IDOCK:   -0.54 KCAL/MOL
REMARK 927      BINDING AFFINITY PREDICTED BY RF-SCORE:    0.00 PKD
ROOT
HETATM    1  C   UNL     1      -9.930  15.677  67.556  1.00  0.00    -0.231 C  
HETATM    2  C   UNL     1     -11.064  16.422  68.309  1.00  0.00    -0.337 C  
HETATM    3  C   UNL     1     -11.119  17.917  67.989  1.00  0.00     0.119 C  
HETATM    4  C   UNL     1      -9.769  18.635  68.190  1.00  0.00    -0.372 C  
HETATM    5  C   UNL     1      -9.869  19.811  69.156  1.00  0.00    -0.368 C  
HETATM    6  C   UNL     1      -8.666  17.608  68.567  1.00  0.00    -0.285 C  
HETATM    7  C   UNL     1      -7.310  18.235  68.853  1.00  0.00    -0.268 C  
HETATM    8  C   UNL     1      -6.665  18.744  67.586  1.00  0.00    -0.211 C  
HETATM    9  C   UNL     1      -6.388  17.617  66.560  1.00  0.00    -0.217 C  
HETATM   10  C   UNL     1      -5.125  18.060  65.799  1.00  0.00    -0.224 C  
HETATM   11  O   UNL     1      -7.414  17.495  65.576  1.00  0.00    -0.373 OA 
HETATM   12  O   UNL     1      -8.716  17.179  66.169  1.00  0.00    -0.415 OA 
HETATM   13  C   UNL     1      -8.615  16.517  67.454  1.00  0.00    -0.178 C  
HETATM   14  C   UNL     1      -7.337  15.640  67.543  1.00  0.00    -0.185 C  
HETATM   15  O   UNL     1      -7.473  14.399  66.831  1.00  0.00     0.078 OA 
HETATM   16  O   UNL     1      -6.137  16.338  67.147  1.00  0.00    -0.204 OA 
HETATM   17  C   UNL     1      -8.582  13.587  67.252  1.00  0.00    -0.213 C  
HETATM   18  C   UNL     1      -9.628  14.290  68.162  1.00  0.00    -0.218 C  
HETATM   19  C   UNL     1     -10.896  13.446  68.350  1.00  0.00    -0.284 C  
ENDROOT
BRANCH  17  20
HETATM   20  O   UNL     1      -8.189  12.281  67.746  1.00  0.00    -0.139 OA 
BRANCH  20  21
HETATM   21  C   UNL     1      -8.421  11.196  66.971  1.00  0.00    -0.146 C  
HETATM   22  O   UNL     1      -9.164  11.168  65.997  1.00  0.00    -0.192 OA 
BRANCH  21  23
HETATM   23  C   UNL     1      -7.612  10.006  67.428  1.00  0.00    -0.091 C  
BRANCH  23  24
HETATM   24  C   UNL     1      -8.461   8.903  68.023  1.00  0.00    -0.126 C  
HETATM   25  C   UNL     1      -8.532   9.014  69.526  1.00  0.00    -0.125 C  
HETATM   26  O   UNL     1      -9.283   9.778  70.110  1.00  0.00    -0.234 OA 
HETATM   27  O   UNL     1      -7.675   8.198  70.171  1.00  0.00    -0.081 OA 
ENDBRANCH  23  24
ENDBRANCH  21  23
ENDBRANCH  20  21
ENDBRANCH  17  20
TORSDOF 4
ENDMDL
MODEL      122
REMARK 921   NORMALIZED FREE ENERGY PREDICTED BY IDOCK:   -4.31 KCAL/MOL
REMARK 922        TOTAL FREE ENERGY PREDICTED BY IDOCK:   -6.03 KCAL/MOL
REMARK 923 INTER-LIGAND FREE ENERGY PREDICTED BY IDOCK:   -5.58 KCAL/MOL
REMARK 924 INTRA-LIGAND FREE ENERGY PREDICTED BY IDOCK:   -0.46 KCAL/MOL
REMARK 927      BINDING AFFINITY PREDICTED BY RF-SCORE:    0.00 PKD
ROOT
HETATM    1  C   UNL     1      -9.627   7.050  69.317  1.00  0.00    -0.154 C  
HETATM    2  C   UNL     1      -9.999   5.796  70.152  1.00  0.00    -0.258 C  
HETATM    3  C   UNL     1      -9.038   4.624  69.941  1.00  0.00    -0.161 C  
HETATM    4  C   UNL     1      -8.846   4.251  68.457  1.00  0.00    -0.134 C  
HETATM    5  C   UNL     1      -9.179   2.790  68.172  1.00  0.00    -0.254 C  
HETATM    6  C   UNL     1      -9.610   5.254  67.548  1.00  0.00    -0.150 C  
HETATM    7  C   UNL     1      -9.535   4.926  66.065  1.00  0.00    -0.169 C  
HETATM    8  C   UNL     1      -8.154   5.192  65.516  1.00  0.00    -0.117 C  
HETATM    9  C   UNL     1      -7.741   6.682  65.628  1.00  0.00    -0.095 C  
HETATM   10  C   UNL     1      -6.819   6.940  64.422  1.00  0.00    -0.046 C  
HETATM   11  O   UNL     1      -6.954   6.955  66.786  1.00  0.00    -0.062 OA 
HETATM   12  O   UNL     1      -7.669   6.648  68.028  1.00  0.00    -0.104 OA 
HETATM   13  C   UNL     1      -9.111   6.693  67.884  1.00  0.00    -0.114 C  
HETATM   14  C   UNL     1      -9.544   7.735  66.817  1.00  0.00    -0.212 C  
HETATM   15  O   UNL     1      -9.476   9.084  67.308  1.00  0.00    -0.142 OA 
HETATM   16  O   UNL     1      -8.834   7.600  65.567  1.00  0.00    -0.108 OA 
HETATM   17  C   UNL     1     -10.256   9.329  68.490  1.00  0.00    -0.201 C  
HETATM   18  C   UNL     1     -10.784   8.066  69.227  1.00  0.00    -0.140 C  
HETATM   19  C   UNL     1     -11.377   8.401  70.602  1.00  0.00    -0.262 C  
ENDROOT
BRANCH  17  20
HETATM   20  O   UNL     1     -11.274  10.347  68.310  1.00  0.00    -0.282 OA 
BRANCH  20  21
HETATM   21  C   UNL     1     -10.895  11.580  67.899  1.00  0.00    -0.210 C  
HETATM   22  O   UNL     1      -9.880  12.164  68.257  1.00  0.00    -0.204 OA 
BRANCH  21  23
HETATM   23  C   UNL     1     -11.868  12.151  66.896  1.00  0.00    -0.295 C  
BRANCH  23  24
HETATM   24  C   UNL     1     -11.195  12.659  65.638  1.00  0.00    -0.344 C  
HETATM   25  C   UNL     1     -11.789  13.972  65.190  1.00  0.00    -0.365 C  
HETATM   26  O   UNL     1     -11.485  15.050  65.675  1.00  0.00    -0.331 OA 
HETATM   27  O   UNL     1     -12.703  13.847  64.207  1.00  0.00    -0.664 OA 
ENDBRANCH  23  24
ENDBRANCH  21  23
ENDBRANCH  20  21
ENDBRANCH  17  20
TORSDOF 4
ENDMDL
MODEL      123
REMARK 921   NORMALIZED FREE ENERGY PREDICTED BY IDOCK:   -4.27 KCAL/MOL
REMARK 922        TOTAL FREE ENERGY PREDICTED BY IDOCK:   -5.99 KCAL/MOL
REMARK 923 INTER-LIGAND FREE ENERGY PREDICTED BY IDOCK:   -5.41 KCAL/MOL
REMARK 924 INTRA-LIGAND FREE ENERGY PREDICTED BY IDOCK:   -0.58 KCAL/MOL
REMARK 927      BINDING AFFINITY PREDICTED BY RF-SCORE:    0.00 PKD
ROOT
HETATM    1  C   UNL     1     -11.288   8.880  70.293  1.00  0.00    -0.179 C  
HETATM    2  C   UNL     1     -11.792  10.265  70.776  1.00  0.00    -0.459 C  
HETATM    3  C   UNL     1     -12.014  11.259  69.633  1.00  0.00    -0.423 C  
HETATM    4  C   UNL     1     -10.786  11.417  68.714  1.00  0.00    -0.240 C  
HETATM    5  C   UNL     1     -10.316  12.864  68.608  1.00  0.00    -0.202 C  
HETATM    6  C   UNL     1      -9.666  10.426  69.139  1.00  0.00    -0.234 C  
HETATM    7  C   UNL     1      -8.385  10.557  68.329  1.00  0.00    -0.122 C  
HETATM    8  C   UNL     1      -8.571  10.037  66.924  1.00  0.00    -0.128 C  
HETATM    9  C   UNL     1      -8.929   8.530  66.884  1.00  0.00    -0.143 C  
HETATM   10  C   UNL     1      -8.319   8.001  65.573  1.00  0.00    -0.153 C  
HETATM   11  O   UNL     1     -10.333   8.293  66.786  1.00  0.00    -0.310 OA 
HETATM   12  O   UNL     1     -11.070   8.846  67.925  1.00  0.00     0.000 OA 
HETATM   13  C   UNL     1     -10.260   8.984  69.119  1.00  0.00    -0.205 C  
HETATM   14  C   UNL     1      -9.160   7.890  69.189  1.00  0.00    -0.145 C  
HETATM   15  O   UNL     1      -9.680   6.615  69.600  1.00  0.00    -0.154 OA 
HETATM   16  O   UNL     1      -8.394   7.771  67.971  1.00  0.00    -0.122 OA 
HETATM   17  C   UNL     1     -10.358   6.626  70.867  1.00  0.00    -0.208 C  
HETATM   18  C   UNL     1     -10.701   8.030  71.439  1.00  0.00    -0.270 C  
HETATM   19  C   UNL     1     -11.641   7.951  72.649  1.00  0.00    -0.435 C  
ENDROOT
BRANCH  17  20
HETATM   20  O   UNL     1      -9.758   5.744  71.851  1.00  0.00    -0.158 OA 
BRANCH  20  21
HETATM   21  C   UNL     1      -8.454   5.410  71.715  1.00  0.00    -0.127 C  
HETATM   22  O   UNL     1      -7.974   4.808  70.762  1.00  0.00    -0.078 OA 
BRANCH  21  23
HETATM   23  C   UNL     1      -7.631   5.907  72.878  1.00  0.00    -0.099 C  
BRANCH  23  24
HETATM   24  C   UNL     1      -6.639   6.983  72.488  1.00  0.00    -0.057 C  
HETATM   25  C   UNL     1      -7.078   8.340  72.979  1.00  0.00    -0.104 C  
HETATM   26  O   UNL     1      -6.909   8.730  74.123  1.00  0.00    -0.310 OA 
HETATM   27  O   UNL     1      -7.693   9.084  72.038  1.00  0.00    -0.348 OA 
ENDBRANCH  23  24
ENDBRANCH  21  23
ENDBRANCH  20  21
ENDBRANCH  17  20
TORSDOF 4
ENDMDL
MODEL      124
REMARK 921   NORMALIZED FREE ENERGY PREDICTED BY IDOCK:   -4.26 KCAL/MOL
REMARK 922        TOTAL FREE ENERGY PREDICTED BY IDOCK:   -5.97 KCAL/MOL
REMARK 923 INTER-LIGAND FREE ENERGY PREDICTED BY IDOCK:   -5.57 KCAL/MOL
REMARK 924 INTRA-LIGAND FREE ENERGY PREDICTED BY IDOCK:   -0.40 KCAL/MOL
REMARK 927      BINDING AFFINITY PREDICTED BY RF-SCORE:    0.00 PKD
ROOT
HETATM    1  C   UNL     1      -9.539   7.044  67.178  1.00  0.00    -0.187 C  
HETATM    2  C   UNL     1      -9.256   5.673  66.509  1.00  0.00    -0.149 C  
HETATM    3  C   UNL     1      -9.935   4.502  67.222  1.00  0.00    -0.187 C  
HETATM    4  C   UNL     1      -9.627   4.446  68.733  1.00  0.00    -0.224 C  
HETATM    5  C   UNL     1      -9.021   3.111  69.157  1.00  0.00    -0.181 C  
HETATM    6  C   UNL     1      -8.780   5.678  69.155  1.00  0.00    -0.108 C  
HETATM    7  C   UNL     1      -8.368   5.674  70.619  1.00  0.00    -0.118 C  
HETATM    8  C   UNL     1      -9.550   5.942  71.520  1.00  0.00    -0.175 C  
HETATM    9  C   UNL     1     -10.185   7.334  71.277  1.00  0.00    -0.189 C  
HETATM   10  C   UNL     1     -10.739   7.774  72.644  1.00  0.00    -0.402 C  
HETATM   11  O   UNL     1     -11.308   7.288  70.397  1.00  0.00    -0.281 OA 
HETATM   12  O   UNL     1     -10.954   6.777  69.071  1.00  0.00    -0.248 OA 
HETATM   13  C   UNL     1      -9.555   6.966  68.739  1.00  0.00    -0.134 C  
HETATM   14  C   UNL     1      -8.980   8.245  69.407  1.00  0.00    -0.147 C  
HETATM   15  O   UNL     1      -9.380   9.446  68.728  1.00  0.00    -0.144 OA 
HETATM   16  O   UNL     1      -9.264   8.328  70.820  1.00  0.00    -0.146 OA 
HETATM   17  C   UNL     1      -9.025   9.491  67.335  1.00  0.00    -0.131 C  
HETATM   18  C   UNL     1      -8.563   8.145  66.711  1.00  0.00    -0.136 C  
HETATM   19  C   UNL     1      -8.455   8.220  65.182  1.00  0.00    -0.164 C  
ENDROOT
BRANCH  17  20
HETATM   20  O   UNL     1      -8.155  10.601  66.996  1.00  0.00    -0.116 OA 
BRANCH  20  21
HETATM   21  C   UNL     1      -8.391  11.809  67.561  1.00  0.00    -0.154 C  
HETATM   22  O   UNL     1      -8.046  12.141  68.688  1.00  0.00    -0.127 OA 
BRANCH  21  23
HETATM   23  C   UNL     1      -9.109  12.733  66.609  1.00  0.00    -0.188 C  
BRANCH  23  24
HETATM   24  C   UNL     1     -10.197  12.042  65.815  1.00  0.00    -0.274 C  
HETATM   25  C   UNL     1     -11.555  12.268  66.431  1.00  0.00    -0.383 C  
HETATM   26  O   UNL     1     -12.210  13.284  66.266  1.00  0.00    -0.409 OA 
HETATM   27  O   UNL     1     -11.979  11.245  67.200  1.00  0.00    -0.470 OA 
ENDBRANCH  23  24
ENDBRANCH  21  23
ENDBRANCH  20  21
ENDBRANCH  17  20
TORSDOF 4
ENDMDL
MODEL      125
REMARK 921   NORMALIZED FREE ENERGY PREDICTED BY IDOCK:   -4.25 KCAL/MOL
REMARK 922        TOTAL FREE ENERGY PREDICTED BY IDOCK:   -5.96 KCAL/MOL
REMARK 923 INTER-LIGAND FREE ENERGY PREDICTED BY IDOCK:   -5.11 KCAL/MOL
REMARK 924 INTRA-LIGAND FREE ENERGY PREDICTED BY IDOCK:   -0.85 KCAL/MOL
REMARK 927      BINDING AFFINITY PREDICTED BY RF-SCORE:    0.00 PKD
ROOT
HETATM    1  C   UNL     1     -10.410   7.425  71.705  1.00  0.00    -0.215 C  
HETATM    2  C   UNL     1     -11.341   8.204  72.672  1.00  0.00    -0.450 C  
HETATM    3  C   UNL     1     -12.522   8.873  71.966  1.00  0.00    -0.461 C  
HETATM    4  C   UNL     1     -12.098   9.766  70.781  1.00  0.00    -0.364 C  
HETATM    5  C   UNL     1     -12.600  11.200  70.919  1.00  0.00    -0.483 C  
HETATM    6  C   UNL     1     -10.566   9.660  70.549  1.00  0.00    -0.369 C  
HETATM    7  C   UNL     1     -10.044  10.561  69.441  1.00  0.00    -0.233 C  
HETATM    8  C   UNL     1     -10.473  10.060  68.082  1.00  0.00    -0.250 C  
HETATM    9  C   UNL     1      -9.917   8.650  67.760  1.00  0.00    -0.190 C  
HETATM   10  C   UNL     1      -9.725   8.627  66.233  1.00  0.00    -0.322 C  
HETATM   11  O   UNL     1     -10.844   7.606  68.053  1.00  0.00    -0.127 OA 
HETATM   12  O   UNL     1     -11.213   7.572  69.471  1.00  0.00    -0.110 OA 
HETATM   13  C   UNL     1     -10.208   8.157  70.337  1.00  0.00    -0.201 C  
HETATM   14  C   UNL     1      -8.779   7.963  69.762  1.00  0.00    -0.137 C  
HETATM   15  O   UNL     1      -8.283   6.630  69.963  1.00  0.00    -0.125 OA 
HETATM   16  O   UNL     1      -8.661   8.359  68.379  1.00  0.00    -0.135 OA 
HETATM   17  C   UNL     1      -8.256   6.202  71.335  1.00  0.00    -0.123 C  
HETATM   18  C   UNL     1      -9.043   7.093  72.337  1.00  0.00    -0.150 C  
HETATM   19  C   UNL     1      -9.180   6.435  73.716  1.00  0.00    -0.147 C  
ENDROOT
BRANCH  17  20
HETATM   20  O   UNL     1      -6.929   5.855  71.807  1.00  0.00    -0.069 OA 
BRANCH  20  21
HETATM   21  C   UNL     1      -6.434   4.630  71.513  1.00  0.00    -0.022 C  
HETATM   22  O   UNL     1      -5.623   4.389  70.627  1.00  0.00    -0.011 OA 
BRANCH  21  23
HETATM   23  C   UNL     1      -6.977   3.576  72.447  1.00  0.00    -0.042 C  
BRANCH  23  24
HETATM   24  C   UNL     1      -7.730   2.476  71.729  1.00  0.00    -0.045 C  
HETATM   25  C   UNL     1      -9.207   2.533  72.033  1.00  0.00    -0.090 C  
HETATM   26  O   UNL     1      -9.980   3.296  71.477  1.00  0.00    -0.167 OA 
HETATM   27  O   UNL     1      -9.597   1.668  72.990  1.00  0.00    -0.075 OA 
ENDBRANCH  23  24
ENDBRANCH  21  23
ENDBRANCH  20  21
ENDBRANCH  17  20
TORSDOF 4
ENDMDL
MODEL      126
REMARK 921   NORMALIZED FREE ENERGY PREDICTED BY IDOCK:   -4.20 KCAL/MOL
REMARK 922        TOTAL FREE ENERGY PREDICTED BY IDOCK:   -5.90 KCAL/MOL
REMARK 923 INTER-LIGAND FREE ENERGY PREDICTED BY IDOCK:   -5.44 KCAL/MOL
REMARK 924 INTRA-LIGAND FREE ENERGY PREDICTED BY IDOCK:   -0.46 KCAL/MOL
REMARK 927      BINDING AFFINITY PREDICTED BY RF-SCORE:    0.00 PKD
ROOT
HETATM    1  C   UNL     1      -7.439  11.551  68.516  1.00  0.00    -0.115 C  
HETATM    2  C   UNL     1      -6.739  11.603  69.899  1.00  0.00     0.042 C  
HETATM    3  C   UNL     1      -6.359  10.222  70.436  1.00  0.00    -0.127 C  
HETATM    4  C   UNL     1      -7.541   9.230  70.461  1.00  0.00    -0.147 C  
HETATM    5  C   UNL     1      -7.788   8.649  71.850  1.00  0.00    -0.122 C  
HETATM    6  C   UNL     1      -8.799   9.879  69.821  1.00  0.00    -0.229 C  
HETATM    7  C   UNL     1     -10.038   8.997  69.863  1.00  0.00    -0.213 C  
HETATM    8  C   UNL     1      -9.917   7.839  68.902  1.00  0.00    -0.185 C  
HETATM    9  C   UNL     1      -9.787   8.294  67.427  1.00  0.00    -0.188 C  
HETATM   10  C   UNL     1     -10.454   7.183  66.597  1.00  0.00    -0.205 C  
HETATM   11  O   UNL     1      -8.433   8.356  66.980  1.00  0.00    -0.119 OA 
HETATM   12  O   UNL     1      -7.634   9.305  67.760  1.00  0.00    -0.084 OA 
HETATM   13  C   UNL     1      -8.427  10.346  68.381  1.00  0.00    -0.124 C  
HETATM   14  C   UNL     1      -9.678  10.693  67.529  1.00  0.00    -0.166 C  
HETATM   15  O   UNL     1      -9.358  11.512  66.392  1.00  0.00    -0.197 OA 
HETATM   16  O   UNL     1     -10.441   9.532  67.135  1.00  0.00    -0.254 OA 
HETATM   17  C   UNL     1      -8.700  12.749  66.713  1.00  0.00    -0.121 C  
HETATM   18  C   UNL     1      -8.158  12.870  68.165  1.00  0.00    -0.158 C  
HETATM   19  C   UNL     1      -7.254  14.096  68.347  1.00  0.00    -0.109 C  
ENDROOT
BRANCH  17  20
HETATM   20  O   UNL     1      -9.435  13.923  66.283  1.00  0.00    -0.273 OA 
BRANCH  20  21
HETATM   21  C   UNL     1     -10.490  14.338  67.023  1.00  0.00    -0.271 C  
HETATM   22  O   UNL     1     -11.338  13.605  67.519  1.00  0.00    -0.283 OA 
BRANCH  21  23
HETATM   23  C   UNL     1     -10.482  15.836  67.207  1.00  0.00    -0.308 C  
BRANCH  23  24
HETATM   24  C   UNL     1      -9.707  16.563  66.129  1.00  0.00    -0.344 C  
HETATM   25  C   UNL     1     -10.016  18.040  66.132  1.00  0.00    -0.285 C  
HETATM   26  O   UNL     1      -9.505  18.835  66.905  1.00  0.00    -0.292 OA 
HETATM   27  O   UNL     1     -10.926  18.406  65.207  1.00  0.00    -0.563 OA 
ENDBRANCH  23  24
ENDBRANCH  21  23
ENDBRANCH  20  21
ENDBRANCH  17  20
TORSDOF 4
ENDMDL
MODEL      127
REMARK 921   NORMALIZED FREE ENERGY PREDICTED BY IDOCK:   -4.19 KCAL/MOL
REMARK 922        TOTAL FREE ENERGY PREDICTED BY IDOCK:   -5.89 KCAL/MOL
REMARK 923 INTER-LIGAND FREE ENERGY PREDICTED BY IDOCK:   -5.68 KCAL/MOL
REMARK 924 INTRA-LIGAND FREE ENERGY PREDICTED BY IDOCK:   -0.22 KCAL/MOL
REMARK 927      BINDING AFFINITY PREDICTED BY RF-SCORE:    0.00 PKD
ROOT
HETATM    1  C   UNL     1     -11.314  13.908  67.332  1.00  0.00    -0.349 C  
HETATM    2  C   UNL     1     -12.205  14.366  66.148  1.00  0.00    -0.358 C  
HETATM    3  C   UNL     1     -12.996  13.222  65.510  1.00  0.00    -0.113 C  
HETATM    4  C   UNL     1     -12.114  12.026  65.096  1.00  0.00    -0.165 C  
HETATM    5  C   UNL     1     -12.255  11.678  63.617  1.00  0.00    -0.348 C  
HETATM    6  C   UNL     1     -10.645  12.263  65.544  1.00  0.00    -0.304 C  
HETATM    7  C   UNL     1      -9.684  11.163  65.118  1.00  0.00    -0.296 C  
HETATM    8  C   UNL     1      -9.918   9.897  65.906  1.00  0.00    -0.347 C  
HETATM    9  C   UNL     1      -9.679  10.083  67.426  1.00  0.00    -0.161 C  
HETATM   10  C   UNL     1      -9.171   8.720  67.929  1.00  0.00    -0.149 C  
HETATM   11  O   UNL     1     -10.881  10.344  68.150  1.00  0.00    -0.224 OA 
HETATM   12  O   UNL     1     -11.546  11.570  67.700  1.00  0.00    -0.442 OA 
HETATM   13  C   UNL     1     -10.640  12.518  67.082  1.00  0.00    -0.228 C  
HETATM   14  C   UNL     1      -9.216  12.426  67.694  1.00  0.00    -0.185 C  
HETATM   15  O   UNL     1      -9.128  13.065  68.978  1.00  0.00     0.242 OA 
HETATM   16  O   UNL     1      -8.704  11.078  67.748  1.00  0.00    -0.127 OA 
HETATM   17  C   UNL     1      -9.510  14.451  68.984  1.00  0.00    -0.039 C  
HETATM   18  C   UNL     1     -10.246  14.955  67.710  1.00  0.00    -0.236 C  
HETATM   19  C   UNL     1     -10.842  16.356  67.900  1.00  0.00    -0.328 C  
ENDROOT
BRANCH  17  20
HETATM   20  O   UNL     1      -8.449  15.342  69.415  1.00  0.00    -0.237 OA 
BRANCH  20  21
HETATM   21  C   UNL     1      -7.483  15.678  68.528  1.00  0.00    -0.123 C  
HETATM   22  O   UNL     1      -7.130  14.996  67.574  1.00  0.00    -0.176 OA 
BRANCH  21  23
HETATM   23  C   UNL     1      -6.902  17.037  68.833  1.00  0.00    -0.211 C  
BRANCH  23  24
HETATM   24  C   UNL     1      -6.239  17.683  67.635  1.00  0.00    -0.172 C  
HETATM   25  C   UNL     1      -6.120  19.177  67.811  1.00  0.00    -0.202 C  
HETATM   26  O   UNL     1      -5.240  19.710  68.468  1.00  0.00    -0.189 OA 
HETATM   27  O   UNL     1      -7.088  19.875  67.185  1.00  0.00    -0.213 OA 
ENDBRANCH  23  24
ENDBRANCH  21  23
ENDBRANCH  20  21
ENDBRANCH  17  20
TORSDOF 4
ENDMDL
MODEL      128
REMARK 921   NORMALIZED FREE ENERGY PREDICTED BY IDOCK:   -4.09 KCAL/MOL
REMARK 922        TOTAL FREE ENERGY PREDICTED BY IDOCK:   -5.77 KCAL/MOL
REMARK 923 INTER-LIGAND FREE ENERGY PREDICTED BY IDOCK:   -5.10 KCAL/MOL
REMARK 924 INTRA-LIGAND FREE ENERGY PREDICTED BY IDOCK:   -0.67 KCAL/MOL
REMARK 927      BINDING AFFINITY PREDICTED BY RF-SCORE:    0.00 PKD
ROOT
HETATM    1  C   UNL     1     -10.937   8.748  70.494  1.00  0.00    -0.272 C  
HETATM    2  C   UNL     1     -11.498  10.173  70.745  1.00  0.00    -0.442 C  
HETATM    3  C   UNL     1     -11.635  11.002  69.467  1.00  0.00    -0.384 C  
HETATM    4  C   UNL     1     -10.335  11.067  68.639  1.00  0.00    -0.209 C  
HETATM    5  C   UNL     1      -9.877  12.499  68.381  1.00  0.00    -0.202 C  
HETATM    6  C   UNL     1      -9.244  10.168  69.282  1.00  0.00    -0.220 C  
HETATM    7  C   UNL     1      -7.900  10.221  68.570  1.00  0.00    -0.097 C  
HETATM    8  C   UNL     1      -7.960   9.517  67.236  1.00  0.00    -0.106 C  
HETATM    9  C   UNL     1      -8.294   8.010  67.368  1.00  0.00    -0.123 C  
HETATM   10  C   UNL     1      -7.569   7.328  66.194  1.00  0.00    -0.088 C  
HETATM   11  O   UNL     1      -9.681   7.729  67.187  1.00  0.00    -0.158 OA 
HETATM   12  O   UNL     1     -10.519   8.409  68.178  1.00  0.00    -0.212 OA 
HETATM   13  C   UNL     1      -9.815   8.722  69.405  1.00  0.00    -0.186 C  
HETATM   14  C   UNL     1      -8.712   7.673  69.711  1.00  0.00    -0.140 C  
HETATM   15  O   UNL     1      -9.248   6.451  70.243  1.00  0.00    -0.153 OA 
HETATM   16  O   UNL     1      -7.843   7.414  68.587  1.00  0.00    -0.117 OA 
HETATM   17  C   UNL     1     -10.031   6.612  71.438  1.00  0.00    -0.183 C  
HETATM   18  C   UNL     1     -10.439   8.071  71.787  1.00  0.00    -0.287 C  
HETATM   19  C   UNL     1     -11.477   8.129  72.916  1.00  0.00    -0.274 C  
ENDROOT
BRANCH  17  20
HETATM   20  O   UNL     1      -9.506   5.882  72.576  1.00  0.00    -0.148 OA 
BRANCH  20  21
HETATM   21  C   UNL     1     -10.043   4.677  72.880  1.00  0.00    -0.159 C  
HETATM   22  O   UNL     1     -11.138   4.502  73.399  1.00  0.00    -0.273 OA 
BRANCH  21  23
HETATM   23  C   UNL     1      -9.135   3.546  72.461  1.00  0.00    -0.129 C  
BRANCH  23  24
HETATM   24  C   UNL     1      -9.745   2.656  71.400  1.00  0.00    -0.217 C  
HETATM   25  C   UNL     1      -9.080   2.862  70.061  1.00  0.00    -0.123 C  
HETATM   26  O   UNL     1      -8.018   2.346  69.750  1.00  0.00    -0.042 OA 
HETATM   27  O   UNL     1      -9.760   3.683  69.238  1.00  0.00    -0.160 OA 
ENDBRANCH  23  24
ENDBRANCH  21  23
ENDBRANCH  20  21
ENDBRANCH  17  20
TORSDOF 4
ENDMDL
MODEL      129
REMARK 921   NORMALIZED FREE ENERGY PREDICTED BY IDOCK:   -4.07 KCAL/MOL
REMARK 922        TOTAL FREE ENERGY PREDICTED BY IDOCK:   -5.74 KCAL/MOL
REMARK 923 INTER-LIGAND FREE ENERGY PREDICTED BY IDOCK:   -5.19 KCAL/MOL
REMARK 924 INTRA-LIGAND FREE ENERGY PREDICTED BY IDOCK:   -0.55 KCAL/MOL
REMARK 927      BINDING AFFINITY PREDICTED BY RF-SCORE:    0.00 PKD
ROOT
HETATM    1  C   UNL     1      -7.466  11.549  68.122  1.00  0.00    -0.101 C  
HETATM    2  C   UNL     1      -7.253  10.288  69.001  1.00  0.00    -0.080 C  
HETATM    3  C   UNL     1      -8.166   9.123  68.615  1.00  0.00    -0.114 C  
HETATM    4  C   UNL     1      -9.659   9.508  68.568  1.00  0.00    -0.150 C  
HETATM    5  C   UNL     1     -10.519   8.633  69.476  1.00  0.00    -0.222 C  
HETATM    6  C   UNL     1      -9.830  11.031  68.824  1.00  0.00    -0.206 C  
HETATM    7  C   UNL     1     -11.278  11.493  68.864  1.00  0.00    -0.308 C  
HETATM    8  C   UNL     1     -11.900  11.464  67.488  1.00  0.00    -0.105 C  
HETATM    9  C   UNL     1     -11.193  12.417  66.491  1.00  0.00    -0.319 C  
HETATM   10  C   UNL     1     -12.294  12.884  65.523  1.00  0.00    -0.517 C  
HETATM   11  O   UNL     1     -10.218  11.757  65.685  1.00  0.00    -0.228 OA 
HETATM   12  O   UNL     1      -9.148  11.158  66.488  1.00  0.00    -0.171 OA 
HETATM   13  C   UNL     1      -8.970  11.800  67.775  1.00  0.00    -0.173 C  
HETATM   14  C   UNL     1      -9.324  13.310  67.711  1.00  0.00    -0.209 C  
HETATM   15  O   UNL     1      -8.287  14.091  67.094  1.00  0.00    -0.193 OA 
HETATM   16  O   UNL     1     -10.605  13.571  67.099  1.00  0.00    -0.261 OA 
HETATM   17  C   UNL     1      -7.000  13.978  67.723  1.00  0.00    -0.177 C  
HETATM   18  C   UNL     1      -6.846  12.817  68.745  1.00  0.00    -0.096 C  
HETATM   19  C   UNL     1      -5.387  12.607  69.171  1.00  0.00    -0.069 C  
ENDROOT
BRANCH  17  20
HETATM   20  O   UNL     1      -6.484  15.241  68.218  1.00  0.00    -0.097 OA 
BRANCH  20  21
HETATM   21  C   UNL     1      -7.237  15.953  69.089  1.00  0.00    -0.196 C  
HETATM   22  O   UNL     1      -7.749  15.509  70.109  1.00  0.00     0.092 OA 
BRANCH  21  23
HETATM   23  C   UNL     1      -7.344  17.400  68.672  1.00  0.00    -0.244 C  
BRANCH  23  24
HETATM   24  C   UNL     1      -6.548  17.721  67.425  1.00  0.00    -0.181 C  
HETATM   25  C   UNL     1      -7.346  18.571  66.467  1.00  0.00    -0.232 C  
HETATM   26  O   UNL     1      -7.473  19.779  66.583  1.00  0.00    -0.237 OA 
HETATM   27  O   UNL     1      -7.923  17.869  65.472  1.00  0.00    -0.393 OA 
ENDBRANCH  23  24
ENDBRANCH  21  23
ENDBRANCH  20  21
ENDBRANCH  17  20
TORSDOF 4
ENDMDL
MODEL      130
REMARK 921   NORMALIZED FREE ENERGY PREDICTED BY IDOCK:   -4.05 KCAL/MOL
REMARK 922        TOTAL FREE ENERGY PREDICTED BY IDOCK:   -5.72 KCAL/MOL
REMARK 923 INTER-LIGAND FREE ENERGY PREDICTED BY IDOCK:   -5.00 KCAL/MOL
REMARK 924 INTRA-LIGAND FREE ENERGY PREDICTED BY IDOCK:   -0.72 KCAL/MOL
REMARK 927      BINDING AFFINITY PREDICTED BY RF-SCORE:    0.00 PKD
ROOT
HETATM    1  C   UNL     1      -7.841  13.741  68.113  1.00  0.00    -0.149 C  
HETATM    2  C   UNL     1      -6.831  14.661  67.377  1.00  0.00    -0.085 C  
HETATM    3  C   UNL     1      -6.929  16.127  67.804  1.00  0.00    -0.161 C  
HETATM    4  C   UNL     1      -8.358  16.698  67.703  1.00  0.00    -0.183 C  
HETATM    5  C   UNL     1      -8.431  17.942  66.822  1.00  0.00    -0.268 C  
HETATM    6  C   UNL     1      -9.355  15.581  67.290  1.00  0.00    -0.220 C  
HETATM    7  C   UNL     1     -10.784  16.066  67.099  1.00  0.00    -0.283 C  
HETATM    8  C   UNL     1     -11.426  16.410  68.422  1.00  0.00    -0.181 C  
HETATM    9  C   UNL     1     -11.531  15.191  69.372  1.00  0.00    -0.306 C  
HETATM   10  C   UNL     1     -12.801  15.434  70.207  1.00  0.00    -0.277 C  
HETATM   11  O   UNL     1     -10.456  15.119  70.308  1.00  0.00    -0.227 OA 
HETATM   12  O   UNL     1      -9.154  14.996  69.648  1.00  0.00    -0.126 OA 
HETATM   13  C   UNL     1      -9.236  14.417  68.322  1.00  0.00    -0.201 C  
HETATM   14  C   UNL     1     -10.411  13.407  68.214  1.00  0.00    -0.249 C  
HETATM   15  O   UNL     1     -10.107  12.144  68.828  1.00  0.00    -0.184 OA 
HETATM   16  O   UNL     1     -11.663  13.935  68.702  1.00  0.00    -0.315 OA 
HETATM   17  C   UNL     1      -8.933  11.495  68.310  1.00  0.00    -0.177 C  
HETATM   18  C   UNL     1      -8.013  12.374  67.418  1.00  0.00    -0.178 C  
HETATM   19  C   UNL     1      -6.668  11.695  67.124  1.00  0.00    -0.142 C  
ENDROOT
BRANCH  17  20
HETATM   20  O   UNL     1      -9.200  10.190  67.736  1.00  0.00    -0.137 OA 
BRANCH  20  21
HETATM   21  C   UNL     1      -9.403   9.142  68.570  1.00  0.00    -0.135 C  
HETATM   22  O   UNL     1     -10.435   8.923  69.192  1.00  0.00    -0.224 OA 
BRANCH  21  23
HETATM   23  C   UNL     1      -8.199   8.233  68.617  1.00  0.00    -0.120 C  
BRANCH  23  24
HETATM   24  C   UNL     1      -7.804   7.842  70.025  1.00  0.00    -0.105 C  
HETATM   25  C   UNL     1      -6.929   8.895  70.662  1.00  0.00    -0.064 C  
HETATM   26  O   UNL     1      -7.364   9.916  71.168  1.00  0.00    -0.275 OA 
HETATM   27  O   UNL     1      -5.613   8.610  70.610  1.00  0.00    -0.027 OA 
ENDBRANCH  23  24
ENDBRANCH  21  23
ENDBRANCH  20  21
ENDBRANCH  17  20
TORSDOF 4
ENDMDL
MODEL      131
REMARK 921   NORMALIZED FREE ENERGY PREDICTED BY IDOCK:   -4.04 KCAL/MOL
REMARK 922        TOTAL FREE ENERGY PREDICTED BY IDOCK:   -5.70 KCAL/MOL
REMARK 923 INTER-LIGAND FREE ENERGY PREDICTED BY IDOCK:   -5.07 KCAL/MOL
REMARK 924 INTRA-LIGAND FREE ENERGY PREDICTED BY IDOCK:   -0.63 KCAL/MOL
REMARK 927      BINDING AFFINITY PREDICTED BY RF-SCORE:    0.00 PKD
ROOT
HETATM    1  C   UNL     1      -9.869   4.381  68.917  1.00  0.00    -0.163 C  
HETATM    2  C   UNL     1      -8.964   3.136  68.717  1.00  0.00    -0.188 C  
HETATM    3  C   UNL     1      -8.740   2.339  70.004  1.00  0.00    -0.117 C  
HETATM    4  C   UNL     1      -8.228   3.202  71.176  1.00  0.00    -0.077 C  
HETATM    5  C   UNL     1      -6.916   2.683  71.756  1.00  0.00    -0.030 C  
HETATM    6  C   UNL     1      -8.177   4.698  70.759  1.00  0.00    -0.088 C  
HETATM    7  C   UNL     1      -7.618   5.620  71.831  1.00  0.00    -0.096 C  
HETATM    8  C   UNL     1      -8.589   5.779  72.976  1.00  0.00    -0.121 C  
HETATM    9  C   UNL     1      -9.930   6.422  72.541  1.00  0.00    -0.171 C  
HETATM   10  C   UNL     1     -10.418   7.215  73.767  1.00  0.00    -0.371 C  
HETATM   11  O   UNL     1     -10.947   5.459  72.269  1.00  0.00    -0.233 OA 
HETATM   12  O   UNL     1     -10.573   4.549  71.183  1.00  0.00    -0.010 OA 
HETATM   13  C   UNL     1      -9.599   5.116  70.271  1.00  0.00    -0.184 C  
HETATM   14  C   UNL     1      -9.756   6.656  70.156  1.00  0.00    -0.164 C  
HETATM   15  O   UNL     1     -10.865   7.034  69.323  1.00  0.00    -0.234 OA 
HETATM   16  O   UNL     1      -9.817   7.322  71.436  1.00  0.00    -0.185 OA 
HETATM   17  C   UNL     1     -10.816   6.505  67.987  1.00  0.00    -0.295 C  
HETATM   18  C   UNL     1      -9.774   5.378  67.743  1.00  0.00    -0.160 C  
HETATM   19  C   UNL     1      -9.963   4.697  66.381  1.00  0.00    -0.267 C  
ENDROOT
BRANCH  17  20
HETATM   20  O   UNL     1     -10.793   7.529  66.960  1.00  0.00    -0.348 OA 
BRANCH  20  21
HETATM   21  C   UNL     1      -9.670   8.268  66.805  1.00  0.00    -0.239 C  
HETATM   22  O   UNL     1      -8.718   7.967  66.095  1.00  0.00    -0.143 OA 
BRANCH  21  23
HETATM   23  C   UNL     1      -9.739   9.554  67.592  1.00  0.00    -0.188 C  
BRANCH  23  24
HETATM   24  C   UNL     1     -11.144  10.108  67.703  1.00  0.00    -0.275 C  
HETATM   25  C   UNL     1     -11.328  10.885  68.984  1.00  0.00    -0.281 C  
HETATM   26  O   UNL     1     -10.962  12.039  69.131  1.00  0.00    -0.226 OA 
HETATM   27  O   UNL     1     -11.926  10.179  69.965  1.00  0.00    -0.220 OA 
ENDBRANCH  23  24
ENDBRANCH  21  23
ENDBRANCH  20  21
ENDBRANCH  17  20
TORSDOF 4
ENDMDL
MODEL      132
REMARK 921   NORMALIZED FREE ENERGY PREDICTED BY IDOCK:   -4.03 KCAL/MOL
REMARK 922        TOTAL FREE ENERGY PREDICTED BY IDOCK:   -5.69 KCAL/MOL
REMARK 923 INTER-LIGAND FREE ENERGY PREDICTED BY IDOCK:   -5.23 KCAL/MOL
REMARK 924 INTRA-LIGAND FREE ENERGY PREDICTED BY IDOCK:   -0.46 KCAL/MOL
REMARK 927      BINDING AFFINITY PREDICTED BY RF-SCORE:    0.00 PKD
ROOT
HETATM    1  C   UNL     1      -7.888   9.931  68.317  1.00  0.00    -0.085 C  
HETATM    2  C   UNL     1      -6.670   9.364  67.541  1.00  0.00    -0.068 C  
HETATM    3  C   UNL     1      -6.309  10.186  66.301  1.00  0.00    -0.084 C  
HETATM    4  C   UNL     1      -7.502  10.413  65.351  1.00  0.00    -0.127 C  
HETATM    5  C   UNL     1      -7.223   9.922  63.933  1.00  0.00    -0.126 C  
HETATM    6  C   UNL     1      -8.801   9.828  65.970  1.00  0.00    -0.170 C  
HETATM    7  C   UNL     1     -10.022   9.945  65.071  1.00  0.00    -0.236 C  
HETATM    8  C   UNL     1     -10.492  11.377  64.970  1.00  0.00    -0.361 C  
HETATM    9  C   UNL     1     -10.931  11.961  66.336  1.00  0.00    -0.292 C  
HETATM   10  C   UNL     1     -12.044  12.973  66.008  1.00  0.00    -0.493 C  
HETATM   11  O   UNL     1      -9.900  12.709  66.980  1.00  0.00    -0.218 OA 
HETATM   12  O   UNL     1      -8.715  11.894  67.260  1.00  0.00    -0.158 OA 
HETATM   13  C   UNL     1      -9.008  10.479  67.372  1.00  0.00    -0.135 C  
HETATM   14  C   UNL     1     -10.434  10.236  67.934  1.00  0.00    -0.212 C  
HETATM   15  O   UNL     1     -10.507  10.440  69.355  1.00  0.00    -0.211 OA 
HETATM   16  O   UNL     1     -11.455  10.992  67.248  1.00  0.00    -0.470 OA 
HETATM   17  C   UNL     1      -9.599   9.630  70.121  1.00  0.00    -0.254 C  
HETATM   18  C   UNL     1      -8.483   8.913  69.311  1.00  0.00    -0.121 C  
HETATM   19  C   UNL     1      -7.415   8.289  70.220  1.00  0.00    -0.066 C  
ENDROOT
BRANCH  17  20
HETATM   20  O   UNL     1     -10.263   8.755  71.069  1.00  0.00    -0.204 OA 
BRANCH  20  21
HETATM   21  C   UNL     1     -10.910   7.662  70.601  1.00  0.00    -0.237 C  
HETATM   22  O   UNL     1     -11.318   7.518  69.455  1.00  0.00     0.018 OA 
BRANCH  21  23
HETATM   23  C   UNL     1     -11.040   6.599  71.664  1.00  0.00    -0.290 C  
BRANCH  23  24
HETATM   24  C   UNL     1      -9.745   5.862  71.931  1.00  0.00    -0.173 C  
HETATM   25  C   UNL     1      -9.586   4.678  71.010  1.00  0.00    -0.176 C  
HETATM   26  O   UNL     1      -9.189   4.766  69.860  1.00  0.00    -0.108 OA 
HETATM   27  O   UNL     1      -9.939   3.504  71.571  1.00  0.00    -0.172 OA 
ENDBRANCH  23  24
ENDBRANCH  21  23
ENDBRANCH  20  21
ENDBRANCH  17  20
TORSDOF 4
ENDMDL
MODEL      133
REMARK 921   NORMALIZED FREE ENERGY PREDICTED BY IDOCK:   -3.98 KCAL/MOL
REMARK 922        TOTAL FREE ENERGY PREDICTED BY IDOCK:   -5.63 KCAL/MOL
REMARK 923 INTER-LIGAND FREE ENERGY PREDICTED BY IDOCK:   -4.74 KCAL/MOL
REMARK 924 INTRA-LIGAND FREE ENERGY PREDICTED BY IDOCK:   -0.89 KCAL/MOL
REMARK 927      BINDING AFFINITY PREDICTED BY RF-SCORE:    0.00 PKD
ROOT
HETATM    1  C   UNL     1     -10.330   9.780  68.133  1.00  0.00    -0.241 C  
HETATM    2  C   UNL     1      -9.898  10.956  69.048  1.00  0.00    -0.196 C  
HETATM    3  C   UNL     1      -9.444  12.192  68.269  1.00  0.00    -0.204 C  
HETATM    4  C   UNL     1      -8.352  11.886  67.223  1.00  0.00    -0.169 C  
HETATM    5  C   UNL     1      -7.096  12.728  67.425  1.00  0.00    -0.134 C  
HETATM    6  C   UNL     1      -8.076  10.358  67.165  1.00  0.00    -0.115 C  
HETATM    7  C   UNL     1      -6.962   9.967  66.207  1.00  0.00    -0.104 C  
HETATM    8  C   UNL     1      -7.393  10.134  64.769  1.00  0.00    -0.134 C  
HETATM    9  C   UNL     1      -8.593   9.228  64.394  1.00  0.00    -0.195 C  
HETATM   10  C   UNL     1      -8.401   8.894  62.903  1.00  0.00    -0.198 C  
HETATM   11  O   UNL     1      -9.848   9.901  64.485  1.00  0.00    -0.261 OA 
HETATM   12  O   UNL     1     -10.123  10.381  65.842  1.00  0.00    -0.247 OA 
HETATM   13  C   UNL     1      -9.424   9.632  66.867  1.00  0.00    -0.153 C  
HETATM   14  C   UNL     1      -9.219   8.151  66.449  1.00  0.00    -0.199 C  
HETATM   15  O   UNL     1     -10.417   7.370  66.590  1.00  0.00    -0.254 OA 
HETATM   16  O   UNL     1      -8.655   8.003  65.128  1.00  0.00    -0.139 OA 
HETATM   17  C   UNL     1     -10.977   7.370  67.914  1.00  0.00     0.005 C  
HETATM   18  C   UNL     1     -10.408   8.438  68.890  1.00  0.00    -0.231 C  
HETATM   19  C   UNL     1     -11.230   8.541  70.182  1.00  0.00    -0.139 C  
ENDROOT
BRANCH  17  20
HETATM   20  O   UNL     1     -11.061   6.048  68.507  1.00  0.00    -0.313 OA 
BRANCH  20  21
HETATM   21  C   UNL     1      -9.927   5.470  68.968  1.00  0.00    -0.181 C  
HETATM   22  O   UNL     1      -8.891   5.336  68.328  1.00  0.00    -0.105 OA 
BRANCH  21  23
HETATM   23  C   UNL     1     -10.074   5.033  70.405  1.00  0.00    -0.330 C  
BRANCH  23  24
HETATM   24  C   UNL     1      -8.792   5.163  71.201  1.00  0.00    -0.150 C  
HETATM   25  C   UNL     1      -8.592   6.575  71.693  1.00  0.00    -0.128 C  
HETATM   26  O   UNL     1      -9.142   7.028  72.683  1.00  0.00    -0.134 OA 
HETATM   27  O   UNL     1      -7.755   7.302  70.927  1.00  0.00    -0.089 OA 
ENDBRANCH  23  24
ENDBRANCH  21  23
ENDBRANCH  20  21
ENDBRANCH  17  20
TORSDOF 4
ENDMDL
MODEL      134
REMARK 921   NORMALIZED FREE ENERGY PREDICTED BY IDOCK:   -3.97 KCAL/MOL
REMARK 922        TOTAL FREE ENERGY PREDICTED BY IDOCK:   -5.62 KCAL/MOL
REMARK 923 INTER-LIGAND FREE ENERGY PREDICTED BY IDOCK:   -5.13 KCAL/MOL
REMARK 924 INTRA-LIGAND FREE ENERGY PREDICTED BY IDOCK:   -0.48 KCAL/MOL
REMARK 927      BINDING AFFINITY PREDICTED BY RF-SCORE:    0.00 PKD
ROOT
HETATM    1  C   UNL     1      -9.798   7.162  67.275  1.00  0.00    -0.217 C  
HETATM    2  C   UNL     1      -8.821   5.998  66.958  1.00  0.00    -0.113 C  
HETATM    3  C   UNL     1      -9.021   4.780  67.862  1.00  0.00    -0.124 C  
HETATM    4  C   UNL     1      -8.991   5.122  69.365  1.00  0.00    -0.127 C  
HETATM    5  C   UNL     1      -7.940   4.321  70.127  1.00  0.00    -0.058 C  
HETATM    6  C   UNL     1      -8.870   6.659  69.563  1.00  0.00    -0.139 C  
HETATM    7  C   UNL     1      -8.763   7.088  71.019  1.00  0.00    -0.139 C  
HETATM    8  C   UNL     1     -10.079   6.910  71.739  1.00  0.00    -0.198 C  
HETATM    9  C   UNL     1     -11.214   7.777  71.138  1.00  0.00    -0.264 C  
HETATM   10  C   UNL     1     -12.135   8.119  72.322  1.00  0.00    -0.419 C  
HETATM   11  O   UNL     1     -12.025   7.064  70.205  1.00  0.00    -0.251 OA 
HETATM   12  O   UNL     1     -11.253   6.572  69.061  1.00  0.00    -0.312 OA 
HETATM   13  C   UNL     1     -10.051   7.341  68.808  1.00  0.00    -0.176 C  
HETATM   14  C   UNL     1     -10.232   8.829  69.213  1.00  0.00    -0.210 C  
HETATM   15  O   UNL     1     -10.999   9.571  68.249  1.00  0.00    -0.182 OA 
HETATM   16  O   UNL     1     -10.767   8.998  70.543  1.00  0.00    -0.215 OA 
HETATM   17  C   UNL     1     -10.463   9.550  66.916  1.00  0.00    -0.208 C  
HETATM   18  C   UNL     1      -9.348   8.499  66.651  1.00  0.00    -0.243 C  
HETATM   19  C   UNL     1      -9.018   8.366  65.158  1.00  0.00    -0.005 C  
ENDROOT
BRANCH  17  20
HETATM   20  O   UNL     1     -10.133  10.867  66.405  1.00  0.00    -0.216 OA 
BRANCH  20  21
HETATM   21  C   UNL     1      -9.147  11.571  67.010  1.00  0.00    -0.175 C  
HETATM   22  O   UNL     1      -7.965  11.551  66.690  1.00  0.00    -0.158 OA 
BRANCH  21  23
HETATM   23  C   UNL     1      -9.688  12.433  68.125  1.00  0.00    -0.214 C  
BRANCH  23  24
HETATM   24  C   UNL     1      -9.753  13.902  67.764  1.00  0.00    -0.225 C  
HETATM   25  C   UNL     1      -8.563  14.654  68.307  1.00  0.00    -0.167 C  
HETATM   26  O   UNL     1      -7.469  14.666  67.767  1.00  0.00    -0.132 OA 
HETATM   27  O   UNL     1      -8.814  15.306  69.460  1.00  0.00    -0.243 OA 
ENDBRANCH  23  24
ENDBRANCH  21  23
ENDBRANCH  20  21
ENDBRANCH  17  20
TORSDOF 4
ENDMDL
MODEL      135
REMARK 921   NORMALIZED FREE ENERGY PREDICTED BY IDOCK:   -3.90 KCAL/MOL
REMARK 922        TOTAL FREE ENERGY PREDICTED BY IDOCK:   -5.53 KCAL/MOL
REMARK 923 INTER-LIGAND FREE ENERGY PREDICTED BY IDOCK:   -5.29 KCAL/MOL
REMARK 924 INTRA-LIGAND FREE ENERGY PREDICTED BY IDOCK:   -0.23 KCAL/MOL
REMARK 927      BINDING AFFINITY PREDICTED BY RF-SCORE:    0.00 PKD
ROOT
HETATM    1  C   UNL     1      -8.536   3.613  68.872  1.00  0.00    -0.119 C  
HETATM    2  C   UNL     1      -8.809   2.103  68.641  1.00  0.00    -0.149 C  
HETATM    3  C   UNL     1      -8.156   1.560  67.368  1.00  0.00    -0.065 C  
HETATM    4  C   UNL     1      -8.506   2.376  66.106  1.00  0.00    -0.101 C  
HETATM    5  C   UNL     1      -9.130   1.520  65.009  1.00  0.00    -0.121 C  
HETATM    6  C   UNL     1      -9.357   3.618  66.489  1.00  0.00    -0.202 C  
HETATM    7  C   UNL     1      -9.809   4.449  65.298  1.00  0.00    -0.209 C  
HETATM    8  C   UNL     1      -8.652   5.199  64.684  1.00  0.00    -0.142 C  
HETATM    9  C   UNL     1      -8.002   6.208  65.665  1.00  0.00    -0.114 C  
HETATM   10  C   UNL     1      -7.484   7.358  64.783  1.00  0.00    -0.088 C  
HETATM   11  O   UNL     1      -6.856   5.679  66.330  1.00  0.00    -0.056 OA 
HETATM   12  O   UNL     1      -7.176   4.495  67.133  1.00  0.00    -0.070 OA 
HETATM   13  C   UNL     1      -8.564   4.444  67.548  1.00  0.00    -0.103 C  
HETATM   14  C   UNL     1      -9.150   5.868  67.749  1.00  0.00    -0.109 C  
HETATM   15  O   UNL     1      -8.725   6.467  68.984  1.00  0.00    -0.127 OA 
HETATM   16  O   UNL     1      -8.905   6.750  66.632  1.00  0.00    -0.127 OA 
HETATM   17  C   UNL     1      -9.041   5.702  70.159  1.00  0.00    -0.138 C  
HETATM   18  C   UNL     1      -9.493   4.236  69.910  1.00  0.00    -0.260 C  
HETATM   19  C   UNL     1      -9.559   3.420  71.208  1.00  0.00    -0.232 C  
ENDROOT
BRANCH  17  20
HETATM   20  O   UNL     1      -9.896   6.407  71.096  1.00  0.00    -0.178 OA 
BRANCH  20  21
HETATM   21  C   UNL     1     -11.207   6.556  70.794  1.00  0.00    -0.321 C  
HETATM   22  O   UNL     1     -11.694   6.434  69.676  1.00  0.00    -0.389 OA 
BRANCH  21  23
HETATM   23  C   UNL     1     -12.027   6.858  72.024  1.00  0.00    -0.342 C  
BRANCH  23  24
HETATM   24  C   UNL     1     -11.654   8.169  72.681  1.00  0.00    -0.441 C  
HETATM   25  C   UNL     1     -11.981   9.343  71.791  1.00  0.00    -0.382 C  
HETATM   26  O   UNL     1     -13.099   9.821  71.688  1.00  0.00    -0.361 OA 
HETATM   27  O   UNL     1     -10.921   9.812  71.102  1.00  0.00    -0.348 OA 
ENDBRANCH  23  24
ENDBRANCH  21  23
ENDBRANCH  20  21
ENDBRANCH  17  20
TORSDOF 4
ENDMDL
MODEL      136
REMARK 921   NORMALIZED FREE ENERGY PREDICTED BY IDOCK:   -3.86 KCAL/MOL
REMARK 922        TOTAL FREE ENERGY PREDICTED BY IDOCK:   -5.48 KCAL/MOL
REMARK 923 INTER-LIGAND FREE ENERGY PREDICTED BY IDOCK:   -4.83 KCAL/MOL
REMARK 924 INTRA-LIGAND FREE ENERGY PREDICTED BY IDOCK:   -0.65 KCAL/MOL
REMARK 927      BINDING AFFINITY PREDICTED BY RF-SCORE:    0.00 PKD
ROOT
HETATM    1  C   UNL     1      -8.465   8.224  69.135  1.00  0.00    -0.127 C  
HETATM    2  C   UNL     1      -7.273   9.174  68.841  1.00  0.00    -0.073 C  
HETATM    3  C   UNL     1      -7.123   9.512  67.356  1.00  0.00    -0.086 C  
HETATM    4  C   UNL     1      -7.063   8.265  66.449  1.00  0.00    -0.071 C  
HETATM    5  C   UNL     1      -5.804   8.227  65.588  1.00  0.00    -0.044 C  
HETATM    6  C   UNL     1      -7.283   6.978  67.290  1.00  0.00    -0.089 C  
HETATM    7  C   UNL     1      -7.173   5.689  66.489  1.00  0.00    -0.077 C  
HETATM    8  C   UNL     1      -8.357   5.515  65.569  1.00  0.00    -0.136 C  
HETATM    9  C   UNL     1      -9.701   5.409  66.333  1.00  0.00    -0.166 C  
HETATM   10  C   UNL     1     -10.588   4.493  65.471  1.00  0.00    -0.218 C  
HETATM   11  O   UNL     1     -10.392   6.654  66.419  1.00  0.00    -0.084 OA 
HETATM   12  O   UNL     1      -9.613   7.674  67.126  1.00  0.00    -0.144 OA 
HETATM   13  C   UNL     1      -8.641   7.116  68.045  1.00  0.00    -0.128 C  
HETATM   14  C   UNL     1      -9.128   5.767  68.639  1.00  0.00    -0.114 C  
HETATM   15  O   UNL     1     -10.112   5.946  69.672  1.00  0.00    -0.173 OA 
HETATM   16  O   UNL     1      -9.590   4.835  67.637  1.00  0.00    -0.139 OA 
HETATM   17  C   UNL     1      -9.684   6.769  70.769  1.00  0.00    -0.179 C  
HETATM   18  C   UNL     1      -8.380   7.583  70.536  1.00  0.00    -0.131 C  
HETATM   19  C   UNL     1      -8.137   8.621  71.640  1.00  0.00    -0.183 C  
ENDROOT
BRANCH  17  20
HETATM   20  O   UNL     1      -9.702   6.084  72.048  1.00  0.00    -0.157 OA 
BRANCH  20  21
HETATM   21  C   UNL     1     -10.809   6.181  72.821  1.00  0.00    -0.250 C  
HETATM   22  O   UNL     1     -11.351   5.248  73.401  1.00  0.00    -0.293 OA 
BRANCH  21  23
HETATM   23  C   UNL     1     -11.289   7.609  72.924  1.00  0.00    -0.394 C  
BRANCH  23  24
HETATM   24  C   UNL     1     -12.474   7.903  72.030  1.00  0.00    -0.338 C  
HETATM   25  C   UNL     1     -12.354   9.264  71.388  1.00  0.00    -0.343 C  
HETATM   26  O   UNL     1     -11.674   9.485  70.400  1.00  0.00    -0.247 OA 
HETATM   27  O   UNL     1     -13.060  10.224  72.018  1.00  0.00    -0.447 OA 
ENDBRANCH  23  24
ENDBRANCH  21  23
ENDBRANCH  20  21
ENDBRANCH  17  20
TORSDOF 4
ENDMDL
MODEL      137
REMARK 921   NORMALIZED FREE ENERGY PREDICTED BY IDOCK:   -3.85 KCAL/MOL
REMARK 922        TOTAL FREE ENERGY PREDICTED BY IDOCK:   -5.48 KCAL/MOL
REMARK 923 INTER-LIGAND FREE ENERGY PREDICTED BY IDOCK:   -4.74 KCAL/MOL
REMARK 924 INTRA-LIGAND FREE ENERGY PREDICTED BY IDOCK:   -0.74 KCAL/MOL
REMARK 927      BINDING AFFINITY PREDICTED BY RF-SCORE:    0.00 PKD
ROOT
HETATM    1  C   UNL     1      -7.713   7.065  72.145  1.00  0.00    -0.092 C  
HETATM    2  C   UNL     1      -7.998   6.392  73.514  1.00  0.00    -0.099 C  
HETATM    3  C   UNL     1      -8.795   5.091  73.392  1.00  0.00    -0.113 C  
HETATM    4  C   UNL     1     -10.097   5.246  72.579  1.00  0.00    -0.224 C  
HETATM    5  C   UNL     1     -11.331   4.810  73.363  1.00  0.00    -0.397 C  
HETATM    6  C   UNL     1     -10.200   6.684  72.000  1.00  0.00    -0.206 C  
HETATM    7  C   UNL     1     -11.489   6.952  71.238  1.00  0.00    -0.337 C  
HETATM    8  C   UNL     1     -11.507   6.218  69.919  1.00  0.00    -0.459 C  
HETATM    9  C   UNL     1     -10.368   6.665  68.968  1.00  0.00    -0.192 C  
HETATM   10  C   UNL     1     -10.937   6.504  67.547  1.00  0.00    -0.444 C  
HETATM   11  O   UNL     1      -9.225   5.814  69.030  1.00  0.00    -0.118 OA 
HETATM   12  O   UNL     1      -8.631   5.778  70.370  1.00  0.00    -0.129 OA 
HETATM   13  C   UNL     1      -8.919   6.962  71.155  1.00  0.00    -0.143 C  
HETATM   14  C   UNL     1      -9.063   8.219  70.256  1.00  0.00    -0.150 C  
HETATM   15  O   UNL     1      -7.793   8.729  69.817  1.00  0.00    -0.084 OA 
HETATM   16  O   UNL     1      -9.959   8.024  69.141  1.00  0.00    -0.179 OA 
HETATM   17  C   UNL     1      -6.883   9.061  70.879  1.00  0.00    -0.088 C  
HETATM   18  C   UNL     1      -7.270   8.536  72.290  1.00  0.00    -0.089 C  
HETATM   19  C   UNL     1      -6.132   8.707  73.305  1.00  0.00    -0.101 C  
ENDROOT
BRANCH  17  20
HETATM   20  O   UNL     1      -6.484  10.456  70.883  1.00  0.00    -0.327 OA 
BRANCH  20  21
HETATM   21  C   UNL     1      -5.971  10.988  69.749  1.00  0.00    -0.086 C  
HETATM   22  O   UNL     1      -5.194  10.421  68.990  1.00  0.00    -0.039 OA 
BRANCH  21  23
HETATM   23  C   UNL     1      -6.507  12.377  69.498  1.00  0.00    -0.090 C  
BRANCH  23  24
HETATM   24  C   UNL     1      -6.905  12.610  68.056  1.00  0.00    -0.095 C  
HETATM   25  C   UNL     1      -8.244  11.985  67.748  1.00  0.00    -0.151 C  
HETATM   26  O   UNL     1      -9.311  12.505  68.029  1.00  0.00    -0.193 OA 
HETATM   27  O   UNL     1      -8.155  10.784  67.143  1.00  0.00    -0.119 OA 
ENDBRANCH  23  24
ENDBRANCH  21  23
ENDBRANCH  20  21
ENDBRANCH  17  20
TORSDOF 4
ENDMDL
MODEL      138
REMARK 921   NORMALIZED FREE ENERGY PREDICTED BY IDOCK:   -3.77 KCAL/MOL
REMARK 922        TOTAL FREE ENERGY PREDICTED BY IDOCK:   -5.37 KCAL/MOL
REMARK 923 INTER-LIGAND FREE ENERGY PREDICTED BY IDOCK:   -4.44 KCAL/MOL
REMARK 924 INTRA-LIGAND FREE ENERGY PREDICTED BY IDOCK:   -0.93 KCAL/MOL
REMARK 927      BINDING AFFINITY PREDICTED BY RF-SCORE:    0.00 PKD
ROOT
HETATM    1  C   UNL     1      -7.074   7.763  69.423  1.00  0.00    -0.071 C  
HETATM    2  C   UNL     1      -6.282   6.430  69.375  1.00  0.00    -0.034 C  
HETATM    3  C   UNL     1      -5.582   6.191  68.035  1.00  0.00    -0.008 C  
HETATM    4  C   UNL     1      -6.529   6.306  66.823  1.00  0.00    -0.046 C  
HETATM    5  C   UNL     1      -6.531   5.048  65.960  1.00  0.00    -0.040 C  
HETATM    6  C   UNL     1      -7.944   6.747  67.287  1.00  0.00    -0.114 C  
HETATM    7  C   UNL     1      -8.968   6.822  66.164  1.00  0.00    -0.157 C  
HETATM    8  C   UNL     1      -8.696   7.995  65.253  1.00  0.00    -0.062 C  
HETATM    9  C   UNL     1      -8.791   9.357  65.986  1.00  0.00    -0.156 C  
HETATM   10  C   UNL     1      -9.286  10.357  64.924  1.00  0.00    -0.294 C  
HETATM   11  O   UNL     1      -7.522   9.846  66.420  1.00  0.00    -0.097 OA 
HETATM   12  O   UNL     1      -6.870   8.934  67.363  1.00  0.00    -0.069 OA 
HETATM   13  C   UNL     1      -7.802   8.085  68.077  1.00  0.00    -0.126 C  
HETATM   14  C   UNL     1      -9.167   8.794  68.291  1.00  0.00    -0.140 C  
HETATM   15  O   UNL     1      -9.122   9.762  69.352  1.00  0.00    -0.173 OA 
HETATM   16  O   UNL     1      -9.707   9.371  67.083  1.00  0.00    -0.156 OA 
HETATM   17  C   UNL     1      -8.706   9.237  70.624  1.00  0.00    -0.234 C  
HETATM   18  C   UNL     1      -8.076   7.816  70.595  1.00  0.00    -0.103 C  
HETATM   19  C   UNL     1      -7.429   7.440  71.935  1.00  0.00    -0.080 C  
ENDROOT
BRANCH  17  20
HETATM   20  O   UNL     1      -9.700   9.395  71.668  1.00  0.00    -0.241 OA 
BRANCH  20  21
HETATM   21  C   UNL     1     -10.882   8.746  71.544  1.00  0.00    -0.304 C  
HETATM   22  O   UNL     1     -11.723   8.969  70.681  1.00  0.00    -0.272 OA 
BRANCH  21  23
HETATM   23  C   UNL     1     -11.033   7.668  72.588  1.00  0.00    -0.405 C  
BRANCH  23  24
HETATM   24  C   UNL     1     -11.784   6.453  72.084  1.00  0.00    -0.366 C  
HETATM   25  C   UNL     1     -10.853   5.471  71.416  1.00  0.00    -0.185 C  
HETATM   26  O   UNL     1     -10.162   4.673  72.028  1.00  0.00    -0.190 OA 
HETATM   27  O   UNL     1     -10.843   5.563  70.071  1.00  0.00    -0.317 OA 
ENDBRANCH  23  24
ENDBRANCH  21  23
ENDBRANCH  20  21
ENDBRANCH  17  20
TORSDOF 4
ENDMDL
MODEL      139
REMARK 921   NORMALIZED FREE ENERGY PREDICTED BY IDOCK:   -3.77 KCAL/MOL
REMARK 922        TOTAL FREE ENERGY PREDICTED BY IDOCK:   -5.37 KCAL/MOL
REMARK 923 INTER-LIGAND FREE ENERGY PREDICTED BY IDOCK:   -4.73 KCAL/MOL
REMARK 924 INTRA-LIGAND FREE ENERGY PREDICTED BY IDOCK:   -0.64 KCAL/MOL
REMARK 927      BINDING AFFINITY PREDICTED BY RF-SCORE:    0.00 PKD
ROOT
HETATM    1  C   UNL     1     -10.942   9.816  68.600  1.00  0.00    -0.189 C  
HETATM    2  C   UNL     1     -11.594  11.215  68.763  1.00  0.00    -0.389 C  
HETATM    3  C   UNL     1     -11.549  12.054  67.484  1.00  0.00    -0.401 C  
HETATM    4  C   UNL     1     -10.132  12.180  66.886  1.00  0.00    -0.222 C  
HETATM    5  C   UNL     1      -9.695  13.631  66.717  1.00  0.00    -0.275 C  
HETATM    6  C   UNL     1      -9.128  11.315  67.697  1.00  0.00    -0.149 C  
HETATM    7  C   UNL     1      -7.688  11.430  67.221  1.00  0.00    -0.145 C  
HETATM    8  C   UNL     1      -7.495  10.740  65.892  1.00  0.00    -0.099 C  
HETATM    9  C   UNL     1      -7.786   9.220  65.957  1.00  0.00    -0.096 C  
HETATM   10  C   UNL     1      -6.848   8.581  64.917  1.00  0.00    -0.072 C  
HETATM   11  O   UNL     1      -9.111   8.888  65.544  1.00  0.00    -0.206 OA 
HETATM   12  O   UNL     1     -10.129   9.522  66.385  1.00  0.00    -0.254 OA 
HETATM   13  C   UNL     1      -9.653   9.847  67.715  1.00  0.00    -0.141 C  
HETATM   14  C   UNL     1      -8.575   8.837  68.195  1.00  0.00    -0.134 C  
HETATM   15  O   UNL     1      -9.144   7.589  68.622  1.00  0.00    -0.136 OA 
HETATM   16  O   UNL     1      -7.521   8.626  67.230  1.00  0.00    -0.087 OA 
HETATM   17  C   UNL     1     -10.121   7.705  69.670  1.00  0.00    -0.194 C  
HETATM   18  C   UNL     1     -10.640   9.142  69.955  1.00  0.00    -0.246 C  
HETATM   19  C   UNL     1     -11.853   9.146  70.894  1.00  0.00    -0.327 C  
ENDROOT
BRANCH  17  20
HETATM   20  O   UNL     1      -9.764   6.982  70.876  1.00  0.00    -0.174 OA 
BRANCH  20  21
HETATM   21  C   UNL     1      -9.909   5.636  70.893  1.00  0.00    -0.182 C  
HETATM   22  O   UNL     1     -10.624   4.992  70.136  1.00  0.00    -0.236 OA 
BRANCH  21  23
HETATM   23  C   UNL     1      -9.038   5.000  71.949  1.00  0.00    -0.157 C  
BRANCH  23  24
HETATM   24  C   UNL     1      -7.566   5.307  71.772  1.00  0.00    -0.107 C  
HETATM   25  C   UNL     1      -7.005   4.620  70.551  1.00  0.00    -0.037 C  
HETATM   26  O   UNL     1      -7.136   5.051  69.416  1.00  0.00    -0.053 OA 
HETATM   27  O   UNL     1      -6.354   3.473  70.825  1.00  0.00    -0.022 OA 
ENDBRANCH  23  24
ENDBRANCH  21  23
ENDBRANCH  20  21
ENDBRANCH  17  20
TORSDOF 4
ENDMDL
MODEL      140
REMARK 921   NORMALIZED FREE ENERGY PREDICTED BY IDOCK:   -3.73 KCAL/MOL
REMARK 922        TOTAL FREE ENERGY PREDICTED BY IDOCK:   -5.32 KCAL/MOL
REMARK 923 INTER-LIGAND FREE ENERGY PREDICTED BY IDOCK:   -4.39 KCAL/MOL
REMARK 924 INTRA-LIGAND FREE ENERGY PREDICTED BY IDOCK:   -0.93 KCAL/MOL
REMARK 927      BINDING AFFINITY PREDICTED BY RF-SCORE:    0.00 PKD
ROOT
HETATM    1  C   UNL     1      -9.773   7.561  67.342  1.00  0.00    -0.204 C  
HETATM    2  C   UNL     1      -8.791   8.336  66.424  1.00  0.00    -0.180 C  
HETATM    3  C   UNL     1      -8.065   7.438  65.421  1.00  0.00    -0.133 C  
HETATM    4  C   UNL     1      -7.360   6.233  66.078  1.00  0.00    -0.080 C  
HETATM    5  C   UNL     1      -5.870   6.179  65.755  1.00  0.00    -0.025 C  
HETATM    6  C   UNL     1      -7.671   6.194  67.600  1.00  0.00    -0.098 C  
HETATM    7  C   UNL     1      -6.961   5.076  68.348  1.00  0.00    -0.057 C  
HETATM    8  C   UNL     1      -7.549   3.729  68.003  1.00  0.00    -0.066 C  
HETATM    9  C   UNL     1      -9.041   3.605  68.401  1.00  0.00    -0.147 C  
HETATM   10  C   UNL     1      -9.249   2.120  68.747  1.00  0.00    -0.221 C  
HETATM   11  O   UNL     1      -9.931   3.882  67.320  1.00  0.00    -0.123 OA 
HETATM   12  O   UNL     1      -9.770   5.244  66.804  1.00  0.00    -0.135 OA 
HETATM   13  C   UNL     1      -9.220   6.165  67.779  1.00  0.00    -0.111 C  
HETATM   14  C   UNL     1      -9.642   5.782  69.224  1.00  0.00    -0.139 C  
HETATM   15  O   UNL     1     -10.997   6.162  69.519  1.00  0.00    -0.320 OA 
HETATM   16  O   UNL     1      -9.412   4.391  69.536  1.00  0.00    -0.146 OA 
HETATM   17  C   UNL     1     -11.276   7.561  69.346  1.00  0.00     0.104 C  
HETATM   18  C   UNL     1     -10.197   8.377  68.581  1.00  0.00    -0.220 C  
HETATM   19  C   UNL     1     -10.684   9.785  68.215  1.00  0.00    -0.277 C  
ENDROOT
BRANCH  17  20
HETATM   20  O   UNL     1     -11.726   8.215  70.560  1.00  0.00    -0.201 OA 
BRANCH  20  21
HETATM   21  C   UNL     1     -11.368   7.687  71.754  1.00  0.00    -0.255 C  
HETATM   22  O   UNL     1     -11.904   6.726  72.291  1.00  0.00    -0.284 OA 
BRANCH  21  23
HETATM   23  C   UNL     1     -10.180   8.408  72.344  1.00  0.00    -0.399 C  
BRANCH  23  24
HETATM   24  C   UNL     1      -8.939   7.545  72.423  1.00  0.00    -0.172 C  
HETATM   25  C   UNL     1      -7.708   8.315  72.014  1.00  0.00    -0.119 C  
HETATM   26  O   UNL     1      -7.111   9.077  72.756  1.00  0.00    -0.326 OA 
HETATM   27  O   UNL     1      -7.330   8.094  70.739  1.00  0.00    -0.054 OA 
ENDBRANCH  23  24
ENDBRANCH  21  23
ENDBRANCH  20  21
ENDBRANCH  17  20
TORSDOF 4
ENDMDL
MODEL      141
REMARK 921   NORMALIZED FREE ENERGY PREDICTED BY IDOCK:   -3.72 KCAL/MOL
REMARK 922        TOTAL FREE ENERGY PREDICTED BY IDOCK:   -5.31 KCAL/MOL
REMARK 923 INTER-LIGAND FREE ENERGY PREDICTED BY IDOCK:   -4.66 KCAL/MOL
REMARK 924 INTRA-LIGAND FREE ENERGY PREDICTED BY IDOCK:   -0.64 KCAL/MOL
REMARK 927      BINDING AFFINITY PREDICTED BY RF-SCORE:    0.00 PKD
ROOT
HETATM    1  C   UNL     1      -9.888   4.611  70.215  1.00  0.00    -0.314 C  
HETATM    2  C   UNL     1     -10.210   4.381  71.716  1.00  0.00    -0.201 C  
HETATM    3  C   UNL     1     -11.042   5.506  72.334  1.00  0.00    -0.312 C  
HETATM    4  C   UNL     1     -10.432   6.907  72.116  1.00  0.00    -0.230 C  
HETATM    5  C   UNL     1     -10.197   7.653  73.426  1.00  0.00    -0.375 C  
HETATM    6  C   UNL     1      -9.169   6.809  71.217  1.00  0.00    -0.154 C  
HETATM    7  C   UNL     1      -8.458   8.136  71.003  1.00  0.00    -0.144 C  
HETATM    8  C   UNL     1      -9.259   9.045  70.101  1.00  0.00    -0.212 C  
HETATM    9  C   UNL     1      -9.462   8.455  68.682  1.00  0.00    -0.147 C  
HETATM   10  C   UNL     1      -9.523   9.670  67.740  1.00  0.00    -0.146 C  
HETATM   11  O   UNL     1     -10.711   7.781  68.533  1.00  0.00    -0.150 OA 
HETATM   12  O   UNL     1     -10.846   6.651  69.456  1.00  0.00    -0.242 OA 
HETATM   13  C   UNL     1      -9.573   6.107  69.885  1.00  0.00    -0.159 C  
HETATM   14  C   UNL     1      -8.489   6.259  68.783  1.00  0.00    -0.119 C  
HETATM   15  O   UNL     1      -8.635   5.289  67.732  1.00  0.00    -0.105 OA 
HETATM   16  O   UNL     1      -8.404   7.597  68.247  1.00  0.00    -0.123 OA 
HETATM   17  C   UNL     1      -8.610   3.922  68.174  1.00  0.00    -0.096 C  
HETATM   18  C   UNL     1      -8.749   3.703  69.707  1.00  0.00    -0.126 C  
HETATM   19  C   UNL     1      -8.972   2.228  70.066  1.00  0.00    -0.156 C  
ENDROOT
BRANCH  17  20
HETATM   20  O   UNL     1      -7.535   3.144  67.586  1.00  0.00    -0.060 OA 
BRANCH  20  21
HETATM   21  C   UNL     1      -7.448   3.072  66.237  1.00  0.00    -0.076 C  
HETATM   22  O   UNL     1      -6.419   3.215  65.587  1.00  0.00    -0.031 OA 
BRANCH  21  23
HETATM   23  C   UNL     1      -8.783   2.751  65.612  1.00  0.00    -0.128 C  
BRANCH  23  24
HETATM   24  C   UNL     1      -9.138   3.668  64.461  1.00  0.00    -0.131 C  
HETATM   25  C   UNL     1     -10.631   3.731  64.248  1.00  0.00    -0.228 C  
HETATM   26  O   UNL     1     -11.377   4.430  64.913  1.00  0.00    -0.266 OA 
HETATM   27  O   UNL     1     -11.072   2.927  63.260  1.00  0.00    -0.230 OA 
ENDBRANCH  23  24
ENDBRANCH  21  23
ENDBRANCH  20  21
ENDBRANCH  17  20
TORSDOF 4
ENDMDL
MODEL      142
REMARK 921   NORMALIZED FREE ENERGY PREDICTED BY IDOCK:   -3.65 KCAL/MOL
REMARK 922        TOTAL FREE ENERGY PREDICTED BY IDOCK:   -5.22 KCAL/MOL
REMARK 923 INTER-LIGAND FREE ENERGY PREDICTED BY IDOCK:   -4.56 KCAL/MOL
REMARK 924 INTRA-LIGAND FREE ENERGY PREDICTED BY IDOCK:   -0.66 KCAL/MOL
REMARK 927      BINDING AFFINITY PREDICTED BY RF-SCORE:    0.00 PKD
ROOT
HETATM    1  C   UNL     1      -9.644   5.334  68.613  1.00  0.00    -0.183 C  
HETATM    2  C   UNL     1      -9.153   3.933  68.161  1.00  0.00    -0.187 C  
HETATM    3  C   UNL     1      -9.461   2.829  69.175  1.00  0.00    -0.155 C  
HETATM    4  C   UNL     1      -8.959   3.150  70.598  1.00  0.00    -0.164 C  
HETATM    5  C   UNL     1      -8.025   2.074  71.146  1.00  0.00    -0.049 C  
HETATM    6  C   UNL     1      -8.357   4.582  70.645  1.00  0.00    -0.084 C  
HETATM    7  C   UNL     1      -7.772   4.962  71.997  1.00  0.00    -0.100 C  
HETATM    8  C   UNL     1      -8.859   5.183  73.021  1.00  0.00    -0.120 C  
HETATM    9  C   UNL     1      -9.811   6.346  72.644  1.00  0.00    -0.166 C  
HETATM   10  C   UNL     1     -10.269   6.948  73.985  1.00  0.00    -0.384 C  
HETATM   11  O   UNL     1     -10.999   5.904  71.989  1.00  0.00    -0.245 OA 
HETATM   12  O   UNL     1     -10.712   5.204  70.734  1.00  0.00    -0.187 OA 
HETATM   13  C   UNL     1      -9.443   5.582  70.144  1.00  0.00    -0.163 C  
HETATM   14  C   UNL     1      -9.084   7.058  70.467  1.00  0.00    -0.156 C  
HETATM   15  O   UNL     1      -9.822   7.992  69.661  1.00  0.00    -0.179 OA 
HETATM   16  O   UNL     1      -9.197   7.379  71.870  1.00  0.00    -0.133 OA 
HETATM   17  C   UNL     1      -9.665   7.811  68.244  1.00  0.00    -0.159 C  
HETATM   18  C   UNL     1      -9.002   6.477  67.800  1.00  0.00    -0.114 C  
HETATM   19  C   UNL     1      -9.108   6.250  66.287  1.00  0.00    -0.166 C  
ENDROOT
BRANCH  17  20
HETATM   20  O   UNL     1      -9.111   8.971  67.571  1.00  0.00    -0.131 OA 
BRANCH  20  21
HETATM   21  C   UNL     1      -9.949   9.962  67.187  1.00  0.00    -0.200 C  
HETATM   22  O   UNL     1     -10.386  10.841  67.920  1.00  0.00    -0.172 OA 
BRANCH  21  23
HETATM   23  C   UNL     1     -10.260   9.884  65.713  1.00  0.00    -0.251 C  
BRANCH  23  24
HETATM   24  C   UNL     1      -9.387  10.791  64.872  1.00  0.00    -0.261 C  
HETATM   25  C   UNL     1      -8.208  10.042  64.299  1.00  0.00    -0.166 C  
HETATM   26  O   UNL     1      -8.275   9.339  63.305  1.00  0.00    -0.154 OA 
HETATM   27  O   UNL     1      -7.068  10.209  64.999  1.00  0.00    -0.132 OA 
ENDBRANCH  23  24
ENDBRANCH  21  23
ENDBRANCH  20  21
ENDBRANCH  17  20
TORSDOF 4
ENDMDL
MODEL      143
REMARK 921   NORMALIZED FREE ENERGY PREDICTED BY IDOCK:   -3.56 KCAL/MOL
REMARK 922        TOTAL FREE ENERGY PREDICTED BY IDOCK:   -5.11 KCAL/MOL
REMARK 923 INTER-LIGAND FREE ENERGY PREDICTED BY IDOCK:   -4.50 KCAL/MOL
REMARK 924 INTRA-LIGAND FREE ENERGY PREDICTED BY IDOCK:   -0.61 KCAL/MOL
REMARK 927      BINDING AFFINITY PREDICTED BY RF-SCORE:    0.00 PKD
ROOT
HETATM    1  C   UNL     1      -6.818  14.020  68.110  1.00  0.00    -0.122 C  
HETATM    2  C   UNL     1      -5.821  15.021  67.468  1.00  0.00     0.042 C  
HETATM    3  C   UNL     1      -6.242  16.483  67.638  1.00  0.00    -0.167 C  
HETATM    4  C   UNL     1      -7.681  16.763  67.158  1.00  0.00    -0.213 C  
HETATM    5  C   UNL     1      -7.743  17.863  66.102  1.00  0.00    -0.272 C  
HETATM    6  C   UNL     1      -8.370  15.440  66.723  1.00  0.00    -0.285 C  
HETATM    7  C   UNL     1      -9.774  15.627  66.169  1.00  0.00    -0.348 C  
HETATM    8  C   UNL     1     -10.749  15.994  67.262  1.00  0.00    -0.295 C  
HETATM    9  C   UNL     1     -10.878  14.892  68.345  1.00  0.00    -0.251 C  
HETATM   10  C   UNL     1     -12.328  14.989  68.853  1.00  0.00    -0.023 C  
HETATM   11  O   UNL     1     -10.050  15.129  69.482  1.00  0.00    -0.231 OA 
HETATM   12  O   UNL     1      -8.627  15.176  69.132  1.00  0.00    -0.201 OA 
HETATM   13  C   UNL     1      -8.311  14.444  67.922  1.00  0.00    -0.162 C  
HETATM   14  C   UNL     1      -9.257  13.228  67.728  1.00  0.00    -0.209 C  
HETATM   15  O   UNL     1      -8.909  12.122  68.577  1.00  0.00    -0.160 OA 
HETATM   16  O   UNL     1     -10.655  13.566  67.861  1.00  0.00    -0.240 OA 
HETATM   17  C   UNL     1      -7.562  11.647  68.418  1.00  0.00    -0.126 C  
HETATM   18  C   UNL     1      -6.609  12.574  67.612  1.00  0.00    -0.136 C  
HETATM   19  C   UNL     1      -5.144  12.128  67.709  1.00  0.00    -0.073 C  
ENDROOT
BRANCH  17  20
HETATM   20  O   UNL     1      -7.482  10.259  68.007  1.00  0.00    -0.086 OA 
BRANCH  20  21
HETATM   21  C   UNL     1      -7.505   9.296  68.959  1.00  0.00    -0.073 C  
HETATM   22  O   UNL     1      -7.531   9.498  70.167  1.00  0.00    -0.098 OA 
BRANCH  21  23
HETATM   23  C   UNL     1      -7.536   7.916  68.349  1.00  0.00    -0.100 C  
BRANCH  23  24
HETATM   24  C   UNL     1      -8.939   7.403  68.108  1.00  0.00    -0.129 C  
HETATM   25  C   UNL     1      -9.382   7.660  66.689  1.00  0.00    -0.190 C  
HETATM   26  O   UNL     1      -9.064   6.956  65.745  1.00  0.00    -0.077 OA 
HETATM   27  O   UNL     1     -10.157   8.755  66.553  1.00  0.00    -0.274 OA 
ENDBRANCH  23  24
ENDBRANCH  21  23
ENDBRANCH  20  21
ENDBRANCH  17  20
TORSDOF 4
ENDMDL
MODEL      144
REMARK 921   NORMALIZED FREE ENERGY PREDICTED BY IDOCK:   -3.56 KCAL/MOL
REMARK 922        TOTAL FREE ENERGY PREDICTED BY IDOCK:   -5.11 KCAL/MOL
REMARK 923 INTER-LIGAND FREE ENERGY PREDICTED BY IDOCK:   -4.87 KCAL/MOL
REMARK 924 INTRA-LIGAND FREE ENERGY PREDICTED BY IDOCK:   -0.24 KCAL/MOL
REMARK 927      BINDING AFFINITY PREDICTED BY RF-SCORE:    0.00 PKD
ROOT
HETATM    1  C   UNL     1      -9.860  15.579  67.786  1.00  0.00    -0.213 C  
HETATM    2  C   UNL     1     -10.940  16.298  68.639  1.00  0.00    -0.340 C  
HETATM    3  C   UNL     1     -11.049  17.794  68.337  1.00  0.00     0.263 C  
HETATM    4  C   UNL     1      -9.699  18.535  68.430  1.00  0.00    -0.395 C  
HETATM    5  C   UNL     1      -9.738  19.702  69.412  1.00  0.00    -0.198 C  
HETATM    6  C   UNL     1      -8.550  17.526  68.704  1.00  0.00    -0.259 C  
HETATM    7  C   UNL     1      -7.186  18.176  68.879  1.00  0.00    -0.268 C  
HETATM    8  C   UNL     1      -6.659  18.706  67.566  1.00  0.00    -0.198 C  
HETATM    9  C   UNL     1      -6.450  17.591  66.510  1.00  0.00    -0.234 C  
HETATM   10  C   UNL     1      -5.265  18.063  65.649  1.00  0.00    -0.220 C  
HETATM   11  O   UNL     1      -7.554  17.457  65.616  1.00  0.00    -0.434 OA 
HETATM   12  O   UNL     1      -8.796  17.114  66.314  1.00  0.00    -0.323 OA 
HETATM   13  C   UNL     1      -8.574  16.444  67.581  1.00  0.00    -0.174 C  
HETATM   14  C   UNL     1      -7.278  15.590  67.553  1.00  0.00    -0.194 C  
HETATM   15  O   UNL     1      -7.452  14.352  66.844  1.00  0.00     0.078 OA 
HETATM   16  O   UNL     1      -6.128  16.313  67.063  1.00  0.00    -0.275 OA 
HETATM   17  C   UNL     1      -8.506  13.517  67.351  1.00  0.00    -0.200 C  
HETATM   18  C   UNL     1      -9.484  14.194  68.352  1.00  0.00    -0.214 C  
HETATM   19  C   UNL     1     -10.715  13.325  68.639  1.00  0.00    -0.281 C  
ENDROOT
BRANCH  17  20
HETATM   20  O   UNL     1      -8.049  12.215  67.798  1.00  0.00    -0.132 OA 
BRANCH  20  21
HETATM   21  C   UNL     1      -8.500  11.112  67.155  1.00  0.00    -0.137 C  
HETATM   22  O   UNL     1      -9.672  10.765  67.082  1.00  0.00    -0.167 OA 
BRANCH  21  23
HETATM   23  C   UNL     1      -7.372  10.360  66.491  1.00  0.00    -0.119 C  
BRANCH  23  24
HETATM   24  C   UNL     1      -7.327  10.558  64.991  1.00  0.00    -0.003 C  
HETATM   25  C   UNL     1      -6.561   9.449  64.312  1.00  0.00    -0.094 C  
HETATM   26  O   UNL     1      -7.040   8.356  64.059  1.00  0.00    -0.083 OA 
HETATM   27  O   UNL     1      -5.285   9.771  64.022  1.00  0.00    -0.060 OA 
ENDBRANCH  23  24
ENDBRANCH  21  23
ENDBRANCH  20  21
ENDBRANCH  17  20
TORSDOF 4
ENDMDL
MODEL      145
REMARK 921   NORMALIZED FREE ENERGY PREDICTED BY IDOCK:   -3.47 KCAL/MOL
REMARK 922        TOTAL FREE ENERGY PREDICTED BY IDOCK:   -5.00 KCAL/MOL
REMARK 923 INTER-LIGAND FREE ENERGY PREDICTED BY IDOCK:   -4.31 KCAL/MOL
REMARK 924 INTRA-LIGAND FREE ENERGY PREDICTED BY IDOCK:   -0.69 KCAL/MOL
REMARK 927      BINDING AFFINITY PREDICTED BY RF-SCORE:    0.00 PKD
ROOT
HETATM    1  C   UNL     1      -7.112  13.277  68.549  1.00  0.00    -0.105 C  
HETATM    2  C   UNL     1      -5.605  13.649  68.521  1.00  0.00    -0.091 C  
HETATM    3  C   UNL     1      -5.301  14.985  69.202  1.00  0.00    -0.094 C  
HETATM    4  C   UNL     1      -6.160  16.151  68.671  1.00  0.00    -0.112 C  
HETATM    5  C   UNL     1      -5.316  17.311  68.153  1.00  0.00    -0.121 C  
HETATM    6  C   UNL     1      -7.199  15.626  67.642  1.00  0.00    -0.197 C  
HETATM    7  C   UNL     1      -8.049  16.719  67.010  1.00  0.00    -0.225 C  
HETATM    8  C   UNL     1      -9.037  17.284  68.002  1.00  0.00    -0.249 C  
HETATM    9  C   UNL     1     -10.046  16.225  68.515  1.00  0.00    -0.239 C  
HETATM   10  C   UNL     1     -11.344  17.003  68.799  1.00  0.00     0.201 C  
HETATM   11  O   UNL     1      -9.658  15.644  69.759  1.00  0.00    -0.281 OA 
HETATM   12  O   UNL     1      -8.368  14.954  69.672  1.00  0.00    -0.100 OA 
HETATM   13  C   UNL     1      -8.046  14.512  68.330  1.00  0.00    -0.143 C  
HETATM   14  C   UNL     1      -9.325  14.157  67.525  1.00  0.00    -0.204 C  
HETATM   15  O   UNL     1      -9.870  12.880  67.895  1.00  0.00    -0.213 OA 
HETATM   16  O   UNL     1     -10.335  15.188  67.575  1.00  0.00    -0.238 OA 
HETATM   17  C   UNL     1      -8.957  11.779  67.758  1.00  0.00    -0.173 C  
HETATM   18  C   UNL     1      -7.465  12.159  67.545  1.00  0.00    -0.148 C  
HETATM   19  C   UNL     1      -6.533  10.947  67.668  1.00  0.00    -0.056 C  
ENDROOT
BRANCH  17  20
HETATM   20  O   UNL     1      -9.418  10.757  66.837  1.00  0.00    -0.165 OA 
BRANCH  20  21
HETATM   21  C   UNL     1     -10.459   9.973  67.203  1.00  0.00    -0.244 C  
HETATM   22  O   UNL     1     -11.622  10.344  67.302  1.00  0.00    -0.240 OA 
BRANCH  21  23
HETATM   23  C   UNL     1     -10.022   8.549  67.444  1.00  0.00    -0.275 C  
BRANCH  23  24
HETATM   24  C   UNL     1     -10.107   8.138  68.899  1.00  0.00    -0.211 C  
HETATM   25  C   UNL     1      -8.745   8.136  69.549  1.00  0.00    -0.142 C  
HETATM   26  O   UNL     1      -8.194   9.142  69.963  1.00  0.00    -0.113 OA 
HETATM   27  O   UNL     1      -8.181   6.914  69.620  1.00  0.00    -0.127 OA 
ENDBRANCH  23  24
ENDBRANCH  21  23
ENDBRANCH  20  21
ENDBRANCH  17  20
TORSDOF 4
ENDMDL
MODEL      146
REMARK 921   NORMALIZED FREE ENERGY PREDICTED BY IDOCK:   -3.43 KCAL/MOL
REMARK 922        TOTAL FREE ENERGY PREDICTED BY IDOCK:   -4.95 KCAL/MOL
REMARK 923 INTER-LIGAND FREE ENERGY PREDICTED BY IDOCK:   -4.22 KCAL/MOL
REMARK 924 INTRA-LIGAND FREE ENERGY PREDICTED BY IDOCK:   -0.73 KCAL/MOL
REMARK 927      BINDING AFFINITY PREDICTED BY RF-SCORE:    0.00 PKD
ROOT
HETATM    1  C   UNL     1      -9.776   7.393  69.965  1.00  0.00    -0.175 C  
HETATM    2  C   UNL     1     -10.581   7.869  71.203  1.00  0.00    -0.238 C  
HETATM    3  C   UNL     1     -11.812   8.701  70.838  1.00  0.00    -0.257 C  
HETATM    4  C   UNL     1     -11.492   9.889  69.908  1.00  0.00    -0.234 C  
HETATM    5  C   UNL     1     -11.941  11.226  70.489  1.00  0.00    -0.467 C  
HETATM    6  C   UNL     1      -9.995   9.859  69.494  1.00  0.00    -0.240 C  
HETATM    7  C   UNL     1      -9.569  11.034  68.628  1.00  0.00    -0.198 C  
HETATM    8  C   UNL     1     -10.148  10.927  67.238  1.00  0.00    -0.225 C  
HETATM    9  C   UNL     1      -9.664   9.664  66.482  1.00  0.00    -0.212 C  
HETATM   10  C   UNL     1      -9.632  10.066  64.996  1.00  0.00    -0.362 C  
HETATM   11  O   UNL     1     -10.582   8.575  66.572  1.00  0.00    -0.200 OA 
HETATM   12  O   UNL     1     -10.802   8.149  67.957  1.00  0.00    -0.095 OA 
HETATM   13  C   UNL     1      -9.699   8.475  68.839  1.00  0.00    -0.170 C  
HETATM   14  C   UNL     1      -8.342   8.455  68.084  1.00  0.00    -0.128 C  
HETATM   15  O   UNL     1      -7.861   7.120  67.854  1.00  0.00    -0.110 OA 
HETATM   16  O   UNL     1      -8.359   9.219  66.859  1.00  0.00    -0.121 OA 
HETATM   17  C   UNL     1      -7.703   6.330  69.044  1.00  0.00    -0.100 C  
HETATM   18  C   UNL     1      -8.359   6.905  70.331  1.00  0.00    -0.130 C  
HETATM   19  C   UNL     1      -8.369   5.890  71.482  1.00  0.00    -0.127 C  
ENDROOT
BRANCH  17  20
HETATM   20  O   UNL     1      -6.343   5.872  69.258  1.00  0.00    -0.037 OA 
BRANCH  20  21
HETATM   21  C   UNL     1      -6.082   4.547  69.174  1.00  0.00    -0.026 C  
HETATM   22  O   UNL     1      -5.131   3.978  69.696  1.00  0.00     0.000 OA 
BRANCH  21  23
HETATM   23  C   UNL     1      -7.141   3.824  68.377  1.00  0.00    -0.051 C  
BRANCH  23  24
HETATM   24  C   UNL     1      -6.673   3.416  66.996  1.00  0.00    -0.049 C  
HETATM   25  C   UNL     1      -7.674   3.810  65.938  1.00  0.00    -0.089 C  
HETATM   26  O   UNL     1      -7.758   4.935  65.474  1.00  0.00    -0.084 OA 
HETATM   27  O   UNL     1      -8.484   2.802  65.557  1.00  0.00    -0.093 OA 
ENDBRANCH  23  24
ENDBRANCH  21  23
ENDBRANCH  20  21
ENDBRANCH  17  20
TORSDOF 4
ENDMDL
MODEL      147
REMARK 921   NORMALIZED FREE ENERGY PREDICTED BY IDOCK:   -3.41 KCAL/MOL
REMARK 922        TOTAL FREE ENERGY PREDICTED BY IDOCK:   -4.93 KCAL/MOL
REMARK 923 INTER-LIGAND FREE ENERGY PREDICTED BY IDOCK:   -4.54 KCAL/MOL
REMARK 924 INTRA-LIGAND FREE ENERGY PREDICTED BY IDOCK:   -0.39 KCAL/MOL
REMARK 927      BINDING AFFINITY PREDICTED BY RF-SCORE:    0.00 PKD
ROOT
HETATM    1  C   UNL     1      -7.164   9.266  70.385  1.00  0.00    -0.097 C  
HETATM    2  C   UNL     1      -6.828   9.371  71.897  1.00  0.00     0.340 C  
HETATM    3  C   UNL     1      -7.244   8.133  72.694  1.00  0.00    -0.127 C  
HETATM    4  C   UNL     1      -8.723   7.744  72.491  1.00  0.00    -0.196 C  
HETATM    5  C   UNL     1      -9.496   7.675  73.804  1.00  0.00    -0.300 C  
HETATM    6  C   UNL     1      -9.379   8.667  71.427  1.00  0.00    -0.305 C  
HETATM    7  C   UNL     1     -10.861   8.401  71.208  1.00  0.00    -0.293 C  
HETATM    8  C   UNL     1     -11.082   7.095  70.484  1.00  0.00    -0.299 C  
HETATM    9  C   UNL     1     -10.449   7.080  69.069  1.00  0.00    -0.207 C  
HETATM   10  C   UNL     1     -11.358   6.166  68.227  1.00  0.00     0.029 C  
HETATM   11  O   UNL     1      -9.157   6.476  69.044  1.00  0.00    -0.132 OA 
HETATM   12  O   UNL     1      -8.198   7.180  69.899  1.00  0.00    -0.129 OA 
HETATM   13  C   UNL     1      -8.540   8.572  70.116  1.00  0.00    -0.132 C  
HETATM   14  C   UNL     1      -9.282   9.173  68.892  1.00  0.00    -0.139 C  
HETATM   15  O   UNL     1      -8.391   9.484  67.808  1.00  0.00    -0.117 OA 
HETATM   16  O   UNL     1     -10.388   8.362  68.440  1.00  0.00    -0.206 OA 
HETATM   17  C   UNL     1      -7.326  10.387  68.151  1.00  0.00    -0.088 C  
HETATM   18  C   UNL     1      -7.110  10.632  69.670  1.00  0.00    -0.143 C  
HETATM   19  C   UNL     1      -5.807  11.391  69.957  1.00  0.00    -0.126 C  
ENDROOT
BRANCH  17  20
HETATM   20  O   UNL     1      -7.334  11.612  67.374  1.00  0.00    -0.110 OA 
BRANCH  20  21
HETATM   21  C   UNL     1      -8.388  11.859  66.560  1.00  0.00    -0.062 C  
HETATM   22  O   UNL     1      -8.748  11.144  65.634  1.00  0.00    -0.185 OA 
BRANCH  21  23
HETATM   23  C   UNL     1      -9.108  13.125  66.957  1.00  0.00    -0.231 C  
BRANCH  23  24
HETATM   24  C   UNL     1     -10.445  12.866  67.618  1.00  0.00    -0.228 C  
HETATM   25  C   UNL     1     -11.426  13.975  67.324  1.00  0.00    -0.348 C  
HETATM   26  O   UNL     1     -12.061  14.055  66.285  1.00  0.00    -0.412 OA 
HETATM   27  O   UNL     1     -11.530  14.884  68.313  1.00  0.00    -0.297 OA 
ENDBRANCH  23  24
ENDBRANCH  21  23
ENDBRANCH  20  21
ENDBRANCH  17  20
TORSDOF 4
ENDMDL
MODEL      148
REMARK 921   NORMALIZED FREE ENERGY PREDICTED BY IDOCK:   -3.35 KCAL/MOL
REMARK 922        TOTAL FREE ENERGY PREDICTED BY IDOCK:   -4.86 KCAL/MOL
REMARK 923 INTER-LIGAND FREE ENERGY PREDICTED BY IDOCK:   -4.23 KCAL/MOL
REMARK 924 INTRA-LIGAND FREE ENERGY PREDICTED BY IDOCK:   -0.63 KCAL/MOL
REMARK 927      BINDING AFFINITY PREDICTED BY RF-SCORE:    0.00 PKD
ROOT
HETATM    1  C   UNL     1      -9.592   9.308  69.929  1.00  0.00    -0.217 C  
HETATM    2  C   UNL     1     -10.210   9.464  71.343  1.00  0.00    -0.297 C  
HETATM    3  C   UNL     1     -11.668   9.926  71.317  1.00  0.00    -0.472 C  
HETATM    4  C   UNL     1     -11.889  11.205  70.483  1.00  0.00    -0.448 C  
HETATM    5  C   UNL     1     -12.546  12.322  71.288  1.00  0.00    -0.336 C  
HETATM    6  C   UNL     1     -10.564  11.630  69.791  1.00  0.00     0.373 C  
HETATM    7  C   UNL     1     -10.668  12.924  68.999  1.00  0.00    -0.132 C  
HETATM    8  C   UNL     1     -11.481  12.731  67.742  1.00  0.00    -0.376 C  
HETATM    9  C   UNL     1     -10.849  11.704  66.769  1.00  0.00    -0.277 C  
HETATM   10  C   UNL     1     -11.247  12.179  65.360  1.00  0.00    -0.381 C  
HETATM   11  O   UNL     1     -11.396  10.394  66.909  1.00  0.00    -0.163 OA 
HETATM   12  O   UNL     1     -11.190   9.847  68.252  1.00  0.00    -0.195 OA 
HETATM   13  C   UNL     1     -10.054  10.428  68.939  1.00  0.00    -0.201 C  
HETATM   14  C   UNL     1      -8.937  10.840  67.942  1.00  0.00    -0.139 C  
HETATM   15  O   UNL     1      -8.175   9.715  67.475  1.00  0.00    -0.113 OA 
HETATM   16  O   UNL     1      -9.422  11.634  66.837  1.00  0.00    -0.179 OA 
HETATM   17  C   UNL     1      -7.557   8.939  68.515  1.00  0.00    -0.097 C  
HETATM   18  C   UNL     1      -8.051   9.230  69.960  1.00  0.00    -0.140 C  
HETATM   19  C   UNL     1      -7.539   8.193  70.969  1.00  0.00    -0.083 C  
ENDROOT
BRANCH  17  20
HETATM   20  O   UNL     1      -6.111   8.881  68.413  1.00  0.00    -0.045 OA 
BRANCH  20  21
HETATM   21  C   UNL     1      -5.453   9.942  67.888  1.00  0.00    -0.039 C  
HETATM   22  O   UNL     1      -5.137  10.065  66.711  1.00  0.00    -0.039 OA 
BRANCH  21  23
HETATM   23  C   UNL     1      -5.183  10.997  68.932  1.00  0.00    -0.040 C  
BRANCH  23  24
HETATM   24  C   UNL     1      -5.426  12.405  68.432  1.00  0.00    -0.053 C  
HETATM   25  C   UNL     1      -6.169  13.231  69.454  1.00  0.00    -0.110 C  
HETATM   26  O   UNL     1      -5.631  13.764  70.410  1.00  0.00    -0.116 OA 
HETATM   27  O   UNL     1      -7.494  13.316  69.222  1.00  0.00     0.089 OA 
ENDBRANCH  23  24
ENDBRANCH  21  23
ENDBRANCH  20  21
ENDBRANCH  17  20
TORSDOF 4
ENDMDL
MODEL      149
REMARK 921   NORMALIZED FREE ENERGY PREDICTED BY IDOCK:   -3.31 KCAL/MOL
REMARK 922        TOTAL FREE ENERGY PREDICTED BY IDOCK:   -4.81 KCAL/MOL
REMARK 923 INTER-LIGAND FREE ENERGY PREDICTED BY IDOCK:   -4.24 KCAL/MOL
REMARK 924 INTRA-LIGAND FREE ENERGY PREDICTED BY IDOCK:   -0.57 KCAL/MOL
REMARK 927      BINDING AFFINITY PREDICTED BY RF-SCORE:    0.00 PKD
ROOT
HETATM    1  C   UNL     1      -9.622   9.072  69.820  1.00  0.00    -0.182 C  
HETATM    2  C   UNL     1     -10.282   9.583  71.128  1.00  0.00    -0.300 C  
HETATM    3  C   UNL     1     -11.651  10.228  70.902  1.00  0.00    -0.454 C  
HETATM    4  C   UNL     1     -11.633  11.339  69.833  1.00  0.00    -0.413 C  
HETATM    5  C   UNL     1     -12.155  12.671  70.363  1.00  0.00    -0.381 C  
HETATM    6  C   UNL     1     -10.226  11.434  69.181  1.00  0.00    -0.084 C  
HETATM    7  C   UNL     1     -10.093  12.552  68.158  1.00  0.00    -0.225 C  
HETATM    8  C   UNL     1     -10.860  12.234  66.897  1.00  0.00    -0.290 C  
HETATM    9  C   UNL     1     -10.340  10.961  66.184  1.00  0.00    -0.248 C  
HETATM   10  C   UNL     1     -10.590  11.204  64.684  1.00  0.00    -0.386 C  
HETATM   11  O   UNL     1     -11.086   9.791  66.518  1.00  0.00     0.151 OA 
HETATM   12  O   UNL     1     -11.033   9.491  67.952  1.00  0.00    -0.229 OA 
HETATM   13  C   UNL     1      -9.859  10.031  68.607  1.00  0.00    -0.160 C  
HETATM   14  C   UNL     1      -8.643  10.085  67.643  1.00  0.00    -0.118 C  
HETATM   15  O   UNL     1      -8.036   8.797  67.453  1.00  0.00    -0.097 OA 
HETATM   16  O   UNL     1      -8.946  10.709  66.376  1.00  0.00    -0.155 OA 
HETATM   17  C   UNL     1      -7.596   8.159  68.664  1.00  0.00    -0.103 C  
HETATM   18  C   UNL     1      -8.115   8.789  69.987  1.00  0.00    -0.111 C  
HETATM   19  C   UNL     1      -7.817   7.907  71.206  1.00  0.00    -0.088 C  
ENDROOT
BRANCH  17  20
HETATM   20  O   UNL     1      -6.172   7.883  68.688  1.00  0.00    -0.038 OA 
BRANCH  20  21
HETATM   21  C   UNL     1      -5.662   7.019  67.780  1.00  0.00    -0.024 C  
HETATM   22  O   UNL     1      -5.619   5.801  67.909  1.00  0.00    -0.011 OA 
BRANCH  21  23
HETATM   23  C   UNL     1      -5.177   7.736  66.544  1.00  0.00    -0.024 C  
BRANCH  23  24
HETATM   24  C   UNL     1      -5.672   7.109  65.258  1.00  0.00    -0.036 C  
HETATM   25  C   UNL     1      -6.199   8.154  64.305  1.00  0.00    -0.065 C  
HETATM   26  O   UNL     1      -5.483   8.834  63.588  1.00  0.00    -0.061 OA 
HETATM   27  O   UNL     1      -7.540   8.280  64.327  1.00  0.00    -0.107 OA 
ENDBRANCH  23  24
ENDBRANCH  21  23
ENDBRANCH  20  21
ENDBRANCH  17  20
TORSDOF 4
ENDMDL
MODEL      150
REMARK 921   NORMALIZED FREE ENERGY PREDICTED BY IDOCK:   -3.27 KCAL/MOL
REMARK 922        TOTAL FREE ENERGY PREDICTED BY IDOCK:   -4.75 KCAL/MOL
REMARK 923 INTER-LIGAND FREE ENERGY PREDICTED BY IDOCK:   -4.84 KCAL/MOL
REMARK 924 INTRA-LIGAND FREE ENERGY PREDICTED BY IDOCK:    0.09 KCAL/MOL
REMARK 927      BINDING AFFINITY PREDICTED BY RF-SCORE:    0.00 PKD
ROOT
HETATM    1  C   UNL     1     -10.198   4.691  70.791  1.00  0.00    -0.214 C  
HETATM    2  C   UNL     1      -9.641   4.087  72.108  1.00  0.00    -0.210 C  
HETATM    3  C   UNL     1     -10.164   4.790  73.362  1.00  0.00    -0.213 C  
HETATM    4  C   UNL     1      -9.961   6.319  73.336  1.00  0.00    -0.194 C  
HETATM    5  C   UNL     1      -9.172   6.826  74.539  1.00  0.00    -0.238 C  
HETATM    6  C   UNL     1      -9.365   6.757  71.969  1.00  0.00    -0.144 C  
HETATM    7  C   UNL     1      -9.065   8.245  71.875  1.00  0.00    -0.259 C  
HETATM    8  C   UNL     1     -10.337   9.055  71.792  1.00  0.00    -0.407 C  
HETATM    9  C   UNL     1     -11.177   8.726  70.533  1.00  0.00    -0.247 C  
HETATM   10  C   UNL     1     -11.894  10.038  70.167  1.00  0.00    -0.245 C  
HETATM   11  O   UNL     1     -12.210   7.775  70.786  1.00  0.00    -0.197 OA 
HETATM   12  O   UNL     1     -11.681   6.492  71.256  1.00  0.00    -0.311 OA 
HETATM   13  C   UNL     1     -10.313   6.250  70.840  1.00  0.00    -0.205 C  
HETATM   14  C   UNL     1     -10.010   6.914  69.469  1.00  0.00    -0.164 C  
HETATM   15  O   UNL     1     -10.556   6.171  68.367  1.00  0.00    -0.207 OA 
HETATM   16  O   UNL     1     -10.405   8.301  69.407  1.00  0.00    -0.214 OA 
HETATM   17  C   UNL     1     -10.115   4.805  68.290  1.00  0.00    -0.039 C  
HETATM   18  C   UNL     1      -9.390   4.256  69.551  1.00  0.00    -0.232 C  
HETATM   19  C   UNL     1      -9.186   2.737  69.489  1.00  0.00    -0.204 C  
ENDROOT
BRANCH  17  20
HETATM   20  O   UNL     1      -9.420   4.490  67.056  1.00  0.00    -0.145 OA 
BRANCH  20  21
HETATM   21  C   UNL     1      -8.409   5.296  66.655  1.00  0.00    -0.108 C  
HETATM   22  O   UNL     1      -7.329   5.410  67.221  1.00  0.00    -0.080 OA 
BRANCH  21  23
HETATM   23  C   UNL     1      -8.756   6.027  65.381  1.00  0.00    -0.090 C  
BRANCH  23  24
HETATM   24  C   UNL     1      -8.449   5.226  64.133  1.00  0.00    -0.108 C  
HETATM   25  C   UNL     1      -7.322   4.250  64.370  1.00  0.00    -0.070 C  
HETATM   26  O   UNL     1      -7.471   3.168  64.914  1.00  0.00    -0.072 OA 
HETATM   27  O   UNL     1      -6.124   4.690  63.936  1.00  0.00    -0.021 OA 
ENDBRANCH  23  24
ENDBRANCH  21  23
ENDBRANCH  20  21
ENDBRANCH  17  20
TORSDOF 4
ENDMDL
MODEL      151
REMARK 921   NORMALIZED FREE ENERGY PREDICTED BY IDOCK:   -3.25 KCAL/MOL
REMARK 922        TOTAL FREE ENERGY PREDICTED BY IDOCK:   -4.73 KCAL/MOL
REMARK 923 INTER-LIGAND FREE ENERGY PREDICTED BY IDOCK:   -4.20 KCAL/MOL
REMARK 924 INTRA-LIGAND FREE ENERGY PREDICTED BY IDOCK:   -0.54 KCAL/MOL
REMARK 927      BINDING AFFINITY PREDICTED BY RF-SCORE:    0.00 PKD
ROOT
HETATM    1  C   UNL     1     -10.184   4.666  68.990  1.00  0.00    -0.032 C  
HETATM    2  C   UNL     1      -9.595   3.997  67.719  1.00  0.00    -0.204 C  
HETATM    3  C   UNL     1      -9.031   2.599  67.980  1.00  0.00    -0.202 C  
HETATM    4  C   UNL     1      -8.014   2.557  69.139  1.00  0.00    -0.059 C  
HETATM    5  C   UNL     1      -6.666   1.982  68.714  1.00  0.00    -0.029 C  
HETATM    6  C   UNL     1      -7.912   3.953  69.815  1.00  0.00    -0.058 C  
HETATM    7  C   UNL     1      -6.879   4.027  70.928  1.00  0.00    -0.032 C  
HETATM    8  C   UNL     1      -7.334   3.262  72.148  1.00  0.00    -0.051 C  
HETATM    9  C   UNL     1      -8.639   3.831  72.760  1.00  0.00    -0.094 C  
HETATM   10  C   UNL     1      -8.533   3.557  74.272  1.00  0.00    -0.085 C  
HETATM   11  O   UNL     1      -9.808   3.142  72.320  1.00  0.00    -0.144 OA 
HETATM   12  O   UNL     1      -9.985   3.221  70.867  1.00  0.00    -0.096 OA 
HETATM   13  C   UNL     1      -9.341   4.376  70.274  1.00  0.00    -0.148 C  
HETATM   14  C   UNL     1      -9.315   5.579  71.256  1.00  0.00    -0.147 C  
HETATM   15  O   UNL     1     -10.588   6.241  71.346  1.00  0.00    -0.223 OA 
HETATM   16  O   UNL     1      -8.814   5.237  72.566  1.00  0.00    -0.126 OA 
HETATM   17  C   UNL     1     -11.102   6.720  70.092  1.00  0.00    -0.315 C  
HETATM   18  C   UNL     1     -10.387   6.186  68.819  1.00  0.00    -0.256 C  
HETATM   19  C   UNL     1     -11.150   6.534  67.535  1.00  0.00    -0.396 C  
ENDROOT
BRANCH  17  20
HETATM   20  O   UNL     1     -11.313   8.155  70.064  1.00  0.00    -0.153 OA 
BRANCH  20  21
HETATM   21  C   UNL     1     -10.295   8.954  69.664  1.00  0.00    -0.212 C  
HETATM   22  O   UNL     1     -10.239   9.545  68.593  1.00  0.00    -0.181 OA 
BRANCH  21  23
HETATM   23  C   UNL     1      -9.231   9.067  70.728  1.00  0.00    -0.299 C  
BRANCH  23  24
HETATM   24  C   UNL     1      -7.839   8.767  70.212  1.00  0.00    -0.095 C  
HETATM   25  C   UNL     1      -7.018  10.026  70.081  1.00  0.00    -0.148 C  
HETATM   26  O   UNL     1      -6.452  10.562  71.020  1.00  0.00    -0.346 OA 
HETATM   27  O   UNL     1      -6.976  10.518  68.827  1.00  0.00    -0.063 OA 
ENDBRANCH  23  24
ENDBRANCH  21  23
ENDBRANCH  20  21
ENDBRANCH  17  20
TORSDOF 4
ENDMDL
MODEL      152
REMARK 921   NORMALIZED FREE ENERGY PREDICTED BY IDOCK:   -3.19 KCAL/MOL
REMARK 922        TOTAL FREE ENERGY PREDICTED BY IDOCK:   -4.65 KCAL/MOL
REMARK 923 INTER-LIGAND FREE ENERGY PREDICTED BY IDOCK:   -4.14 KCAL/MOL
REMARK 924 INTRA-LIGAND FREE ENERGY PREDICTED BY IDOCK:   -0.51 KCAL/MOL
REMARK 927      BINDING AFFINITY PREDICTED BY RF-SCORE:    0.00 PKD
ROOT
HETATM    1  C   UNL     1      -7.353   6.751  71.195  1.00  0.00    -0.079 C  
HETATM    2  C   UNL     1      -6.977   6.768  72.701  1.00  0.00    -0.071 C  
HETATM    3  C   UNL     1      -6.584   5.391  73.240  1.00  0.00    -0.071 C  
HETATM    4  C   UNL     1      -7.636   4.300  72.955  1.00  0.00    -0.080 C  
HETATM    5  C   UNL     1      -8.118   3.604  74.224  1.00  0.00    -0.078 C  
HETATM    6  C   UNL     1      -8.787   4.879  72.085  1.00  0.00    -0.137 C  
HETATM    7  C   UNL     1      -9.910   3.890  71.809  1.00  0.00    -0.249 C  
HETATM    8  C   UNL     1      -9.468   2.817  70.843  1.00  0.00    -0.224 C  
HETATM    9  C   UNL     1      -9.070   3.384  69.457  1.00  0.00    -0.135 C  
HETATM   10  C   UNL     1      -9.427   2.278  68.447  1.00  0.00    -0.226 C  
HETATM   11  O   UNL     1      -7.665   3.595  69.324  1.00  0.00    -0.052 OA 
HETATM   12  O   UNL     1      -7.153   4.554  70.307  1.00  0.00    -0.046 OA 
HETATM   13  C   UNL     1      -8.162   5.476  70.787  1.00  0.00    -0.117 C  
HETATM   14  C   UNL     1      -9.229   5.770  69.697  1.00  0.00    -0.138 C  
HETATM   15  O   UNL     1      -8.756   6.691  68.701  1.00  0.00    -0.124 OA 
HETATM   16  O   UNL     1      -9.767   4.576  69.089  1.00  0.00    -0.172 OA 
HETATM   17  C   UNL     1      -8.311   7.955  69.219  1.00  0.00    -0.136 C  
HETATM   18  C   UNL     1      -8.110   8.023  70.759  1.00  0.00    -0.101 C  
HETATM   19  C   UNL     1      -7.395   9.308  71.196  1.00  0.00    -0.050 C  
ENDROOT
BRANCH  17  20
HETATM   20  O   UNL     1      -9.051   9.088  68.694  1.00  0.00    -0.136 OA 
BRANCH  20  21
HETATM   21  C   UNL     1      -9.297   9.144  67.364  1.00  0.00    -0.134 C  
HETATM   22  O   UNL     1      -8.470   8.941  66.484  1.00  0.00    -0.115 OA 
BRANCH  21  23
HETATM   23  C   UNL     1     -10.746   9.454  67.082  1.00  0.00    -0.234 C  
BRANCH  23  24
HETATM   24  C   UNL     1     -11.174  10.815  67.590  1.00  0.00    -0.370 C  
HETATM   25  C   UNL     1     -10.892  11.894  66.573  1.00  0.00    -0.278 C  
HETATM   26  O   UNL     1     -11.617  12.127  65.619  1.00  0.00    -0.364 OA 
HETATM   27  O   UNL     1      -9.753  12.575  66.807  1.00  0.00    -0.221 OA 
ENDBRANCH  23  24
ENDBRANCH  21  23
ENDBRANCH  20  21
ENDBRANCH  17  20
TORSDOF 4
ENDMDL
MODEL      153
REMARK 921   NORMALIZED FREE ENERGY PREDICTED BY IDOCK:   -3.15 KCAL/MOL
REMARK 922        TOTAL FREE ENERGY PREDICTED BY IDOCK:   -4.61 KCAL/MOL
REMARK 923 INTER-LIGAND FREE ENERGY PREDICTED BY IDOCK:   -4.22 KCAL/MOL
REMARK 924 INTRA-LIGAND FREE ENERGY PREDICTED BY IDOCK:   -0.39 KCAL/MOL
REMARK 927      BINDING AFFINITY PREDICTED BY RF-SCORE:    0.00 PKD
ROOT
HETATM    1  C   UNL     1      -7.199   8.838  69.968  1.00  0.00    -0.052 C  
HETATM    2  C   UNL     1      -7.024   8.760  71.508  1.00  0.00    -0.091 C  
HETATM    3  C   UNL     1      -7.412   7.400  72.091  1.00  0.00    -0.080 C  
HETATM    4  C   UNL     1      -8.826   6.940  71.680  1.00  0.00    -0.128 C  
HETATM    5  C   UNL     1      -9.717   6.641  72.882  1.00  0.00    -0.168 C  
HETATM    6  C   UNL     1      -9.449   7.950  70.677  1.00  0.00    -0.162 C  
HETATM    7  C   UNL     1     -10.875   7.615  70.267  1.00  0.00    -0.253 C  
HETATM    8  C   UNL     1     -10.913   6.406  69.362  1.00  0.00    -0.421 C  
HETATM    9  C   UNL     1     -10.145   6.626  68.034  1.00  0.00    -0.154 C  
HETATM   10  C   UNL     1     -10.887   5.774  66.989  1.00  0.00    -0.328 C  
HETATM   11  O   UNL     1      -8.811   6.123  68.073  1.00  0.00    -0.114 OA 
HETATM   12  O   UNL     1      -8.003   6.770  69.110  1.00  0.00    -0.109 OA 
HETATM   13  C   UNL     1      -8.479   8.092  69.464  1.00  0.00    -0.127 C  
HETATM   14  C   UNL     1      -9.145   8.801  68.253  1.00  0.00    -0.141 C  
HETATM   15  O   UNL     1      -8.180   9.316  67.321  1.00  0.00    -0.118 OA 
HETATM   16  O   UNL     1     -10.129   7.983  67.584  1.00  0.00    -0.180 OA 
HETATM   17  C   UNL     1      -7.233  10.236  67.890  1.00  0.00    -0.085 C  
HETATM   18  C   UNL     1      -7.188  10.288  69.442  1.00  0.00    -0.104 C  
HETATM   19  C   UNL     1      -5.988  11.090  69.963  1.00  0.00    -0.116 C  
ENDROOT
BRANCH  17  20
HETATM   20  O   UNL     1      -7.266  11.551  67.279  1.00  0.00    -0.113 OA 
BRANCH  20  21
HETATM   21  C   UNL     1      -8.212  12.431  67.682  1.00  0.00    -0.169 C  
HETATM   22  O   UNL     1      -9.353  12.138  68.020  1.00  0.00    -0.185 OA 
BRANCH  21  23
HETATM   23  C   UNL     1      -7.681  13.844  67.705  1.00  0.00    -0.177 C  
BRANCH  23  24
HETATM   24  C   UNL     1      -7.236  14.289  69.082  1.00  0.00    -0.104 C  
HETATM   25  C   UNL     1      -7.772  15.660  69.416  1.00  0.00    -0.218 C  
HETATM   26  O   UNL     1      -8.905  15.861  69.820  1.00  0.00    -0.108 OA 
HETATM   27  O   UNL     1      -6.884  16.653  69.212  1.00  0.00    -0.218 OA 
ENDBRANCH  23  24
ENDBRANCH  21  23
ENDBRANCH  20  21
ENDBRANCH  17  20
TORSDOF 4
ENDMDL
MODEL      154
REMARK 921   NORMALIZED FREE ENERGY PREDICTED BY IDOCK:   -3.15 KCAL/MOL
REMARK 922        TOTAL FREE ENERGY PREDICTED BY IDOCK:   -4.61 KCAL/MOL
REMARK 923 INTER-LIGAND FREE ENERGY PREDICTED BY IDOCK:   -3.84 KCAL/MOL
REMARK 924 INTRA-LIGAND FREE ENERGY PREDICTED BY IDOCK:   -0.77 KCAL/MOL
REMARK 927      BINDING AFFINITY PREDICTED BY RF-SCORE:    0.00 PKD
ROOT
HETATM    1  C   UNL     1      -9.375   6.093  71.328  1.00  0.00    -0.170 C  
HETATM    2  C   UNL     1      -8.587   5.753  72.621  1.00  0.00    -0.120 C  
HETATM    3  C   UNL     1      -8.287   6.981  73.484  1.00  0.00    -0.139 C  
HETATM    4  C   UNL     1      -7.593   8.118  72.707  1.00  0.00    -0.171 C  
HETATM    5  C   UNL     1      -6.268   8.535  73.337  1.00  0.00    -0.117 C  
HETATM    6  C   UNL     1      -7.480   7.749  71.202  1.00  0.00    -0.078 C  
HETATM    7  C   UNL     1      -6.745   8.786  70.365  1.00  0.00    -0.043 C  
HETATM    8  C   UNL     1      -7.576  10.034  70.188  1.00  0.00    -0.168 C  
HETATM    9  C   UNL     1      -8.906   9.769  69.439  1.00  0.00    -0.182 C  
HETATM   10  C   UNL     1      -9.204  11.067  68.666  1.00  0.00    -0.186 C  
HETATM   11  O   UNL     1     -10.012   9.576  70.319  1.00  0.00    -0.225 OA 
HETATM   12  O   UNL     1      -9.821   8.425  71.206  1.00  0.00    -0.176 OA 
HETATM   13  C   UNL     1      -8.911   7.433  70.669  1.00  0.00    -0.155 C  
HETATM   14  C   UNL     1      -8.969   7.388  69.118  1.00  0.00    -0.135 C  
HETATM   15  O   UNL     1     -10.130   6.694  68.633  1.00  0.00    -0.150 OA 
HETATM   16  O   UNL     1      -8.847   8.689  68.504  1.00  0.00    -0.140 OA 
HETATM   17  C   UNL     1     -10.261   5.344  69.107  1.00  0.00    -0.232 C  
HETATM   18  C   UNL     1      -9.334   4.950  70.291  1.00  0.00    -0.216 C  
HETATM   19  C   UNL     1      -9.713   3.594  70.901  1.00  0.00    -0.229 C  
ENDROOT
BRANCH  17  20
HETATM   20  O   UNL     1     -10.273   4.356  68.045  1.00  0.00     0.007 OA 
BRANCH  20  21
HETATM   21  C   UNL     1      -9.275   4.373  67.130  1.00  0.00    -0.142 C  
HETATM   22  O   UNL     1      -8.169   3.870  67.281  1.00  0.00    -0.097 OA 
BRANCH  21  23
HETATM   23  C   UNL     1      -9.703   5.064  65.858  1.00  0.00    -0.182 C  
BRANCH  23  24
HETATM   24  C   UNL     1      -8.557   5.312  64.901  1.00  0.00    -0.145 C  
HETATM   25  C   UNL     1      -7.959   6.682  65.103  1.00  0.00    -0.124 C  
HETATM   26  O   UNL     1      -7.156   6.944  65.984  1.00  0.00    -0.069 OA 
HETATM   27  O   UNL     1      -8.404   7.603  64.226  1.00  0.00    -0.059 OA 
ENDBRANCH  23  24
ENDBRANCH  21  23
ENDBRANCH  20  21
ENDBRANCH  17  20
TORSDOF 4
ENDMDL
MODEL      155
REMARK 921   NORMALIZED FREE ENERGY PREDICTED BY IDOCK:   -3.12 KCAL/MOL
REMARK 922        TOTAL FREE ENERGY PREDICTED BY IDOCK:   -4.57 KCAL/MOL
REMARK 923 INTER-LIGAND FREE ENERGY PREDICTED BY IDOCK:   -3.97 KCAL/MOL
REMARK 924 INTRA-LIGAND FREE ENERGY PREDICTED BY IDOCK:   -0.59 KCAL/MOL
REMARK 927      BINDING AFFINITY PREDICTED BY RF-SCORE:    0.00 PKD
ROOT
HETATM    1  C   UNL     1      -7.576  13.437  69.177  1.00  0.00     0.200 C  
HETATM    2  C   UNL     1      -6.522  14.532  69.490  1.00  0.00    -0.134 C  
HETATM    3  C   UNL     1      -7.122  15.936  69.588  1.00  0.00    -0.130 C  
HETATM    4  C   UNL     1      -7.964  16.327  68.356  1.00  0.00    -0.173 C  
HETATM    5  C   UNL     1      -7.478  17.616  67.699  1.00  0.00    -0.206 C  
HETATM    6  C   UNL     1      -8.069  15.127  67.374  1.00  0.00    -0.209 C  
HETATM    7  C   UNL     1      -8.826  15.441  66.093  1.00  0.00    -0.222 C  
HETATM    8  C   UNL     1     -10.305  15.596  66.356  1.00  0.00    -0.303 C  
HETATM    9  C   UNL     1     -10.954  14.303  66.910  1.00  0.00    -0.304 C  
HETATM   10  C   UNL     1     -12.402  14.317  66.386  1.00  0.00    -0.378 C  
HETATM   11  O   UNL     1     -11.055  14.296  68.334  1.00  0.00    -0.239 OA 
HETATM   12  O   UNL     1      -9.745  14.392  68.983  1.00  0.00    -0.179 OA 
HETATM   13  C   UNL     1      -8.658  13.912  68.153  1.00  0.00    -0.180 C  
HETATM   14  C   UNL     1      -9.126  12.772  67.207  1.00  0.00    -0.200 C  
HETATM   15  O   UNL     1      -9.260  11.514  67.889  1.00  0.00    -0.157 OA 
HETATM   16  O   UNL     1     -10.325  13.096  66.472  1.00  0.00    -0.273 OA 
HETATM   17  C   UNL     1      -8.066  11.062  68.549  1.00  0.00    -0.140 C  
HETATM   18  C   UNL     1      -6.935  12.117  68.699  1.00  0.00    -0.097 C  
HETATM   19  C   UNL     1      -5.815  11.640  69.633  1.00  0.00    -0.091 C  
ENDROOT
BRANCH  17  20
HETATM   20  O   UNL     1      -7.586   9.782  68.064  1.00  0.00    -0.082 OA 
BRANCH  20  21
HETATM   21  C   UNL     1      -8.163   8.651  68.535  1.00  0.00    -0.122 C  
HETATM   22  O   UNL     1      -9.244   8.205  68.171  1.00  0.00    -0.134 OA 
BRANCH  21  23
HETATM   23  C   UNL     1      -7.284   7.965  69.552  1.00  0.00    -0.081 C  
BRANCH  23  24
HETATM   24  C   UNL     1      -6.125   7.216  68.930  1.00  0.00    -0.027 C  
HETATM   25  C   UNL     1      -6.295   5.723  69.073  1.00  0.00    -0.040 C  
HETATM   26  O   UNL     1      -7.001   5.052  68.338  1.00  0.00    -0.054 OA 
HETATM   27  O   UNL     1      -5.603   5.195  70.102  1.00  0.00    -0.014 OA 
ENDBRANCH  23  24
ENDBRANCH  21  23
ENDBRANCH  20  21
ENDBRANCH  17  20
TORSDOF 4
ENDMDL
MODEL      156
REMARK 921   NORMALIZED FREE ENERGY PREDICTED BY IDOCK:   -3.09 KCAL/MOL
REMARK 922        TOTAL FREE ENERGY PREDICTED BY IDOCK:   -4.53 KCAL/MOL
REMARK 923 INTER-LIGAND FREE ENERGY PREDICTED BY IDOCK:   -3.95 KCAL/MOL
REMARK 924 INTRA-LIGAND FREE ENERGY PREDICTED BY IDOCK:   -0.58 KCAL/MOL
REMARK 927      BINDING AFFINITY PREDICTED BY RF-SCORE:    0.00 PKD
ROOT
HETATM    1  C   UNL     1      -7.125   6.853  69.060  1.00  0.00    -0.088 C  
HETATM    2  C   UNL     1      -6.701   6.184  70.394  1.00  0.00    -0.053 C  
HETATM    3  C   UNL     1      -6.428   4.685  70.257  1.00  0.00    -0.034 C  
HETATM    4  C   UNL     1      -7.591   3.909  69.605  1.00  0.00    -0.052 C  
HETATM    5  C   UNL     1      -8.097   2.767  70.481  1.00  0.00    -0.055 C  
HETATM    6  C   UNL     1      -8.706   4.893  69.155  1.00  0.00    -0.106 C  
HETATM    7  C   UNL     1      -9.929   4.211  68.560  1.00  0.00     0.028 C  
HETATM    8  C   UNL     1      -9.626   3.637  67.197  1.00  0.00    -0.194 C  
HETATM    9  C   UNL     1      -9.219   4.721  66.167  1.00  0.00    -0.144 C  
HETATM   10  C   UNL     1      -9.715   4.197  64.807  1.00  0.00    -0.187 C  
HETATM   11  O   UNL     1      -7.805   4.863  66.038  1.00  0.00    -0.097 OA 
HETATM   12  O   UNL     1      -7.170   5.256  67.299  1.00  0.00    -0.072 OA 
HETATM   13  C   UNL     1      -8.068   5.949  68.201  1.00  0.00    -0.109 C  
HETATM   14  C   UNL     1      -9.135   6.767  67.424  1.00  0.00    -0.117 C  
HETATM   15  O   UNL     1      -8.606   7.992  66.892  1.00  0.00    -0.123 OA 
HETATM   16  O   UNL     1      -9.807   6.002  66.401  1.00  0.00    -0.161 OA 
HETATM   17  C   UNL     1      -8.023   8.867  67.872  1.00  0.00    -0.102 C  
HETATM   18  C   UNL     1      -7.766   8.241  69.271  1.00  0.00    -0.103 C  
HETATM   19  C   UNL     1      -6.914   9.149  70.167  1.00  0.00    -0.056 C  
ENDROOT
BRANCH  17  20
HETATM   20  O   UNL     1      -8.664  10.167  67.942  1.00  0.00    -0.121 OA 
BRANCH  20  21
HETATM   21  C   UNL     1      -8.232  11.150  67.118  1.00  0.00    -0.137 C  
HETATM   22  O   UNL     1      -7.068  11.332  66.784  1.00  0.00    -0.133 OA 
BRANCH  21  23
HETATM   23  C   UNL     1      -9.378  11.994  66.615  1.00  0.00    -0.221 C  
BRANCH  23  24
HETATM   24  C   UNL     1     -10.604  11.180  66.259  1.00  0.00    -0.309 C  
HETATM   25  C   UNL     1     -11.388  11.827  65.144  1.00  0.00    -0.218 C  
HETATM   26  O   UNL     1     -11.093  11.724  63.964  1.00  0.00    -0.339 OA 
HETATM   27  O   UNL     1     -12.444  12.547  65.571  1.00  0.00    -0.646 OA 
ENDBRANCH  23  24
ENDBRANCH  21  23
ENDBRANCH  20  21
ENDBRANCH  17  20
TORSDOF 4
ENDMDL
MODEL      157
REMARK 921   NORMALIZED FREE ENERGY PREDICTED BY IDOCK:   -3.02 KCAL/MOL
REMARK 922        TOTAL FREE ENERGY PREDICTED BY IDOCK:   -4.45 KCAL/MOL
REMARK 923 INTER-LIGAND FREE ENERGY PREDICTED BY IDOCK:   -3.88 KCAL/MOL
REMARK 924 INTRA-LIGAND FREE ENERGY PREDICTED BY IDOCK:   -0.56 KCAL/MOL
REMARK 927      BINDING AFFINITY PREDICTED BY RF-SCORE:    0.00 PKD
ROOT
HETATM    1  C   UNL     1      -9.969   7.849  67.637  1.00  0.00    -0.234 C  
HETATM    2  C   UNL     1      -9.579   9.158  66.902  1.00  0.00    -0.233 C  
HETATM    3  C   UNL     1      -9.328   8.959  65.406  1.00  0.00    -0.158 C  
HETATM    4  C   UNL     1      -8.311   7.840  65.102  1.00  0.00    -0.113 C  
HETATM    5  C   UNL     1      -7.135   8.330  64.262  1.00  0.00    -0.082 C  
HETATM    6  C   UNL     1      -7.886   7.128  66.416  1.00  0.00    -0.109 C  
HETATM    7  C   UNL     1      -6.830   6.051  66.222  1.00  0.00    -0.061 C  
HETATM    8  C   UNL     1      -7.406   4.838  65.531  1.00  0.00    -0.073 C  
HETATM    9  C   UNL     1      -8.536   4.162  66.348  1.00  0.00    -0.108 C  
HETATM   10  C   UNL     1      -8.448   2.665  66.003  1.00  0.00    -0.098 C  
HETATM   11  O   UNL     1      -9.840   4.580  65.947  1.00  0.00    -0.185 OA 
HETATM   12  O   UNL     1     -10.037   6.022  66.116  1.00  0.00    -0.060 OA 
HETATM   13  C   UNL     1      -9.173   6.604  67.124  1.00  0.00    -0.126 C  
HETATM   14  C   UNL     1      -8.856   5.590  68.255  1.00  0.00    -0.104 C  
HETATM   15  O   UNL     1      -9.949   5.434  69.175  1.00  0.00    -0.164 OA 
HETATM   16  O   UNL     1      -8.403   4.310  67.764  1.00  0.00    -0.097 OA 
HETATM   17  C   UNL     1     -10.382   6.654  69.800  1.00  0.00    -0.193 C  
HETATM   18  C   UNL     1      -9.838   7.967  69.170  1.00  0.00    -0.178 C  
HETATM   19  C   UNL     1     -10.544   9.213  69.723  1.00  0.00    -0.240 C  
ENDROOT
BRANCH  17  20
HETATM   20  O   UNL     1     -10.273   6.633  71.247  1.00  0.00    -0.199 OA 
BRANCH  20  21
HETATM   21  C   UNL     1      -9.046   6.505  71.805  1.00  0.00    -0.142 C  
HETATM   22  O   UNL     1      -8.222   7.405  71.914  1.00  0.00    -0.104 OA 
BRANCH  21  23
HETATM   23  C   UNL     1      -8.819   5.107  72.326  1.00  0.00    -0.134 C  
BRANCH  23  24
HETATM   24  C   UNL     1      -9.593   4.810  73.592  1.00  0.00    -0.142 C  
HETATM   25  C   UNL     1     -10.802   3.952  73.309  1.00  0.00    -0.204 C  
HETATM   26  O   UNL     1     -10.751   2.741  73.168  1.00  0.00    -0.156 OA 
HETATM   27  O   UNL     1     -11.951   4.650  73.210  1.00  0.00    -0.185 OA 
ENDBRANCH  23  24
ENDBRANCH  21  23
ENDBRANCH  20  21
ENDBRANCH  17  20
TORSDOF 4
ENDMDL
MODEL      158
REMARK 921   NORMALIZED FREE ENERGY PREDICTED BY IDOCK:   -2.99 KCAL/MOL
REMARK 922        TOTAL FREE ENERGY PREDICTED BY IDOCK:   -4.41 KCAL/MOL
REMARK 923 INTER-LIGAND FREE ENERGY PREDICTED BY IDOCK:   -3.69 KCAL/MOL
REMARK 924 INTRA-LIGAND FREE ENERGY PREDICTED BY IDOCK:   -0.72 KCAL/MOL
REMARK 927      BINDING AFFINITY PREDICTED BY RF-SCORE:    0.00 PKD
ROOT
HETATM    1  C   UNL     1     -11.086  13.535  68.791  1.00  0.00    -0.298 C  
HETATM    2  C   UNL     1     -11.021  11.992  68.635  1.00  0.00    -0.281 C  
HETATM    3  C   UNL     1     -12.307  11.287  69.070  1.00  0.00    -0.040 C  
HETATM    4  C   UNL     1     -12.764  11.672  70.492  1.00  0.00    -0.157 C  
HETATM    5  C   UNL     1     -12.921  10.459  71.405  1.00  0.00    -0.545 C  
HETATM    6  C   UNL     1     -11.838  12.775  71.074  1.00  0.00     0.468 C  
HETATM    7  C   UNL     1     -12.171  13.172  72.504  1.00  0.00     1.212 C  
HETATM    8  C   UNL     1     -13.459  13.957  72.568  1.00  0.00    -0.676 C  
HETATM    9  C   UNL     1     -13.389  15.289  71.779  1.00  0.00    -0.448 C  
HETATM   10  C   UNL     1     -14.316  16.258  72.534  1.00  0.00     0.576 C  
HETATM   11  O   UNL     1     -13.924  15.183  70.460  1.00  0.00     0.010 OA 
HETATM   12  O   UNL     1     -13.203  14.202  69.645  1.00  0.00     0.539 OA 
HETATM   13  C   UNL     1     -11.840  13.983  70.086  1.00  0.00    -0.306 C  
HETATM   14  C   UNL     1     -11.233  15.265  70.717  1.00  0.00    -0.318 C  
HETATM   15  O   UNL     1     -10.836  16.229  69.728  1.00  0.00    -0.318 OA 
HETATM   16  O   UNL     1     -12.083  15.866  71.718  1.00  0.00    -0.411 OA 
HETATM   17  C   UNL     1      -9.894  15.738  68.760  1.00  0.00    -0.214 C  
HETATM   18  C   UNL     1      -9.694  14.197  68.732  1.00  0.00    -0.148 C  
HETATM   19  C   UNL     1      -8.880  13.739  67.514  1.00  0.00    -0.197 C  
ENDROOT
BRANCH  17  20
HETATM   20  O   UNL     1      -8.643  16.472  68.748  1.00  0.00    -0.241 OA 
BRANCH  20  21
HETATM   21  C   UNL     1      -8.376  17.285  67.699  1.00  0.00    -0.205 C  
HETATM   22  O   UNL     1      -8.612  17.025  66.525  1.00  0.00    -0.230 OA 
BRANCH  21  23
HETATM   23  C   UNL     1      -7.777  18.594  68.151  1.00  0.00    -0.302 C  
BRANCH  23  24
HETATM   24  C   UNL     1      -8.692  19.778  67.922  1.00  0.00    -0.370 C  
HETATM   25  C   UNL     1      -9.964  19.654  68.724  1.00  0.00    -0.451 C  
HETATM   26  O   UNL     1     -10.045  19.940  69.908  1.00  0.00    -0.119 OA 
HETATM   27  O   UNL     1     -11.008  19.181  68.015  1.00  0.00    -0.225 OA 
ENDBRANCH  23  24
ENDBRANCH  21  23
ENDBRANCH  20  21
ENDBRANCH  17  20
TORSDOF 4
ENDMDL
MODEL      159
REMARK 921   NORMALIZED FREE ENERGY PREDICTED BY IDOCK:   -2.80 KCAL/MOL
REMARK 922        TOTAL FREE ENERGY PREDICTED BY IDOCK:   -4.18 KCAL/MOL
REMARK 923 INTER-LIGAND FREE ENERGY PREDICTED BY IDOCK:   -3.62 KCAL/MOL
REMARK 924 INTRA-LIGAND FREE ENERGY PREDICTED BY IDOCK:   -0.56 KCAL/MOL
REMARK 927      BINDING AFFINITY PREDICTED BY RF-SCORE:    0.00 PKD
ROOT
HETATM    1  C   UNL     1      -6.965   6.068  72.029  1.00  0.00    -0.078 C  
HETATM    2  C   UNL     1      -6.466   5.310  73.288  1.00  0.00    -0.062 C  
HETATM    3  C   UNL     1      -6.190   3.827  73.028  1.00  0.00    -0.012 C  
HETATM    4  C   UNL     1      -7.379   3.088  72.383  1.00  0.00    -0.047 C  
HETATM    5  C   UNL     1      -7.830   1.880  73.199  1.00  0.00    -0.041 C  
HETATM    6  C   UNL     1      -8.524   4.089  72.064  1.00  0.00    -0.110 C  
HETATM    7  C   UNL     1      -9.771   3.437  71.486  1.00  0.00    -0.233 C  
HETATM    8  C   UNL     1      -9.536   2.966  70.071  1.00  0.00    -0.121 C  
HETATM    9  C   UNL     1      -9.192   4.126  69.102  1.00  0.00    -0.147 C  
HETATM   10  C   UNL     1      -9.755   3.695  67.735  1.00  0.00    -0.109 C  
HETATM   11  O   UNL     1      -7.788   4.293  68.910  1.00  0.00    -0.068 OA 
HETATM   12  O   UNL     1      -7.090   4.602  70.161  1.00  0.00    -0.047 OA 
HETATM   13  C   UNL     1      -7.945   5.217  71.157  1.00  0.00    -0.108 C  
HETATM   14  C   UNL     1      -9.058   6.077  70.498  1.00  0.00    -0.149 C  
HETATM   15  O   UNL     1      -8.567   7.344  70.029  1.00  0.00    -0.137 OA 
HETATM   16  O   UNL     1      -9.777   5.380  69.458  1.00  0.00    -0.149 OA 
HETATM   17  C   UNL     1      -7.940   8.152  71.038  1.00  0.00    -0.095 C  
HETATM   18  C   UNL     1      -7.605   7.430  72.373  1.00  0.00    -0.090 C  
HETATM   19  C   UNL     1      -6.714   8.281  73.287  1.00  0.00    -0.133 C  
ENDROOT
BRANCH  17  20
HETATM   20  O   UNL     1      -8.586   9.436  71.235  1.00  0.00    -0.299 OA 
BRANCH  20  21
HETATM   21  C   UNL     1      -9.684   9.731  70.500  1.00  0.00    -0.131 C  
HETATM   22  O   UNL     1      -9.706   9.856  69.281  1.00  0.00    -0.184 OA 
BRANCH  21  23
HETATM   23  C   UNL     1     -10.914   9.852  71.366  1.00  0.00    -0.117 C  
BRANCH  23  24
HETATM   24  C   UNL     1     -12.065   8.992  70.889  1.00  0.00    -0.247 C  
HETATM   25  C   UNL     1     -12.536   8.054  71.973  1.00  0.00    -0.312 C  
HETATM   26  O   UNL     1     -13.285   8.390  72.876  1.00  0.00    -0.073 OA 
HETATM   27  O   UNL     1     -12.042   6.805  71.862  1.00  0.00    -0.315 OA 
ENDBRANCH  23  24
ENDBRANCH  21  23
ENDBRANCH  20  21
ENDBRANCH  17  20
TORSDOF 4
ENDMDL
MODEL      160
REMARK 921   NORMALIZED FREE ENERGY PREDICTED BY IDOCK:   -2.78 KCAL/MOL
REMARK 922        TOTAL FREE ENERGY PREDICTED BY IDOCK:   -4.15 KCAL/MOL
REMARK 923 INTER-LIGAND FREE ENERGY PREDICTED BY IDOCK:   -3.51 KCAL/MOL
REMARK 924 INTRA-LIGAND FREE ENERGY PREDICTED BY IDOCK:   -0.64 KCAL/MOL
REMARK 927      BINDING AFFINITY PREDICTED BY RF-SCORE:    0.00 PKD
ROOT
HETATM    1  C   UNL     1      -9.097   7.029  68.966  1.00  0.00    -0.135 C  
HETATM    2  C   UNL     1     -10.507   7.676  68.964  1.00  0.00    -0.214 C  
HETATM    3  C   UNL     1     -10.991   8.073  70.360  1.00  0.00    -0.248 C  
HETATM    4  C   UNL     1     -10.923   6.919  71.381  1.00  0.00    -0.270 C  
HETATM    5  C   UNL     1     -12.271   6.636  72.036  1.00  0.00    -0.337 C  
HETATM    6  C   UNL     1     -10.268   5.668  70.734  1.00  0.00    -0.291 C  
HETATM    7  C   UNL     1     -10.219   4.453  71.648  1.00  0.00    -0.186 C  
HETATM    8  C   UNL     1      -9.209   4.641  72.755  1.00  0.00    -0.144 C  
HETATM    9  C   UNL     1      -7.763   4.813  72.224  1.00  0.00    -0.090 C  
HETATM   10  C   UNL     1      -6.856   4.207  73.310  1.00  0.00    -0.057 C  
HETATM   11  O   UNL     1      -7.372   6.180  72.106  1.00  0.00    -0.090 OA 
HETATM   12  O   UNL     1      -8.227   6.924  71.177  1.00  0.00    -0.116 OA 
HETATM   13  C   UNL     1      -8.867   6.080  70.187  1.00  0.00    -0.143 C  
HETATM   14  C   UNL     1      -7.985   4.852  69.831  1.00  0.00    -0.069 C  
HETATM   15  O   UNL     1      -6.902   5.192  68.950  1.00  0.00    -0.048 OA 
HETATM   16  O   UNL     1      -7.507   4.137  70.991  1.00  0.00    -0.046 OA 
HETATM   17  C   UNL     1      -7.307   5.803  67.714  1.00  0.00    -0.077 C  
HETATM   18  C   UNL     1      -8.783   6.288  67.650  1.00  0.00    -0.113 C  
HETATM   19  C   UNL     1      -9.058   7.152  66.412  1.00  0.00    -0.189 C  
ENDROOT
BRANCH  17  20
HETATM   20  O   UNL     1      -6.906   5.053  66.538  1.00  0.00    -0.059 OA 
BRANCH  20  21
HETATM   21  C   UNL     1      -6.198   5.686  65.574  1.00  0.00    -0.034 C  
HETATM   22  O   UNL     1      -5.254   6.443  65.770  1.00  0.00    -0.013 OA 
BRANCH  21  23
HETATM   23  C   UNL     1      -6.688   5.316  64.195  1.00  0.00    -0.046 C  
BRANCH  23  24
HETATM   24  C   UNL     1      -7.442   4.004  64.164  1.00  0.00    -0.070 C  
HETATM   25  C   UNL     1      -8.898   4.214  63.829  1.00  0.00    -0.124 C  
HETATM   26  O   UNL     1      -9.312   4.371  62.692  1.00  0.00    -0.128 OA 
HETATM   27  O   UNL     1      -9.706   4.228  64.908  1.00  0.00    -0.170 OA 
ENDBRANCH  23  24
ENDBRANCH  21  23
ENDBRANCH  20  21
ENDBRANCH  17  20
TORSDOF 4
ENDMDL
MODEL      161
REMARK 921   NORMALIZED FREE ENERGY PREDICTED BY IDOCK:   -2.68 KCAL/MOL
REMARK 922        TOTAL FREE ENERGY PREDICTED BY IDOCK:   -4.03 KCAL/MOL
REMARK 923 INTER-LIGAND FREE ENERGY PREDICTED BY IDOCK:   -3.80 KCAL/MOL
REMARK 924 INTRA-LIGAND FREE ENERGY PREDICTED BY IDOCK:   -0.24 KCAL/MOL
REMARK 927      BINDING AFFINITY PREDICTED BY RF-SCORE:    0.00 PKD
ROOT
HETATM    1  C   UNL     1      -7.343  14.981  68.078  1.00  0.00    -0.135 C  
HETATM    2  C   UNL     1      -6.941  16.261  67.298  1.00  0.00    -0.227 C  
HETATM    3  C   UNL     1      -7.814  17.472  67.636  1.00  0.00    -0.207 C  
HETATM    4  C   UNL     1      -9.324  17.196  67.489  1.00  0.00    -0.238 C  
HETATM    5  C   UNL     1     -10.007  18.171  66.535  1.00  0.00    -0.374 C  
HETATM    6  C   UNL     1      -9.566  15.703  67.134  1.00  0.00    -0.224 C  
HETATM    7  C   UNL     1     -11.027  15.351  66.902  1.00  0.00    -0.294 C  
HETATM    8  C   UNL     1     -11.805  15.363  68.196  1.00  0.00    -0.178 C  
HETATM    9  C   UNL     1     -11.289  14.318  69.216  1.00  0.00    -0.283 C  
HETATM   10  C   UNL     1     -12.528  13.891  70.024  1.00  0.00    -0.325 C  
HETATM   11  O   UNL     1     -10.375  14.868  70.164  1.00  0.00    -0.085 OA 
HETATM   12  O   UNL     1      -9.178  15.422  69.524  1.00  0.00    -0.261 OA 
HETATM   13  C   UNL     1      -8.891  14.826  68.234  1.00  0.00    -0.179 C  
HETATM   14  C   UNL     1      -9.352  13.345  68.176  1.00  0.00    -0.217 C  
HETATM   15  O   UNL     1      -8.453  12.463  68.867  1.00  0.00     0.072 OA 
HETATM   16  O   UNL     1     -10.713  13.152  68.621  1.00  0.00    -0.247 OA 
HETATM   17  C   UNL     1      -7.094  12.509  68.399  1.00  0.00    -0.107 C  
HETATM   18  C   UNL     1      -6.741  13.699  67.464  1.00  0.00    -0.139 C  
HETATM   19  C   UNL     1      -5.230  13.820  67.224  1.00  0.00     0.513 C  
ENDROOT
BRANCH  17  20
HETATM   20  O   UNL     1      -6.610  11.235  67.902  1.00  0.00    -0.057 OA 
BRANCH  20  21
HETATM   21  C   UNL     1      -7.510  10.326  67.459  1.00  0.00    -0.090 C  
HETATM   22  O   UNL     1      -8.447   9.882  68.113  1.00  0.00    -0.113 OA 
BRANCH  21  23
HETATM   23  C   UNL     1      -7.247   9.940  66.024  1.00  0.00    -0.106 C  
BRANCH  23  24
HETATM   24  C   UNL     1      -5.776   9.746  65.720  1.00  0.00    -0.052 C  
HETATM   25  C   UNL     1      -5.548   9.486  64.252  1.00  0.00    -0.072 C  
HETATM   26  O   UNL     1      -5.511  10.367  63.409  1.00  0.00    -0.130 OA 
HETATM   27  O   UNL     1      -5.403   8.180  63.949  1.00  0.00    -0.041 OA 
ENDBRANCH  23  24
ENDBRANCH  21  23
ENDBRANCH  20  21
ENDBRANCH  17  20
TORSDOF 4
ENDMDL
MODEL      162
REMARK 921   NORMALIZED FREE ENERGY PREDICTED BY IDOCK:   -1.73 KCAL/MOL
REMARK 922        TOTAL FREE ENERGY PREDICTED BY IDOCK:   -2.86 KCAL/MOL
REMARK 923 INTER-LIGAND FREE ENERGY PREDICTED BY IDOCK:   -2.20 KCAL/MOL
REMARK 924 INTRA-LIGAND FREE ENERGY PREDICTED BY IDOCK:   -0.66 KCAL/MOL
REMARK 927      BINDING AFFINITY PREDICTED BY RF-SCORE:    0.00 PKD
ROOT
HETATM    1  C   UNL     1     -11.761  13.110  68.823  1.00  0.00    -0.363 C  
HETATM    2  C   UNL     1     -11.706  11.561  68.901  1.00  0.00    -0.403 C  
HETATM    3  C   UNL     1     -12.867  10.956  69.693  1.00  0.00     0.246 C  
HETATM    4  C   UNL     1     -13.030  11.566  71.100  1.00  0.00    -0.329 C  
HETATM    5  C   UNL     1     -12.981  10.515  72.204  1.00  0.00    -0.366 C  
HETATM    6  C   UNL     1     -12.021  12.730  71.300  1.00  0.00     0.544 C  
HETATM    7  C   UNL     1     -12.062  13.352  72.688  1.00  0.00     1.375 C  
HETATM    8  C   UNL     1     -13.321  14.160  72.889  1.00  0.00    -0.532 C  
HETATM    9  C   UNL     1     -13.433  15.351  71.903  1.00  0.00    -0.475 C  
HETATM   10  C   UNL     1     -14.201  16.443  72.669  1.00  0.00     0.761 C  
HETATM   11  O   UNL     1     -14.223  15.050  70.754  1.00  0.00    -0.121 OA 
HETATM   12  O   UNL     1     -13.669  13.940  69.974  1.00  0.00     1.111 OA 
HETATM   13  C   UNL     1     -12.242  13.768  70.157  1.00  0.00    -0.356 C  
HETATM   14  C   UNL     1     -11.538  15.122  70.443  1.00  0.00    -0.292 C  
HETATM   15  O   UNL     1     -11.365  15.912  69.255  1.00  0.00    -0.308 OA 
HETATM   16  O   UNL     1     -12.175  15.888  71.488  1.00  0.00    -0.415 OA 
HETATM   17  C   UNL     1     -10.632  15.259  68.205  1.00  0.00    -0.254 C  
HETATM   18  C   UNL     1     -10.419  13.729  68.378  1.00  0.00    -0.256 C  
HETATM   19  C   UNL     1      -9.864  13.072  67.108  1.00  0.00    -0.230 C  
ENDROOT
BRANCH  17  20
HETATM   20  O   UNL     1      -9.420  15.960  67.823  1.00  0.00    -0.214 OA 
BRANCH  20  21
HETATM   21  C   UNL     1      -9.416  16.674  66.673  1.00  0.00    -0.252 C  
HETATM   22  O   UNL     1      -8.431  16.892  65.980  1.00  0.00    -0.460 OA 
BRANCH  21  23
HETATM   23  C   UNL     1     -10.803  17.149  66.313  1.00  0.00     0.048 C  
BRANCH  23  24
HETATM   24  C   UNL     1     -11.220  16.759  64.911  1.00  0.00     0.019 C  
HETATM   25  C   UNL     1     -11.389  15.265  64.783  1.00  0.00    -0.391 C  
HETATM   26  O   UNL     1     -12.389  14.667  65.146  1.00  0.00    -0.342 OA 
HETATM   27  O   UNL     1     -10.323  14.643  64.241  1.00  0.00     0.057 OA 
ENDBRANCH  23  24
ENDBRANCH  21  23
ENDBRANCH  20  21
ENDBRANCH  17  20
TORSDOF 4
ENDMDL
MODEL      163
REMARK 921   NORMALIZED FREE ENERGY PREDICTED BY IDOCK:   -1.69 KCAL/MOL
REMARK 922        TOTAL FREE ENERGY PREDICTED BY IDOCK:   -2.80 KCAL/MOL
REMARK 923 INTER-LIGAND FREE ENERGY PREDICTED BY IDOCK:   -3.23 KCAL/MOL
REMARK 924 INTRA-LIGAND FREE ENERGY PREDICTED BY IDOCK:    0.43 KCAL/MOL
REMARK 927      BINDING AFFINITY PREDICTED BY RF-SCORE:    0.00 PKD
ROOT
HETATM    1  C   UNL     1     -10.047   5.007  67.996  1.00  0.00    -0.169 C  
HETATM    2  C   UNL     1     -10.752   5.350  66.657  1.00  0.00    -0.309 C  
HETATM    3  C   UNL     1     -10.408   4.378  65.527  1.00  0.00    -0.247 C  
HETATM    4  C   UNL     1      -8.890   4.204  65.314  1.00  0.00    -0.129 C  
HETATM    5  C   UNL     1      -8.459   4.522  63.885  1.00  0.00    -0.122 C  
HETATM    6  C   UNL     1      -8.101   4.994  66.394  1.00  0.00    -0.108 C  
HETATM    7  C   UNL     1      -6.591   4.936  66.223  1.00  0.00    -0.049 C  
HETATM    8  C   UNL     1      -6.054   3.567  66.564  1.00  0.00    -0.024 C  
HETATM    9  C   UNL     1      -6.315   3.171  68.039  1.00  0.00    -0.033 C  
HETATM   10  C   UNL     1      -5.130   2.270  68.435  1.00  0.00    -0.012 C  
HETATM   11  O   UNL     1      -7.485   2.371  68.202  1.00  0.00    -0.054 OA 
HETATM   12  O   UNL     1      -8.697   3.064  67.758  1.00  0.00    -0.096 OA 
HETATM   13  C   UNL     1      -8.578   4.508  67.797  1.00  0.00    -0.103 C  
HETATM   14  C   UNL     1      -7.631   4.969  68.938  1.00  0.00    -0.073 C  
HETATM   15  O   UNL     1      -8.259   4.911  70.229  1.00  0.00    -0.078 OA 
HETATM   16  O   UNL     1      -6.364   4.277  68.944  1.00  0.00    -0.031 OA 
HETATM   17  C   UNL     1      -9.470   5.677  70.340  1.00  0.00    -0.166 C  
HETATM   18  C   UNL     1     -10.078   6.178  69.000  1.00  0.00    -0.213 C  
HETATM   19  C   UNL     1     -11.489   6.755  69.182  1.00  0.00    -0.122 C  
ENDROOT
BRANCH  17  20
HETATM   20  O   UNL     1      -9.410   6.710  71.356  1.00  0.00    -0.152 OA 
BRANCH  20  21
HETATM   21  C   UNL     1      -9.365   8.006  70.965  1.00  0.00    -0.149 C  
HETATM   22  O   UNL     1     -10.143   8.881  71.325  1.00  0.00    -0.240 OA 
BRANCH  21  23
HETATM   23  C   UNL     1      -8.197   8.264  70.045  1.00  0.00    -0.119 C  
BRANCH  23  24
HETATM   24  C   UNL     1      -8.597   8.945  68.753  1.00  0.00    -0.136 C  
HETATM   25  C   UNL     1      -8.172  10.393  68.740  1.00  0.00    -0.128 C  
HETATM   26  O   UNL     1      -7.040  10.761  68.473  1.00  0.00    -0.065 OA 
HETATM   27  O   UNL     1      -9.160  11.250  69.065  1.00  0.00    -0.104 OA 
ENDBRANCH  23  24
ENDBRANCH  21  23
ENDBRANCH  20  21
ENDBRANCH  17  20
TORSDOF 4
ENDMDL
MODEL      164
REMARK 921   NORMALIZED FREE ENERGY PREDICTED BY IDOCK:   -0.55 KCAL/MOL
REMARK 922        TOTAL FREE ENERGY PREDICTED BY IDOCK:   -1.40 KCAL/MOL
REMARK 923 INTER-LIGAND FREE ENERGY PREDICTED BY IDOCK:   -1.01 KCAL/MOL
REMARK 924 INTRA-LIGAND FREE ENERGY PREDICTED BY IDOCK:   -0.39 KCAL/MOL
REMARK 927      BINDING AFFINITY PREDICTED BY RF-SCORE:    0.00 PKD
ROOT
HETATM    1  C   UNL     1     -11.266  13.615  66.687  1.00  0.00    -0.324 C  
HETATM    2  C   UNL     1     -11.044  12.087  66.529  1.00  0.00    -0.362 C  
HETATM    3  C   UNL     1     -11.971  11.249  67.412  1.00  0.00     0.277 C  
HETATM    4  C   UNL     1     -11.929  11.654  68.900  1.00  0.00    -0.355 C  
HETATM    5  C   UNL     1     -11.570  10.487  69.815  1.00  0.00    -0.368 C  
HETATM    6  C   UNL     1     -11.020  12.900  69.091  1.00  0.00    -0.184 C  
HETATM    7  C   UNL     1     -10.863  13.334  70.541  1.00  0.00     1.795 C  
HETATM    8  C   UNL     1     -12.137  13.949  71.069  1.00  0.00    -0.357 C  
HETATM    9  C   UNL     1     -12.548  15.230  70.300  1.00  0.00    -0.347 C  
HETATM   10  C   UNL     1     -13.264  16.115  71.336  1.00  0.00     0.655 C  
HETATM   11  O   UNL     1     -13.505  14.979  69.272  1.00  0.00     1.406 OA 
HETATM   12  O   UNL     1     -12.999  14.052  68.256  1.00  0.00     1.027 OA 
HETATM   13  C   UNL     1     -11.552  14.037  68.166  1.00  0.00    -0.334 C  
HETATM   14  C   UNL     1     -10.945  15.422  68.519  1.00  0.00    -0.278 C  
HETATM   15  O   UNL     1     -11.077  16.369  67.446  1.00  0.00    -0.209 OA 
HETATM   16  O   UNL     1     -11.449  15.967  69.758  1.00  0.00    -0.308 OA 
HETATM   17  C   UNL     1     -10.491  15.947  66.203  1.00  0.00    -0.326 C  
HETATM   18  C   UNL     1     -10.099  14.446  66.114  1.00  0.00    -0.323 C  
HETATM   19  C   UNL     1      -9.728  14.025  64.686  1.00  0.00     0.581 C  
ENDROOT
BRANCH  17  20
HETATM   20  O   UNL     1      -9.447  16.834  65.725  1.00  0.00    -0.507 OA 
BRANCH  20  21
HETATM   21  C   UNL     1      -8.316  16.960  66.457  1.00  0.00    -0.280 C  
HETATM   22  O   UNL     1      -7.517  16.060  66.685  1.00  0.00    -0.218 OA 
BRANCH  21  23
HETATM   23  C   UNL     1      -8.125  18.377  66.940  1.00  0.00    -0.257 C  
BRANCH  23  24
HETATM   24  C   UNL     1      -9.350  18.943  67.626  1.00  0.00    -0.331 C  
HETATM   25  C   UNL     1      -9.874  20.158  66.900  1.00  0.00    -0.454 C  
HETATM   26  O   UNL     1     -10.574  20.098  65.903  1.00  0.00    -0.398 OA 
HETATM   27  O   UNL     1      -9.483  21.326  67.448  1.00  0.00    -0.228 OA 
ENDBRANCH  23  24
ENDBRANCH  21  23
ENDBRANCH  20  21
ENDBRANCH  17  20
TORSDOF 4
ENDMDL
MODEL      165
REMARK 921   NORMALIZED FREE ENERGY PREDICTED BY IDOCK:   -0.52 KCAL/MOL
REMARK 922        TOTAL FREE ENERGY PREDICTED BY IDOCK:   -1.36 KCAL/MOL
REMARK 923 INTER-LIGAND FREE ENERGY PREDICTED BY IDOCK:   -4.10 KCAL/MOL
REMARK 924 INTRA-LIGAND FREE ENERGY PREDICTED BY IDOCK:    2.74 KCAL/MOL
REMARK 927      BINDING AFFINITY PREDICTED BY RF-SCORE:    0.00 PKD
ROOT
HETATM    1  C   UNL     1      -7.371  10.580  67.057  1.00  0.00    -0.099 C  
HETATM    2  C   UNL     1      -6.511  10.942  68.297  1.00  0.00    -0.057 C  
HETATM    3  C   UNL     1      -5.493   9.860  68.662  1.00  0.00    -0.035 C  
HETATM    4  C   UNL     1      -6.122   8.461  68.825  1.00  0.00    -0.044 C  
HETATM    5  C   UNL     1      -5.837   7.846  70.192  1.00  0.00    -0.023 C  
HETATM    6  C   UNL     1      -7.632   8.504  68.463  1.00  0.00    -0.095 C  
HETATM    7  C   UNL     1      -8.354   7.180  68.660  1.00  0.00    -0.125 C  
HETATM    8  C   UNL     1      -7.941   6.172  67.615  1.00  0.00    -0.106 C  
HETATM    9  C   UNL     1      -8.294   6.621  66.174  1.00  0.00    -0.130 C  
HETATM   10  C   UNL     1      -8.576   5.321  65.400  1.00  0.00    -0.149 C  
HETATM   11  O   UNL     1      -7.202   7.247  65.503  1.00  0.00    -0.063 OA 
HETATM   12  O   UNL     1      -6.744   8.455  66.194  1.00  0.00    -0.059 OA 
HETATM   13  C   UNL     1      -7.769   9.068  67.015  1.00  0.00    -0.098 C  
HETATM   14  C   UNL     1      -9.185   8.839  66.422  1.00  0.00    -0.189 C  
HETATM   15  O   UNL     1      -9.459   9.702  65.305  1.00  0.00    -0.250 OA 
HETATM   16  O   UNL     1      -9.449   7.459  66.089  1.00  0.00    -0.125 OA 
HETATM   17  C   UNL     1      -9.333  11.106  65.591  1.00  0.00    -0.219 C  
HETATM   18  C   UNL     1      -8.630  11.464  66.930  1.00  0.00    -0.154 C  
HETATM   19  C   UNL     1      -8.307  12.960  67.035  1.00  0.00    -0.112 C  
ENDROOT
BRANCH  17  20
HETATM   20  O   UNL     1     -10.559  11.851  65.378  1.00  0.00    -0.253 OA 
BRANCH  20  21
HETATM   21  C   UNL     1     -10.496  13.201  65.310  1.00  0.00    -0.307 C  
HETATM   22  O   UNL     1      -9.466  13.863  65.344  1.00  0.00    -0.005 OA 
BRANCH  21  23
HETATM   23  C   UNL     1     -11.866  13.812  65.145  1.00  0.00    -0.365 C  
BRANCH  23  24
HETATM   24  C   UNL     1     -12.790  13.525  66.309  1.00  0.00     0.045 C  
HETATM   25  C   UNL     1     -12.012  13.234  67.569  1.00  0.00    -0.324 C  
HETATM   26  O   UNL     1     -11.536  14.102  68.283  1.00  0.00    -0.270 OA 
HETATM   27  O   UNL     1     -11.876  11.919  67.832  1.00  0.00    -0.492 OA 
ENDBRANCH  23  24
ENDBRANCH  21  23
ENDBRANCH  20  21
ENDBRANCH  17  20
TORSDOF 4
ENDMDL
MODEL      166
REMARK 921   NORMALIZED FREE ENERGY PREDICTED BY IDOCK:   -0.50 KCAL/MOL
REMARK 922        TOTAL FREE ENERGY PREDICTED BY IDOCK:   -1.34 KCAL/MOL
REMARK 923 INTER-LIGAND FREE ENERGY PREDICTED BY IDOCK:   -1.23 KCAL/MOL
REMARK 924 INTRA-LIGAND FREE ENERGY PREDICTED BY IDOCK:   -0.11 KCAL/MOL
REMARK 927      BINDING AFFINITY PREDICTED BY RF-SCORE:    0.00 PKD
ROOT
HETATM    1  C   UNL     1     -11.547  14.108  66.591  1.00  0.00    -0.399 C  
HETATM    2  C   UNL     1     -11.375  12.984  65.536  1.00  0.00    -0.330 C  
HETATM    3  C   UNL     1     -12.143  11.707  65.883  1.00  0.00     0.664 C  
HETATM    4  C   UNL     1     -11.837  11.176  67.298  1.00  0.00     0.263 C  
HETATM    5  C   UNL     1     -11.339   9.735  67.288  1.00  0.00     0.532 C  
HETATM    6  C   UNL     1     -10.894  12.158  68.048  1.00  0.00    -0.258 C  
HETATM    7  C   UNL     1     -10.481  11.683  69.432  1.00  0.00     0.061 C  
HETATM    8  C   UNL     1     -11.636  11.755  70.403  1.00  0.00    -0.109 C  
HETATM    9  C   UNL     1     -12.159  13.200  70.605  1.00  0.00    -0.264 C  
HETATM   10  C   UNL     1     -12.673  13.248  72.055  1.00  0.00    -0.211 C  
HETATM   11  O   UNL     1     -13.284  13.505  69.781  1.00  0.00     0.682 OA 
HETATM   12  O   UNL     1     -12.974  13.391  68.354  1.00  0.00     1.160 OA 
HETATM   13  C   UNL     1     -11.566  13.566  68.058  1.00  0.00    -0.337 C  
HETATM   14  C   UNL     1     -10.890  14.537  69.063  1.00  0.00    -0.254 C  
HETATM   15  O   UNL     1     -11.195  15.914  68.785  1.00  0.00    -0.314 OA 
HETATM   16  O   UNL     1     -11.163  14.213  70.443  1.00  0.00    -0.070 OA 
HETATM   17  C   UNL     1     -10.840  16.349  67.461  1.00  0.00    -0.249 C  
HETATM   18  C   UNL     1     -10.488  15.222  66.450  1.00  0.00    -0.307 C  
HETATM   19  C   UNL     1     -10.378  15.745  65.012  1.00  0.00    -0.246 C  
ENDROOT
BRANCH  17  20
HETATM   20  O   UNL     1      -9.885  17.441  67.448  1.00  0.00    -0.267 OA 
BRANCH  20  21
HETATM   21  C   UNL     1     -10.267  18.644  67.935  1.00  0.00    -0.392 C  
HETATM   22  O   UNL     1      -9.861  19.147  68.976  1.00  0.00    -0.410 OA 
BRANCH  21  23
HETATM   23  C   UNL     1     -11.244  19.331  67.012  1.00  0.00    -0.014 C  
BRANCH  23  24
HETATM   24  C   UNL     1     -10.619  20.458  66.217  1.00  0.00    -0.055 C  
HETATM   25  C   UNL     1      -9.128  20.272  66.079  1.00  0.00    -0.066 C  
HETATM   26  O   UNL     1      -8.614  19.533  65.255  1.00  0.00     0.064 OA 
HETATM   27  O   UNL     1      -8.408  20.992  66.962  1.00  0.00    -0.108 OA 
ENDBRANCH  23  24
ENDBRANCH  21  23
ENDBRANCH  20  21
ENDBRANCH  17  20
TORSDOF 4
ENDMDL
MODEL      167
REMARK 921   NORMALIZED FREE ENERGY PREDICTED BY IDOCK:    0.57 KCAL/MOL
REMARK 922        TOTAL FREE ENERGY PREDICTED BY IDOCK:   -0.01 KCAL/MOL
REMARK 923 INTER-LIGAND FREE ENERGY PREDICTED BY IDOCK:   -0.38 KCAL/MOL
REMARK 924 INTRA-LIGAND FREE ENERGY PREDICTED BY IDOCK:    0.37 KCAL/MOL
REMARK 927      BINDING AFFINITY PREDICTED BY RF-SCORE:    0.00 PKD
ROOT
HETATM    1  C   UNL     1     -10.555  13.248  66.896  1.00  0.00    -0.264 C  
HETATM    2  C   UNL     1     -11.170  12.960  65.501  1.00  0.00    -0.319 C  
HETATM    3  C   UNL     1     -10.639  13.886  64.404  1.00  0.00    -0.256 C  
HETATM    4  C   UNL     1     -10.763  15.383  64.756  1.00  0.00    -0.339 C  
HETATM    5  C   UNL     1     -11.551  16.166  63.710  1.00  0.00     0.925 C  
HETATM    6  C   UNL     1     -11.306  15.551  66.202  1.00  0.00    -0.010 C  
HETATM    7  C   UNL     1     -11.527  16.999  66.614  1.00  0.00     1.067 C  
HETATM    8  C   UNL     1     -10.214  17.714  66.823  1.00  0.00    -0.335 C  
HETATM    9  C   UNL     1      -9.364  17.089  67.958  1.00  0.00    -0.245 C  
HETATM   10  C   UNL     1      -8.574  18.261  68.568  1.00  0.00    -0.323 C  
HETATM   11  O   UNL     1      -8.387  16.166  67.479  1.00  0.00    -0.153 OA 
HETATM   12  O   UNL     1      -8.992  15.036  66.769  1.00  0.00    -0.233 OA 
HETATM   13  C   UNL     1     -10.361  14.775  67.170  1.00  0.00    -0.255 C  
HETATM   14  C   UNL     1     -10.599  15.150  68.658  1.00  0.00    -0.234 C  
HETATM   15  O   UNL     1     -10.069  14.168  69.563  1.00  0.00     0.092 OA 
HETATM   16  O   UNL     1     -10.133  16.474  68.995  1.00  0.00    -0.250 OA 
HETATM   17  C   UNL     1     -10.579  12.838  69.367  1.00  0.00     0.290 C  
HETATM   18  C   UNL     1     -11.358  12.600  68.043  1.00  0.00    -0.337 C  
HETATM   19  C   UNL     1     -11.638  11.112  67.793  1.00  0.00    -0.303 C  
ENDROOT
BRANCH  17  20
HETATM   20  O   UNL     1     -11.261  12.303  70.530  1.00  0.00     0.522 OA 
BRANCH  20  21
HETATM   21  C   UNL     1     -12.293  13.004  71.057  1.00  0.00    -0.244 C  
HETATM   22  O   UNL     1     -13.465  12.898  70.719  1.00  0.00     0.338 OA 
BRANCH  21  23
HETATM   23  C   UNL     1     -11.830  13.922  72.162  1.00  0.00     0.860 C  
BRANCH  23  24
HETATM   24  C   UNL     1     -12.689  15.160  72.305  1.00  0.00    -0.421 C  
HETATM   25  C   UNL     1     -12.346  16.191  71.258  1.00  0.00    -0.138 C  
HETATM   26  O   UNL     1     -12.761  16.151  70.111  1.00  0.00    -0.131 OA 
HETATM   27  O   UNL     1     -11.523  17.162  71.702  1.00  0.00     0.310 OA 
ENDBRANCH  23  24
ENDBRANCH  21  23
ENDBRANCH  20  21
ENDBRANCH  17  20
TORSDOF 4
ENDMDL
MODEL      168
REMARK 921   NORMALIZED FREE ENERGY PREDICTED BY IDOCK:    1.02 KCAL/MOL
REMARK 922        TOTAL FREE ENERGY PREDICTED BY IDOCK:    0.54 KCAL/MOL
REMARK 923 INTER-LIGAND FREE ENERGY PREDICTED BY IDOCK:   -0.40 KCAL/MOL
REMARK 924 INTRA-LIGAND FREE ENERGY PREDICTED BY IDOCK:    0.94 KCAL/MOL
REMARK 927      BINDING AFFINITY PREDICTED BY RF-SCORE:    0.00 PKD
ROOT
HETATM    1  C   UNL     1     -10.871  16.391  70.030  1.00  0.00    -0.306 C  
HETATM    2  C   UNL     1     -10.045  17.409  70.861  1.00  0.00     2.889 C  
HETATM    3  C   UNL     1      -9.645  18.653  70.067  1.00  0.00     1.145 C  
HETATM    4  C   UNL     1      -8.929  18.327  68.740  1.00  0.00    -0.239 C  
HETATM    5  C   UNL     1      -7.558  18.988  68.636  1.00  0.00    -0.372 C  
HETATM    6  C   UNL     1      -8.901  16.791  68.509  1.00  0.00    -0.248 C  
HETATM    7  C   UNL     1      -8.153  16.368  67.254  1.00  0.00    -0.198 C  
HETATM    8  C   UNL     1      -8.925  16.730  66.008  1.00  0.00    -0.220 C  
HETATM    9  C   UNL     1     -10.299  16.017  65.926  1.00  0.00    -0.368 C  
HETATM   10  C   UNL     1     -10.564  15.816  64.423  1.00  0.00     0.529 C  
HETATM   11  O   UNL     1     -11.374  16.823  66.408  1.00  0.00     0.383 OA 
HETATM   12  O   UNL     1     -11.203  17.193  67.815  1.00  0.00    -0.170 OA 
HETATM   13  C   UNL     1     -10.369  16.265  68.554  1.00  0.00    -0.261 C  
HETATM   14  C   UNL     1     -10.498  14.820  68.001  1.00  0.00    -0.246 C  
HETATM   15  O   UNL     1     -11.713  14.178  68.421  1.00  0.00    -0.306 OA 
HETATM   16  O   UNL     1     -10.337  14.740  66.568  1.00  0.00    -0.274 OA 
HETATM   17  C   UNL     1     -11.891  14.111  69.846  1.00  0.00    -0.325 C  
HETATM   18  C   UNL     1     -10.934  14.998  70.690  1.00  0.00    -0.188 C  
HETATM   19  C   UNL     1     -11.355  15.068  72.164  1.00  0.00    -0.214 C  
ENDROOT
BRANCH  17  20
HETATM   20  O   UNL     1     -12.001  12.756  70.352  1.00  0.00    -0.335 OA 
BRANCH  20  21
HETATM   21  C   UNL     1     -11.438  11.749  69.642  1.00  0.00    -0.270 C  
HETATM   22  O   UNL     1     -10.798  10.820  70.118  1.00  0.00    -0.234 OA 
BRANCH  21  23
HETATM   23  C   UNL     1     -11.729  11.883  68.167  1.00  0.00    -0.388 C  
BRANCH  23  24
HETATM   24  C   UNL     1     -11.179  10.737  67.345  1.00  0.00    -0.315 C  
HETATM   25  C   UNL     1     -10.794  11.191  65.958  1.00  0.00    -0.166 C  
HETATM   26  O   UNL     1      -9.743  11.756  65.701  1.00  0.00    -0.229 OA 
HETATM   27  O   UNL     1     -11.727  10.927  65.023  1.00  0.00     0.525 OA 
ENDBRANCH  23  24
ENDBRANCH  21  23
ENDBRANCH  20  21
ENDBRANCH  17  20
TORSDOF 4
ENDMDL
MODEL      169
REMARK 921   NORMALIZED FREE ENERGY PREDICTED BY IDOCK:   15.15 KCAL/MOL
REMARK 922        TOTAL FREE ENERGY PREDICTED BY IDOCK:   17.97 KCAL/MOL
REMARK 923 INTER-LIGAND FREE ENERGY PREDICTED BY IDOCK:   17.01 KCAL/MOL
REMARK 924 INTRA-LIGAND FREE ENERGY PREDICTED BY IDOCK:    0.96 KCAL/MOL
REMARK 927      BINDING AFFINITY PREDICTED BY RF-SCORE:    0.00 PKD
ROOT
HETATM    1  C   UNL     1     -10.734  16.197  67.102  1.00  0.00    -0.262 C  
HETATM    2  C   UNL     1      -9.503  17.102  67.374  1.00  0.00    -0.247 C  
HETATM    3  C   UNL     1      -8.475  17.078  66.242  1.00  0.00    -0.304 C  
HETATM    4  C   UNL     1      -8.028  15.654  65.852  1.00  0.00     1.379 C  
HETATM    5  C   UNL     1      -6.517  15.469  65.945  1.00  0.00     4.895 C  
HETATM    6  C   UNL     1      -8.837  14.599  66.656  1.00  0.00    -0.240 C  
HETATM    7  C   UNL     1      -8.417  13.162  66.387  1.00  0.00     0.407 C  
HETATM    8  C   UNL     1      -8.845  12.715  65.009  1.00  0.00     1.400 C  
HETATM    9  C   UNL     1     -10.383  12.734  64.824  1.00  0.00    -0.322 C  
HETATM   10  C   UNL     1     -10.688  11.597  63.832  1.00  0.00    -0.459 C  
HETATM   11  O   UNL     1     -10.854  13.930  64.203  1.00  0.00    -0.255 OA 
HETATM   12  O   UNL     1     -10.535  15.126  64.988  1.00  0.00    -0.398 OA 
HETATM   13  C   UNL     1     -10.355  14.852  66.400  1.00  0.00    -0.286 C  
HETATM   14  C   UNL     1     -11.240  13.665  66.867  1.00  0.00    -0.312 C  
HETATM   15  O   UNL     1     -12.616  14.041  67.040  1.00  0.00    -0.215 OA 
HETATM   16  O   UNL     1     -11.122  12.498  66.025  1.00  0.00    -0.274 OA 
HETATM   17  C   UNL     1     -12.828  15.124  67.961  1.00  0.00     1.765 C  
HETATM   18  C   UNL     1     -11.558  15.918  68.376  1.00  0.00    -0.317 C  
HETATM   19  C   UNL     1     -11.900  17.201  69.145  1.00  0.00     1.626 C  
ENDROOT
BRANCH  17  20
HETATM   20  O   UNL     1     -13.667  14.768  69.089  1.00  0.00     2.694 OA 
BRANCH  20  21
HETATM   21  C   UNL     1     -13.137  14.014  70.082  1.00  0.00     0.298 C  
HETATM   22  O   UNL     1     -12.110  13.353  69.995  1.00  0.00    -0.326 OA 
BRANCH  21  23
HETATM   23  C   UNL     1     -13.953  14.114  71.347  1.00  0.00    -0.287 C  
BRANCH  23  24
HETATM   24  C   UNL     1     -13.542  13.107  72.401  1.00  0.00    -0.667 C  
HETATM   25  C   UNL     1     -12.110  13.313  72.829  1.00  0.00     1.976 C  
HETATM   26  O   UNL     1     -11.763  14.159  73.637  1.00  0.00     0.444 OA 
HETATM   27  O   UNL     1     -11.238  12.482  72.224  1.00  0.00     5.304 OA 
ENDBRANCH  23  24
ENDBRANCH  21  23
ENDBRANCH  20  21
ENDBRANCH  17  20
TORSDOF 4
ENDMDL
MODEL      170
REMARK 921   NORMALIZED FREE ENERGY PREDICTED BY IDOCK:   16.33 KCAL/MOL
REMARK 922        TOTAL FREE ENERGY PREDICTED BY IDOCK:   19.43 KCAL/MOL
REMARK 923 INTER-LIGAND FREE ENERGY PREDICTED BY IDOCK:   19.41 KCAL/MOL
REMARK 924 INTRA-LIGAND FREE ENERGY PREDICTED BY IDOCK:    0.02 KCAL/MOL
REMARK 927      BINDING AFFINITY PREDICTED BY RF-SCORE:    0.00 PKD
ROOT
HETATM    1  C   UNL     1     -10.067   8.596  67.904  1.00  0.00    -0.254 C  
HETATM    2  C   UNL     1      -9.208   9.832  67.524  1.00  0.00    -0.145 C  
HETATM    3  C   UNL     1      -7.863   9.461  66.896  1.00  0.00    -0.105 C  
HETATM    4  C   UNL     1      -7.044   8.470  67.747  1.00  0.00    -0.083 C  
HETATM    5  C   UNL     1      -5.656   9.001  68.091  1.00  0.00    -0.038 C  
HETATM    6  C   UNL     1      -7.865   8.020  68.987  1.00  0.00    -0.109 C  
HETATM    7  C   UNL     1      -7.110   7.092  69.926  1.00  0.00    -0.070 C  
HETATM    8  C   UNL     1      -6.932   5.723  69.314  1.00  0.00    -0.064 C  
HETATM    9  C   UNL     1      -8.280   5.013  69.031  1.00  0.00    -0.087 C  
HETATM   10  C   UNL     1      -7.993   3.510  69.201  1.00  0.00    -0.060 C  
HETATM   11  O   UNL     1      -8.723   5.175  67.684  1.00  0.00    -0.105 OA 
HETATM   12  O   UNL     1      -8.936   6.583  67.336  1.00  0.00    -0.112 OA 
HETATM   13  C   UNL     1      -9.215   7.421  68.486  1.00  0.00    -0.142 C  
HETATM   14  C   UNL     1      -9.962   6.634  69.596  1.00  0.00    -0.175 C  
HETATM   15  O   UNL     1     -11.356   6.453  69.297  1.00  0.00    -0.379 OA 
HETATM   16  O   UNL     1      -9.334   5.376  69.926  1.00  0.00    -0.132 OA 
HETATM   17  C   UNL     1     -12.082   7.673  69.071  1.00  0.00     2.129 C  
HETATM   18  C   UNL     1     -11.216   8.948  68.872  1.00  0.00     0.291 C  
HETATM   19  C   UNL     1     -12.046  10.144  68.384  1.00  0.00     1.131 C  
ENDROOT
BRANCH  17  20
HETATM   20  O   UNL     1     -13.179   7.873  69.999  1.00  0.00     1.612 OA 
BRANCH  20  21
HETATM   21  C   UNL     1     -13.142   7.241  71.196  1.00  0.00    -0.230 C  
HETATM   22  O   UNL     1     -13.359   6.049  71.373  1.00  0.00     0.952 OA 
BRANCH  21  23
HETATM   23  C   UNL     1     -12.755   8.186  72.308  1.00  0.00    -0.292 C  
BRANCH  23  24
HETATM   24  C   UNL     1     -11.817   9.285  71.855  1.00  0.00    -0.426 C  
HETATM   25  C   UNL     1     -11.782  10.421  72.848  1.00  0.00     4.788 C  
HETATM   26  O   UNL     1     -11.116  10.402  73.871  1.00  0.00    10.984 OA 
HETATM   27  O   UNL     1     -12.569  11.461  72.509  1.00  0.00     0.534 OA 
ENDBRANCH  23  24
ENDBRANCH  21  23
ENDBRANCH  20  21
ENDBRANCH  17  20
TORSDOF 4
ENDMDL
MODEL      171
REMARK 921   NORMALIZED FREE ENERGY PREDICTED BY IDOCK:   35.89 KCAL/MOL
REMARK 922        TOTAL FREE ENERGY PREDICTED BY IDOCK:   43.56 KCAL/MOL
REMARK 923 INTER-LIGAND FREE ENERGY PREDICTED BY IDOCK:   43.15 KCAL/MOL
REMARK 924 INTRA-LIGAND FREE ENERGY PREDICTED BY IDOCK:    0.41 KCAL/MOL
REMARK 927      BINDING AFFINITY PREDICTED BY RF-SCORE:    0.00 PKD
ROOT
HETATM    1  C   UNL     1     -10.748  16.687  65.782  1.00  0.00    -0.210 C  
HETATM    2  C   UNL     1      -9.309  17.108  65.383  1.00  0.00     0.898 C  
HETATM    3  C   UNL     1      -8.918  16.658  63.974  1.00  0.00    10.121 C  
HETATM    4  C   UNL     1      -9.130  15.149  63.733  1.00  0.00    10.450 C  
HETATM    5  C   UNL     1      -7.856  14.443  63.281  1.00  0.00    19.943 C  
HETATM    6  C   UNL     1      -9.799  14.497  64.975  1.00  0.00    -0.056 C  
HETATM    7  C   UNL     1      -9.987  12.992  64.856  1.00  0.00    -0.151 C  
HETATM    8  C   UNL     1     -11.070  12.653  63.861  1.00  0.00    -0.476 C  
HETATM    9  C   UNL     1     -12.457  13.208  64.272  1.00  0.00    -0.288 C  
HETATM   10  C   UNL     1     -13.480  12.201  63.716  1.00  0.00     0.557 C  
HETATM   11  O   UNL     1     -12.763  14.457  63.654  1.00  0.00    -0.773 OA 
HETATM   12  O   UNL     1     -11.797  15.502  64.007  1.00  0.00    -0.467 OA 
HETATM   13  C   UNL     1     -11.127  15.259  65.269  1.00  0.00    -0.376 C  
HETATM   14  C   UNL     1     -12.043  14.492  66.261  1.00  0.00    -0.294 C  
HETATM   15  O   UNL     1     -13.032  15.342  66.865  1.00  0.00     1.808 OA 
HETATM   16  O   UNL     1     -12.650  13.316  65.685  1.00  0.00    -0.464 OA 
HETATM   17  C   UNL     1     -12.496  16.478  67.564  1.00  0.00     2.515 C  
HETATM   18  C   UNL     1     -10.996  16.789  67.301  1.00  0.00    -0.040 C  
HETATM   19  C   UNL     1     -10.576  18.150  67.873  1.00  0.00    -0.389 C  
ENDROOT
BRANCH  17  20
HETATM   20  O   UNL     1     -12.842  16.506  68.973  1.00  0.00     1.071 OA 
BRANCH  20  21
HETATM   21  C   UNL     1     -11.904  16.144  69.880  1.00  0.00    -0.118 C  
HETATM   22  O   UNL     1     -10.952  15.406  69.656  1.00  0.00    -0.246 OA 
BRANCH  21  23
HETATM   23  C   UNL     1     -12.147  16.799  71.218  1.00  0.00     1.092 C  
BRANCH  23  24
HETATM   24  C   UNL     1     -11.243  16.272  72.311  1.00  0.00     0.385 C  
HETATM   25  C   UNL     1     -12.029  15.529  73.364  1.00  0.00    -0.448 C  
HETATM   26  O   UNL     1     -12.397  14.373  73.240  1.00  0.00    -0.219 OA 
HETATM   27  O   UNL     1     -12.303  16.269  74.457  1.00  0.00    -0.674 OA 
ENDBRANCH  23  24
ENDBRANCH  21  23
ENDBRANCH  20  21
ENDBRANCH  17  20
TORSDOF 4
ENDMDL
