MODEL        1
REMARK 921   NORMALIZED FREE ENERGY PREDICTED BY IDOCK:   -6.81 KCAL/MOL
REMARK 922        TOTAL FREE ENERGY PREDICTED BY IDOCK:   -7.83 KCAL/MOL
REMARK 923 INTER-LIGAND FREE ENERGY PREDICTED BY IDOCK:   -7.61 KCAL/MOL
REMARK 924 INTRA-LIGAND FREE ENERGY PREDICTED BY IDOCK:   -0.22 KCAL/MOL
REMARK 927      BINDING AFFINITY PREDICTED BY RF-SCORE:    0.00 PKD
ROOT
HETATM    1  C   UNL     1     -11.515  13.529  69.704  1.00  0.00    -0.283 C  
HETATM    2  C   UNL     1     -11.799  12.062  69.302  1.00  0.00    -0.377 C  
HETATM    3  C   UNL     1     -10.796  11.512  68.289  1.00  0.00    -0.257 C  
HETATM    4  C   UNL     1     -10.662  12.382  67.020  1.00  0.00    -0.268 C  
HETATM    5  C   UNL     1     -11.025  11.605  65.757  1.00  0.00    -0.329 C  
HETATM    6  C   UNL     1     -11.455  13.713  67.174  1.00  0.00    -0.367 C  
HETATM    7  C   UNL     1     -11.323  14.643  65.970  1.00  0.00    -0.344 C  
HETATM    8  C   UNL     1      -9.974  15.343  65.917  1.00  0.00    -0.374 C  
HETATM    9  C   UNL     1      -9.694  16.241  67.149  1.00  0.00    -0.238 C  
HETATM   10  C   UNL     1      -8.818  17.400  66.662  1.00  0.00    -0.278 C  
HETATM   11  O   UNL     1      -8.951  15.592  68.180  1.00  0.00    -0.175 OA 
HETATM   12  O   UNL     1      -9.572  14.319  68.543  1.00  0.00    -0.216 OA 
HETATM   13  C   UNL     1     -11.020  14.395  68.502  1.00  0.00    -0.251 C  
HETATM   14  C   UNL     1     -11.530  15.860  68.613  1.00  0.00    -0.391 C  
HETATM   15  O   UNL     1     -11.442  16.319  69.963  1.00  0.00    -0.318 OA 
HETATM   16  O   UNL     1     -10.895  16.780  67.706  1.00  0.00    -0.341 OA 
HETATM   17  C   UNL     1     -12.305  15.614  70.866  1.00  0.00    -0.429 C  
HETATM   18  C   UNL     1     -12.740  14.211  70.357  1.00  0.00    -0.341 C  
HETATM   19  C   UNL     1     -13.383  13.368  71.465  1.00  0.00    -0.345 C  
ENDROOT
BRANCH  17  20
HETATM   20  O   UNL     1     -11.648  15.407  72.117  1.00  0.00    -0.418 OA 
BRANCH  20  21
HETATM   21  C   UNL     1     -12.078  16.293  73.141  1.00  0.00    -0.509 C  
HETATM   22  C   UNL     1     -12.514  15.441  74.319  1.00  0.00    -0.761 C  
ENDBRANCH  20  21
ENDBRANCH  17  20
TORSDOF 2
ENDMDL
MODEL        2
REMARK 921   NORMALIZED FREE ENERGY PREDICTED BY IDOCK:   -6.68 KCAL/MOL
REMARK 922        TOTAL FREE ENERGY PREDICTED BY IDOCK:   -7.68 KCAL/MOL
REMARK 923 INTER-LIGAND FREE ENERGY PREDICTED BY IDOCK:   -7.42 KCAL/MOL
REMARK 924 INTRA-LIGAND FREE ENERGY PREDICTED BY IDOCK:   -0.26 KCAL/MOL
REMARK 927      BINDING AFFINITY PREDICTED BY RF-SCORE:    0.00 PKD
ROOT
HETATM    1  C   UNL     1     -11.325  14.532  66.548  1.00  0.00    -0.354 C  
HETATM    2  C   UNL     1     -11.380  14.807  65.027  1.00  0.00    -0.391 C  
HETATM    3  C   UNL     1     -11.915  13.624  64.222  1.00  0.00    -0.488 C  
HETATM    4  C   UNL     1     -11.157  12.305  64.486  1.00  0.00    -0.368 C  
HETATM    5  C   UNL     1     -10.525  11.749  63.212  1.00  0.00    -0.439 C  
HETATM    6  C   UNL     1     -10.143  12.472  65.655  1.00  0.00    -0.285 C  
HETATM    7  C   UNL     1      -9.394  11.188  66.000  1.00  0.00    -0.228 C  
HETATM    8  C   UNL     1     -10.255  10.195  66.764  1.00  0.00    -0.289 C  
HETATM    9  C   UNL     1     -10.766  10.737  68.124  1.00  0.00    -0.214 C  
HETATM   10  C   UNL     1     -10.889   9.533  69.062  1.00  0.00    -0.184 C  
HETATM   11  O   UNL     1     -12.067  11.321  68.060  1.00  0.00    -0.638 OA 
HETATM   12  O   UNL     1     -12.135  12.321  66.996  1.00  0.00    -0.575 OA 
HETATM   13  C   UNL     1     -10.897  13.067  66.879  1.00  0.00    -0.264 C  
HETATM   14  C   UNL     1     -10.053  13.006  68.184  1.00  0.00    -0.237 C  
HETATM   15  O   UNL     1     -10.602  13.875  69.176  1.00  0.00    -0.201 OA 
HETATM   16  O   UNL     1      -9.859  11.677  68.703  1.00  0.00    -0.203 OA 
HETATM   17  C   UNL     1     -10.537  15.264  68.821  1.00  0.00    -0.240 C  
HETATM   18  C   UNL     1     -10.396  15.519  67.295  1.00  0.00    -0.267 C  
HETATM   19  C   UNL     1     -10.651  16.986  66.928  1.00  0.00    -0.208 C  
ENDROOT
BRANCH  17  20
HETATM   20  O   UNL     1     -11.725  15.936  69.239  1.00  0.00    -0.367 OA 
BRANCH  20  21
HETATM   21  C   UNL     1     -12.349  15.343  70.368  1.00  0.00    -0.402 C  
HETATM   22  C   UNL     1     -11.816  16.050  71.601  1.00  0.00    -0.582 C  
ENDBRANCH  20  21
ENDBRANCH  17  20
TORSDOF 2
ENDMDL
MODEL        3
REMARK 921   NORMALIZED FREE ENERGY PREDICTED BY IDOCK:   -6.59 KCAL/MOL
REMARK 922        TOTAL FREE ENERGY PREDICTED BY IDOCK:   -7.59 KCAL/MOL
REMARK 923 INTER-LIGAND FREE ENERGY PREDICTED BY IDOCK:   -7.35 KCAL/MOL
REMARK 924 INTRA-LIGAND FREE ENERGY PREDICTED BY IDOCK:   -0.24 KCAL/MOL
REMARK 927      BINDING AFFINITY PREDICTED BY RF-SCORE:    0.00 PKD
ROOT
HETATM    1  C   UNL     1     -11.334  14.341  66.515  1.00  0.00    -0.351 C  
HETATM    2  C   UNL     1     -11.394  14.594  64.990  1.00  0.00    -0.390 C  
HETATM    3  C   UNL     1     -11.934  13.400  64.204  1.00  0.00    -0.505 C  
HETATM    4  C   UNL     1     -11.175  12.085  64.483  1.00  0.00    -0.390 C  
HETATM    5  C   UNL     1     -10.549  11.510  63.215  1.00  0.00    -0.405 C  
HETATM    6  C   UNL     1     -10.157  12.268  65.646  1.00  0.00    -0.275 C  
HETATM    7  C   UNL     1      -9.407  10.987  66.006  1.00  0.00    -0.225 C  
HETATM    8  C   UNL     1     -10.266  10.006  66.788  1.00  0.00    -0.295 C  
HETATM    9  C   UNL     1     -10.771  10.568  68.141  1.00  0.00    -0.233 C  
HETATM   10  C   UNL     1     -10.890   9.378  69.098  1.00  0.00    -0.176 C  
HETATM   11  O   UNL     1     -12.071  11.152  68.075  1.00  0.00    -0.635 OA 
HETATM   12  O   UNL     1     -12.143  12.136  66.997  1.00  0.00    -0.591 OA 
HETATM   13  C   UNL     1     -10.905  12.880  66.864  1.00  0.00    -0.257 C  
HETATM   14  C   UNL     1     -10.056  12.837  68.166  1.00  0.00    -0.239 C  
HETATM   15  O   UNL     1     -10.601  13.721  69.149  1.00  0.00    -0.185 OA 
HETATM   16  O   UNL     1      -9.861  11.516  68.704  1.00  0.00    -0.199 OA 
HETATM   17  C   UNL     1     -10.536  15.104  68.774  1.00  0.00    -0.234 C  
HETATM   18  C   UNL     1     -10.401  15.338  67.243  1.00  0.00    -0.264 C  
HETATM   19  C   UNL     1     -10.656  16.799  66.857  1.00  0.00    -0.219 C  
ENDROOT
BRANCH  17  20
HETATM   20  O   UNL     1     -11.721  15.783  69.187  1.00  0.00    -0.368 OA 
BRANCH  20  21
HETATM   21  C   UNL     1     -11.859  15.886  70.596  1.00  0.00    -0.370 C  
HETATM   22  C   UNL     1     -13.173  15.224  70.970  1.00  0.00    -0.546 C  
ENDBRANCH  20  21
ENDBRANCH  17  20
TORSDOF 2
ENDMDL
MODEL        4
REMARK 921   NORMALIZED FREE ENERGY PREDICTED BY IDOCK:   -6.57 KCAL/MOL
REMARK 922        TOTAL FREE ENERGY PREDICTED BY IDOCK:   -7.56 KCAL/MOL
REMARK 923 INTER-LIGAND FREE ENERGY PREDICTED BY IDOCK:   -7.30 KCAL/MOL
REMARK 924 INTRA-LIGAND FREE ENERGY PREDICTED BY IDOCK:   -0.27 KCAL/MOL
REMARK 927      BINDING AFFINITY PREDICTED BY RF-SCORE:    0.00 PKD
ROOT
HETATM    1  C   UNL     1     -11.461  12.286  70.070  1.00  0.00    -0.133 C  
HETATM    2  C   UNL     1     -11.447  10.740  70.115  1.00  0.00    -0.415 C  
HETATM    3  C   UNL     1     -10.401  10.122  69.188  1.00  0.00    -0.237 C  
HETATM    4  C   UNL     1     -10.517  10.599  67.724  1.00  0.00    -0.258 C  
HETATM    5  C   UNL     1     -10.767   9.436  66.767  1.00  0.00    -0.129 C  
HETATM    6  C   UNL     1     -11.566  11.742  67.594  1.00  0.00    -0.364 C  
HETATM    7  C   UNL     1     -11.693  12.293  66.176  1.00  0.00    -0.440 C  
HETATM    8  C   UNL     1     -10.528  13.191  65.791  1.00  0.00    -0.291 C  
HETATM    9  C   UNL     1     -10.385  14.442  66.695  1.00  0.00    -0.275 C  
HETATM   10  C   UNL     1      -9.800  15.555  65.821  1.00  0.00    -0.392 C  
HETATM   11  O   UNL     1      -9.472  14.270  67.778  1.00  0.00    -0.207 OA 
HETATM   12  O   UNL     1      -9.790  13.062  68.537  1.00  0.00    -0.218 OA 
HETATM   13  C   UNL     1     -11.221  12.847  68.633  1.00  0.00    -0.281 C  
HETATM   14  C   UNL     1     -12.025  14.157  68.395  1.00  0.00    -0.331 C  
HETATM   15  O   UNL     1     -11.970  14.994  69.552  1.00  0.00    -0.303 OA 
HETATM   16  O   UNL     1     -11.644  14.880  67.210  1.00  0.00    -0.360 OA 
HETATM   17  C   UNL     1     -12.619  14.428  70.700  1.00  0.00    -0.357 C  
HETATM   18  C   UNL     1     -12.771  12.882  70.641  1.00  0.00    -0.157 C  
HETATM   19  C   UNL     1     -13.165  12.288  71.998  1.00  0.00    -0.508 C  
ENDROOT
BRANCH  17  20
HETATM   20  O   UNL     1     -11.872  14.719  71.882  1.00  0.00    -0.355 OA 
BRANCH  20  21
HETATM   21  C   UNL     1     -12.200  15.970  72.470  1.00  0.00    -0.519 C  
HETATM   22  C   UNL     1     -12.552  15.706  73.923  1.00  0.00    -0.767 C  
ENDBRANCH  20  21
ENDBRANCH  17  20
TORSDOF 2
ENDMDL
MODEL        5
REMARK 921   NORMALIZED FREE ENERGY PREDICTED BY IDOCK:   -6.27 KCAL/MOL
REMARK 922        TOTAL FREE ENERGY PREDICTED BY IDOCK:   -7.23 KCAL/MOL
REMARK 923 INTER-LIGAND FREE ENERGY PREDICTED BY IDOCK:   -6.97 KCAL/MOL
REMARK 924 INTRA-LIGAND FREE ENERGY PREDICTED BY IDOCK:   -0.25 KCAL/MOL
REMARK 927      BINDING AFFINITY PREDICTED BY RF-SCORE:    0.00 PKD
ROOT
HETATM    1  C   UNL     1     -10.130  16.859  68.066  1.00  0.00    -0.293 C  
HETATM    2  C   UNL     1     -10.532  16.766  69.557  1.00  0.00    -0.263 C  
HETATM    3  C   UNL     1     -10.414  15.351  70.123  1.00  0.00    -0.291 C  
HETATM    4  C   UNL     1     -11.190  14.294  69.308  1.00  0.00    -0.309 C  
HETATM    5  C   UNL     1     -12.252  13.593  70.151  1.00  0.00    -0.413 C  
HETATM    6  C   UNL     1     -11.755  14.911  67.995  1.00  0.00    -0.344 C  
HETATM    7  C   UNL     1     -12.493  13.904  67.116  1.00  0.00    -0.084 C  
HETATM    8  C   UNL     1     -11.548  12.967  66.380  1.00  0.00    -0.425 C  
HETATM    9  C   UNL     1     -10.575  13.697  65.420  1.00  0.00    -0.317 C  
HETATM   10  C   UNL     1     -10.294  12.737  64.260  1.00  0.00    -0.402 C  
HETATM   11  O   UNL     1      -9.306  13.995  66.001  1.00  0.00    -0.190 OA 
HETATM   12  O   UNL     1      -9.470  14.695  67.273  1.00  0.00    -0.209 OA 
HETATM   13  C   UNL     1     -10.590  15.616  67.241  1.00  0.00    -0.305 C  
HETATM   14  C   UNL     1     -10.977  16.013  65.788  1.00  0.00    -0.140 C  
HETATM   15  O   UNL     1     -10.048  16.965  65.266  1.00  0.00    -0.577 OA 
HETATM   16  O   UNL     1     -11.141  14.898  64.892  1.00  0.00    -0.383 OA 
HETATM   17  C   UNL     1     -10.069  18.223  65.955  1.00  0.00    -0.271 C  
HETATM   18  C   UNL     1     -10.659  18.147  67.391  1.00  0.00    -0.406 C  
HETATM   19  C   UNL     1     -10.373  19.417  68.201  1.00  0.00    -0.525 C  
ENDROOT
BRANCH  17  20
HETATM   20  O   UNL     1      -8.744  18.737  66.086  1.00  0.00    -0.439 OA 
BRANCH  20  21
HETATM   21  C   UNL     1      -7.735  17.740  66.006  1.00  0.00    -0.188 C  
HETATM   22  C   UNL     1      -6.656  18.110  67.007  1.00  0.00    -0.201 C  
ENDBRANCH  20  21
ENDBRANCH  17  20
TORSDOF 2
ENDMDL
MODEL        6
REMARK 921   NORMALIZED FREE ENERGY PREDICTED BY IDOCK:   -6.18 KCAL/MOL
REMARK 922        TOTAL FREE ENERGY PREDICTED BY IDOCK:   -7.12 KCAL/MOL
REMARK 923 INTER-LIGAND FREE ENERGY PREDICTED BY IDOCK:   -7.01 KCAL/MOL
REMARK 924 INTRA-LIGAND FREE ENERGY PREDICTED BY IDOCK:   -0.12 KCAL/MOL
REMARK 927      BINDING AFFINITY PREDICTED BY RF-SCORE:    0.00 PKD
ROOT
HETATM    1  C   UNL     1     -11.423  15.956  69.140  1.00  0.00    -0.377 C  
HETATM    2  C   UNL     1     -10.504  17.199  69.098  1.00  0.00    -0.296 C  
HETATM    3  C   UNL     1     -10.183  17.660  67.677  1.00  0.00    -0.351 C  
HETATM    4  C   UNL     1      -9.593  16.547  66.785  1.00  0.00    -0.268 C  
HETATM    5  C   UNL     1      -8.202  16.908  66.271  1.00  0.00    -0.344 C  
HETATM    6  C   UNL     1      -9.644  15.170  67.511  1.00  0.00    -0.207 C  
HETATM    7  C   UNL     1      -9.119  14.014  66.662  1.00  0.00    -0.221 C  
HETATM    8  C   UNL     1     -10.102  13.587  65.584  1.00  0.00    -0.292 C  
HETATM    9  C   UNL     1     -11.458  13.089  66.144  1.00  0.00    -0.340 C  
HETATM   10  C   UNL     1     -11.979  12.031  65.167  1.00  0.00    -0.230 C  
HETATM   11  O   UNL     1     -12.464  14.098  66.205  1.00  0.00    -0.466 OA 
HETATM   12  O   UNL     1     -11.969  15.282  66.905  1.00  0.00    -0.028 OA 
HETATM   13  C   UNL     1     -11.097  14.929  68.009  1.00  0.00    -0.295 C  
HETATM   14  C   UNL     1     -11.327  13.468  68.489  1.00  0.00    -0.292 C  
HETATM   15  O   UNL     1     -12.521  13.379  69.270  1.00  0.00    -0.139 OA 
HETATM   16  O   UNL     1     -11.319  12.488  67.434  1.00  0.00    -0.275 OA 
HETATM   17  C   UNL     1     -12.455  14.111  70.502  1.00  0.00    -0.361 C  
HETATM   18  C   UNL     1     -11.385  15.238  70.511  1.00  0.00    -0.340 C  
HETATM   19  C   UNL     1     -11.560  16.192  71.698  1.00  0.00    -0.503 C  
ENDROOT
BRANCH  17  20
HETATM   20  O   UNL     1     -13.709  14.737  70.771  1.00  0.00    -0.258 OA 
BRANCH  20  21
HETATM   21  C   UNL     1     -14.360  14.238  71.930  1.00  0.00    -0.513 C  
HETATM   22  C   UNL     1     -13.651  12.956  72.328  1.00  0.00    -0.611 C  
ENDBRANCH  20  21
ENDBRANCH  17  20
TORSDOF 2
ENDMDL
MODEL        7
REMARK 921   NORMALIZED FREE ENERGY PREDICTED BY IDOCK:   -6.15 KCAL/MOL
REMARK 922        TOTAL FREE ENERGY PREDICTED BY IDOCK:   -7.09 KCAL/MOL
REMARK 923 INTER-LIGAND FREE ENERGY PREDICTED BY IDOCK:   -6.79 KCAL/MOL
REMARK 924 INTRA-LIGAND FREE ENERGY PREDICTED BY IDOCK:   -0.30 KCAL/MOL
REMARK 927      BINDING AFFINITY PREDICTED BY RF-SCORE:    0.00 PKD
ROOT
HETATM    1  C   UNL     1     -10.542  11.891  68.634  1.00  0.00    -0.259 C  
HETATM    2  C   UNL     1      -9.853  10.518  68.450  1.00  0.00    -0.171 C  
HETATM    3  C   UNL     1      -8.796  10.519  67.347  1.00  0.00    -0.132 C  
HETATM    4  C   UNL     1      -9.324  11.022  65.987  1.00  0.00    -0.225 C  
HETATM    5  C   UNL     1      -9.188   9.962  64.897  1.00  0.00    -0.301 C  
HETATM    6  C   UNL     1     -10.770  11.582  66.126  1.00  0.00    -0.324 C  
HETATM    7  C   UNL     1     -11.334  12.142  64.823  1.00  0.00    -0.378 C  
HETATM    8  C   UNL     1     -10.745  13.497  64.465  1.00  0.00    -0.431 C  
HETATM    9  C   UNL     1     -11.023  14.593  65.525  1.00  0.00    -0.340 C  
HETATM   10  C   UNL     1     -11.115  15.924  64.773  1.00  0.00    -0.397 C  
HETATM   11  O   UNL     1      -9.974  14.752  66.480  1.00  0.00    -0.253 OA 
HETATM   12  O   UNL     1      -9.620  13.467  67.080  1.00  0.00    -0.226 OA 
HETATM   13  C   UNL     1     -10.786  12.626  67.278  1.00  0.00    -0.237 C  
HETATM   14  C   UNL     1     -12.103  13.453  67.313  1.00  0.00    -0.304 C  
HETATM   15  O   UNL     1     -12.242  14.119  68.570  1.00  0.00    -0.311 OA 
HETATM   16  O   UNL     1     -12.255  14.373  66.216  1.00  0.00    -0.412 OA 
HETATM   17  C   UNL     1     -12.402  13.222  69.678  1.00  0.00    -0.097 C  
HETATM   18  C   UNL     1     -11.878  11.784  69.407  1.00  0.00    -0.398 C  
HETATM   19  C   UNL     1     -11.768  10.957  70.694  1.00  0.00    -0.418 C  
ENDROOT
BRANCH  17  20
HETATM   20  O   UNL     1     -11.687  13.709  70.814  1.00  0.00    -0.176 OA 
BRANCH  20  21
HETATM   21  C   UNL     1     -12.432  14.620  71.609  1.00  0.00    -0.345 C  
HETATM   22  C   UNL     1     -13.386  13.801  72.459  1.00  0.00    -0.656 C  
ENDBRANCH  20  21
ENDBRANCH  17  20
TORSDOF 2
ENDMDL
MODEL        8
REMARK 921   NORMALIZED FREE ENERGY PREDICTED BY IDOCK:   -6.13 KCAL/MOL
REMARK 922        TOTAL FREE ENERGY PREDICTED BY IDOCK:   -7.07 KCAL/MOL
REMARK 923 INTER-LIGAND FREE ENERGY PREDICTED BY IDOCK:   -6.69 KCAL/MOL
REMARK 924 INTRA-LIGAND FREE ENERGY PREDICTED BY IDOCK:   -0.38 KCAL/MOL
REMARK 927      BINDING AFFINITY PREDICTED BY RF-SCORE:    0.00 PKD
ROOT
HETATM    1  C   UNL     1      -9.710  16.186  66.828  1.00  0.00    -0.255 C  
HETATM    2  C   UNL     1      -9.794  15.422  65.485  1.00  0.00    -0.359 C  
HETATM    3  C   UNL     1     -11.137  14.725  65.274  1.00  0.00    -0.374 C  
HETATM    4  C   UNL     1     -11.533  13.785  66.433  1.00  0.00    -0.351 C  
HETATM    5  C   UNL     1     -11.712  12.344  65.961  1.00  0.00    -0.469 C  
HETATM    6  C   UNL     1     -10.541  13.924  67.624  1.00  0.00    -0.247 C  
HETATM    7  C   UNL     1     -10.905  13.056  68.826  1.00  0.00    -0.277 C  
HETATM    8  C   UNL     1     -12.079  13.613  69.616  1.00  0.00    -0.378 C  
HETATM    9  C   UNL     1     -11.814  15.022  70.206  1.00  0.00    -0.309 C  
HETATM   10  C   UNL     1     -12.614  15.113  71.510  1.00  0.00    -0.425 C  
HETATM   11  O   UNL     1     -12.281  16.090  69.383  1.00  0.00    -0.231 OA 
HETATM   12  O   UNL     1     -11.778  15.950  68.018  1.00  0.00    -0.245 OA 
HETATM   13  C   UNL     1     -10.424  15.431  67.994  1.00  0.00    -0.257 C  
HETATM   14  C   UNL     1      -9.689  15.656  69.346  1.00  0.00    -0.292 C  
HETATM   15  O   UNL     1      -9.274  17.018  69.469  1.00  0.00     0.086 OA 
HETATM   16  O   UNL     1     -10.432  15.230  70.503  1.00  0.00    -0.242 OA 
HETATM   17  C   UNL     1      -8.286  17.405  68.503  1.00  0.00    -0.271 C  
HETATM   18  C   UNL     1      -8.252  16.503  67.238  1.00  0.00    -0.196 C  
HETATM   19  C   UNL     1      -7.427  17.126  66.106  1.00  0.00    -0.295 C  
ENDROOT
BRANCH  17  20
HETATM   20  O   UNL     1      -8.536  18.735  68.049  1.00  0.00    -0.278 OA 
BRANCH  20  21
HETATM   21  C   UNL     1      -9.782  19.262  68.482  1.00  0.00    -0.414 C  
HETATM   22  C   UNL     1     -10.627  19.494  67.243  1.00  0.00    -0.610 C  
ENDBRANCH  20  21
ENDBRANCH  17  20
TORSDOF 2
ENDMDL
MODEL        9
REMARK 921   NORMALIZED FREE ENERGY PREDICTED BY IDOCK:   -6.10 KCAL/MOL
REMARK 922        TOTAL FREE ENERGY PREDICTED BY IDOCK:   -7.04 KCAL/MOL
REMARK 923 INTER-LIGAND FREE ENERGY PREDICTED BY IDOCK:   -6.80 KCAL/MOL
REMARK 924 INTRA-LIGAND FREE ENERGY PREDICTED BY IDOCK:   -0.24 KCAL/MOL
REMARK 927      BINDING AFFINITY PREDICTED BY RF-SCORE:    0.00 PKD
ROOT
HETATM    1  C   UNL     1     -10.070  10.474  67.060  1.00  0.00    -0.259 C  
HETATM    2  C   UNL     1      -9.875   9.933  65.624  1.00  0.00    -0.368 C  
HETATM    3  C   UNL     1      -9.469  11.016  64.625  1.00  0.00    -0.270 C  
HETATM    4  C   UNL     1     -10.430  12.224  64.600  1.00  0.00    -0.334 C  
HETATM    5  C   UNL     1     -11.052  12.426  63.221  1.00  0.00    -0.347 C  
HETATM    6  C   UNL     1     -11.483  12.119  65.743  1.00  0.00    -0.414 C  
HETATM    7  C   UNL     1     -12.435  13.311  65.804  1.00  0.00    -0.480 C  
HETATM    8  C   UNL     1     -11.782  14.552  66.393  1.00  0.00    -0.372 C  
HETATM    9  C   UNL     1     -11.287  14.359  67.849  1.00  0.00    -0.301 C  
HETATM   10  C   UNL     1     -11.406  15.721  68.540  1.00  0.00    -0.374 C  
HETATM   11  O   UNL     1      -9.913  13.987  67.947  1.00  0.00    -0.227 OA 
HETATM   12  O   UNL     1      -9.628  12.830  67.100  1.00  0.00    -0.208 OA 
HETATM   13  C   UNL     1     -10.731  11.889  67.085  1.00  0.00    -0.240 C  
HETATM   14  C   UNL     1     -11.659  12.057  68.322  1.00  0.00    -0.334 C  
HETATM   15  O   UNL     1     -11.053  11.486  69.483  1.00  0.00    -0.244 OA 
HETATM   16  O   UNL     1     -12.081  13.412  68.566  1.00  0.00    -0.352 OA 
HETATM   17  C   UNL     1     -10.889  10.063  69.402  1.00  0.00    -0.239 C  
HETATM   18  C   UNL     1     -10.890   9.509  67.950  1.00  0.00    -0.240 C  
HETATM   19  C   UNL     1     -10.397   8.059  67.884  1.00  0.00    -0.282 C  
ENDROOT
BRANCH  17  20
HETATM   20  O   UNL     1      -9.645   9.676  69.985  1.00  0.00    -0.214 OA 
BRANCH  20  21
HETATM   21  C   UNL     1      -9.761   9.208  71.321  1.00  0.00    -0.281 C  
HETATM   22  C   UNL     1     -11.233   8.947  71.580  1.00  0.00    -0.415 C  
ENDBRANCH  20  21
ENDBRANCH  17  20
TORSDOF 2
ENDMDL
MODEL       10
REMARK 921   NORMALIZED FREE ENERGY PREDICTED BY IDOCK:   -6.06 KCAL/MOL
REMARK 922        TOTAL FREE ENERGY PREDICTED BY IDOCK:   -6.99 KCAL/MOL
REMARK 923 INTER-LIGAND FREE ENERGY PREDICTED BY IDOCK:   -6.63 KCAL/MOL
REMARK 924 INTRA-LIGAND FREE ENERGY PREDICTED BY IDOCK:   -0.36 KCAL/MOL
REMARK 927      BINDING AFFINITY PREDICTED BY RF-SCORE:    0.00 PKD
ROOT
HETATM    1  C   UNL     1     -10.987  10.124  69.983  1.00  0.00    -0.364 C  
HETATM    2  C   UNL     1     -11.662  10.075  71.375  1.00  0.00    -0.414 C  
HETATM    3  C   UNL     1     -13.014  10.786  71.412  1.00  0.00    -0.535 C  
HETATM    4  C   UNL     1     -12.957  12.246  70.913  1.00  0.00    -0.062 C  
HETATM    5  C   UNL     1     -13.403  13.232  71.989  1.00  0.00    -0.582 C  
HETATM    6  C   UNL     1     -11.556  12.574  70.318  1.00  0.00    -0.052 C  
HETATM    7  C   UNL     1     -11.449  13.992  69.760  1.00  0.00    -0.293 C  
HETATM    8  C   UNL     1     -12.157  14.150  68.424  1.00  0.00    -0.308 C  
HETATM    9  C   UNL     1     -11.587  13.237  67.309  1.00  0.00    -0.359 C  
HETATM   10  C   UNL     1     -11.773  13.985  65.985  1.00  0.00    -0.378 C  
HETATM   11  O   UNL     1     -12.283  12.000  67.163  1.00  0.00    -0.505 OA 
HETATM   12  O   UNL     1     -12.395  11.313  68.448  1.00  0.00    -0.545 OA 
HETATM   13  C   UNL     1     -11.205  11.491  69.259  1.00  0.00    -0.272 C  
HETATM   14  C   UNL     1      -9.967  11.879  68.400  1.00  0.00    -0.203 C  
HETATM   15  O   UNL     1      -9.454  10.733  67.716  1.00  0.00    -0.153 OA 
HETATM   16  O   UNL     1     -10.195  12.971  67.490  1.00  0.00    -0.218 OA 
HETATM   17  C   UNL     1      -8.928   9.729  68.595  1.00  0.00    -0.130 C  
HETATM   18  C   UNL     1      -9.473   9.814  70.048  1.00  0.00    -0.278 C  
HETATM   19  C   UNL     1      -9.148   8.555  70.862  1.00  0.00    -0.208 C  
ENDROOT
BRANCH  17  20
HETATM   20  O   UNL     1      -9.259   8.427  68.111  1.00  0.00    -0.138 OA 
BRANCH  20  21
HETATM   21  C   UNL     1     -10.009   8.440  66.905  1.00  0.00    -0.271 C  
HETATM   22  C   UNL     1     -10.780   7.134  66.840  1.00  0.00    -0.363 C  
ENDBRANCH  20  21
ENDBRANCH  17  20
TORSDOF 2
ENDMDL
MODEL       11
REMARK 921   NORMALIZED FREE ENERGY PREDICTED BY IDOCK:   -5.96 KCAL/MOL
REMARK 922        TOTAL FREE ENERGY PREDICTED BY IDOCK:   -6.88 KCAL/MOL
REMARK 923 INTER-LIGAND FREE ENERGY PREDICTED BY IDOCK:   -6.53 KCAL/MOL
REMARK 924 INTRA-LIGAND FREE ENERGY PREDICTED BY IDOCK:   -0.34 KCAL/MOL
REMARK 927      BINDING AFFINITY PREDICTED BY RF-SCORE:    0.00 PKD
ROOT
HETATM    1  C   UNL     1      -9.276  14.593  67.655  1.00  0.00    -0.193 C  
HETATM    2  C   UNL     1      -8.112  14.161  68.578  1.00  0.00    -0.143 C  
HETATM    3  C   UNL     1      -7.743  15.222  69.614  1.00  0.00    -0.161 C  
HETATM    4  C   UNL     1      -7.434  16.604  68.999  1.00  0.00    -0.232 C  
HETATM    5  C   UNL     1      -6.014  17.064  69.320  1.00  0.00    -0.204 C  
HETATM    6  C   UNL     1      -7.758  16.618  67.477  1.00  0.00    -0.186 C  
HETATM    7  C   UNL     1      -7.521  17.974  66.816  1.00  0.00    -0.242 C  
HETATM    8  C   UNL     1      -8.605  18.986  67.152  1.00  0.00    -0.298 C  
HETATM    9  C   UNL     1     -10.019  18.556  66.685  1.00  0.00    -0.372 C  
HETATM   10  C   UNL     1     -10.785  19.840  66.353  1.00  0.00    -0.499 C  
HETATM   11  O   UNL     1     -10.782  17.891  67.692  1.00  0.00    -0.399 OA 
HETATM   12  O   UNL     1     -10.022  16.786  68.272  1.00  0.00    -0.252 OA 
HETATM   13  C   UNL     1      -9.213  16.107  67.278  1.00  0.00    -0.208 C  
HETATM   14  C   UNL     1      -9.737  16.352  65.834  1.00  0.00    -0.294 C  
HETATM   15  O   UNL     1     -10.898  15.558  65.581  1.00  0.00    -0.334 OA 
HETATM   16  O   UNL     1      -9.973  17.737  65.515  1.00  0.00    -0.515 OA 
HETATM   17  C   UNL     1     -10.639  14.147  65.589  1.00  0.00    -0.310 C  
HETATM   18  C   UNL     1      -9.352  13.746  66.362  1.00  0.00    -0.215 C  
HETATM   19  C   UNL     1      -9.281  12.236  66.623  1.00  0.00    -0.208 C  
ENDROOT
BRANCH  17  20
HETATM   20  O   UNL     1     -11.720  13.450  66.209  1.00  0.00    -0.334 OA 
BRANCH  20  21
HETATM   21  C   UNL     1     -12.774  13.121  65.316  1.00  0.00    -0.394 C  
HETATM   22  C   UNL     1     -12.160  12.360  64.155  1.00  0.00    -0.539 C  
ENDBRANCH  20  21
ENDBRANCH  17  20
TORSDOF 2
ENDMDL
MODEL       12
REMARK 921   NORMALIZED FREE ENERGY PREDICTED BY IDOCK:   -5.90 KCAL/MOL
REMARK 922        TOTAL FREE ENERGY PREDICTED BY IDOCK:   -6.81 KCAL/MOL
REMARK 923 INTER-LIGAND FREE ENERGY PREDICTED BY IDOCK:   -6.36 KCAL/MOL
REMARK 924 INTRA-LIGAND FREE ENERGY PREDICTED BY IDOCK:   -0.45 KCAL/MOL
REMARK 927      BINDING AFFINITY PREDICTED BY RF-SCORE:    0.00 PKD
ROOT
HETATM    1  C   UNL     1     -10.716  14.670  66.349  1.00  0.00    -0.309 C  
HETATM    2  C   UNL     1     -11.233  14.980  64.924  1.00  0.00    -0.423 C  
HETATM    3  C   UNL     1     -12.362  14.050  64.480  1.00  0.00    -0.409 C  
HETATM    4  C   UNL     1     -12.006  12.552  64.590  1.00  0.00    -0.468 C  
HETATM    5  C   UNL     1     -12.085  11.848  63.238  1.00  0.00    -0.466 C  
HETATM    6  C   UNL     1     -10.637  12.358  65.307  1.00  0.00    -0.322 C  
HETATM    7  C   UNL     1     -10.249  10.893  65.492  1.00  0.00    -0.332 C  
HETATM    8  C   UNL     1     -11.034  10.216  66.605  1.00  0.00     0.007 C  
HETATM    9  C   UNL     1     -10.821  10.866  67.996  1.00  0.00    -0.245 C  
HETATM   10  C   UNL     1     -10.958   9.747  69.033  1.00  0.00    -0.193 C  
HETATM   11  O   UNL     1     -11.807  11.840  68.335  1.00  0.00    -0.364 OA 
HETATM   12  O   UNL     1     -11.946  12.830  67.269  1.00  0.00    -0.369 OA 
HETATM   13  C   UNL     1     -10.671  13.139  66.652  1.00  0.00    -0.279 C  
HETATM   14  C   UNL     1      -9.473  12.780  67.576  1.00  0.00    -0.187 C  
HETATM   15  O   UNL     1      -9.327  13.760  68.607  1.00  0.00    -0.176 OA 
HETATM   16  O   UNL     1      -9.523  11.450  68.124  1.00  0.00    -0.168 OA 
HETATM   17  C   UNL     1      -8.970  15.060  68.116  1.00  0.00    -0.173 C  
HETATM   18  C   UNL     1      -9.323  15.288  66.620  1.00  0.00    -0.285 C  
HETATM   19  C   UNL     1      -9.229  16.766  66.222  1.00  0.00    -0.313 C  
ENDROOT
BRANCH  17  20
HETATM   20  O   UNL     1      -9.655  16.071  68.855  1.00  0.00    -0.212 OA 
BRANCH  20  21
HETATM   21  C   UNL     1     -10.379  15.572  69.970  1.00  0.00    -0.302 C  
HETATM   22  C   UNL     1     -11.856  15.699  69.641  1.00  0.00    -0.377 C  
ENDBRANCH  20  21
ENDBRANCH  17  20
TORSDOF 2
ENDMDL
MODEL       13
REMARK 921   NORMALIZED FREE ENERGY PREDICTED BY IDOCK:   -5.88 KCAL/MOL
REMARK 922        TOTAL FREE ENERGY PREDICTED BY IDOCK:   -6.79 KCAL/MOL
REMARK 923 INTER-LIGAND FREE ENERGY PREDICTED BY IDOCK:   -6.56 KCAL/MOL
REMARK 924 INTRA-LIGAND FREE ENERGY PREDICTED BY IDOCK:   -0.23 KCAL/MOL
REMARK 927      BINDING AFFINITY PREDICTED BY RF-SCORE:    0.00 PKD
ROOT
HETATM    1  C   UNL     1     -10.694  14.612  66.808  1.00  0.00    -0.301 C  
HETATM    2  C   UNL     1     -10.532  16.054  67.342  1.00  0.00    -0.308 C  
HETATM    3  C   UNL     1      -9.967  16.109  68.761  1.00  0.00    -0.231 C  
HETATM    4  C   UNL     1     -10.766  15.265  69.777  1.00  0.00    -0.295 C  
HETATM    5  C   UNL     1     -11.322  16.120  70.913  1.00  0.00    -0.394 C  
HETATM    6  C   UNL     1     -11.853  14.414  69.057  1.00  0.00    -0.358 C  
HETATM    7  C   UNL     1     -12.648  13.516  70.002  1.00  0.00    -0.131 C  
HETATM    8  C   UNL     1     -11.859  12.297  70.454  1.00  0.00    -0.259 C  
HETATM    9  C   UNL     1     -11.430  11.370  69.288  1.00  0.00    -0.303 C  
HETATM   10  C   UNL     1     -11.394   9.945  69.847  1.00  0.00    -0.273 C  
HETATM   11  O   UNL     1     -10.118  11.633  68.794  1.00  0.00    -0.207 OA 
HETATM   12  O   UNL     1      -9.959  13.050  68.472  1.00  0.00    -0.227 OA 
HETATM   13  C   UNL     1     -11.172  13.613  67.910  1.00  0.00    -0.274 C  
HETATM   14  C   UNL     1     -12.103  12.518  67.316  1.00  0.00    -0.062 C  
HETATM   15  O   UNL     1     -11.604  12.069  66.053  1.00  0.00    -0.371 OA 
HETATM   16  O   UNL     1     -12.356  11.411  68.200  1.00  0.00    -0.502 OA 
HETATM   17  C   UNL     1     -11.619  13.083  65.038  1.00  0.00    -0.325 C  
HETATM   18  C   UNL     1     -11.653  14.534  65.596  1.00  0.00    -0.344 C  
HETATM   19  C   UNL     1     -11.345  15.576  64.513  1.00  0.00    -0.322 C  
ENDROOT
BRANCH  17  20
HETATM   20  O   UNL     1     -10.450  12.986  64.226  1.00  0.00    -0.395 OA 
BRANCH  20  21
HETATM   21  C   UNL     1     -10.530  11.979  63.227  1.00  0.00    -0.359 C  
HETATM   22  C   UNL     1      -9.427  10.976  63.508  1.00  0.00    -0.315 C  
ENDBRANCH  20  21
ENDBRANCH  17  20
TORSDOF 2
ENDMDL
MODEL       14
REMARK 921   NORMALIZED FREE ENERGY PREDICTED BY IDOCK:   -5.87 KCAL/MOL
REMARK 922        TOTAL FREE ENERGY PREDICTED BY IDOCK:   -6.78 KCAL/MOL
REMARK 923 INTER-LIGAND FREE ENERGY PREDICTED BY IDOCK:   -6.68 KCAL/MOL
REMARK 924 INTRA-LIGAND FREE ENERGY PREDICTED BY IDOCK:   -0.10 KCAL/MOL
REMARK 927      BINDING AFFINITY PREDICTED BY RF-SCORE:    0.00 PKD
ROOT
HETATM    1  C   UNL     1     -10.502  15.264  66.317  1.00  0.00    -0.313 C  
HETATM    2  C   UNL     1     -10.927  15.338  64.831  1.00  0.00    -0.445 C  
HETATM    3  C   UNL     1     -12.194  14.539  64.530  1.00  0.00    -0.483 C  
HETATM    4  C   UNL     1     -12.113  13.063  64.975  1.00  0.00    -0.470 C  
HETATM    5  C   UNL     1     -12.290  12.104  63.801  1.00  0.00    -0.635 C  
HETATM    6  C   UNL     1     -10.816  12.801  65.795  1.00  0.00    -0.299 C  
HETATM    7  C   UNL     1     -10.699  11.368  66.310  1.00  0.00    -0.322 C  
HETATM    8  C   UNL     1     -11.614  11.095  67.493  1.00  0.00    -0.220 C  
HETATM    9  C   UNL     1     -11.316  11.988  68.724  1.00  0.00    -0.278 C  
HETATM   10  C   UNL     1     -11.672  11.162  69.965  1.00  0.00    -0.438 C  
HETATM   11  O   UNL     1     -12.120  13.165  68.792  1.00  0.00    -0.310 OA 
HETATM   12  O   UNL     1     -12.059  13.907  67.534  1.00  0.00    -0.389 OA 
HETATM   13  C   UNL     1     -10.736  13.852  66.940  1.00  0.00    -0.284 C  
HETATM   14  C   UNL     1      -9.640  13.507  67.988  1.00  0.00    -0.221 C  
HETATM   15  O   UNL     1      -9.343  14.648  68.795  1.00  0.00    -0.199 OA 
HETATM   16  O   UNL     1      -9.938  12.356  68.802  1.00  0.00    -0.152 OA 
HETATM   17  C   UNL     1      -8.750  15.729  68.060  1.00  0.00    -0.171 C  
HETATM   18  C   UNL     1      -9.027  15.681  66.532  1.00  0.00    -0.343 C  
HETATM   19  C   UNL     1      -8.662  16.998  65.836  1.00  0.00    -0.033 C  
ENDROOT
BRANCH  17  20
HETATM   20  O   UNL     1      -9.258  16.979  68.527  1.00  0.00    -0.250 OA 
BRANCH  20  21
HETATM   21  C   UNL     1      -8.263  17.830  69.078  1.00  0.00    -0.040 C  
HETATM   22  C   UNL     1      -8.665  19.259  68.758  1.00  0.00    -0.383 C  
ENDBRANCH  20  21
ENDBRANCH  17  20
TORSDOF 2
ENDMDL
MODEL       15
REMARK 921   NORMALIZED FREE ENERGY PREDICTED BY IDOCK:   -5.86 KCAL/MOL
REMARK 922        TOTAL FREE ENERGY PREDICTED BY IDOCK:   -6.77 KCAL/MOL
REMARK 923 INTER-LIGAND FREE ENERGY PREDICTED BY IDOCK:   -6.51 KCAL/MOL
REMARK 924 INTRA-LIGAND FREE ENERGY PREDICTED BY IDOCK:   -0.26 KCAL/MOL
REMARK 927      BINDING AFFINITY PREDICTED BY RF-SCORE:    0.00 PKD
ROOT
HETATM    1  C   UNL     1     -11.571  11.847  69.236  1.00  0.00    -0.376 C  
HETATM    2  C   UNL     1     -12.124  12.134  70.652  1.00  0.00    -0.344 C  
HETATM    3  C   UNL     1     -13.014  13.375  70.708  1.00  0.00    -0.131 C  
HETATM    4  C   UNL     1     -12.338  14.644  70.147  1.00  0.00    -0.390 C  
HETATM    5  C   UNL     1     -12.242  15.749  71.196  1.00  0.00    -0.473 C  
HETATM    6  C   UNL     1     -10.971  14.300  69.488  1.00  0.00    -0.206 C  
HETATM    7  C   UNL     1     -10.272  15.507  68.867  1.00  0.00    -0.210 C  
HETATM    8  C   UNL     1     -10.904  15.937  67.552  1.00  0.00    -0.305 C  
HETATM    9  C   UNL     1     -10.858  14.841  66.457  1.00  0.00    -0.319 C  
HETATM   10  C   UNL     1     -10.759  15.565  65.111  1.00  0.00    -0.460 C  
HETATM   11  O   UNL     1     -12.039  14.043  66.389  1.00  0.00    -0.416 OA 
HETATM   12  O   UNL     1     -12.378  13.506  67.705  1.00  0.00    -0.248 OA 
HETATM   13  C   UNL     1     -11.193  13.151  68.463  1.00  0.00    -0.272 C  
HETATM   14  C   UNL     1      -9.959  12.926  67.544  1.00  0.00    -0.215 C  
HETATM   15  O   UNL     1     -10.046  11.658  66.891  1.00  0.00    -0.206 OA 
HETATM   16  O   UNL     1      -9.722  13.985  66.598  1.00  0.00    -0.269 OA 
HETATM   17  C   UNL     1      -9.978  10.543  67.792  1.00  0.00    -0.171 C  
HETATM   18  C   UNL     1     -10.352  10.894  69.259  1.00  0.00    -0.211 C  
HETATM   19  C   UNL     1     -10.580   9.640  70.112  1.00  0.00    -0.320 C  
ENDROOT
BRANCH  17  20
HETATM   20  O   UNL     1     -10.879   9.517  67.375  1.00  0.00    -0.269 OA 
BRANCH  20  21
HETATM   21  C   UNL     1     -10.255   8.473  66.641  1.00  0.00    -0.275 C  
HETATM   22  C   UNL     1     -10.777   7.160  67.194  1.00  0.00    -0.422 C  
ENDBRANCH  20  21
ENDBRANCH  17  20
TORSDOF 2
ENDMDL
MODEL       16
REMARK 921   NORMALIZED FREE ENERGY PREDICTED BY IDOCK:   -5.84 KCAL/MOL
REMARK 922        TOTAL FREE ENERGY PREDICTED BY IDOCK:   -6.74 KCAL/MOL
REMARK 923 INTER-LIGAND FREE ENERGY PREDICTED BY IDOCK:   -6.50 KCAL/MOL
REMARK 924 INTRA-LIGAND FREE ENERGY PREDICTED BY IDOCK:   -0.24 KCAL/MOL
REMARK 927      BINDING AFFINITY PREDICTED BY RF-SCORE:    0.00 PKD
ROOT
HETATM    1  C   UNL     1     -10.450  10.559  68.254  1.00  0.00    -0.211 C  
HETATM    2  C   UNL     1     -10.800  10.538  69.761  1.00  0.00    -0.335 C  
HETATM    3  C   UNL     1     -12.107  11.260  70.084  1.00  0.00    -0.448 C  
HETATM    4  C   UNL     1     -12.156  12.711  69.559  1.00  0.00    -0.253 C  
HETATM    5  C   UNL     1     -12.349  13.718  70.690  1.00  0.00    -0.445 C  
HETATM    6  C   UNL     1     -10.921  13.019  68.663  1.00  0.00    -0.297 C  
HETATM    7  C   UNL     1     -10.934  14.425  68.070  1.00  0.00    -0.268 C  
HETATM    8  C   UNL     1     -11.920  14.567  66.921  1.00  0.00    -0.371 C  
HETATM    9  C   UNL     1     -11.614  13.631  65.724  1.00  0.00    -0.333 C  
HETATM   10  C   UNL     1     -12.086  14.359  64.461  1.00  0.00    -0.498 C  
HETATM   11  O   UNL     1     -12.330  12.398  65.758  1.00  0.00    -0.644 OA 
HETATM   12  O   UNL     1     -12.157  11.733  67.048  1.00  0.00    -0.575 OA 
HETATM   13  C   UNL     1     -10.817  11.915  67.572  1.00  0.00    -0.238 C  
HETATM   14  C   UNL     1      -9.798  12.279  66.454  1.00  0.00    -0.230 C  
HETATM   15  O   UNL     1      -9.455  11.118  65.694  1.00  0.00    -0.208 OA 
HETATM   16  O   UNL     1     -10.217  13.358  65.597  1.00  0.00    -0.285 OA 
HETATM   17  C   UNL     1      -8.751  10.124  66.452  1.00  0.00    -0.130 C  
HETATM   18  C   UNL     1      -8.960  10.238  67.988  1.00  0.00    -0.132 C  
HETATM   19  C   UNL     1      -8.468   8.990  68.732  1.00  0.00    -0.131 C  
ENDROOT
BRANCH  17  20
HETATM   20  O   UNL     1      -9.186   8.818  66.077  1.00  0.00    -0.193 OA 
BRANCH  20  21
HETATM   21  C   UNL     1      -8.331   8.178  65.141  1.00  0.00    -0.143 C  
HETATM   22  C   UNL     1      -8.373   6.690  65.436  1.00  0.00    -0.130 C  
ENDBRANCH  20  21
ENDBRANCH  17  20
TORSDOF 2
ENDMDL
MODEL       17
REMARK 921   NORMALIZED FREE ENERGY PREDICTED BY IDOCK:   -5.80 KCAL/MOL
REMARK 922        TOTAL FREE ENERGY PREDICTED BY IDOCK:   -6.71 KCAL/MOL
REMARK 923 INTER-LIGAND FREE ENERGY PREDICTED BY IDOCK:   -6.41 KCAL/MOL
REMARK 924 INTRA-LIGAND FREE ENERGY PREDICTED BY IDOCK:   -0.29 KCAL/MOL
REMARK 927      BINDING AFFINITY PREDICTED BY RF-SCORE:    0.00 PKD
ROOT
HETATM    1  C   UNL     1     -11.316  12.791  67.906  1.00  0.00    -0.339 C  
HETATM    2  C   UNL     1     -11.908  12.449  69.294  1.00  0.00    -0.361 C  
HETATM    3  C   UNL     1     -12.535  13.654  69.993  1.00  0.00    -0.267 C  
HETATM    4  C   UNL     1     -11.579  14.860  70.118  1.00  0.00    -0.333 C  
HETATM    5  C   UNL     1     -11.346  15.252  71.575  1.00  0.00    -0.432 C  
HETATM    6  C   UNL     1     -10.261  14.608  69.329  1.00  0.00    -0.156 C  
HETATM    7  C   UNL     1      -9.291  15.786  69.371  1.00  0.00    -0.269 C  
HETATM    8  C   UNL     1      -9.721  16.931  68.469  1.00  0.00    -0.264 C  
HETATM    9  C   UNL     1      -9.811  16.540  66.972  1.00  0.00    -0.257 C  
HETATM   10  C   UNL     1      -9.467  17.796  66.165  1.00  0.00    -0.177 C  
HETATM   11  O   UNL     1     -11.118  16.150  66.554  1.00  0.00    -0.125 OA 
HETATM   12  O   UNL     1     -11.657  15.117  67.437  1.00  0.00    -0.328 OA 
HETATM   13  C   UNL     1     -10.629  14.193  67.876  1.00  0.00    -0.243 C  
HETATM   14  C   UNL     1      -9.397  14.198  66.926  1.00  0.00    -0.264 C  
HETATM   15  O   UNL     1      -9.684  13.471  65.730  1.00  0.00    -0.235 OA 
HETATM   16  O   UNL     1      -8.882  15.510  66.629  1.00  0.00    -0.242 OA 
HETATM   17  C   UNL     1      -9.909  12.071  65.951  1.00  0.00    -0.238 C  
HETATM   18  C   UNL     1     -10.317  11.719  67.408  1.00  0.00    -0.228 C  
HETATM   19  C   UNL     1     -10.855  10.288  67.529  1.00  0.00    -0.355 C  
ENDROOT
BRANCH  17  20
HETATM   20  O   UNL     1     -10.961  11.601  65.108  1.00  0.00    -0.294 OA 
BRANCH  20  21
HETATM   21  C   UNL     1     -11.072  12.312  63.883  1.00  0.00    -0.412 C  
HETATM   22  C   UNL     1     -12.525  12.241  63.452  1.00  0.00    -0.592 C  
ENDBRANCH  20  21
ENDBRANCH  17  20
TORSDOF 2
ENDMDL
MODEL       18
REMARK 921   NORMALIZED FREE ENERGY PREDICTED BY IDOCK:   -5.74 KCAL/MOL
REMARK 922        TOTAL FREE ENERGY PREDICTED BY IDOCK:   -6.63 KCAL/MOL
REMARK 923 INTER-LIGAND FREE ENERGY PREDICTED BY IDOCK:   -6.41 KCAL/MOL
REMARK 924 INTRA-LIGAND FREE ENERGY PREDICTED BY IDOCK:   -0.23 KCAL/MOL
REMARK 927      BINDING AFFINITY PREDICTED BY RF-SCORE:    0.00 PKD
ROOT
HETATM    1  C   UNL     1      -9.995  10.350  66.696  1.00  0.00    -0.262 C  
HETATM    2  C   UNL     1     -10.113  10.058  65.182  1.00  0.00    -0.268 C  
HETATM    3  C   UNL     1      -9.844  11.284  64.311  1.00  0.00    -0.319 C  
HETATM    4  C   UNL     1     -10.719  12.503  64.675  1.00  0.00    -0.341 C  
HETATM    5  C   UNL     1     -11.582  12.954  63.500  1.00  0.00    -0.528 C  
HETATM    6  C   UNL     1     -11.536  12.231  65.972  1.00  0.00    -0.451 C  
HETATM    7  C   UNL     1     -12.387  13.418  66.416  1.00  0.00    -0.381 C  
HETATM    8  C   UNL     1     -11.562  14.524  67.056  1.00  0.00    -0.402 C  
HETATM    9  C   UNL     1     -10.808  14.073  68.333  1.00  0.00    -0.249 C  
HETATM   10  C   UNL     1     -10.711  15.299  69.246  1.00  0.00    -0.252 C  
HETATM   11  O   UNL     1      -9.465  13.654  68.092  1.00  0.00    -0.205 OA 
HETATM   12  O   UNL     1      -9.416  12.653  67.029  1.00  0.00    -0.206 OA 
HETATM   13  C   UNL     1     -10.555  11.756  67.082  1.00  0.00    -0.231 C  
HETATM   14  C   UNL     1     -11.216  11.734  68.490  1.00  0.00    -0.252 C  
HETATM   15  O   UNL     1     -10.432  10.958  69.398  1.00  0.00    -0.219 OA 
HETATM   16  O   UNL     1     -11.503  13.038  69.031  1.00  0.00    -0.266 OA 
HETATM   17  C   UNL     1     -10.370   9.566  69.056  1.00  0.00    -0.206 C  
HETATM   18  C   UNL     1     -10.683   9.268  67.563  1.00  0.00    -0.272 C  
HETATM   19  C   UNL     1     -10.298   7.838  67.165  1.00  0.00    -0.389 C  
ENDROOT
BRANCH  17  20
HETATM   20  O   UNL     1      -9.062   9.054  69.307  1.00  0.00    -0.141 OA 
BRANCH  20  21
HETATM   21  C   UNL     1      -8.586   9.321  70.619  1.00  0.00    -0.225 C  
HETATM   22  C   UNL     1      -9.502   8.595  71.587  1.00  0.00    -0.339 C  
ENDBRANCH  20  21
ENDBRANCH  17  20
TORSDOF 2
ENDMDL
MODEL       19
REMARK 921   NORMALIZED FREE ENERGY PREDICTED BY IDOCK:   -5.72 KCAL/MOL
REMARK 922        TOTAL FREE ENERGY PREDICTED BY IDOCK:   -6.61 KCAL/MOL
REMARK 923 INTER-LIGAND FREE ENERGY PREDICTED BY IDOCK:   -6.30 KCAL/MOL
REMARK 924 INTRA-LIGAND FREE ENERGY PREDICTED BY IDOCK:   -0.31 KCAL/MOL
REMARK 927      BINDING AFFINITY PREDICTED BY RF-SCORE:    0.00 PKD
ROOT
HETATM    1  C   UNL     1      -9.630  10.477  67.839  1.00  0.00    -0.164 C  
HETATM    2  C   UNL     1      -8.450   9.539  67.492  1.00  0.00    -0.126 C  
HETATM    3  C   UNL     1      -7.495  10.134  66.457  1.00  0.00    -0.109 C  
HETATM    4  C   UNL     1      -8.198  10.588  65.160  1.00  0.00    -0.134 C  
HETATM    5  C   UNL     1      -7.660   9.853  63.935  1.00  0.00    -0.141 C  
HETATM    6  C   UNL     1      -9.745  10.494  65.305  1.00  0.00    -0.328 C  
HETATM    7  C   UNL     1     -10.503  10.977  64.071  1.00  0.00    -0.433 C  
HETATM    8  C   UNL     1     -10.513  12.493  63.946  1.00  0.00    -0.464 C  
HETATM    9  C   UNL     1     -11.196  13.208  65.140  1.00  0.00    -0.294 C  
HETATM   10  C   UNL     1     -11.825  14.490  64.587  1.00  0.00    -0.462 C  
HETATM   11  O   UNL     1     -10.288  13.622  66.160  1.00  0.00    -0.284 OA 
HETATM   12  O   UNL     1      -9.440  12.509  66.583  1.00  0.00    -0.230 OA 
HETATM   13  C   UNL     1     -10.166  11.254  66.595  1.00  0.00    -0.229 C  
HETATM   14  C   UNL     1     -11.704  11.470  66.683  1.00  0.00     0.135 C  
HETATM   15  O   UNL     1     -12.084  11.821  68.015  1.00  0.00    -0.572 OA 
HETATM   16  O   UNL     1     -12.227  12.410  65.726  1.00  0.00    -0.620 OA 
HETATM   17  C   UNL     1     -11.856  10.775  68.971  1.00  0.00    -0.254 C  
HETATM   18  C   UNL     1     -10.801   9.727  68.519  1.00  0.00    -0.227 C  
HETATM   19  C   UNL     1     -10.352   8.824  69.674  1.00  0.00    -0.213 C  
ENDROOT
BRANCH  17  20
HETATM   20  O   UNL     1     -11.384  11.324  70.200  1.00  0.00    -0.265 OA 
BRANCH  20  21
HETATM   21  C   UNL     1     -12.420  11.798  71.049  1.00  0.00    -0.309 C  
HETATM   22  C   UNL     1     -13.017  10.591  71.749  1.00  0.00    -0.582 C  
ENDBRANCH  20  21
ENDBRANCH  17  20
TORSDOF 2
ENDMDL
MODEL       20
REMARK 921   NORMALIZED FREE ENERGY PREDICTED BY IDOCK:   -5.69 KCAL/MOL
REMARK 922        TOTAL FREE ENERGY PREDICTED BY IDOCK:   -6.58 KCAL/MOL
REMARK 923 INTER-LIGAND FREE ENERGY PREDICTED BY IDOCK:   -6.62 KCAL/MOL
REMARK 924 INTRA-LIGAND FREE ENERGY PREDICTED BY IDOCK:    0.04 KCAL/MOL
REMARK 927      BINDING AFFINITY PREDICTED BY RF-SCORE:    0.00 PKD
ROOT
HETATM    1  C   UNL     1      -8.887  15.059  67.421  1.00  0.00    -0.202 C  
HETATM    2  C   UNL     1      -8.183  14.306  68.575  1.00  0.00    -0.145 C  
HETATM    3  C   UNL     1      -7.952  12.826  68.274  1.00  0.00    -0.151 C  
HETATM    4  C   UNL     1      -9.237  12.072  67.868  1.00  0.00    -0.190 C  
HETATM    5  C   UNL     1      -9.546  10.921  68.823  1.00  0.00    -0.195 C  
HETATM    6  C   UNL     1     -10.427  13.060  67.688  1.00  0.00    -0.228 C  
HETATM    7  C   UNL     1     -11.719  12.382  67.238  1.00  0.00    -0.419 C  
HETATM    8  C   UNL     1     -11.695  11.996  65.768  1.00  0.00    -0.313 C  
HETATM    9  C   UNL     1     -11.524  13.205  64.813  1.00  0.00    -0.323 C  
HETATM   10  C   UNL     1     -12.267  12.856  63.520  1.00  0.00    -0.595 C  
HETATM   11  O   UNL     1     -10.171  13.454  64.434  1.00  0.00    -0.401 OA 
HETATM   12  O   UNL     1      -9.311  13.543  65.613  1.00  0.00     0.041 OA 
HETATM   13  C   UNL     1      -9.983  14.194  66.721  1.00  0.00    -0.267 C  
HETATM   14  C   UNL     1     -11.176  15.071  66.246  1.00  0.00    -0.309 C  
HETATM   15  O   UNL     1     -10.703  16.296  65.681  1.00  0.00    -0.338 OA 
HETATM   16  O   UNL     1     -12.086  14.402  65.354  1.00  0.00    -0.374 OA 
HETATM   17  C   UNL     1     -10.042  17.146  66.628  1.00  0.00    -0.306 C  
HETATM   18  C   UNL     1      -9.507  16.399  67.882  1.00  0.00    -0.223 C  
HETATM   19  C   UNL     1      -8.542  17.264  68.702  1.00  0.00    -0.265 C  
ENDROOT
BRANCH  17  20
HETATM   20  O   UNL     1      -8.916  17.780  66.021  1.00  0.00    -0.497 OA 
BRANCH  20  21
HETATM   21  C   UNL     1      -8.878  19.186  66.215  1.00  0.00    -0.299 C  
HETATM   22  C   UNL     1     -10.310  19.688  66.159  1.00  0.00    -0.627 C  
ENDBRANCH  20  21
ENDBRANCH  17  20
TORSDOF 2
ENDMDL
MODEL       21
REMARK 921   NORMALIZED FREE ENERGY PREDICTED BY IDOCK:   -5.66 KCAL/MOL
REMARK 922        TOTAL FREE ENERGY PREDICTED BY IDOCK:   -6.54 KCAL/MOL
REMARK 923 INTER-LIGAND FREE ENERGY PREDICTED BY IDOCK:   -6.19 KCAL/MOL
REMARK 924 INTRA-LIGAND FREE ENERGY PREDICTED BY IDOCK:   -0.35 KCAL/MOL
REMARK 927      BINDING AFFINITY PREDICTED BY RF-SCORE:    0.00 PKD
ROOT
HETATM    1  C   UNL     1      -8.745  14.821  68.136  1.00  0.00    -0.168 C  
HETATM    2  C   UNL     1      -7.370  14.599  68.808  1.00  0.00    -0.131 C  
HETATM    3  C   UNL     1      -6.786  15.873  69.417  1.00  0.00    -0.200 C  
HETATM    4  C   UNL     1      -6.693  17.047  68.419  1.00  0.00    -0.170 C  
HETATM    5  C   UNL     1      -5.256  17.529  68.241  1.00  0.00    -0.146 C  
HETATM    6  C   UNL     1      -7.395  16.690  67.076  1.00  0.00    -0.241 C  
HETATM    7  C   UNL     1      -7.382  17.830  66.061  1.00  0.00    -0.307 C  
HETATM    8  C   UNL     1      -8.380  18.927  66.399  1.00  0.00    -0.306 C  
HETATM    9  C   UNL     1      -9.850  18.437  66.432  1.00  0.00    -0.360 C  
HETATM   10  C   UNL     1     -10.720  19.620  65.997  1.00  0.00    -0.527 C  
HETATM   11  O   UNL     1     -10.307  18.069  67.732  1.00  0.00    -0.358 OA 
HETATM   12  O   UNL     1      -9.386  17.121  68.356  1.00  0.00    -0.255 OA 
HETATM   13  C   UNL     1      -8.834  16.191  67.390  1.00  0.00    -0.187 C  
HETATM   14  C   UNL     1      -9.717  16.083  66.114  1.00  0.00    -0.324 C  
HETATM   15  O   UNL     1     -10.876  15.287  66.373  1.00  0.00    -0.315 OA 
HETATM   16  O   UNL     1     -10.075  17.350  65.531  1.00  0.00    -0.579 OA 
HETATM   17  C   UNL     1     -10.573  13.915  66.666  1.00  0.00    -0.274 C  
HETATM   18  C   UNL     1      -9.118  13.681  67.159  1.00  0.00    -0.241 C  
HETATM   19  C   UNL     1      -8.930  12.283  67.761  1.00  0.00    -0.177 C  
ENDROOT
BRANCH  17  20
HETATM   20  O   UNL     1     -11.435  13.429  67.695  1.00  0.00    -0.285 OA 
BRANCH  20  21
HETATM   21  C   UNL     1     -12.090  14.457  68.424  1.00  0.00    -0.243 C  
HETATM   22  C   UNL     1     -11.946  14.125  69.898  1.00  0.00    -0.398 C  
ENDBRANCH  20  21
ENDBRANCH  17  20
TORSDOF 2
ENDMDL
MODEL       22
REMARK 921   NORMALIZED FREE ENERGY PREDICTED BY IDOCK:   -5.65 KCAL/MOL
REMARK 922        TOTAL FREE ENERGY PREDICTED BY IDOCK:   -6.54 KCAL/MOL
REMARK 923 INTER-LIGAND FREE ENERGY PREDICTED BY IDOCK:   -6.28 KCAL/MOL
REMARK 924 INTRA-LIGAND FREE ENERGY PREDICTED BY IDOCK:   -0.26 KCAL/MOL
REMARK 927      BINDING AFFINITY PREDICTED BY RF-SCORE:    0.00 PKD
ROOT
HETATM    1  C   UNL     1      -8.628  15.357  67.246  1.00  0.00    -0.216 C  
HETATM    2  C   UNL     1      -7.425  14.727  67.987  1.00  0.00    -0.135 C  
HETATM    3  C   UNL     1      -7.061  13.337  67.466  1.00  0.00    -0.156 C  
HETATM    4  C   UNL     1      -8.247  12.348  67.465  1.00  0.00    -0.173 C  
HETATM    5  C   UNL     1      -7.969  11.127  68.338  1.00  0.00    -0.137 C  
HETATM    6  C   UNL     1      -9.575  13.075  67.827  1.00  0.00    -0.208 C  
HETATM    7  C   UNL     1     -10.798  12.161  67.795  1.00  0.00    -0.263 C  
HETATM    8  C   UNL     1     -11.251  11.839  66.380  1.00  0.00    -0.382 C  
HETATM    9  C   UNL     1     -11.664  13.089  65.562  1.00  0.00    -0.368 C  
HETATM   10  C   UNL     1     -12.757  12.639  64.588  1.00  0.00    -0.458 C  
HETATM   11  O   UNL     1     -10.615  13.625  64.757  1.00  0.00    -0.377 OA 
HETATM   12  O   UNL     1      -9.412  13.849  65.555  1.00  0.00    -0.049 OA 
HETATM   13  C   UNL     1      -9.732  14.309  66.893  1.00  0.00    -0.264 C  
HETATM   14  C   UNL     1     -11.153  14.937  66.970  1.00  0.00    -0.338 C  
HETATM   15  O   UNL     1     -11.150  16.251  66.408  1.00  0.00    -0.076 OA 
HETATM   16  O   UNL     1     -12.192  14.125  66.393  1.00  0.00    -0.444 OA 
HETATM   17  C   UNL     1     -10.350  17.187  67.145  1.00  0.00    -0.307 C  
HETATM   18  C   UNL     1      -9.265  16.524  68.038  1.00  0.00    -0.214 C  
HETATM   19  C   UNL     1      -8.237  17.540  68.549  1.00  0.00    -0.278 C  
ENDROOT
BRANCH  17  20
HETATM   20  O   UNL     1      -9.662  18.060  66.248  1.00  0.00    -0.368 OA 
BRANCH  20  21
HETATM   21  C   UNL     1     -10.367  19.260  65.965  1.00  0.00    -0.475 C  
HETATM   22  C   UNL     1      -9.879  20.311  66.945  1.00  0.00    -0.597 C  
ENDBRANCH  20  21
ENDBRANCH  17  20
TORSDOF 2
ENDMDL
MODEL       23
REMARK 921   NORMALIZED FREE ENERGY PREDICTED BY IDOCK:   -5.64 KCAL/MOL
REMARK 922        TOTAL FREE ENERGY PREDICTED BY IDOCK:   -6.52 KCAL/MOL
REMARK 923 INTER-LIGAND FREE ENERGY PREDICTED BY IDOCK:   -6.37 KCAL/MOL
REMARK 924 INTRA-LIGAND FREE ENERGY PREDICTED BY IDOCK:   -0.15 KCAL/MOL
REMARK 927      BINDING AFFINITY PREDICTED BY RF-SCORE:    0.00 PKD
ROOT
HETATM    1  C   UNL     1     -11.049  10.617  68.683  1.00  0.00    -0.315 C  
HETATM    2  C   UNL     1     -11.278  11.051  70.150  1.00  0.00    -0.264 C  
HETATM    3  C   UNL     1     -12.246  12.226  70.285  1.00  0.00    -0.342 C  
HETATM    4  C   UNL     1     -11.849  13.452  69.435  1.00  0.00    -0.390 C  
HETATM    5  C   UNL     1     -11.616  14.690  70.298  1.00  0.00    -0.335 C  
HETATM    6  C   UNL     1     -10.649  13.116  68.502  1.00  0.00    -0.274 C  
HETATM    7  C   UNL     1     -10.237  14.275  67.597  1.00  0.00    -0.237 C  
HETATM    8  C   UNL     1     -11.200  14.483  66.439  1.00  0.00    -0.341 C  
HETATM    9  C   UNL     1     -11.308  13.258  65.496  1.00  0.00    -0.294 C  
HETATM   10  C   UNL     1     -11.601  13.803  64.095  1.00  0.00    -0.360 C  
HETATM   11  O   UNL     1     -12.388  12.380  65.811  1.00  0.00    -0.644 OA 
HETATM   12  O   UNL     1     -12.353  12.001  67.222  1.00  0.00    -0.322 OA 
HETATM   13  C   UNL     1     -10.994  11.829  67.700  1.00  0.00    -0.233 C  
HETATM   14  C   UNL     1      -9.995  11.569  66.536  1.00  0.00    -0.210 C  
HETATM   15  O   UNL     1     -10.110  10.222  66.071  1.00  0.00    -0.235 OA 
HETATM   16  O   UNL     1     -10.093  12.507  65.448  1.00  0.00    -0.277 OA 
HETATM   17  C   UNL     1      -9.723   9.244  67.046  1.00  0.00    -0.185 C  
HETATM   18  C   UNL     1      -9.773   9.760  68.511  1.00  0.00    -0.164 C  
HETATM   19  C   UNL     1      -9.669   8.618  69.530  1.00  0.00    -0.179 C  
ENDROOT
BRANCH  17  20
HETATM   20  O   UNL     1     -10.592   8.113  66.982  1.00  0.00    -0.329 OA 
BRANCH  20  21
HETATM   21  C   UNL     1      -9.951   6.924  66.542  1.00  0.00    -0.081 C  
HETATM   22  C   UNL     1     -10.736   5.754  67.107  1.00  0.00    -0.358 C  
ENDBRANCH  20  21
ENDBRANCH  17  20
TORSDOF 2
ENDMDL
MODEL       24
REMARK 921   NORMALIZED FREE ENERGY PREDICTED BY IDOCK:   -5.52 KCAL/MOL
REMARK 922        TOTAL FREE ENERGY PREDICTED BY IDOCK:   -6.39 KCAL/MOL
REMARK 923 INTER-LIGAND FREE ENERGY PREDICTED BY IDOCK:   -6.19 KCAL/MOL
REMARK 924 INTRA-LIGAND FREE ENERGY PREDICTED BY IDOCK:   -0.20 KCAL/MOL
REMARK 927      BINDING AFFINITY PREDICTED BY RF-SCORE:    0.00 PKD
ROOT
HETATM    1  C   UNL     1     -12.073  11.857  69.302  1.00  0.00    -0.270 C  
HETATM    2  C   UNL     1     -12.161  13.356  68.931  1.00  0.00    -0.289 C  
HETATM    3  C   UNL     1     -11.826  13.633  67.466  1.00  0.00    -0.416 C  
HETATM    4  C   UNL     1     -10.457  13.068  67.029  1.00  0.00    -0.249 C  
HETATM    5  C   UNL     1      -9.522  14.167  66.532  1.00  0.00    -0.303 C  
HETATM    6  C   UNL     1      -9.835  12.190  68.153  1.00  0.00    -0.207 C  
HETATM    7  C   UNL     1      -8.500  11.559  67.765  1.00  0.00    -0.137 C  
HETATM    8  C   UNL     1      -8.662  10.387  66.811  1.00  0.00    -0.132 C  
HETATM    9  C   UNL     1      -9.499   9.222  67.398  1.00  0.00    -0.132 C  
HETATM   10  C   UNL     1      -8.957   7.931  66.776  1.00  0.00    -0.169 C  
HETATM   11  O   UNL     1     -10.883   9.274  67.053  1.00  0.00    -0.186 OA 
HETATM   12  O   UNL     1     -11.447  10.585  67.369  1.00  0.00    -0.405 OA 
HETATM   13  C   UNL     1     -10.887  11.131  68.591  1.00  0.00    -0.209 C  
HETATM   14  C   UNL     1     -10.276  10.025  69.498  1.00  0.00    -0.234 C  
HETATM   15  O   UNL     1     -11.309   9.304  70.172  1.00  0.00    -0.240 OA 
HETATM   16  O   UNL     1      -9.374   9.132  68.818  1.00  0.00    -0.139 OA 
HETATM   17  C   UNL     1     -12.052  10.103  71.104  1.00  0.00    -0.388 C  
HETATM   18  C   UNL     1     -11.971  11.631  70.829  1.00  0.00    -0.274 C  
HETATM   19  C   UNL     1     -13.016  12.418  71.629  1.00  0.00    -0.409 C  
ENDROOT
BRANCH  17  20
HETATM   20  O   UNL     1     -13.435   9.754  71.060  1.00  0.00    -0.347 OA 
BRANCH  20  21
HETATM   21  C   UNL     1     -13.845   8.908  72.125  1.00  0.00    -0.473 C  
HETATM   22  C   UNL     1     -14.236   7.574  71.516  1.00  0.00    -0.580 C  
ENDBRANCH  20  21
ENDBRANCH  17  20
TORSDOF 2
ENDMDL
MODEL       25
REMARK 921   NORMALIZED FREE ENERGY PREDICTED BY IDOCK:   -5.40 KCAL/MOL
REMARK 922        TOTAL FREE ENERGY PREDICTED BY IDOCK:   -6.26 KCAL/MOL
REMARK 923 INTER-LIGAND FREE ENERGY PREDICTED BY IDOCK:   -5.81 KCAL/MOL
REMARK 924 INTRA-LIGAND FREE ENERGY PREDICTED BY IDOCK:   -0.44 KCAL/MOL
REMARK 927      BINDING AFFINITY PREDICTED BY RF-SCORE:    0.00 PKD
ROOT
HETATM    1  C   UNL     1      -9.352  13.010  68.020  1.00  0.00    -0.213 C  
HETATM    2  C   UNL     1      -8.974  14.360  68.676  1.00  0.00    -0.172 C  
HETATM    3  C   UNL     1     -10.082  15.407  68.576  1.00  0.00    -0.213 C  
HETATM    4  C   UNL     1     -10.573  15.650  67.132  1.00  0.00    -0.308 C  
HETATM    5  C   UNL     1     -10.376  17.101  66.702  1.00  0.00    -0.310 C  
HETATM    6  C   UNL     1      -9.937  14.623  66.150  1.00  0.00    -0.323 C  
HETATM    7  C   UNL     1     -10.421  14.777  64.710  1.00  0.00    -0.317 C  
HETATM    8  C   UNL     1     -11.829  14.242  64.506  1.00  0.00    -0.456 C  
HETATM    9  C   UNL     1     -11.968  12.730  64.814  1.00  0.00    -0.402 C  
HETATM   10  C   UNL     1     -13.060  12.187  63.888  1.00  0.00    -0.192 C  
HETATM   11  O   UNL     1     -12.404  12.449  66.144  1.00  0.00    -0.606 OA 
HETATM   12  O   UNL     1     -11.571  13.147  67.121  1.00  0.00    -0.321 OA 
HETATM   13  C   UNL     1     -10.180  13.192  66.708  1.00  0.00    -0.252 C  
HETATM   14  C   UNL     1      -9.844  12.084  65.670  1.00  0.00    -0.243 C  
HETATM   15  O   UNL     1      -9.718  10.815  66.316  1.00  0.00    -0.191 OA 
HETATM   16  O   UNL     1     -10.757  12.015  64.558  1.00  0.00    -0.280 OA 
HETATM   17  C   UNL     1      -8.612  10.743  67.226  1.00  0.00    -0.130 C  
HETATM   18  C   UNL     1      -8.116  12.127  67.728  1.00  0.00    -0.152 C  
HETATM   19  C   UNL     1      -7.165  12.002  68.925  1.00  0.00    -0.089 C  
ENDROOT
BRANCH  17  20
HETATM   20  O   UNL     1      -8.976   9.995  68.386  1.00  0.00    -0.118 OA 
BRANCH  20  21
HETATM   21  C   UNL     1     -10.351   9.641  68.430  1.00  0.00    -0.204 C  
HETATM   22  C   UNL     1     -10.910  10.168  69.739  1.00  0.00    -0.320 C  
ENDBRANCH  20  21
ENDBRANCH  17  20
TORSDOF 2
ENDMDL
MODEL       26
REMARK 921   NORMALIZED FREE ENERGY PREDICTED BY IDOCK:   -5.38 KCAL/MOL
REMARK 922        TOTAL FREE ENERGY PREDICTED BY IDOCK:   -6.23 KCAL/MOL
REMARK 923 INTER-LIGAND FREE ENERGY PREDICTED BY IDOCK:   -5.99 KCAL/MOL
REMARK 924 INTRA-LIGAND FREE ENERGY PREDICTED BY IDOCK:   -0.24 KCAL/MOL
REMARK 927      BINDING AFFINITY PREDICTED BY RF-SCORE:    0.00 PKD
ROOT
HETATM    1  C   UNL     1      -9.521   9.639  66.636  1.00  0.00    -0.221 C  
HETATM    2  C   UNL     1      -8.958   8.795  65.469  1.00  0.00    -0.231 C  
HETATM    3  C   UNL     1      -8.274   9.638  64.393  1.00  0.00    -0.157 C  
HETATM    4  C   UNL     1      -9.168  10.767  63.835  1.00  0.00    -0.258 C  
HETATM    5  C   UNL     1      -9.391  10.623  62.331  1.00  0.00    -0.282 C  
HETATM    6  C   UNL     1     -10.491  10.880  64.646  1.00  0.00    -0.384 C  
HETATM    7  C   UNL     1     -11.400  12.012  64.175  1.00  0.00    -0.455 C  
HETATM    8  C   UNL     1     -10.904  13.381  64.614  1.00  0.00    -0.405 C  
HETATM    9  C   UNL     1     -10.825  13.546  66.153  1.00  0.00    -0.281 C  
HETATM   10  C   UNL     1     -11.098  15.023  66.455  1.00  0.00    -0.329 C  
HETATM   11  O   UNL     1      -9.536  13.264  66.698  1.00  0.00    -0.250 OA 
HETATM   12  O   UNL     1      -9.057  11.959  66.248  1.00  0.00    -0.213 OA 
HETATM   13  C   UNL     1     -10.135  10.993  66.156  1.00  0.00    -0.237 C  
HETATM   14  C   UNL     1     -11.359  11.399  67.027  1.00  0.00    -0.236 C  
HETATM   15  O   UNL     1     -11.100  11.133  68.407  1.00  0.00    -0.207 OA 
HETATM   16  O   UNL     1     -11.803  12.754  66.831  1.00  0.00    -0.376 OA 
HETATM   17  C   UNL     1     -10.950   9.737  68.703  1.00  0.00    -0.147 C  
HETATM   18  C   UNL     1     -10.571   8.868  67.471  1.00  0.00    -0.307 C  
HETATM   19  C   UNL     1     -10.109   7.463  67.876  1.00  0.00    -0.220 C  
ENDROOT
BRANCH  17  20
HETATM   20  O   UNL     1      -9.918   9.546  69.670  1.00  0.00    -0.181 OA 
BRANCH  20  21
HETATM   21  C   UNL     1     -10.394   9.460  71.005  1.00  0.00    -0.312 C  
HETATM   22  C   UNL     1     -11.322   8.262  71.076  1.00  0.00    -0.299 C  
ENDBRANCH  20  21
ENDBRANCH  17  20
TORSDOF 2
ENDMDL
MODEL       27
REMARK 921   NORMALIZED FREE ENERGY PREDICTED BY IDOCK:   -5.34 KCAL/MOL
REMARK 922        TOTAL FREE ENERGY PREDICTED BY IDOCK:   -6.18 KCAL/MOL
REMARK 923 INTER-LIGAND FREE ENERGY PREDICTED BY IDOCK:   -5.94 KCAL/MOL
REMARK 924 INTRA-LIGAND FREE ENERGY PREDICTED BY IDOCK:   -0.25 KCAL/MOL
REMARK 927      BINDING AFFINITY PREDICTED BY RF-SCORE:    0.00 PKD
ROOT
HETATM    1  C   UNL     1     -10.591   9.740  70.525  1.00  0.00    -0.376 C  
HETATM    2  C   UNL     1      -9.688   8.559  70.952  1.00  0.00    -0.231 C  
HETATM    3  C   UNL     1      -8.301   8.602  70.312  1.00  0.00    -0.129 C  
HETATM    4  C   UNL     1      -8.336   8.699  68.772  1.00  0.00    -0.121 C  
HETATM    5  C   UNL     1      -7.635   7.514  68.112  1.00  0.00    -0.114 C  
HETATM    6  C   UNL     1      -9.791   8.916  68.262  1.00  0.00    -0.187 C  
HETATM    7  C   UNL     1      -9.888   9.071  66.746  1.00  0.00    -0.300 C  
HETATM    8  C   UNL     1      -9.416  10.434  66.265  1.00  0.00    -0.215 C  
HETATM    9  C   UNL     1     -10.241  11.613  66.841  1.00  0.00    -0.214 C  
HETATM   10  C   UNL     1     -10.235  12.717  65.780  1.00  0.00    -0.302 C  
HETATM   11  O   UNL     1      -9.676  12.193  68.016  1.00  0.00    -0.191 OA 
HETATM   12  O   UNL     1      -9.391  11.166  69.016  1.00  0.00    -0.155 OA 
HETATM   13  C   UNL     1     -10.404  10.127  69.023  1.00  0.00    -0.212 C  
HETATM   14  C   UNL     1     -11.741  10.610  68.392  1.00  0.00    -0.091 C  
HETATM   15  O   UNL     1     -12.450  11.450  69.306  1.00  0.00    -0.276 OA 
HETATM   16  O   UNL     1     -11.596  11.243  67.107  1.00  0.00    -0.513 OA 
HETATM   17  C   UNL     1     -12.887  10.767  70.490  1.00  0.00    -0.256 C  
HETATM   18  C   UNL     1     -12.090   9.469  70.800  1.00  0.00    -0.305 C  
HETATM   19  C   UNL     1     -12.360   8.950  72.218  1.00  0.00    -0.430 C  
ENDROOT
BRANCH  17  20
HETATM   20  O   UNL     1     -12.744  11.615  71.629  1.00  0.00    -0.340 OA 
BRANCH  20  21
HETATM   21  C   UNL     1     -12.816  13.000  71.323  1.00  0.00    -0.281 C  
HETATM   22  C   UNL     1     -13.707  13.647  72.367  1.00  0.00    -0.697 C  
ENDBRANCH  20  21
ENDBRANCH  17  20
TORSDOF 2
ENDMDL
MODEL       28
REMARK 921   NORMALIZED FREE ENERGY PREDICTED BY IDOCK:   -5.34 KCAL/MOL
REMARK 922        TOTAL FREE ENERGY PREDICTED BY IDOCK:   -6.18 KCAL/MOL
REMARK 923 INTER-LIGAND FREE ENERGY PREDICTED BY IDOCK:   -5.92 KCAL/MOL
REMARK 924 INTRA-LIGAND FREE ENERGY PREDICTED BY IDOCK:   -0.27 KCAL/MOL
REMARK 927      BINDING AFFINITY PREDICTED BY RF-SCORE:    0.00 PKD
ROOT
HETATM    1  C   UNL     1      -9.343  14.042  67.677  1.00  0.00    -0.203 C  
HETATM    2  C   UNL     1      -8.064  13.434  68.301  1.00  0.00    -0.152 C  
HETATM    3  C   UNL     1      -7.283  12.552  67.327  1.00  0.00    -0.114 C  
HETATM    4  C   UNL     1      -8.134  11.432  66.691  1.00  0.00    -0.155 C  
HETATM    5  C   UNL     1      -7.581  10.046  67.011  1.00  0.00    -0.092 C  
HETATM    6  C   UNL     1      -9.637  11.597  67.064  1.00  0.00    -0.196 C  
HETATM    7  C   UNL     1     -10.542  10.547  66.425  1.00  0.00    -0.218 C  
HETATM    8  C   UNL     1     -10.785  10.807  64.946  1.00  0.00    -0.167 C  
HETATM    9  C   UNL     1     -11.480  12.162  64.661  1.00  0.00    -0.328 C  
HETATM   10  C   UNL     1     -12.329  11.968  63.401  1.00  0.00    -0.635 C  
HETATM   11  O   UNL     1     -10.575  13.225  64.367  1.00  0.00    -0.397 OA 
HETATM   12  O   UNL     1      -9.544  13.329  65.397  1.00  0.00    -0.061 OA 
HETATM   13  C   UNL     1     -10.074  13.049  66.718  1.00  0.00    -0.247 C  
HETATM   14  C   UNL     1     -11.616  13.236  66.780  1.00  0.00    -0.365 C  
HETATM   15  O   UNL     1     -11.950  14.625  66.828  1.00  0.00    -0.373 OA 
HETATM   16  O   UNL     1     -12.338  12.562  65.732  1.00  0.00    -0.627 OA 
HETATM   17  C   UNL     1     -11.503  15.280  68.024  1.00  0.00    -0.341 C  
HETATM   18  C   UNL     1     -10.339  14.548  68.748  1.00  0.00    -0.243 C  
HETATM   19  C   UNL     1      -9.682  15.426  69.820  1.00  0.00    -0.219 C  
ENDROOT
BRANCH  17  20
HETATM   20  O   UNL     1     -11.033  16.593  67.721  1.00  0.00    -0.320 OA 
BRANCH  20  21
HETATM   21  C   UNL     1     -10.641  16.761  66.366  1.00  0.00    -0.192 C  
HETATM   22  C   UNL     1      -9.276  17.426  66.370  1.00  0.00    -0.272 C  
ENDBRANCH  20  21
ENDBRANCH  17  20
TORSDOF 2
ENDMDL
MODEL       29
REMARK 921   NORMALIZED FREE ENERGY PREDICTED BY IDOCK:   -5.30 KCAL/MOL
REMARK 922        TOTAL FREE ENERGY PREDICTED BY IDOCK:   -6.14 KCAL/MOL
REMARK 923 INTER-LIGAND FREE ENERGY PREDICTED BY IDOCK:   -5.74 KCAL/MOL
REMARK 924 INTRA-LIGAND FREE ENERGY PREDICTED BY IDOCK:   -0.40 KCAL/MOL
REMARK 927      BINDING AFFINITY PREDICTED BY RF-SCORE:    0.00 PKD
ROOT
HETATM    1  C   UNL     1      -9.640  13.183  67.092  1.00  0.00    -0.235 C  
HETATM    2  C   UNL     1      -8.355  13.915  67.546  1.00  0.00    -0.202 C  
HETATM    3  C   UNL     1      -7.098  13.055  67.419  1.00  0.00    -0.124 C  
HETATM    4  C   UNL     1      -7.205  11.695  68.142  1.00  0.00    -0.085 C  
HETATM    5  C   UNL     1      -6.134  11.538  69.218  1.00  0.00    -0.068 C  
HETATM    6  C   UNL     1      -8.650  11.461  68.671  1.00  0.00    -0.126 C  
HETATM    7  C   UNL     1      -8.836  10.108  69.355  1.00  0.00    -0.197 C  
HETATM    8  C   UNL     1      -8.912   8.957  68.365  1.00  0.00    -0.134 C  
HETATM    9  C   UNL     1     -10.098   9.071  67.374  1.00  0.00    -0.230 C  
HETATM   10  C   UNL     1     -10.526   7.641  67.030  1.00  0.00    -0.419 C  
HETATM   11  O   UNL     1      -9.756   9.688  66.133  1.00  0.00    -0.212 OA 
HETATM   12  O   UNL     1      -9.088  10.968  66.358  1.00  0.00    -0.167 OA 
HETATM   13  C   UNL     1      -9.646  11.674  67.496  1.00  0.00    -0.171 C  
HETATM   14  C   UNL     1     -11.083  11.186  67.838  1.00  0.00    -0.273 C  
HETATM   15  O   UNL     1     -12.028  11.725  66.911  1.00  0.00    -0.605 OA 
HETATM   16  O   UNL     1     -11.214   9.756  67.945  1.00  0.00    -0.184 OA 
HETATM   17  C   UNL     1     -12.152  13.152  66.984  1.00  0.00    -0.307 C  
HETATM   18  C   UNL     1     -10.926  13.861  67.624  1.00  0.00    -0.278 C  
HETATM   19  C   UNL     1     -10.949  15.377  67.394  1.00  0.00    -0.312 C  
ENDROOT
BRANCH  17  20
HETATM   20  O   UNL     1     -12.303  13.702  65.675  1.00  0.00    -0.421 OA 
BRANCH  20  21
HETATM   21  C   UNL     1     -12.653  12.741  64.689  1.00  0.00    -0.419 C  
HETATM   22  C   UNL     1     -11.619  12.833  63.582  1.00  0.00    -0.572 C  
ENDBRANCH  20  21
ENDBRANCH  17  20
TORSDOF 2
ENDMDL
MODEL       30
REMARK 921   NORMALIZED FREE ENERGY PREDICTED BY IDOCK:   -5.29 KCAL/MOL
REMARK 922        TOTAL FREE ENERGY PREDICTED BY IDOCK:   -6.13 KCAL/MOL
REMARK 923 INTER-LIGAND FREE ENERGY PREDICTED BY IDOCK:   -5.83 KCAL/MOL
REMARK 924 INTRA-LIGAND FREE ENERGY PREDICTED BY IDOCK:   -0.31 KCAL/MOL
REMARK 927      BINDING AFFINITY PREDICTED BY RF-SCORE:    0.00 PKD
ROOT
HETATM    1  C   UNL     1     -10.609  12.659  66.606  1.00  0.00    -0.267 C  
HETATM    2  C   UNL     1     -11.342  13.980  66.937  1.00  0.00    -0.343 C  
HETATM    3  C   UNL     1     -11.182  14.406  68.396  1.00  0.00    -0.294 C  
HETATM    4  C   UNL     1     -11.595  13.314  69.406  1.00  0.00    -0.364 C  
HETATM    5  C   UNL     1     -12.729  13.781  70.316  1.00  0.00    -0.208 C  
HETATM    6  C   UNL     1     -11.902  11.972  68.678  1.00  0.00    -0.366 C  
HETATM    7  C   UNL     1     -12.270  10.834  69.628  1.00  0.00    -0.325 C  
HETATM    8  C   UNL     1     -11.062  10.270  70.360  1.00  0.00    -0.391 C  
HETATM    9  C   UNL     1      -9.989   9.671  69.414  1.00  0.00    -0.197 C  
HETATM   10  C   UNL     1      -9.316   8.527  70.178  1.00  0.00    -0.164 C  
HETATM   11  O   UNL     1      -8.947  10.584  69.072  1.00  0.00    -0.166 OA 
HETATM   12  O   UNL     1      -9.502  11.839  68.568  1.00  0.00    -0.200 OA 
HETATM   13  C   UNL     1     -10.691  11.618  67.768  1.00  0.00    -0.204 C  
HETATM   14  C   UNL     1     -10.765  10.165  67.220  1.00  0.00    -0.254 C  
HETATM   15  O   UNL     1      -9.868   9.999  66.119  1.00  0.00    -0.214 OA 
HETATM   16  O   UNL     1     -10.562   9.144  68.216  1.00  0.00    -0.214 OA 
HETATM   17  C   UNL     1     -10.218  10.788  64.973  1.00  0.00    -0.306 C  
HETATM   18  C   UNL     1     -11.121  12.009  65.298  1.00  0.00    -0.367 C  
HETATM   19  C   UNL     1     -11.206  12.995  64.126  1.00  0.00    -0.439 C  
ENDROOT
BRANCH  17  20
HETATM   20  O   UNL     1      -9.041  11.305  64.353  1.00  0.00    -0.113 OA 
BRANCH  20  21
HETATM   21  C   UNL     1      -8.232  10.310  63.742  1.00  0.00    -0.153 C  
HETATM   22  C   UNL     1      -8.988   9.797  62.530  1.00  0.00    -0.280 C  
ENDBRANCH  20  21
ENDBRANCH  17  20
TORSDOF 2
ENDMDL
MODEL       31
REMARK 921   NORMALIZED FREE ENERGY PREDICTED BY IDOCK:   -5.26 KCAL/MOL
REMARK 922        TOTAL FREE ENERGY PREDICTED BY IDOCK:   -6.10 KCAL/MOL
REMARK 923 INTER-LIGAND FREE ENERGY PREDICTED BY IDOCK:   -5.79 KCAL/MOL
REMARK 924 INTRA-LIGAND FREE ENERGY PREDICTED BY IDOCK:   -0.31 KCAL/MOL
REMARK 927      BINDING AFFINITY PREDICTED BY RF-SCORE:    0.00 PKD
ROOT
HETATM    1  C   UNL     1      -7.161  16.783  68.926  1.00  0.00    -0.225 C  
HETATM    2  C   UNL     1      -5.951  17.342  69.710  1.00  0.00    -0.243 C  
HETATM    3  C   UNL     1      -6.099  18.820  70.069  1.00  0.00    -0.193 C  
HETATM    4  C   UNL     1      -6.393  19.724  68.852  1.00  0.00    -0.330 C  
HETATM    5  C   UNL     1      -5.316  20.788  68.661  1.00  0.00    -0.347 C  
HETATM    6  C   UNL     1      -6.650  18.870  67.576  1.00  0.00    -0.205 C  
HETATM    7  C   UNL     1      -6.996  19.704  66.345  1.00  0.00    -0.235 C  
HETATM    8  C   UNL     1      -8.418  20.242  66.384  1.00  0.00    -0.221 C  
HETATM    9  C   UNL     1      -9.499  19.132  66.433  1.00  0.00    -0.354 C  
HETATM   10  C   UNL     1     -10.731  19.682  65.707  1.00  0.00    -0.493 C  
HETATM   11  O   UNL     1      -9.932  18.806  67.753  1.00  0.00    -0.321 OA 
HETATM   12  O   UNL     1      -8.790  18.515  68.617  1.00  0.00    -0.326 OA 
HETATM   13  C   UNL     1      -7.741  17.811  67.903  1.00  0.00    -0.225 C  
HETATM   14  C   UNL     1      -8.279  17.099  66.629  1.00  0.00    -0.256 C  
HETATM   15  O   UNL     1      -8.982  15.905  66.982  1.00  0.00    -0.197 OA 
HETATM   16  O   UNL     1      -9.075  17.939  65.771  1.00  0.00    -0.495 OA 
HETATM   17  C   UNL     1      -8.145  14.903  67.576  1.00  0.00    -0.182 C  
HETATM   18  C   UNL     1      -6.832  15.461  68.192  1.00  0.00    -0.135 C  
HETATM   19  C   UNL     1      -6.130  14.431  69.086  1.00  0.00    -0.094 C  
ENDROOT
BRANCH  17  20
HETATM   20  O   UNL     1      -8.841  14.241  68.632  1.00  0.00    -0.183 OA 
BRANCH  20  21
HETATM   21  C   UNL     1     -10.206  14.618  68.740  1.00  0.00    -0.242 C  
HETATM   22  C   UNL     1     -11.031  13.346  68.686  1.00  0.00    -0.288 C  
ENDBRANCH  20  21
ENDBRANCH  17  20
TORSDOF 2
ENDMDL
MODEL       32
REMARK 921   NORMALIZED FREE ENERGY PREDICTED BY IDOCK:   -5.26 KCAL/MOL
REMARK 922        TOTAL FREE ENERGY PREDICTED BY IDOCK:   -6.10 KCAL/MOL
REMARK 923 INTER-LIGAND FREE ENERGY PREDICTED BY IDOCK:   -5.75 KCAL/MOL
REMARK 924 INTRA-LIGAND FREE ENERGY PREDICTED BY IDOCK:   -0.35 KCAL/MOL
REMARK 927      BINDING AFFINITY PREDICTED BY RF-SCORE:    0.00 PKD
ROOT
HETATM    1  C   UNL     1     -10.620   9.802  70.157  1.00  0.00    -0.337 C  
HETATM    2  C   UNL     1     -10.939   9.212  71.551  1.00  0.00    -0.434 C  
HETATM    3  C   UNL     1     -10.051   8.023  71.917  1.00  0.00    -0.264 C  
HETATM    4  C   UNL     1     -10.062   6.897  70.860  1.00  0.00    -0.207 C  
HETATM    5  C   UNL     1     -10.558   5.576  71.443  1.00  0.00    -0.310 C  
HETATM    6  C   UNL     1     -10.840   7.340  69.586  1.00  0.00    -0.238 C  
HETATM    7  C   UNL     1     -10.846   6.288  68.480  1.00  0.00    -0.394 C  
HETATM    8  C   UNL     1      -9.516   6.198  67.750  1.00  0.00    -0.115 C  
HETATM    9  C   UNL     1      -9.106   7.517  67.046  1.00  0.00    -0.135 C  
HETATM   10  C   UNL     1      -8.295   7.123  65.808  1.00  0.00    -0.144 C  
HETATM   11  O   UNL     1      -8.251   8.348  67.829  1.00  0.00    -0.123 OA 
HETATM   12  O   UNL     1      -8.821   8.574  69.156  1.00  0.00    -0.140 OA 
HETATM   13  C   UNL     1     -10.265   8.703  69.107  1.00  0.00    -0.208 C  
HETATM   14  C   UNL     1     -10.768   9.094  67.688  1.00  0.00    -0.189 C  
HETATM   15  O   UNL     1     -10.533  10.482  67.439  1.00  0.00    -0.213 OA 
HETATM   16  O   UNL     1     -10.241   8.277  66.625  1.00  0.00    -0.290 OA 
HETATM   17  C   UNL     1     -11.288  11.352  68.294  1.00  0.00    -0.286 C  
HETATM   18  C   UNL     1     -11.769  10.682  69.610  1.00  0.00    -0.368 C  
HETATM   19  C   UNL     1     -12.282  11.709  70.627  1.00  0.00    -0.461 C  
ENDROOT
BRANCH  17  20
HETATM   20  O   UNL     1     -10.496  12.477  68.674  1.00  0.00    -0.230 OA 
BRANCH  20  21
HETATM   21  C   UNL     1     -10.528  13.542  67.735  1.00  0.00    -0.240 C  
HETATM   22  C   UNL     1     -11.980  13.763  67.353  1.00  0.00    -0.423 C  
ENDBRANCH  20  21
ENDBRANCH  17  20
TORSDOF 2
ENDMDL
MODEL       33
REMARK 921   NORMALIZED FREE ENERGY PREDICTED BY IDOCK:   -5.24 KCAL/MOL
REMARK 922        TOTAL FREE ENERGY PREDICTED BY IDOCK:   -6.07 KCAL/MOL
REMARK 923 INTER-LIGAND FREE ENERGY PREDICTED BY IDOCK:   -5.79 KCAL/MOL
REMARK 924 INTRA-LIGAND FREE ENERGY PREDICTED BY IDOCK:   -0.28 KCAL/MOL
REMARK 927      BINDING AFFINITY PREDICTED BY RF-SCORE:    0.00 PKD
ROOT
HETATM    1  C   UNL     1     -11.025  10.161  70.552  1.00  0.00    -0.380 C  
HETATM    2  C   UNL     1     -11.029   8.993  71.567  1.00  0.00    -0.418 C  
HETATM    3  C   UNL     1      -9.804   8.087  71.444  1.00  0.00    -0.213 C  
HETATM    4  C   UNL     1      -9.584   7.537  70.019  1.00  0.00    -0.164 C  
HETATM    5  C   UNL     1      -9.618   6.011  69.987  1.00  0.00    -0.194 C  
HETATM    6  C   UNL     1     -10.571   8.197  69.011  1.00  0.00    -0.167 C  
HETATM    7  C   UNL     1     -10.372   7.731  67.571  1.00  0.00    -0.333 C  
HETATM    8  C   UNL     1      -9.146   8.351  66.920  1.00  0.00    -0.179 C  
HETATM    9  C   UNL     1      -9.204   9.898  66.836  1.00  0.00    -0.147 C  
HETATM   10  C   UNL     1      -8.431  10.302  65.577  1.00  0.00    -0.167 C  
HETATM   11  O   UNL     1      -8.560  10.560  67.923  1.00  0.00    -0.121 OA 
HETATM   12  O   UNL     1      -9.047  10.048  69.203  1.00  0.00    -0.161 OA 
HETATM   13  C   UNL     1     -10.464   9.742  69.156  1.00  0.00    -0.215 C  
HETATM   14  C   UNL     1     -11.187  10.498  68.006  1.00  0.00    -0.294 C  
HETATM   15  O   UNL     1     -11.390  11.868  68.359  1.00  0.00    -0.229 OA 
HETATM   16  O   UNL     1     -10.545  10.380  66.722  1.00  0.00    -0.242 OA 
HETATM   17  C   UNL     1     -12.284  12.047  69.467  1.00  0.00    -0.117 C  
HETATM   18  C   UNL     1     -12.426  10.792  70.372  1.00  0.00    -0.430 C  
HETATM   19  C   UNL     1     -13.120  11.115  71.701  1.00  0.00    -0.529 C  
ENDROOT
BRANCH  17  20
HETATM   20  O   UNL     1     -11.822  13.106  70.306  1.00  0.00    -0.306 OA 
BRANCH  20  21
HETATM   21  C   UNL     1     -12.350  14.379  69.963  1.00  0.00    -0.336 C  
HETATM   22  C   UNL     1     -13.221  14.833  71.120  1.00  0.00    -0.452 C  
ENDBRANCH  20  21
ENDBRANCH  17  20
TORSDOF 2
ENDMDL
MODEL       34
REMARK 921   NORMALIZED FREE ENERGY PREDICTED BY IDOCK:   -5.23 KCAL/MOL
REMARK 922        TOTAL FREE ENERGY PREDICTED BY IDOCK:   -6.06 KCAL/MOL
REMARK 923 INTER-LIGAND FREE ENERGY PREDICTED BY IDOCK:   -5.88 KCAL/MOL
REMARK 924 INTRA-LIGAND FREE ENERGY PREDICTED BY IDOCK:   -0.19 KCAL/MOL
REMARK 927      BINDING AFFINITY PREDICTED BY RF-SCORE:    0.00 PKD
ROOT
HETATM    1  C   UNL     1     -10.358  15.085  65.563  1.00  0.00    -0.397 C  
HETATM    2  C   UNL     1     -11.035  16.469  65.425  1.00  0.00    -0.137 C  
HETATM    3  C   UNL     1     -10.190  17.609  65.994  1.00  0.00    -0.301 C  
HETATM    4  C   UNL     1      -9.758  17.384  67.459  1.00  0.00    -0.266 C  
HETATM    5  C   UNL     1     -10.275  18.487  68.379  1.00  0.00    -0.409 C  
HETATM    6  C   UNL     1     -10.140  15.953  67.937  1.00  0.00    -0.235 C  
HETATM    7  C   UNL     1      -9.695  15.649  69.365  1.00  0.00    -0.292 C  
HETATM    8  C   UNL     1      -8.201  15.386  69.469  1.00  0.00    -0.207 C  
HETATM    9  C   UNL     1      -7.727  14.169  68.634  1.00  0.00    -0.135 C  
HETATM   10  C   UNL     1      -6.535  13.559  69.378  1.00  0.00    -0.103 C  
HETATM   11  O   UNL     1      -7.247  14.511  67.335  1.00  0.00    -0.188 OA 
HETATM   12  O   UNL     1      -8.222  15.335  66.622  1.00  0.00    -0.226 OA 
HETATM   13  C   UNL     1      -9.584  14.926  66.910  1.00  0.00    -0.245 C  
HETATM   14  C   UNL     1      -9.656  13.463  67.434  1.00  0.00    -0.223 C  
HETATM   15  O   UNL     1      -9.496  12.538  66.356  1.00  0.00    -0.236 OA 
HETATM   16  O   UNL     1      -8.744  13.173  68.510  1.00  0.00    -0.146 OA 
HETATM   17  C   UNL     1     -10.564  12.584  65.399  1.00  0.00    -0.281 C  
HETATM   18  C   UNL     1     -11.362  13.917  65.407  1.00  0.00    -0.311 C  
HETATM   19  C   UNL     1     -12.267  14.057  64.177  1.00  0.00    -0.433 C  
ENDROOT
BRANCH  17  20
HETATM   20  O   UNL     1     -10.048  12.427  64.077  1.00  0.00    -0.352 OA 
BRANCH  20  21
HETATM   21  C   UNL     1     -10.174  11.106  63.568  1.00  0.00    -0.390 C  
HETATM   22  C   UNL     1      -9.141  10.947  62.468  1.00  0.00    -0.361 C  
ENDBRANCH  20  21
ENDBRANCH  17  20
TORSDOF 2
ENDMDL
MODEL       35
REMARK 921   NORMALIZED FREE ENERGY PREDICTED BY IDOCK:   -5.23 KCAL/MOL
REMARK 922        TOTAL FREE ENERGY PREDICTED BY IDOCK:   -6.06 KCAL/MOL
REMARK 923 INTER-LIGAND FREE ENERGY PREDICTED BY IDOCK:   -5.72 KCAL/MOL
REMARK 924 INTRA-LIGAND FREE ENERGY PREDICTED BY IDOCK:   -0.34 KCAL/MOL
REMARK 927      BINDING AFFINITY PREDICTED BY RF-SCORE:    0.00 PKD
ROOT
HETATM    1  C   UNL     1     -11.109  10.348  69.761  1.00  0.00    -0.352 C  
HETATM    2  C   UNL     1     -12.477  10.981  70.112  1.00  0.00    -0.344 C  
HETATM    3  C   UNL     1     -12.894  10.743  71.562  1.00  0.00    -0.567 C  
HETATM    4  C   UNL     1     -12.891   9.253  71.968  1.00  0.00    -0.495 C  
HETATM    5  C   UNL     1     -14.271   8.784  72.420  1.00  0.00    -0.464 C  
HETATM    6  C   UNL     1     -12.280   8.372  70.839  1.00  0.00    -0.106 C  
HETATM    7  C   UNL     1     -12.202   6.890  71.197  1.00  0.00    -0.428 C  
HETATM    8  C   UNL     1     -11.077   6.583  72.174  1.00  0.00    -0.296 C  
HETATM    9  C   UNL     1      -9.670   6.937  71.629  1.00  0.00    -0.161 C  
HETATM   10  C   UNL     1      -8.690   5.940  72.254  1.00  0.00    -0.128 C  
HETATM   11  O   UNL     1      -9.212   8.233  72.013  1.00  0.00    -0.160 OA 
HETATM   12  O   UNL     1     -10.210   9.252  71.694  1.00  0.00    -0.332 OA 
HETATM   13  C   UNL     1     -10.895   8.962  70.448  1.00  0.00    -0.236 C  
HETATM   14  C   UNL     1     -10.074   8.002  69.541  1.00  0.00    -0.196 C  
HETATM   15  O   UNL     1      -9.003   8.706  68.908  1.00  0.00    -0.140 OA 
HETATM   16  O   UNL     1      -9.598   6.818  70.207  1.00  0.00    -0.165 OA 
HETATM   17  C   UNL     1      -9.445   9.713  67.986  1.00  0.00    -0.132 C  
HETATM   18  C   UNL     1     -10.899  10.202  68.235  1.00  0.00    -0.297 C  
HETATM   19  C   UNL     1     -11.220  11.482  67.454  1.00  0.00    -0.367 C  
ENDROOT
BRANCH  17  20
HETATM   20  O   UNL     1      -8.607  10.865  68.075  1.00  0.00    -0.124 OA 
BRANCH  20  21
HETATM   21  C   UNL     1      -7.429  10.777  67.286  1.00  0.00    -0.101 C  
HETATM   22  C   UNL     1      -7.824  10.167  65.953  1.00  0.00    -0.132 C  
ENDBRANCH  20  21
ENDBRANCH  17  20
TORSDOF 2
ENDMDL
MODEL       36
REMARK 921   NORMALIZED FREE ENERGY PREDICTED BY IDOCK:   -5.22 KCAL/MOL
REMARK 922        TOTAL FREE ENERGY PREDICTED BY IDOCK:   -6.06 KCAL/MOL
REMARK 923 INTER-LIGAND FREE ENERGY PREDICTED BY IDOCK:   -5.76 KCAL/MOL
REMARK 924 INTRA-LIGAND FREE ENERGY PREDICTED BY IDOCK:   -0.30 KCAL/MOL
REMARK 927      BINDING AFFINITY PREDICTED BY RF-SCORE:    0.00 PKD
ROOT
HETATM    1  C   UNL     1     -10.654   8.245  68.686  1.00  0.00    -0.144 C  
HETATM    2  C   UNL     1     -10.415   7.737  67.244  1.00  0.00    -0.392 C  
HETATM    3  C   UNL     1     -10.868   6.293  67.034  1.00  0.00    -0.458 C  
HETATM    4  C   UNL     1     -10.253   5.300  68.044  1.00  0.00    -0.204 C  
HETATM    5  C   UNL     1      -9.436   4.215  67.347  1.00  0.00    -0.223 C  
HETATM    6  C   UNL     1      -9.459   6.055  69.150  1.00  0.00    -0.146 C  
HETATM    7  C   UNL     1      -8.865   5.132  70.211  1.00  0.00    -0.144 C  
HETATM    8  C   UNL     1      -9.910   4.611  71.185  1.00  0.00    -0.261 C  
HETATM    9  C   UNL     1     -10.624   5.731  71.984  1.00  0.00    -0.226 C  
HETATM   10  C   UNL     1     -10.988   5.138  73.348  1.00  0.00    -0.381 C  
HETATM   11  O   UNL     1     -11.853   6.162  71.401  1.00  0.00    -0.260 OA 
HETATM   12  O   UNL     1     -11.666   6.509  69.993  1.00  0.00    -0.416 OA 
HETATM   13  C   UNL     1     -10.383   7.146  69.762  1.00  0.00    -0.214 C  
HETATM   14  C   UNL     1      -9.795   7.762  71.063  1.00  0.00    -0.174 C  
HETATM   15  O   UNL     1     -10.461   8.986  71.383  1.00  0.00    -0.269 OA 
HETATM   16  O   UNL     1      -9.781   6.866  72.190  1.00  0.00    -0.150 OA 
HETATM   17  C   UNL     1     -10.246  10.024  70.415  1.00  0.00    -0.155 C  
HETATM   18  C   UNL     1      -9.816   9.503  69.016  1.00  0.00    -0.178 C  
HETATM   19  C   UNL     1      -9.910  10.592  67.940  1.00  0.00    -0.181 C  
ENDROOT
BRANCH  17  20
HETATM   20  O   UNL     1     -11.447  10.772  70.221  1.00  0.00    -0.293 OA 
BRANCH  20  21
HETATM   21  C   UNL     1     -12.543  10.304  70.994  1.00  0.00    -0.390 C  
HETATM   22  C   UNL     1     -13.084  11.490  71.771  1.00  0.00    -0.503 C  
ENDBRANCH  20  21
ENDBRANCH  17  20
TORSDOF 2
ENDMDL
MODEL       37
REMARK 921   NORMALIZED FREE ENERGY PREDICTED BY IDOCK:   -5.12 KCAL/MOL
REMARK 922        TOTAL FREE ENERGY PREDICTED BY IDOCK:   -5.95 KCAL/MOL
REMARK 923 INTER-LIGAND FREE ENERGY PREDICTED BY IDOCK:   -5.64 KCAL/MOL
REMARK 924 INTRA-LIGAND FREE ENERGY PREDICTED BY IDOCK:   -0.31 KCAL/MOL
REMARK 927      BINDING AFFINITY PREDICTED BY RF-SCORE:    0.00 PKD
ROOT
HETATM    1  C   UNL     1     -11.028  10.238  70.068  1.00  0.00    -0.371 C  
HETATM    2  C   UNL     1     -12.396  10.904  70.350  1.00  0.00    -0.436 C  
HETATM    3  C   UNL     1     -12.915  10.634  71.762  1.00  0.00    -0.577 C  
HETATM    4  C   UNL     1     -12.983   9.133  72.118  1.00  0.00    -0.498 C  
HETATM    5  C   UNL     1     -14.404   8.696  72.464  1.00  0.00    -0.347 C  
HETATM    6  C   UNL     1     -12.326   8.268  71.003  1.00  0.00    -0.145 C  
HETATM    7  C   UNL     1     -12.316   6.774  71.317  1.00  0.00    -0.395 C  
HETATM    8  C   UNL     1     -11.268   6.401  72.354  1.00  0.00    -0.313 C  
HETATM    9  C   UNL     1      -9.818   6.727  71.913  1.00  0.00    -0.165 C  
HETATM   10  C   UNL     1      -8.911   5.680  72.567  1.00  0.00    -0.133 C  
HETATM   11  O   UNL     1      -9.348   7.995  72.369  1.00  0.00    -0.166 OA 
HETATM   12  O   UNL     1     -10.292   9.055  72.019  1.00  0.00    -0.339 OA 
HETATM   13  C   UNL     1     -10.901   8.826  70.722  1.00  0.00    -0.234 C  
HETATM   14  C   UNL     1     -10.052   7.868  69.839  1.00  0.00    -0.197 C  
HETATM   15  O   UNL     1      -8.921   8.556  69.300  1.00  0.00    -0.144 OA 
HETATM   16  O   UNL     1      -9.656   6.649  70.496  1.00  0.00    -0.168 OA 
HETATM   17  C   UNL     1      -9.271   9.605  68.385  1.00  0.00    -0.133 C  
HETATM   18  C   UNL     1     -10.723  10.132  68.555  1.00  0.00    -0.264 C  
HETATM   19  C   UNL     1     -10.953  11.445  67.797  1.00  0.00    -0.301 C  
ENDROOT
BRANCH  17  20
HETATM   20  O   UNL     1      -8.406  10.726  68.566  1.00  0.00    -0.123 OA 
BRANCH  20  21
HETATM   21  C   UNL     1      -7.376  10.506  69.519  1.00  0.00    -0.148 C  
HETATM   22  C   UNL     1      -6.052  10.723  68.810  1.00  0.00    -0.040 C  
ENDBRANCH  20  21
ENDBRANCH  17  20
TORSDOF 2
ENDMDL
MODEL       38
REMARK 921   NORMALIZED FREE ENERGY PREDICTED BY IDOCK:   -5.12 KCAL/MOL
REMARK 922        TOTAL FREE ENERGY PREDICTED BY IDOCK:   -5.94 KCAL/MOL
REMARK 923 INTER-LIGAND FREE ENERGY PREDICTED BY IDOCK:   -5.61 KCAL/MOL
REMARK 924 INTRA-LIGAND FREE ENERGY PREDICTED BY IDOCK:   -0.33 KCAL/MOL
REMARK 927      BINDING AFFINITY PREDICTED BY RF-SCORE:    0.00 PKD
ROOT
HETATM    1  C   UNL     1      -9.919  16.791  68.409  1.00  0.00    -0.268 C  
HETATM    2  C   UNL     1     -11.407  16.376  68.489  1.00  0.00    -0.289 C  
HETATM    3  C   UNL     1     -11.617  15.022  69.165  1.00  0.00    -0.333 C  
HETATM    4  C   UNL     1     -10.793  13.881  68.529  1.00  0.00    -0.274 C  
HETATM    5  C   UNL     1     -11.686  12.762  67.999  1.00  0.00    -0.405 C  
HETATM    6  C   UNL     1      -9.804  14.439  67.464  1.00  0.00    -0.220 C  
HETATM    7  C   UNL     1      -8.922  13.365  66.831  1.00  0.00    -0.216 C  
HETATM    8  C   UNL     1      -7.809  12.902  67.757  1.00  0.00    -0.158 C  
HETATM    9  C   UNL     1      -6.831  14.033  68.165  1.00  0.00    -0.122 C  
HETATM   10  C   UNL     1      -5.461  13.381  68.371  1.00  0.00    -0.088 C  
HETATM   11  O   UNL     1      -7.159  14.660  69.404  1.00  0.00    -0.145 OA 
HETATM   12  O   UNL     1      -8.555  15.094  69.413  1.00  0.00    -0.215 OA 
HETATM   13  C   UNL     1      -8.974  15.583  68.113  1.00  0.00    -0.179 C  
HETATM   14  C   UNL     1      -7.765  16.013  67.233  1.00  0.00    -0.183 C  
HETATM   15  O   UNL     1      -7.261  17.280  67.662  1.00  0.00    -0.157 OA 
HETATM   16  O   UNL     1      -6.713  15.034  67.152  1.00  0.00    -0.273 OA 
HETATM   17  C   UNL     1      -8.189  18.358  67.474  1.00  0.00    -0.248 C  
HETATM   18  C   UNL     1      -9.671  17.904  67.362  1.00  0.00    -0.288 C  
HETATM   19  C   UNL     1     -10.647  19.080  67.487  1.00  0.00    -0.546 C  
ENDROOT
BRANCH  17  20
HETATM   20  O   UNL     1      -8.122  19.263  68.576  1.00  0.00    -0.341 OA 
BRANCH  20  21
HETATM   21  C   UNL     1      -7.009  20.143  68.526  1.00  0.00    -0.254 C  
HETATM   22  C   UNL     1      -6.974  20.748  67.134  1.00  0.00    -0.406 C  
ENDBRANCH  20  21
ENDBRANCH  17  20
TORSDOF 2
ENDMDL
MODEL       39
REMARK 921   NORMALIZED FREE ENERGY PREDICTED BY IDOCK:   -5.04 KCAL/MOL
REMARK 922        TOTAL FREE ENERGY PREDICTED BY IDOCK:   -5.86 KCAL/MOL
REMARK 923 INTER-LIGAND FREE ENERGY PREDICTED BY IDOCK:   -5.62 KCAL/MOL
REMARK 924 INTRA-LIGAND FREE ENERGY PREDICTED BY IDOCK:   -0.23 KCAL/MOL
REMARK 927      BINDING AFFINITY PREDICTED BY RF-SCORE:    0.00 PKD
ROOT
HETATM    1  C   UNL     1     -11.086   8.827  72.032  1.00  0.00    -0.441 C  
HETATM    2  C   UNL     1     -11.274   7.584  72.935  1.00  0.00    -0.396 C  
HETATM    3  C   UNL     1      -9.956   6.897  73.291  1.00  0.00    -0.243 C  
HETATM    4  C   UNL     1      -9.104   6.521  72.059  1.00  0.00    -0.140 C  
HETATM    5  C   UNL     1      -8.848   5.018  71.984  1.00  0.00    -0.139 C  
HETATM    6  C   UNL     1      -9.723   7.107  70.757  1.00  0.00    -0.171 C  
HETATM    7  C   UNL     1      -8.900   6.813  69.505  1.00  0.00    -0.139 C  
HETATM    8  C   UNL     1      -7.650   7.674  69.411  1.00  0.00    -0.095 C  
HETATM    9  C   UNL     1      -7.949   9.193  69.345  1.00  0.00    -0.097 C  
HETATM   10  C   UNL     1      -6.834   9.827  68.507  1.00  0.00    -0.056 C  
HETATM   11  O   UNL     1      -7.908   9.845  70.613  1.00  0.00    -0.278 OA 
HETATM   12  O   UNL     1      -8.753   9.149  71.581  1.00  0.00    -0.343 OA 
HETATM   13  C   UNL     1      -9.961   8.630  70.967  1.00  0.00    -0.215 C  
HETATM   14  C   UNL     1     -10.303   9.367  69.640  1.00  0.00    -0.216 C  
HETATM   15  O   UNL     1     -10.871  10.650  69.913  1.00  0.00    -0.267 OA 
HETATM   16  O   UNL     1      -9.203   9.468  68.717  1.00  0.00    -0.136 OA 
HETATM   17  C   UNL     1     -12.141  10.585  70.577  1.00  0.00    -0.345 C  
HETATM   18  C   UNL     1     -12.396   9.245  71.323  1.00  0.00    -0.403 C  
HETATM   19  C   UNL     1     -13.597   9.332  72.272  1.00  0.00    -0.544 C  
ENDROOT
BRANCH  17  20
HETATM   20  O   UNL     1     -12.241  11.621  71.554  1.00  0.00    -0.086 OA 
BRANCH  20  21
HETATM   21  C   UNL     1     -12.780  12.833  71.048  1.00  0.00    -0.243 C  
HETATM   22  C   UNL     1     -13.375  13.587  72.223  1.00  0.00    -0.628 C  
ENDBRANCH  20  21
ENDBRANCH  17  20
TORSDOF 2
ENDMDL
MODEL       40
REMARK 921   NORMALIZED FREE ENERGY PREDICTED BY IDOCK:   -5.01 KCAL/MOL
REMARK 922        TOTAL FREE ENERGY PREDICTED BY IDOCK:   -5.82 KCAL/MOL
REMARK 923 INTER-LIGAND FREE ENERGY PREDICTED BY IDOCK:   -5.55 KCAL/MOL
REMARK 924 INTRA-LIGAND FREE ENERGY PREDICTED BY IDOCK:   -0.27 KCAL/MOL
REMARK 927      BINDING AFFINITY PREDICTED BY RF-SCORE:    0.00 PKD
ROOT
HETATM    1  C   UNL     1     -10.520  11.546  68.268  1.00  0.00    -0.219 C  
HETATM    2  C   UNL     1     -11.086  11.103  69.637  1.00  0.00    -0.297 C  
HETATM    3  C   UNL     1     -10.328   9.924  70.246  1.00  0.00    -0.339 C  
HETATM    4  C   UNL     1     -10.226   8.704  69.306  1.00  0.00    -0.215 C  
HETATM    5  C   UNL     1     -10.872   7.462  69.914  1.00  0.00    -0.259 C  
HETATM    6  C   UNL     1     -10.768   9.050  67.888  1.00  0.00    -0.200 C  
HETATM    7  C   UNL     1     -10.650   7.898  66.893  1.00  0.00    -0.333 C  
HETATM    8  C   UNL     1      -9.226   7.694  66.401  1.00  0.00    -0.223 C  
HETATM    9  C   UNL     1      -8.645   8.924  65.659  1.00  0.00    -0.166 C  
HETATM   10  C   UNL     1      -7.667   8.387  64.609  1.00  0.00    -0.112 C  
HETATM   11  O   UNL     1      -7.885   9.797  66.495  1.00  0.00    -0.107 OA 
HETATM   12  O   UNL     1      -8.647  10.168  67.685  1.00  0.00    -0.118 OA 
HETATM   13  C   UNL     1     -10.057  10.340  67.390  1.00  0.00    -0.202 C  
HETATM   14  C   UNL     1     -10.308  10.612  65.879  1.00  0.00    -0.224 C  
HETATM   15  O   UNL     1      -9.968  11.961  65.550  1.00  0.00    -0.230 OA 
HETATM   16  O   UNL     1      -9.659   9.680  64.993  1.00  0.00    -0.280 OA 
HETATM   17  C   UNL     1     -10.806  12.934  66.190  1.00  0.00    -0.279 C  
HETATM   18  C   UNL     1     -11.523  12.409  67.465  1.00  0.00    -0.410 C  
HETATM   19  C   UNL     1     -12.140  13.545  68.290  1.00  0.00    -0.295 C  
ENDROOT
BRANCH  17  20
HETATM   20  O   UNL     1     -10.030  14.062  66.594  1.00  0.00    -0.263 OA 
BRANCH  20  21
HETATM   21  C   UNL     1     -10.117  15.164  65.703  1.00  0.00    -0.363 C  
HETATM   22  C   UNL     1     -11.368  14.969  64.866  1.00  0.00    -0.419 C  
ENDBRANCH  20  21
ENDBRANCH  17  20
TORSDOF 2
ENDMDL
MODEL       41
REMARK 921   NORMALIZED FREE ENERGY PREDICTED BY IDOCK:   -5.00 KCAL/MOL
REMARK 922        TOTAL FREE ENERGY PREDICTED BY IDOCK:   -5.81 KCAL/MOL
REMARK 923 INTER-LIGAND FREE ENERGY PREDICTED BY IDOCK:   -5.59 KCAL/MOL
REMARK 924 INTRA-LIGAND FREE ENERGY PREDICTED BY IDOCK:   -0.22 KCAL/MOL
REMARK 927      BINDING AFFINITY PREDICTED BY RF-SCORE:    0.00 PKD
ROOT
HETATM    1  C   UNL     1      -8.119  16.702  68.680  1.00  0.00    -0.237 C  
HETATM    2  C   UNL     1      -8.163  18.232  68.457  1.00  0.00    -0.329 C  
HETATM    3  C   UNL     1      -9.577  18.764  68.227  1.00  0.00    -0.395 C  
HETATM    4  C   UNL     1     -10.326  18.049  67.081  1.00  0.00    -0.382 C  
HETATM    5  C   UNL     1     -10.731  19.020  65.975  1.00  0.00    -0.417 C  
HETATM    6  C   UNL     1      -9.511  16.829  66.562  1.00  0.00    -0.287 C  
HETATM    7  C   UNL     1     -10.221  16.047  65.460  1.00  0.00    -0.389 C  
HETATM    8  C   UNL     1     -11.354  15.184  65.991  1.00  0.00    -0.221 C  
HETATM    9  C   UNL     1     -10.890  14.110  67.007  1.00  0.00    -0.295 C  
HETATM   10  C   UNL     1     -11.834  12.914  66.850  1.00  0.00    -0.444 C  
HETATM   11  O   UNL     1     -10.998  14.519  68.370  1.00  0.00    -0.232 OA 
HETATM   12  O   UNL     1     -10.341  15.809  68.577  1.00  0.00    -0.220 OA 
HETATM   13  C   UNL     1      -9.137  15.934  67.778  1.00  0.00    -0.196 C  
HETATM   14  C   UNL     1      -8.577  14.548  67.346  1.00  0.00    -0.201 C  
HETATM   15  O   UNL     1      -7.908  13.916  68.440  1.00  0.00    -0.126 OA 
HETATM   16  O   UNL     1      -9.553  13.672  66.755  1.00  0.00    -0.258 OA 
HETATM   17  C   UNL     1      -6.731  14.614  68.873  1.00  0.00    -0.096 C  
HETATM   18  C   UNL     1      -6.703  16.114  68.469  1.00  0.00    -0.126 C  
HETATM   19  C   UNL     1      -5.609  16.891  69.211  1.00  0.00    -0.156 C  
ENDROOT
BRANCH  17  20
HETATM   20  O   UNL     1      -6.628  14.572  70.296  1.00  0.00    -0.174 OA 
BRANCH  20  21
HETATM   21  C   UNL     1      -5.697  13.612  70.773  1.00  0.00    -0.197 C  
HETATM   22  C   UNL     1      -5.233  14.075  72.142  1.00  0.00    -0.212 C  
ENDBRANCH  20  21
ENDBRANCH  17  20
TORSDOF 2
ENDMDL
MODEL       42
REMARK 921   NORMALIZED FREE ENERGY PREDICTED BY IDOCK:   -4.99 KCAL/MOL
REMARK 922        TOTAL FREE ENERGY PREDICTED BY IDOCK:   -5.79 KCAL/MOL
REMARK 923 INTER-LIGAND FREE ENERGY PREDICTED BY IDOCK:   -5.56 KCAL/MOL
REMARK 924 INTRA-LIGAND FREE ENERGY PREDICTED BY IDOCK:   -0.23 KCAL/MOL
REMARK 927      BINDING AFFINITY PREDICTED BY RF-SCORE:    0.00 PKD
ROOT
HETATM    1  C   UNL     1     -10.831  14.684  66.458  1.00  0.00    -0.315 C  
HETATM    2  C   UNL     1     -11.700  13.457  66.096  1.00  0.00    -0.405 C  
HETATM    3  C   UNL     1     -11.691  12.376  67.176  1.00  0.00    -0.415 C  
HETATM    4  C   UNL     1     -10.273  11.911  67.572  1.00  0.00    -0.212 C  
HETATM    5  C   UNL     1     -10.074  10.418  67.320  1.00  0.00    -0.244 C  
HETATM    6  C   UNL     1      -9.189  12.800  66.895  1.00  0.00    -0.229 C  
HETATM    7  C   UNL     1      -7.762  12.423  67.285  1.00  0.00    -0.158 C  
HETATM    8  C   UNL     1      -7.398  12.883  68.688  1.00  0.00    -0.099 C  
HETATM    9  C   UNL     1      -7.470  14.420  68.873  1.00  0.00    -0.132 C  
HETATM   10  C   UNL     1      -6.411  14.790  69.916  1.00  0.00    -0.164 C  
HETATM   11  O   UNL     1      -8.716  14.880  69.397  1.00  0.00    -0.150 OA 
HETATM   12  O   UNL     1      -9.833  14.356  68.613  1.00  0.00    -0.227 OA 
HETATM   13  C   UNL     1      -9.514  14.290  67.199  1.00  0.00    -0.227 C  
HETATM   14  C   UNL     1      -8.345  15.243  66.820  1.00  0.00    -0.223 C  
HETATM   15  O   UNL     1      -8.802  16.596  66.758  1.00  0.00    -0.201 OA 
HETATM   16  O   UNL     1      -7.184  15.123  67.662  1.00  0.00    -0.150 OA 
HETATM   17  C   UNL     1      -9.756  16.831  65.712  1.00  0.00    -0.128 C  
HETATM   18  C   UNL     1     -10.485  15.549  65.223  1.00  0.00    -0.437 C  
HETATM   19  C   UNL     1     -11.704  15.875  64.351  1.00  0.00    -0.179 C  
ENDROOT
BRANCH  17  20
HETATM   20  O   UNL     1     -10.769  17.730  66.162  1.00  0.00    -0.268 OA 
BRANCH  20  21
HETATM   21  C   UNL     1     -10.433  19.100  65.994  1.00  0.00    -0.467 C  
HETATM   22  C   UNL     1     -10.768  19.809  67.294  1.00  0.00    -0.532 C  
ENDBRANCH  20  21
ENDBRANCH  17  20
TORSDOF 2
ENDMDL
MODEL       43
REMARK 921   NORMALIZED FREE ENERGY PREDICTED BY IDOCK:   -4.97 KCAL/MOL
REMARK 922        TOTAL FREE ENERGY PREDICTED BY IDOCK:   -5.78 KCAL/MOL
REMARK 923 INTER-LIGAND FREE ENERGY PREDICTED BY IDOCK:   -5.44 KCAL/MOL
REMARK 924 INTRA-LIGAND FREE ENERGY PREDICTED BY IDOCK:   -0.34 KCAL/MOL
REMARK 927      BINDING AFFINITY PREDICTED BY RF-SCORE:    0.00 PKD
ROOT
HETATM    1  C   UNL     1      -7.263  17.527  68.041  1.00  0.00    -0.206 C  
HETATM    2  C   UNL     1      -6.055  16.835  68.717  1.00  0.00    -0.147 C  
HETATM    3  C   UNL     1      -5.715  15.480  68.098  1.00  0.00    -0.132 C  
HETATM    4  C   UNL     1      -6.913  14.506  68.049  1.00  0.00    -0.149 C  
HETATM    5  C   UNL     1      -6.635  13.226  68.832  1.00  0.00    -0.107 C  
HETATM    6  C   UNL     1      -8.227  15.221  68.481  1.00  0.00    -0.146 C  
HETATM    7  C   UNL     1      -9.460  14.324  68.407  1.00  0.00    -0.213 C  
HETATM    8  C   UNL     1      -9.938  14.103  66.981  1.00  0.00    -0.260 C  
HETATM    9  C   UNL     1     -10.350  15.410  66.256  1.00  0.00    -0.294 C  
HETATM   10  C   UNL     1     -11.463  15.039  65.272  1.00  0.00    -0.308 C  
HETATM   11  O   UNL     1      -9.308  15.988  65.472  1.00  0.00    -0.380 OA 
HETATM   12  O   UNL     1      -8.089  16.146  66.264  1.00  0.00    -0.292 OA 
HETATM   13  C   UNL     1      -8.383  16.517  67.635  1.00  0.00    -0.165 C  
HETATM   14  C   UNL     1      -9.795  17.153  67.778  1.00  0.00    -0.274 C  
HETATM   15  O   UNL     1      -9.786  18.502  67.306  1.00  0.00    -0.295 OA 
HETATM   16  O   UNL     1     -10.853  16.393  67.164  1.00  0.00    -0.279 OA 
HETATM   17  C   UNL     1      -8.964  19.378  68.091  1.00  0.00    -0.326 C  
HETATM   18  C   UNL     1      -7.873  18.644  68.920  1.00  0.00    -0.264 C  
HETATM   19  C   UNL     1      -6.825  19.613  69.482  1.00  0.00    -0.350 C  
ENDROOT
BRANCH  17  20
HETATM   20  O   UNL     1      -8.280  20.302  67.245  1.00  0.00    -0.323 OA 
BRANCH  20  21
HETATM   21  C   UNL     1      -8.279  19.929  65.875  1.00  0.00    -0.211 C  
HETATM   22  C   UNL     1      -6.907  20.264  65.318  1.00  0.00    -0.318 C  
ENDBRANCH  20  21
ENDBRANCH  17  20
TORSDOF 2
ENDMDL
MODEL       44
REMARK 921   NORMALIZED FREE ENERGY PREDICTED BY IDOCK:   -4.97 KCAL/MOL
REMARK 922        TOTAL FREE ENERGY PREDICTED BY IDOCK:   -5.77 KCAL/MOL
REMARK 923 INTER-LIGAND FREE ENERGY PREDICTED BY IDOCK:   -5.29 KCAL/MOL
REMARK 924 INTRA-LIGAND FREE ENERGY PREDICTED BY IDOCK:   -0.48 KCAL/MOL
REMARK 927      BINDING AFFINITY PREDICTED BY RF-SCORE:    0.00 PKD
ROOT
HETATM    1  C   UNL     1      -9.934   7.554  71.631  1.00  0.00    -0.200 C  
HETATM    2  C   UNL     1     -10.923   8.000  72.734  1.00  0.00    -0.449 C  
HETATM    3  C   UNL     1     -12.288   8.413  72.184  1.00  0.00    -0.426 C  
HETATM    4  C   UNL     1     -12.209   9.496  71.087  1.00  0.00    -0.421 C  
HETATM    5  C   UNL     1     -12.970  10.759  71.480  1.00  0.00    -0.562 C  
HETATM    6  C   UNL     1     -10.731   9.767  70.681  1.00  0.00    -0.394 C  
HETATM    7  C   UNL     1     -10.585  10.796  69.561  1.00  0.00    -0.235 C  
HETATM    8  C   UNL     1     -10.954  10.232  68.198  1.00  0.00    -0.328 C  
HETATM    9  C   UNL     1     -10.069   9.038  67.761  1.00  0.00    -0.208 C  
HETATM   10  C   UNL     1      -9.975   9.091  66.234  1.00  0.00    -0.352 C  
HETATM   11  O   UNL     1     -10.623   7.762  68.078  1.00  0.00    -0.201 OA 
HETATM   12  O   UNL     1     -10.999   7.695  69.489  1.00  0.00    -0.204 OA 
HETATM   13  C   UNL     1     -10.058   8.409  70.331  1.00  0.00    -0.187 C  
HETATM   14  C   UNL     1      -8.677   8.590  69.639  1.00  0.00    -0.133 C  
HETATM   15  O   UNL     1      -7.937   7.368  69.672  1.00  0.00    -0.120 OA 
HETATM   16  O   UNL     1      -8.748   9.121  68.302  1.00  0.00    -0.128 OA 
HETATM   17  C   UNL     1      -7.576   6.953  70.997  1.00  0.00    -0.087 C  
HETATM   18  C   UNL     1      -8.464   7.568  72.115  1.00  0.00    -0.130 C  
HETATM   19  C   UNL     1      -8.264   6.865  73.463  1.00  0.00    -0.121 C  
ENDROOT
BRANCH  17  20
HETATM   20  O   UNL     1      -7.690   5.536  71.119  1.00  0.00    -0.098 OA 
BRANCH  20  21
HETATM   21  C   UNL     1      -8.048   4.886  69.907  1.00  0.00    -0.073 C  
HETATM   22  C   UNL     1      -9.336   4.126  70.167  1.00  0.00    -0.234 C  
ENDBRANCH  20  21
ENDBRANCH  17  20
TORSDOF 2
ENDMDL
MODEL       45
REMARK 921   NORMALIZED FREE ENERGY PREDICTED BY IDOCK:   -4.95 KCAL/MOL
REMARK 922        TOTAL FREE ENERGY PREDICTED BY IDOCK:   -5.75 KCAL/MOL
REMARK 923 INTER-LIGAND FREE ENERGY PREDICTED BY IDOCK:   -5.28 KCAL/MOL
REMARK 924 INTRA-LIGAND FREE ENERGY PREDICTED BY IDOCK:   -0.47 KCAL/MOL
REMARK 927      BINDING AFFINITY PREDICTED BY RF-SCORE:    0.00 PKD
ROOT
HETATM    1  C   UNL     1     -10.295   9.319  69.946  1.00  0.00    -0.241 C  
HETATM    2  C   UNL     1     -11.233  10.262  70.736  1.00  0.00    -0.373 C  
HETATM    3  C   UNL     1     -12.244  10.985  69.848  1.00  0.00    -0.408 C  
HETATM    4  C   UNL     1     -11.596  11.756  68.677  1.00  0.00    -0.367 C  
HETATM    5  C   UNL     1     -11.910  13.249  68.737  1.00  0.00    -0.371 C  
HETATM    6  C   UNL     1     -10.072  11.450  68.587  1.00  0.00    -0.217 C  
HETATM    7  C   UNL     1      -9.379  12.144  67.417  1.00  0.00    -0.181 C  
HETATM    8  C   UNL     1      -9.686  11.486  66.082  1.00  0.00    -0.249 C  
HETATM    9  C   UNL     1      -9.224  10.008  66.000  1.00  0.00    -0.162 C  
HETATM   10  C   UNL     1      -8.857   9.739  64.537  1.00  0.00    -0.248 C  
HETATM   11  O   UNL     1     -10.244   9.066  66.330  1.00  0.00    -0.284 OA 
HETATM   12  O   UNL     1     -10.855   9.393  67.617  1.00  0.00    -0.267 OA 
HETATM   13  C   UNL     1      -9.880   9.907  68.560  1.00  0.00    -0.156 C  
HETATM   14  C   UNL     1      -8.429   9.495  68.182  1.00  0.00    -0.119 C  
HETATM   15  O   UNL     1      -8.192   8.128  68.525  1.00  0.00    -0.122 OA 
HETATM   16  O   UNL     1      -8.075   9.758  66.811  1.00  0.00    -0.118 OA 
HETATM   17  C   UNL     1      -8.236   7.876  69.937  1.00  0.00    -0.120 C  
HETATM   18  C   UNL     1      -9.023   8.944  70.745  1.00  0.00    -0.254 C  
HETATM   19  C   UNL     1      -9.322   8.483  72.177  1.00  0.00    -0.353 C  
ENDROOT
BRANCH  17  20
HETATM   20  O   UNL     1      -8.868   6.622  70.195  1.00  0.00    -0.139 OA 
BRANCH  20  21
HETATM   21  C   UNL     1      -9.317   5.957  69.023  1.00  0.00    -0.123 C  
HETATM   22  C   UNL     1     -10.828   5.850  69.115  1.00  0.00    -0.406 C  
ENDBRANCH  20  21
ENDBRANCH  17  20
TORSDOF 2
ENDMDL
MODEL       46
REMARK 921   NORMALIZED FREE ENERGY PREDICTED BY IDOCK:   -4.91 KCAL/MOL
REMARK 922        TOTAL FREE ENERGY PREDICTED BY IDOCK:   -5.71 KCAL/MOL
REMARK 923 INTER-LIGAND FREE ENERGY PREDICTED BY IDOCK:   -5.42 KCAL/MOL
REMARK 924 INTRA-LIGAND FREE ENERGY PREDICTED BY IDOCK:   -0.29 KCAL/MOL
REMARK 927      BINDING AFFINITY PREDICTED BY RF-SCORE:    0.00 PKD
ROOT
HETATM    1  C   UNL     1      -9.983   5.668  71.180  1.00  0.00    -0.244 C  
HETATM    2  C   UNL     1      -9.818   4.182  70.783  1.00  0.00    -0.248 C  
HETATM    3  C   UNL     1      -8.936   3.984  69.551  1.00  0.00    -0.163 C  
HETATM    4  C   UNL     1      -9.397   4.802  68.325  1.00  0.00    -0.177 C  
HETATM    5  C   UNL     1      -9.734   3.904  67.137  1.00  0.00    -0.182 C  
HETATM    6  C   UNL     1     -10.550   5.775  68.709  1.00  0.00    -0.321 C  
HETATM    7  C   UNL     1     -11.019   6.651  67.550  1.00  0.00    -0.416 C  
HETATM    8  C   UNL     1     -10.047   7.777  67.237  1.00  0.00    -0.307 C  
HETATM    9  C   UNL     1      -9.833   8.757  68.418  1.00  0.00    -0.171 C  
HETATM   10  C   UNL     1      -9.547  10.132  67.806  1.00  0.00    -0.168 C  
HETATM   11  O   UNL     1      -8.703   8.445  69.231  1.00  0.00    -0.135 OA 
HETATM   12  O   UNL     1      -8.744   7.048  69.661  1.00  0.00    -0.140 OA 
HETATM   13  C   UNL     1     -10.099   6.611  69.941  1.00  0.00    -0.176 C  
HETATM   14  C   UNL     1     -11.050   7.807  70.228  1.00  0.00    -0.234 C  
HETATM   15  O   UNL     1     -10.832   8.314  71.546  1.00  0.00    -0.231 OA 
HETATM   16  O   UNL     1     -10.992   8.860  69.248  1.00  0.00    -0.144 OA 
HETATM   17  C   UNL     1     -11.174   7.382  72.582  1.00  0.00    -0.332 C  
HETATM   18  C   UNL     1     -11.193   5.900  72.116  1.00  0.00    -0.342 C  
HETATM   19  C   UNL     1     -11.241   4.923  73.297  1.00  0.00    -0.423 C  
ENDROOT
BRANCH  17  20
HETATM   20  O   UNL     1     -10.228   7.461  73.648  1.00  0.00    -0.341 OA 
BRANCH  20  21
HETATM   21  C   UNL     1      -9.065   8.211  73.326  1.00  0.00    -0.257 C  
HETATM   22  C   UNL     1      -7.994   7.836  74.333  1.00  0.00    -0.264 C  
ENDBRANCH  20  21
ENDBRANCH  17  20
TORSDOF 2
ENDMDL
MODEL       47
REMARK 921   NORMALIZED FREE ENERGY PREDICTED BY IDOCK:   -4.90 KCAL/MOL
REMARK 922        TOTAL FREE ENERGY PREDICTED BY IDOCK:   -5.69 KCAL/MOL
REMARK 923 INTER-LIGAND FREE ENERGY PREDICTED BY IDOCK:   -5.25 KCAL/MOL
REMARK 924 INTRA-LIGAND FREE ENERGY PREDICTED BY IDOCK:   -0.44 KCAL/MOL
REMARK 927      BINDING AFFINITY PREDICTED BY RF-SCORE:    0.00 PKD
ROOT
HETATM    1  C   UNL     1     -10.634   9.785  70.079  1.00  0.00    -0.320 C  
HETATM    2  C   UNL     1     -11.166   9.555  71.513  1.00  0.00    -0.437 C  
HETATM    3  C   UNL     1     -10.473   8.398  72.232  1.00  0.00    -0.407 C  
HETATM    4  C   UNL     1     -10.511   7.071  71.444  1.00  0.00    -0.225 C  
HETATM    5  C   UNL     1     -11.222   5.968  72.223  1.00  0.00    -0.341 C  
HETATM    6  C   UNL     1     -11.092   7.290  70.016  1.00  0.00    -0.262 C  
HETATM    7  C   UNL     1     -11.110   6.022  69.165  1.00  0.00    -0.405 C  
HETATM    8  C   UNL     1      -9.731   5.645  68.648  1.00  0.00    -0.175 C  
HETATM    9  C   UNL     1      -9.093   6.727  67.740  1.00  0.00    -0.117 C  
HETATM   10  C   UNL     1      -8.211   5.990  66.727  1.00  0.00    -0.106 C  
HETATM   11  O   UNL     1      -8.230   7.626  68.433  1.00  0.00    -0.122 OA 
HETATM   12  O   UNL     1      -8.903   8.197  69.598  1.00  0.00    -0.140 OA 
HETATM   13  C   UNL     1     -10.308   8.449  69.338  1.00  0.00    -0.215 C  
HETATM   14  C   UNL     1     -10.608   8.559  67.816  1.00  0.00    -0.175 C  
HETATM   15  O   UNL     1     -10.182   9.827  67.312  1.00  0.00    -0.203 OA 
HETATM   16  O   UNL     1     -10.077   7.479  67.026  1.00  0.00    -0.210 OA 
HETATM   17  C   UNL     1     -10.910  10.935  67.860  1.00  0.00    -0.247 C  
HETATM   18  C   UNL     1     -11.604  10.626  69.215  1.00  0.00    -0.346 C  
HETATM   19  C   UNL     1     -12.092  11.899  69.918  1.00  0.00    -0.344 C  
ENDROOT
BRANCH  17  20
HETATM   20  O   UNL     1     -10.031  12.036  68.093  1.00  0.00    -0.191 OA 
BRANCH  20  21
HETATM   21  C   UNL     1      -8.739  11.865  67.528  1.00  0.00    -0.163 C  
HETATM   22  C   UNL     1      -7.731  12.039  68.649  1.00  0.00    -0.099 C  
ENDBRANCH  20  21
ENDBRANCH  17  20
TORSDOF 2
ENDMDL
MODEL       48
REMARK 921   NORMALIZED FREE ENERGY PREDICTED BY IDOCK:   -4.88 KCAL/MOL
REMARK 922        TOTAL FREE ENERGY PREDICTED BY IDOCK:   -5.68 KCAL/MOL
REMARK 923 INTER-LIGAND FREE ENERGY PREDICTED BY IDOCK:   -5.30 KCAL/MOL
REMARK 924 INTRA-LIGAND FREE ENERGY PREDICTED BY IDOCK:   -0.38 KCAL/MOL
REMARK 927      BINDING AFFINITY PREDICTED BY RF-SCORE:    0.00 PKD
ROOT
HETATM    1  C   UNL     1     -10.222   9.548  69.129  1.00  0.00    -0.209 C  
HETATM    2  C   UNL     1     -11.518  10.386  69.015  1.00  0.00    -0.258 C  
HETATM    3  C   UNL     1     -11.973  10.972  70.351  1.00  0.00    -0.459 C  
HETATM    4  C   UNL     1     -12.132   9.915  71.466  1.00  0.00    -0.496 C  
HETATM    5  C   UNL     1     -13.559   9.870  72.006  1.00  0.00    -0.399 C  
HETATM    6  C   UNL     1     -11.607   8.528  70.994  1.00  0.00    -0.317 C  
HETATM    7  C   UNL     1     -11.691   7.447  72.069  1.00  0.00    -0.325 C  
HETATM    8  C   UNL     1     -10.615   7.596  73.134  1.00  0.00    -0.438 C  
HETATM    9  C   UNL     1      -9.173   7.494  72.575  1.00  0.00    -0.147 C  
HETATM   10  C   UNL     1      -8.311   6.886  73.685  1.00  0.00    -0.139 C  
HETATM   11  O   UNL     1      -8.584   8.756  72.265  1.00  0.00    -0.377 OA 
HETATM   12  O   UNL     1      -9.464   9.542  71.403  1.00  0.00    -0.224 OA 
HETATM   13  C   UNL     1     -10.163   8.708  70.444  1.00  0.00    -0.193 C  
HETATM   14  C   UNL     1      -9.440   7.350  70.215  1.00  0.00    -0.165 C  
HETATM   15  O   UNL     1      -8.294   7.528  69.380  1.00  0.00    -0.128 OA 
HETATM   16  O   UNL     1      -9.100   6.648  71.426  1.00  0.00    -0.144 OA 
HETATM   17  C   UNL     1      -8.617   7.944  68.045  1.00  0.00    -0.126 C  
HETATM   18  C   UNL     1     -10.014   8.613  67.913  1.00  0.00    -0.232 C  
HETATM   19  C   UNL     1     -10.189   9.324  66.566  1.00  0.00    -0.316 C  
ENDROOT
BRANCH  17  20
HETATM   20  O   UNL     1      -7.662   8.898  67.581  1.00  0.00    -0.099 OA 
BRANCH  20  21
HETATM   21  C   UNL     1      -6.646   9.196  68.528  1.00  0.00    -0.055 C  
HETATM   22  C   UNL     1      -6.236  10.641  68.309  1.00  0.00    -0.050 C  
ENDBRANCH  20  21
ENDBRANCH  17  20
TORSDOF 2
ENDMDL
MODEL       49
REMARK 921   NORMALIZED FREE ENERGY PREDICTED BY IDOCK:   -4.84 KCAL/MOL
REMARK 922        TOTAL FREE ENERGY PREDICTED BY IDOCK:   -5.63 KCAL/MOL
REMARK 923 INTER-LIGAND FREE ENERGY PREDICTED BY IDOCK:   -5.32 KCAL/MOL
REMARK 924 INTRA-LIGAND FREE ENERGY PREDICTED BY IDOCK:   -0.31 KCAL/MOL
REMARK 927      BINDING AFFINITY PREDICTED BY RF-SCORE:    0.00 PKD
ROOT
HETATM    1  C   UNL     1     -10.171   9.568  68.718  1.00  0.00    -0.215 C  
HETATM    2  C   UNL     1     -10.684  10.172  70.046  1.00  0.00    -0.356 C  
HETATM    3  C   UNL     1     -10.151   9.447  71.281  1.00  0.00    -0.309 C  
HETATM    4  C   UNL     1     -10.415   7.926  71.265  1.00  0.00    -0.233 C  
HETATM    5  C   UNL     1     -11.259   7.483  72.458  1.00  0.00    -0.381 C  
HETATM    6  C   UNL     1     -11.004   7.480  69.894  1.00  0.00    -0.223 C  
HETATM    7  C   UNL     1     -11.243   5.975  69.794  1.00  0.00    -0.440 C  
HETATM    8  C   UNL     1      -9.955   5.189  69.603  1.00  0.00    -0.313 C  
HETATM    9  C   UNL     1      -9.191   5.560  68.307  1.00  0.00    -0.109 C  
HETATM   10  C   UNL     1      -8.465   4.293  67.844  1.00  0.00    -0.100 C  
HETATM   11  O   UNL     1      -8.178   6.547  68.495  1.00  0.00    -0.119 OA 
HETATM   12  O   UNL     1      -8.718   7.719  69.182  1.00  0.00    -0.137 OA 
HETATM   13  C   UNL     1     -10.076   8.010  68.764  1.00  0.00    -0.195 C  
HETATM   14  C   UNL     1     -10.407   7.382  67.380  1.00  0.00    -0.270 C  
HETATM   15  O   UNL     1      -9.810   8.146  66.329  1.00  0.00    -0.213 OA 
HETATM   16  O   UNL     1     -10.072   5.986  67.266  1.00  0.00    -0.137 OA 
HETATM   17  C   UNL     1     -10.343   9.472  66.211  1.00  0.00    -0.156 C  
HETATM   18  C   UNL     1     -11.031   9.994  67.503  1.00  0.00    -0.276 C  
HETATM   19  C   UNL     1     -11.296  11.503  67.449  1.00  0.00    -0.367 C  
ENDROOT
BRANCH  17  20
HETATM   20  O   UNL     1      -9.301  10.397  65.903  1.00  0.00    -0.167 OA 
BRANCH  20  21
HETATM   21  C   UNL     1      -8.798  10.272  64.580  1.00  0.00    -0.199 C  
HETATM   22  C   UNL     1      -9.888  10.749  63.637  1.00  0.00    -0.406 C  
ENDBRANCH  20  21
ENDBRANCH  17  20
TORSDOF 2
ENDMDL
MODEL       50
REMARK 921   NORMALIZED FREE ENERGY PREDICTED BY IDOCK:   -4.83 KCAL/MOL
REMARK 922        TOTAL FREE ENERGY PREDICTED BY IDOCK:   -5.62 KCAL/MOL
REMARK 923 INTER-LIGAND FREE ENERGY PREDICTED BY IDOCK:   -5.30 KCAL/MOL
REMARK 924 INTRA-LIGAND FREE ENERGY PREDICTED BY IDOCK:   -0.32 KCAL/MOL
REMARK 927      BINDING AFFINITY PREDICTED BY RF-SCORE:    0.00 PKD
ROOT
HETATM    1  C   UNL     1     -10.237   8.763  68.949  1.00  0.00    -0.221 C  
HETATM    2  C   UNL     1     -10.968  10.118  69.106  1.00  0.00    -0.270 C  
HETATM    3  C   UNL     1     -11.170  10.525  70.565  1.00  0.00    -0.348 C  
HETATM    4  C   UNL     1     -11.882   9.449  71.412  1.00  0.00    -0.447 C  
HETATM    5  C   UNL     1     -13.188   9.967  72.008  1.00  0.00    -0.545 C  
HETATM    6  C   UNL     1     -12.053   8.129  70.604  1.00  0.00     0.029 C  
HETATM    7  C   UNL     1     -12.708   7.006  71.404  1.00  0.00    -0.421 C  
HETATM    8  C   UNL     1     -11.759   6.375  72.411  1.00  0.00    -0.286 C  
HETATM    9  C   UNL     1     -10.508   5.729  71.763  1.00  0.00    -0.228 C  
HETATM   10  C   UNL     1     -10.110   4.547  72.652  1.00  0.00    -0.229 C  
HETATM   11  O   UNL     1      -9.371   6.590  71.719  1.00  0.00    -0.150 OA 
HETATM   12  O   UNL     1      -9.716   7.875  71.114  1.00  0.00    -0.158 OA 
HETATM   13  C   UNL     1     -10.667   7.720  70.029  1.00  0.00    -0.244 C  
HETATM   14  C   UNL     1     -10.665   6.276  69.453  1.00  0.00    -0.303 C  
HETATM   15  O   UNL     1      -9.524   6.072  68.617  1.00  0.00    -0.123 OA 
HETATM   16  O   UNL     1     -10.776   5.240  70.447  1.00  0.00    -0.250 OA 
HETATM   17  C   UNL     1      -9.527   6.885  67.435  1.00  0.00    -0.132 C  
HETATM   18  C   UNL     1     -10.425   8.149  67.541  1.00  0.00    -0.326 C  
HETATM   19  C   UNL     1     -10.157   9.145  66.406  1.00  0.00    -0.345 C  
ENDROOT
BRANCH  17  20
HETATM   20  O   UNL     1      -8.206   7.346  67.150  1.00  0.00    -0.115 OA 
BRANCH  20  21
HETATM   21  C   UNL     1      -7.400   6.389  66.477  1.00  0.00    -0.078 C  
HETATM   22  C   UNL     1      -7.911   6.293  65.051  1.00  0.00    -0.111 C  
ENDBRANCH  20  21
ENDBRANCH  17  20
TORSDOF 2
ENDMDL
MODEL       51
REMARK 921   NORMALIZED FREE ENERGY PREDICTED BY IDOCK:   -4.82 KCAL/MOL
REMARK 922        TOTAL FREE ENERGY PREDICTED BY IDOCK:   -5.61 KCAL/MOL
REMARK 923 INTER-LIGAND FREE ENERGY PREDICTED BY IDOCK:   -5.43 KCAL/MOL
REMARK 924 INTRA-LIGAND FREE ENERGY PREDICTED BY IDOCK:   -0.17 KCAL/MOL
REMARK 927      BINDING AFFINITY PREDICTED BY RF-SCORE:    0.00 PKD
ROOT
HETATM    1  C   UNL     1     -10.198  14.619  66.296  1.00  0.00    -0.302 C  
HETATM    2  C   UNL     1     -11.118  15.479  65.398  1.00  0.00    -0.303 C  
HETATM    3  C   UNL     1     -10.478  16.799  64.973  1.00  0.00     0.052 C  
HETATM    4  C   UNL     1      -9.968  17.647  66.159  1.00  0.00    -0.281 C  
HETATM    5  C   UNL     1     -10.648  19.013  66.214  1.00  0.00    -0.493 C  
HETATM    6  C   UNL     1     -10.070  16.852  67.493  1.00  0.00    -0.282 C  
HETATM    7  C   UNL     1      -9.535  17.618  68.701  1.00  0.00    -0.284 C  
HETATM    8  C   UNL     1      -8.016  17.666  68.737  1.00  0.00    -0.244 C  
HETATM    9  C   UNL     1      -7.354  16.267  68.825  1.00  0.00    -0.191 C  
HETATM   10  C   UNL     1      -6.050  16.442  69.608  1.00  0.00    -0.205 C  
HETATM   11  O   UNL     1      -6.983  15.722  67.559  1.00  0.00    -0.152 OA 
HETATM   12  O   UNL     1      -8.112  15.752  66.631  1.00  0.00    -0.257 OA 
HETATM   13  C   UNL     1      -9.368  15.477  67.303  1.00  0.00    -0.212 C  
HETATM   14  C   UNL     1      -9.159  14.726  68.648  1.00  0.00    -0.186 C  
HETATM   15  O   UNL     1      -8.866  13.347  68.410  1.00  0.00    -0.178 OA 
HETATM   16  O   UNL     1      -8.178  15.325  69.516  1.00  0.00    -0.234 OA 
HETATM   17  C   UNL     1      -9.953  12.627  67.811  1.00  0.00    -0.218 C  
HETATM   18  C   UNL     1     -10.978  13.531  67.072  1.00  0.00    -0.297 C  
HETATM   19  C   UNL     1     -11.930  12.719  66.185  1.00  0.00    -0.476 C  
ENDROOT
BRANCH  17  20
HETATM   20  O   UNL     1      -9.456  11.700  66.845  1.00  0.00    -0.179 OA 
BRANCH  20  21
HETATM   21  C   UNL     1      -9.611  10.340  67.226  1.00  0.00    -0.159 C  
HETATM   22  C   UNL     1      -9.718   9.525  65.950  1.00  0.00    -0.352 C  
ENDBRANCH  20  21
ENDBRANCH  17  20
TORSDOF 2
ENDMDL
MODEL       52
REMARK 921   NORMALIZED FREE ENERGY PREDICTED BY IDOCK:   -4.81 KCAL/MOL
REMARK 922        TOTAL FREE ENERGY PREDICTED BY IDOCK:   -5.59 KCAL/MOL
REMARK 923 INTER-LIGAND FREE ENERGY PREDICTED BY IDOCK:   -5.34 KCAL/MOL
REMARK 924 INTRA-LIGAND FREE ENERGY PREDICTED BY IDOCK:   -0.25 KCAL/MOL
REMARK 927      BINDING AFFINITY PREDICTED BY RF-SCORE:    0.00 PKD
ROOT
HETATM    1  C   UNL     1     -11.102  11.673  66.634  1.00  0.00    -0.364 C  
HETATM    2  C   UNL     1     -11.390  12.321  65.259  1.00  0.00    -0.384 C  
HETATM    3  C   UNL     1     -11.185  11.361  64.088  1.00  0.00    -0.327 C  
HETATM    4  C   UNL     1      -9.790  10.700  64.070  1.00  0.00    -0.399 C  
HETATM    5  C   UNL     1      -9.024  11.024  62.789  1.00  0.00    -0.327 C  
HETATM    6  C   UNL     1      -8.997  11.040  65.365  1.00  0.00    -0.192 C  
HETATM    7  C   UNL     1      -7.625  10.375  65.432  1.00  0.00    -0.131 C  
HETATM    8  C   UNL     1      -7.709   8.893  65.761  1.00  0.00    -0.094 C  
HETATM    9  C   UNL     1      -8.363   8.600  67.135  1.00  0.00    -0.107 C  
HETATM   10  C   UNL     1      -7.714   7.320  67.671  1.00  0.00    -0.112 C  
HETATM   11  O   UNL     1      -9.762   8.331  67.063  1.00  0.00    -0.175 OA 
HETATM   12  O   UNL     1     -10.456   9.385  66.325  1.00  0.00    -0.185 OA 
HETATM   13  C   UNL     1      -9.887  10.692  66.593  1.00  0.00    -0.201 C  
HETATM   14  C   UNL     1      -9.093  10.720  67.930  1.00  0.00    -0.150 C  
HETATM   15  O   UNL     1      -9.988  10.768  69.043  1.00  0.00    -0.196 OA 
HETATM   16  O   UNL     1      -8.137   9.653  68.075  1.00  0.00    -0.104 OA 
HETATM   17  C   UNL     1     -10.758  11.977  69.106  1.00  0.00    -0.075 C  
HETATM   18  C   UNL     1     -10.876  12.723  67.748  1.00  0.00    -0.248 C  
HETATM   19  C   UNL     1     -11.953  13.814  67.779  1.00  0.00    -0.391 C  
ENDROOT
BRANCH  17  20
HETATM   20  O   UNL     1     -12.091  11.691  69.531  1.00  0.00    -0.304 OA 
BRANCH  20  21
HETATM   21  C   UNL     1     -12.208  10.483  70.268  1.00  0.00    -0.311 C  
HETATM   22  C   UNL     1     -13.019  10.793  71.513  1.00  0.00    -0.562 C  
ENDBRANCH  20  21
ENDBRANCH  17  20
TORSDOF 2
ENDMDL
MODEL       53
REMARK 921   NORMALIZED FREE ENERGY PREDICTED BY IDOCK:   -4.75 KCAL/MOL
REMARK 922        TOTAL FREE ENERGY PREDICTED BY IDOCK:   -5.53 KCAL/MOL
REMARK 923 INTER-LIGAND FREE ENERGY PREDICTED BY IDOCK:   -5.19 KCAL/MOL
REMARK 924 INTRA-LIGAND FREE ENERGY PREDICTED BY IDOCK:   -0.34 KCAL/MOL
REMARK 927      BINDING AFFINITY PREDICTED BY RF-SCORE:    0.00 PKD
ROOT
HETATM    1  C   UNL     1     -11.326  10.637  68.783  1.00  0.00    -0.339 C  
HETATM    2  C   UNL     1     -11.858  12.087  68.697  1.00  0.00    -0.366 C  
HETATM    3  C   UNL     1     -11.772  12.675  67.289  1.00  0.00    -0.435 C  
HETATM    4  C   UNL     1     -10.357  12.603  66.676  1.00  0.00    -0.249 C  
HETATM    5  C   UNL     1      -9.815  13.988  66.333  1.00  0.00    -0.306 C  
HETATM    6  C   UNL     1      -9.401  11.773  67.583  1.00  0.00    -0.180 C  
HETATM    7  C   UNL     1      -7.995  11.621  67.007  1.00  0.00    -0.164 C  
HETATM    8  C   UNL     1      -7.935  10.618  65.866  1.00  0.00    -0.157 C  
HETATM    9  C   UNL     1      -8.355   9.184  66.280  1.00  0.00    -0.119 C  
HETATM   10  C   UNL     1      -7.554   8.218  65.404  1.00  0.00    -0.096 C  
HETATM   11  O   UNL     1      -9.730   8.892  66.034  1.00  0.00    -0.260 OA 
HETATM   12  O   UNL     1     -10.591   9.919  66.617  1.00  0.00    -0.192 OA 
HETATM   13  C   UNL     1     -10.072  10.403  67.882  1.00  0.00    -0.171 C  
HETATM   14  C   UNL     1      -9.088   9.389  68.535  1.00  0.00    -0.131 C  
HETATM   15  O   UNL     1      -9.807   8.305  69.127  1.00  0.00    -0.172 OA 
HETATM   16  O   UNL     1      -8.057   8.911  67.651  1.00  0.00    -0.105 OA 
HETATM   17  C   UNL     1     -10.633   8.701  70.231  1.00  0.00    -0.223 C  
HETATM   18  C   UNL     1     -11.001  10.211  70.235  1.00  0.00    -0.380 C  
HETATM   19  C   UNL     1     -12.127  10.529  71.226  1.00  0.00    -0.432 C  
ENDROOT
BRANCH  17  20
HETATM   20  O   UNL     1     -11.866   7.982  70.208  1.00  0.00    -0.024 OA 
BRANCH  20  21
HETATM   21  C   UNL     1     -11.822   6.751  70.915  1.00  0.00    -0.385 C  
HETATM   22  C   UNL     1     -11.216   7.035  72.277  1.00  0.00    -0.299 C  
ENDBRANCH  20  21
ENDBRANCH  17  20
TORSDOF 2
ENDMDL
MODEL       54
REMARK 921   NORMALIZED FREE ENERGY PREDICTED BY IDOCK:   -4.72 KCAL/MOL
REMARK 922        TOTAL FREE ENERGY PREDICTED BY IDOCK:   -5.50 KCAL/MOL
REMARK 923 INTER-LIGAND FREE ENERGY PREDICTED BY IDOCK:   -5.23 KCAL/MOL
REMARK 924 INTRA-LIGAND FREE ENERGY PREDICTED BY IDOCK:   -0.27 KCAL/MOL
REMARK 927      BINDING AFFINITY PREDICTED BY RF-SCORE:    0.00 PKD
ROOT
HETATM    1  C   UNL     1     -10.512   7.592  67.564  1.00  0.00    -0.336 C  
HETATM    2  C   UNL     1     -10.195   6.663  66.368  1.00  0.00    -0.027 C  
HETATM    3  C   UNL     1     -10.611   5.213  66.608  1.00  0.00    -0.295 C  
HETATM    4  C   UNL     1     -10.028   4.610  67.904  1.00  0.00    -0.138 C  
HETATM    5  C   UNL     1      -9.159   3.387  67.621  1.00  0.00    -0.204 C  
HETATM    6  C   UNL     1      -9.303   5.701  68.746  1.00  0.00    -0.145 C  
HETATM    7  C   UNL     1      -8.745   5.179  70.068  1.00  0.00    -0.123 C  
HETATM    8  C   UNL     1      -9.827   4.959  71.113  1.00  0.00    -0.261 C  
HETATM    9  C   UNL     1     -10.598   6.250  71.486  1.00  0.00    -0.237 C  
HETATM   10  C   UNL     1     -11.018   6.106  72.953  1.00  0.00    -0.294 C  
HETATM   11  O   UNL     1     -11.805   6.435  70.748  1.00  0.00    -0.361 OA 
HETATM   12  O   UNL     1     -11.556   6.326  69.312  1.00  0.00    -0.363 OA 
HETATM   13  C   UNL     1     -10.275   6.899  68.943  1.00  0.00    -0.177 C  
HETATM   14  C   UNL     1      -9.762   7.912  70.005  1.00  0.00    -0.179 C  
HETATM   15  O   UNL     1     -10.464   9.152  69.893  1.00  0.00    -0.206 OA 
HETATM   16  O   UNL     1      -9.787   7.419  71.357  1.00  0.00    -0.184 OA 
HETATM   17  C   UNL     1     -10.221   9.838  68.656  1.00  0.00    -0.190 C  
HETATM   18  C   UNL     1      -9.714   8.917  67.512  1.00  0.00    -0.216 C  
HETATM   19  C   UNL     1      -9.775   9.607  66.144  1.00  0.00    -0.317 C  
ENDROOT
BRANCH  17  20
HETATM   20  O   UNL     1     -11.424  10.447  68.186  1.00  0.00    -0.315 OA 
BRANCH  20  21
HETATM   21  C   UNL     1     -12.129  11.167  69.188  1.00  0.00    -0.283 C  
HETATM   22  C   UNL     1     -11.565  12.576  69.211  1.00  0.00    -0.378 C  
ENDBRANCH  20  21
ENDBRANCH  17  20
TORSDOF 2
ENDMDL
MODEL       55
REMARK 921   NORMALIZED FREE ENERGY PREDICTED BY IDOCK:   -4.71 KCAL/MOL
REMARK 922        TOTAL FREE ENERGY PREDICTED BY IDOCK:   -5.48 KCAL/MOL
REMARK 923 INTER-LIGAND FREE ENERGY PREDICTED BY IDOCK:   -5.01 KCAL/MOL
REMARK 924 INTRA-LIGAND FREE ENERGY PREDICTED BY IDOCK:   -0.48 KCAL/MOL
REMARK 927      BINDING AFFINITY PREDICTED BY RF-SCORE:    0.00 PKD
ROOT
HETATM    1  C   UNL     1     -10.122   7.533  68.752  1.00  0.00    -0.191 C  
HETATM    2  C   UNL     1     -10.451   8.897  68.101  1.00  0.00    -0.254 C  
HETATM    3  C   UNL     1     -10.234  10.080  69.044  1.00  0.00    -0.216 C  
HETATM    4  C   UNL     1     -10.990   9.948  70.384  1.00  0.00    -0.379 C  
HETATM    5  C   UNL     1     -11.974  11.095  70.596  1.00  0.00    -0.459 C  
HETATM    6  C   UNL     1     -11.644   8.541  70.514  1.00  0.00    -0.145 C  
HETATM    7  C   UNL     1     -12.368   8.327  71.841  1.00  0.00    -0.379 C  
HETATM    8  C   UNL     1     -11.410   8.092  72.999  1.00  0.00    -0.235 C  
HETATM    9  C   UNL     1     -10.521   6.835  72.821  1.00  0.00    -0.220 C  
HETATM   10  C   UNL     1     -10.243   6.287  74.224  1.00  0.00    -0.351 C  
HETATM   11  O   UNL     1      -9.244   7.108  72.245  1.00  0.00    -0.133 OA 
HETATM   12  O   UNL     1      -9.386   7.875  71.008  1.00  0.00    -0.150 OA 
HETATM   13  C   UNL     1     -10.553   7.464  70.252  1.00  0.00    -0.231 C  
HETATM   14  C   UNL     1     -11.026   6.033  70.638  1.00  0.00    -0.307 C  
HETATM   15  O   UNL     1     -10.172   5.049  70.051  1.00  0.00    -0.257 OA 
HETATM   16  O   UNL     1     -11.172   5.819  72.055  1.00  0.00    -0.265 OA 
HETATM   17  C   UNL     1     -10.227   5.025  68.618  1.00  0.00    -0.084 C  
HETATM   18  C   UNL     1     -10.747   6.345  67.983  1.00  0.00    -0.362 C  
HETATM   19  C   UNL     1     -10.491   6.400  66.472  1.00  0.00    -0.150 C  
ENDROOT
BRANCH  17  20
HETATM   20  O   UNL     1      -8.925   4.798  68.077  1.00  0.00    -0.106 OA 
BRANCH  20  21
HETATM   21  C   UNL     1      -7.938   4.524  69.061  1.00  0.00    -0.070 C  
HETATM   22  C   UNL     1      -6.897   5.625  68.974  1.00  0.00    -0.062 C  
ENDBRANCH  20  21
ENDBRANCH  17  20
TORSDOF 2
ENDMDL
MODEL       56
REMARK 921   NORMALIZED FREE ENERGY PREDICTED BY IDOCK:   -4.68 KCAL/MOL
REMARK 922        TOTAL FREE ENERGY PREDICTED BY IDOCK:   -5.45 KCAL/MOL
REMARK 923 INTER-LIGAND FREE ENERGY PREDICTED BY IDOCK:   -5.18 KCAL/MOL
REMARK 924 INTRA-LIGAND FREE ENERGY PREDICTED BY IDOCK:   -0.27 KCAL/MOL
REMARK 927      BINDING AFFINITY PREDICTED BY RF-SCORE:    0.00 PKD
ROOT
HETATM    1  C   UNL     1     -10.690   9.994  67.831  1.00  0.00    -0.322 C  
HETATM    2  C   UNL     1     -10.134  10.715  66.580  1.00  0.00    -0.275 C  
HETATM    3  C   UNL     1      -9.827   9.762  65.426  1.00  0.00    -0.365 C  
HETATM    4  C   UNL     1      -8.887   8.601  65.818  1.00  0.00    -0.231 C  
HETATM    5  C   UNL     1      -7.604   8.605  64.992  1.00  0.00    -0.098 C  
HETATM    6  C   UNL     1      -8.633   8.588  67.354  1.00  0.00    -0.127 C  
HETATM    7  C   UNL     1      -7.749   7.431  67.815  1.00  0.00    -0.112 C  
HETATM    8  C   UNL     1      -8.487   6.102  67.832  1.00  0.00    -0.116 C  
HETATM    9  C   UNL     1      -9.705   6.082  68.790  1.00  0.00    -0.131 C  
HETATM   10  C   UNL     1      -9.841   4.645  69.304  1.00  0.00    -0.260 C  
HETATM   11  O   UNL     1     -10.945   6.392  68.155  1.00  0.00    -0.290 OA 
HETATM   12  O   UNL     1     -10.844   7.640  67.402  1.00  0.00    -0.258 OA 
HETATM   13  C   UNL     1     -10.008   8.612  68.081  1.00  0.00    -0.178 C  
HETATM   14  C   UNL     1      -9.881   8.311  69.602  1.00  0.00    -0.184 C  
HETATM   15  O   UNL     1     -11.071   8.702  70.290  1.00  0.00    -0.247 OA 
HETATM   16  O   UNL     1      -9.523   6.951  69.910  1.00  0.00    -0.157 OA 
HETATM   17  C   UNL     1     -11.308  10.117  70.265  1.00  0.00    -0.315 C  
HETATM   18  C   UNL     1     -10.581  10.859  69.109  1.00  0.00    -0.253 C  
HETATM   19  C   UNL     1     -11.104  12.288  68.920  1.00  0.00    -0.291 C  
ENDROOT
BRANCH  17  20
HETATM   20  O   UNL     1     -12.702  10.381  70.105  1.00  0.00    -0.250 OA 
BRANCH  20  21
HETATM   21  C   UNL     1     -13.403  10.510  71.334  1.00  0.00    -0.246 C  
HETATM   22  C   UNL     1     -13.084  11.884  71.893  1.00  0.00    -0.474 C  
ENDBRANCH  20  21
ENDBRANCH  17  20
TORSDOF 2
ENDMDL
MODEL       57
REMARK 921   NORMALIZED FREE ENERGY PREDICTED BY IDOCK:   -4.64 KCAL/MOL
REMARK 922        TOTAL FREE ENERGY PREDICTED BY IDOCK:   -5.41 KCAL/MOL
REMARK 923 INTER-LIGAND FREE ENERGY PREDICTED BY IDOCK:   -5.15 KCAL/MOL
REMARK 924 INTRA-LIGAND FREE ENERGY PREDICTED BY IDOCK:   -0.26 KCAL/MOL
REMARK 927      BINDING AFFINITY PREDICTED BY RF-SCORE:    0.00 PKD
ROOT
HETATM    1  C   UNL     1      -8.555  15.027  68.219  1.00  0.00    -0.156 C  
HETATM    2  C   UNL     1      -8.320  16.517  68.562  1.00  0.00    -0.210 C  
HETATM    3  C   UNL     1      -9.605  17.344  68.556  1.00  0.00    -0.298 C  
HETATM    4  C   UNL     1     -10.404  17.233  67.240  1.00  0.00    -0.331 C  
HETATM    5  C   UNL     1     -10.573  18.591  66.562  1.00  0.00    -0.375 C  
HETATM    6  C   UNL     1      -9.787  16.151  66.306  1.00  0.00    -0.329 C  
HETATM    7  C   UNL     1     -10.561  15.956  65.005  1.00  0.00    -0.372 C  
HETATM    8  C   UNL     1     -11.855  15.182  65.204  1.00  0.00    -0.116 C  
HETATM    9  C   UNL     1     -11.640  13.751  65.760  1.00  0.00    -0.331 C  
HETATM   10  C   UNL     1     -12.768  12.883  65.194  1.00  0.00    -0.443 C  
HETATM   11  O   UNL     1     -11.749  13.661  67.180  1.00  0.00    -0.340 OA 
HETATM   12  O   UNL     1     -10.890  14.649  67.829  1.00  0.00    -0.258 OA 
HETATM   13  C   UNL     1      -9.641  14.829  67.114  1.00  0.00    -0.227 C  
HETATM   14  C   UNL     1      -9.308  13.612  66.206  1.00  0.00    -0.133 C  
HETATM   15  O   UNL     1      -8.820  12.521  66.990  1.00  0.00    -0.200 OA 
HETATM   16  O   UNL     1     -10.389  13.196  65.350  1.00  0.00    -0.291 OA 
HETATM   17  C   UNL     1      -7.565  12.792  67.630  1.00  0.00    -0.152 C  
HETATM   18  C   UNL     1      -7.253  14.306  67.794  1.00  0.00    -0.188 C  
HETATM   19  C   UNL     1      -6.083  14.555  68.752  1.00  0.00    -0.087 C  
ENDROOT
BRANCH  17  20
HETATM   20  O   UNL     1      -7.548  12.229  68.941  1.00  0.00    -0.081 OA 
BRANCH  20  21
HETATM   21  C   UNL     1      -6.946  10.943  69.003  1.00  0.00    -0.089 C  
HETATM   22  C   UNL     1      -6.103  10.901  70.265  1.00  0.00    -0.142 C  
ENDBRANCH  20  21
ENDBRANCH  17  20
TORSDOF 2
ENDMDL
MODEL       58
REMARK 921   NORMALIZED FREE ENERGY PREDICTED BY IDOCK:   -4.63 KCAL/MOL
REMARK 922        TOTAL FREE ENERGY PREDICTED BY IDOCK:   -5.40 KCAL/MOL
REMARK 923 INTER-LIGAND FREE ENERGY PREDICTED BY IDOCK:   -5.09 KCAL/MOL
REMARK 924 INTRA-LIGAND FREE ENERGY PREDICTED BY IDOCK:   -0.31 KCAL/MOL
REMARK 927      BINDING AFFINITY PREDICTED BY RF-SCORE:    0.00 PKD
ROOT
HETATM    1  C   UNL     1     -10.502   6.922  72.111  1.00  0.00    -0.230 C  
HETATM    2  C   UNL     1     -11.276   7.964  72.952  1.00  0.00    -0.429 C  
HETATM    3  C   UNL     1     -12.430   8.614  72.190  1.00  0.00    -0.453 C  
HETATM    4  C   UNL     1     -12.005   9.242  70.845  1.00  0.00    -0.321 C  
HETATM    5  C   UNL     1     -12.298  10.740  70.801  1.00  0.00    -0.480 C  
HETATM    6  C   UNL     1     -10.525   8.893  70.513  1.00  0.00    -0.257 C  
HETATM    7  C   UNL     1     -10.056   9.445  69.169  1.00  0.00    -0.200 C  
HETATM    8  C   UNL     1     -10.604   8.658  67.990  1.00  0.00    -0.205 C  
HETATM    9  C   UNL     1     -10.171   7.170  67.984  1.00  0.00    -0.185 C  
HETATM   10  C   UNL     1     -10.079   6.741  66.517  1.00  0.00    -0.136 C  
HETATM   11  O   UNL     1     -11.116   6.291  68.593  1.00  0.00    -0.334 OA 
HETATM   12  O   UNL     1     -11.480   6.764  69.927  1.00  0.00    -0.323 OA 
HETATM   13  C   UNL     1     -10.347   7.352  70.617  1.00  0.00    -0.212 C  
HETATM   14  C   UNL     1      -8.991   6.869  70.028  1.00  0.00    -0.142 C  
HETATM   15  O   UNL     1      -8.700   5.540  70.467  1.00  0.00    -0.130 OA 
HETATM   16  O   UNL     1      -8.893   6.979  68.596  1.00  0.00    -0.129 OA 
HETATM   17  C   UNL     1      -8.485   5.438  71.882  1.00  0.00    -0.127 C  
HETATM   18  C   UNL     1      -9.107   6.604  72.700  1.00  0.00    -0.140 C  
HETATM   19  C   UNL     1      -9.140   6.301  74.203  1.00  0.00    -0.157 C  
ENDROOT
BRANCH  17  20
HETATM   20  O   UNL     1      -9.064   4.234  72.383  1.00  0.00    -0.113 OA 
BRANCH  20  21
HETATM   21  C   UNL     1      -9.686   3.439  71.383  1.00  0.00    -0.164 C  
HETATM   22  C   UNL     1     -10.089   2.129  72.034  1.00  0.00    -0.219 C  
ENDBRANCH  20  21
ENDBRANCH  17  20
TORSDOF 2
ENDMDL
MODEL       59
REMARK 921   NORMALIZED FREE ENERGY PREDICTED BY IDOCK:   -4.62 KCAL/MOL
REMARK 922        TOTAL FREE ENERGY PREDICTED BY IDOCK:   -5.38 KCAL/MOL
REMARK 923 INTER-LIGAND FREE ENERGY PREDICTED BY IDOCK:   -5.03 KCAL/MOL
REMARK 924 INTRA-LIGAND FREE ENERGY PREDICTED BY IDOCK:   -0.36 KCAL/MOL
REMARK 927      BINDING AFFINITY PREDICTED BY RF-SCORE:    0.00 PKD
ROOT
HETATM    1  C   UNL     1     -10.058   7.533  71.704  1.00  0.00    -0.204 C  
HETATM    2  C   UNL     1     -10.531   8.927  72.179  1.00  0.00    -0.320 C  
HETATM    3  C   UNL     1     -11.686   9.483  71.347  1.00  0.00    -0.465 C  
HETATM    4  C   UNL     1     -11.392   9.522  69.832  1.00  0.00    -0.161 C  
HETATM    5  C   UNL     1     -11.470  10.940  69.274  1.00  0.00    -0.372 C  
HETATM    6  C   UNL     1     -10.048   8.805  69.509  1.00  0.00    -0.202 C  
HETATM    7  C   UNL     1      -9.723   8.764  68.018  1.00  0.00    -0.183 C  
HETATM    8  C   UNL     1     -10.557   7.741  67.265  1.00  0.00    -0.376 C  
HETATM    9  C   UNL     1     -10.349   6.287  67.760  1.00  0.00    -0.195 C  
HETATM   10  C   UNL     1     -10.552   5.373  66.547  1.00  0.00    -0.353 C  
HETATM   11  O   UNL     1     -11.303   5.866  68.734  1.00  0.00    -0.180 OA 
HETATM   12  O   UNL     1     -11.380   6.827  69.833  1.00  0.00    -0.315 OA 
HETATM   13  C   UNL     1     -10.080   7.388  70.149  1.00  0.00    -0.197 C  
HETATM   14  C   UNL     1      -8.917   6.484  69.649  1.00  0.00    -0.141 C  
HETATM   15  O   UNL     1      -8.754   5.356  70.511  1.00  0.00    -0.119 OA 
HETATM   16  O   UNL     1      -9.032   6.077  68.273  1.00  0.00    -0.115 OA 
HETATM   17  C   UNL     1      -8.336   5.705  71.839  1.00  0.00    -0.120 C  
HETATM   18  C   UNL     1      -8.647   7.176  72.232  1.00  0.00    -0.128 C  
HETATM   19  C   UNL     1      -8.486   7.417  73.738  1.00  0.00    -0.215 C  
ENDROOT
BRANCH  17  20
HETATM   20  O   UNL     1      -8.996   4.878  72.797  1.00  0.00    -0.123 OA 
BRANCH  20  21
HETATM   21  C   UNL     1     -10.126   4.191  72.278  1.00  0.00    -0.178 C  
HETATM   22  C   UNL     1     -11.281   4.441  73.229  1.00  0.00    -0.364 C  
ENDBRANCH  20  21
ENDBRANCH  17  20
TORSDOF 2
ENDMDL
MODEL       60
REMARK 921   NORMALIZED FREE ENERGY PREDICTED BY IDOCK:   -4.61 KCAL/MOL
REMARK 922        TOTAL FREE ENERGY PREDICTED BY IDOCK:   -5.37 KCAL/MOL
REMARK 923 INTER-LIGAND FREE ENERGY PREDICTED BY IDOCK:   -5.08 KCAL/MOL
REMARK 924 INTRA-LIGAND FREE ENERGY PREDICTED BY IDOCK:   -0.29 KCAL/MOL
REMARK 927      BINDING AFFINITY PREDICTED BY RF-SCORE:    0.00 PKD
ROOT
HETATM    1  C   UNL     1     -10.636   8.354  67.694  1.00  0.00    -0.265 C  
HETATM    2  C   UNL     1     -10.404   7.292  66.594  1.00  0.00    -0.229 C  
HETATM    3  C   UNL     1     -10.859   5.892  67.005  1.00  0.00    -0.379 C  
HETATM    4  C   UNL     1     -10.240   5.408  68.333  1.00  0.00    -0.229 C  
HETATM    5  C   UNL     1      -9.427   4.129  68.149  1.00  0.00    -0.215 C  
HETATM    6  C   UNL     1      -9.441   6.552  69.023  1.00  0.00    -0.130 C  
HETATM    7  C   UNL     1      -8.842   6.152  70.369  1.00  0.00    -0.149 C  
HETATM    8  C   UNL     1      -9.883   6.086  71.475  1.00  0.00    -0.197 C  
HETATM    9  C   UNL     1     -10.593   7.439  71.739  1.00  0.00    -0.201 C  
HETATM   10  C   UNL     1     -10.951   7.468  73.228  1.00  0.00    -0.362 C  
HETATM   11  O   UNL     1     -11.824   7.592  71.034  1.00  0.00    -0.292 OA 
HETATM   12  O   UNL     1     -11.643   7.322  69.609  1.00  0.00    -0.014 OA 
HETATM   13  C   UNL     1     -10.361   7.801  69.129  1.00  0.00    -0.215 C  
HETATM   14  C   UNL     1      -9.766   8.901  70.054  1.00  0.00    -0.174 C  
HETATM   15  O   UNL     1     -10.429  10.149  69.838  1.00  0.00    -0.251 OA 
HETATM   16  O   UNL     1      -9.748   8.555  71.452  1.00  0.00    -0.180 OA 
HETATM   17  C   UNL     1     -10.219  10.690  68.526  1.00  0.00    -0.175 C  
HETATM   18  C   UNL     1      -9.795   9.633  67.468  1.00  0.00    -0.213 C  
HETATM   19  C   UNL     1      -9.893  10.177  66.038  1.00  0.00    -0.308 C  
ENDROOT
BRANCH  17  20
HETATM   20  O   UNL     1     -11.419  11.292  68.043  1.00  0.00    -0.302 OA 
BRANCH  20  21
HETATM   21  C   UNL     1     -11.773  12.487  68.724  1.00  0.00    -0.327 C  
HETATM   22  C   UNL     1     -10.947  13.610  68.125  1.00  0.00    -0.273 C  
ENDBRANCH  20  21
ENDBRANCH  17  20
TORSDOF 2
ENDMDL
MODEL       61
REMARK 921   NORMALIZED FREE ENERGY PREDICTED BY IDOCK:   -4.58 KCAL/MOL
REMARK 922        TOTAL FREE ENERGY PREDICTED BY IDOCK:   -5.34 KCAL/MOL
REMARK 923 INTER-LIGAND FREE ENERGY PREDICTED BY IDOCK:   -4.87 KCAL/MOL
REMARK 924 INTRA-LIGAND FREE ENERGY PREDICTED BY IDOCK:   -0.46 KCAL/MOL
REMARK 927      BINDING AFFINITY PREDICTED BY RF-SCORE:    0.00 PKD
ROOT
HETATM    1  C   UNL     1      -9.186   5.331  70.182  1.00  0.00    -0.181 C  
HETATM    2  C   UNL     1      -9.018   4.066  71.056  1.00  0.00    -0.163 C  
HETATM    3  C   UNL     1     -10.240   3.770  71.925  1.00  0.00    -0.128 C  
HETATM    4  C   UNL     1     -10.670   4.960  72.810  1.00  0.00    -0.289 C  
HETATM    5  C   UNL     1     -10.629   4.609  74.295  1.00  0.00    -0.328 C  
HETATM    6  C   UNL     1      -9.854   6.238  72.456  1.00  0.00    -0.177 C  
HETATM    7  C   UNL     1     -10.266   7.467  73.262  1.00  0.00    -0.386 C  
HETATM    8  C   UNL     1     -11.582   8.063  72.789  1.00  0.00    -0.390 C  
HETATM    9  C   UNL     1     -11.550   8.544  71.316  1.00  0.00    -0.283 C  
HETATM   10  C   UNL     1     -12.509   9.734  71.218  1.00  0.00    -0.461 C  
HETATM   11  O   UNL     1     -12.026   7.576  70.382  1.00  0.00    -0.126 OA 
HETATM   12  O   UNL     1     -11.346   6.296  70.570  1.00  0.00    -0.337 OA 
HETATM   13  C   UNL     1      -9.950   6.475  70.921  1.00  0.00    -0.184 C  
HETATM   14  C   UNL     1      -9.417   7.874  70.501  1.00  0.00    -0.162 C  
HETATM   15  O   UNL     1      -9.174   7.914  69.094  1.00  0.00    -0.145 OA 
HETATM   16  O   UNL     1     -10.246   8.975  70.919  1.00  0.00    -0.215 OA 
HETATM   17  C   UNL     1      -8.123   7.034  68.669  1.00  0.00    -0.121 C  
HETATM   18  C   UNL     1      -7.834   5.872  69.659  1.00  0.00    -0.097 C  
HETATM   19  C   UNL     1      -6.949   4.787  69.034  1.00  0.00    -0.052 C  
ENDROOT
BRANCH  17  20
HETATM   20  O   UNL     1      -8.460   6.431  67.420  1.00  0.00    -0.109 OA 
BRANCH  20  21
HETATM   21  C   UNL     1      -9.632   6.968  66.824  1.00  0.00    -0.171 C  
HETATM   22  C   UNL     1     -10.680   5.870  66.820  1.00  0.00    -0.371 C  
ENDBRANCH  20  21
ENDBRANCH  17  20
TORSDOF 2
ENDMDL
MODEL       62
REMARK 921   NORMALIZED FREE ENERGY PREDICTED BY IDOCK:   -4.53 KCAL/MOL
REMARK 922        TOTAL FREE ENERGY PREDICTED BY IDOCK:   -5.29 KCAL/MOL
REMARK 923 INTER-LIGAND FREE ENERGY PREDICTED BY IDOCK:   -4.81 KCAL/MOL
REMARK 924 INTRA-LIGAND FREE ENERGY PREDICTED BY IDOCK:   -0.48 KCAL/MOL
REMARK 927      BINDING AFFINITY PREDICTED BY RF-SCORE:    0.00 PKD
ROOT
HETATM    1  C   UNL     1      -8.987   9.710  69.465  1.00  0.00    -0.203 C  
HETATM    2  C   UNL     1      -9.657   9.268  70.787  1.00  0.00    -0.341 C  
HETATM    3  C   UNL     1     -11.174   9.127  70.673  1.00  0.00    -0.322 C  
HETATM    4  C   UNL     1     -11.873  10.394  70.133  1.00  0.00    -0.379 C  
HETATM    5  C   UNL     1     -12.886  10.952  71.130  1.00  0.00    -0.508 C  
HETATM    6  C   UNL     1     -10.827  11.447  69.663  1.00  0.00    -0.107 C  
HETATM    7  C   UNL     1     -11.454  12.707  69.072  1.00  0.00    -0.354 C  
HETATM    8  C   UNL     1     -12.000  12.486  67.670  1.00  0.00    -0.287 C  
HETATM    9  C   UNL     1     -10.919  12.058  66.645  1.00  0.00    -0.287 C  
HETATM   10  C   UNL     1     -11.353  12.615  65.286  1.00  0.00    -0.350 C  
HETATM   11  O   UNL     1     -10.812  10.645  66.475  1.00  0.00    -0.199 OA 
HETATM   12  O   UNL     1     -10.657   9.977  67.766  1.00  0.00    -0.224 OA 
HETATM   13  C   UNL     1      -9.841  10.755  68.679  1.00  0.00    -0.184 C  
HETATM   14  C   UNL     1      -8.936  11.775  67.929  1.00  0.00    -0.180 C  
HETATM   15  O   UNL     1      -7.819  11.110  67.335  1.00  0.00    -0.113 OA 
HETATM   16  O   UNL     1      -9.632  12.589  66.966  1.00  0.00    -0.205 OA 
HETATM   17  C   UNL     1      -6.920  10.534  68.293  1.00  0.00    -0.073 C  
HETATM   18  C   UNL     1      -7.562  10.273  69.684  1.00  0.00    -0.167 C  
HETATM   19  C   UNL     1      -6.685   9.376  70.566  1.00  0.00    -0.087 C  
ENDROOT
BRANCH  17  20
HETATM   20  O   UNL     1      -6.441   9.274  67.823  1.00  0.00    -0.058 OA 
BRANCH  20  21
HETATM   21  C   UNL     1      -6.938   8.916  66.541  1.00  0.00    -0.080 C  
HETATM   22  C   UNL     1      -7.694   7.610  66.700  1.00  0.00    -0.098 C  
ENDBRANCH  20  21
ENDBRANCH  17  20
TORSDOF 2
ENDMDL
MODEL       63
REMARK 921   NORMALIZED FREE ENERGY PREDICTED BY IDOCK:   -4.52 KCAL/MOL
REMARK 922        TOTAL FREE ENERGY PREDICTED BY IDOCK:   -5.28 KCAL/MOL
REMARK 923 INTER-LIGAND FREE ENERGY PREDICTED BY IDOCK:   -5.00 KCAL/MOL
REMARK 924 INTRA-LIGAND FREE ENERGY PREDICTED BY IDOCK:   -0.28 KCAL/MOL
REMARK 927      BINDING AFFINITY PREDICTED BY RF-SCORE:    0.00 PKD
ROOT
HETATM    1  C   UNL     1      -8.035  13.593  67.657  1.00  0.00    -0.180 C  
HETATM    2  C   UNL     1      -7.331  12.254  67.980  1.00  0.00    -0.105 C  
HETATM    3  C   UNL     1      -7.693  11.135  67.005  1.00  0.00    -0.139 C  
HETATM    4  C   UNL     1      -9.214  10.904  66.868  1.00  0.00    -0.175 C  
HETATM    5  C   UNL     1      -9.611   9.485  67.266  1.00  0.00    -0.192 C  
HETATM    6  C   UNL     1     -10.012  12.004  67.628  1.00  0.00    -0.196 C  
HETATM    7  C   UNL     1     -11.526  11.861  67.491  1.00  0.00    -0.396 C  
HETATM    8  C   UNL     1     -12.035  12.302  66.128  1.00  0.00    -0.323 C  
HETATM    9  C   UNL     1     -11.743  13.791  65.810  1.00  0.00    -0.349 C  
HETATM   10  C   UNL     1     -12.883  14.284  64.914  1.00  0.00    -0.126 C  
HETATM   11  O   UNL     1     -10.541  13.998  65.068  1.00  0.00    -0.360 OA 
HETATM   12  O   UNL     1      -9.412  13.330  65.712  1.00  0.00    -0.111 OA 
HETATM   13  C   UNL     1      -9.502  13.396  67.159  1.00  0.00    -0.244 C  
HETATM   14  C   UNL     1     -10.421  14.557  67.634  1.00  0.00    -0.246 C  
HETATM   15  O   UNL     1      -9.745  15.811  67.516  1.00  0.00    -0.224 OA 
HETATM   16  O   UNL     1     -11.709  14.596  66.990  1.00  0.00    -0.377 OA 
HETATM   17  C   UNL     1      -8.608  15.932  68.382  1.00  0.00    -0.178 C  
HETATM   18  C   UNL     1      -8.028  14.570  68.857  1.00  0.00    -0.126 C  
HETATM   19  C   UNL     1      -6.646  14.724  69.504  1.00  0.00    -0.153 C  
ENDROOT
BRANCH  17  20
HETATM   20  O   UNL     1      -7.548  16.615  67.713  1.00  0.00    -0.153 OA 
BRANCH  20  21
HETATM   21  C   UNL     1      -7.817  16.884  66.345  1.00  0.00    -0.313 C  
HETATM   22  C   UNL     1      -6.900  18.016  65.920  1.00  0.00    -0.332 C  
ENDBRANCH  20  21
ENDBRANCH  17  20
TORSDOF 2
ENDMDL
MODEL       64
REMARK 921   NORMALIZED FREE ENERGY PREDICTED BY IDOCK:   -4.46 KCAL/MOL
REMARK 922        TOTAL FREE ENERGY PREDICTED BY IDOCK:   -5.20 KCAL/MOL
REMARK 923 INTER-LIGAND FREE ENERGY PREDICTED BY IDOCK:   -4.88 KCAL/MOL
REMARK 924 INTRA-LIGAND FREE ENERGY PREDICTED BY IDOCK:   -0.32 KCAL/MOL
REMARK 927      BINDING AFFINITY PREDICTED BY RF-SCORE:    0.00 PKD
ROOT
HETATM    1  C   UNL     1      -9.390   9.848  67.695  1.00  0.00    -0.156 C  
HETATM    2  C   UNL     1      -9.556  11.272  67.115  1.00  0.00    -0.194 C  
HETATM    3  C   UNL     1      -9.691  12.347  68.192  1.00  0.00    -0.214 C  
HETATM    4  C   UNL     1     -10.820  12.064  69.207  1.00  0.00    -0.130 C  
HETATM    5  C   UNL     1     -11.867  13.175  69.215  1.00  0.00    -0.377 C  
HETATM    6  C   UNL     1     -11.425  10.648  68.983  1.00  0.00    -0.342 C  
HETATM    7  C   UNL     1     -12.515  10.285  69.988  1.00  0.00    -0.112 C  
HETATM    8  C   UNL     1     -11.956   9.933  71.358  1.00  0.00    -0.489 C  
HETATM    9  C   UNL     1     -11.004   8.709  71.341  1.00  0.00    -0.271 C  
HETATM   10  C   UNL     1     -11.154   8.014  72.697  1.00  0.00    -0.453 C  
HETATM   11  O   UNL     1      -9.624   9.052  71.225  1.00  0.00    -0.260 OA 
HETATM   12  O   UNL     1      -9.406   9.947  70.090  1.00  0.00    -0.234 OA 
HETATM   13  C   UNL     1     -10.263   9.613  68.968  1.00  0.00    -0.199 C  
HETATM   14  C   UNL     1     -10.773   8.146  69.041  1.00  0.00    -0.080 C  
HETATM   15  O   UNL     1      -9.740   7.237  68.655  1.00  0.00    -0.144 OA 
HETATM   16  O   UNL     1     -11.343   7.778  70.311  1.00  0.00    -0.252 OA 
HETATM   17  C   UNL     1      -9.346   7.368  67.281  1.00  0.00    -0.133 C  
HETATM   18  C   UNL     1      -9.697   8.745  66.653  1.00  0.00    -0.309 C  
HETATM   19  C   UNL     1      -8.987   8.966  65.312  1.00  0.00    -0.213 C  
ENDROOT
BRANCH  17  20
HETATM   20  O   UNL     1      -7.933   7.210  67.156  1.00  0.00    -0.107 OA 
BRANCH  20  21
HETATM   21  C   UNL     1      -7.523   5.863  66.974  1.00  0.00    -0.084 C  
HETATM   22  C   UNL     1      -8.169   5.364  65.695  1.00  0.00    -0.124 C  
ENDBRANCH  20  21
ENDBRANCH  17  20
TORSDOF 2
ENDMDL
MODEL       65
REMARK 921   NORMALIZED FREE ENERGY PREDICTED BY IDOCK:   -4.43 KCAL/MOL
REMARK 922        TOTAL FREE ENERGY PREDICTED BY IDOCK:   -5.17 KCAL/MOL
REMARK 923 INTER-LIGAND FREE ENERGY PREDICTED BY IDOCK:   -4.97 KCAL/MOL
REMARK 924 INTRA-LIGAND FREE ENERGY PREDICTED BY IDOCK:   -0.20 KCAL/MOL
REMARK 927      BINDING AFFINITY PREDICTED BY RF-SCORE:    0.00 PKD
ROOT
HETATM    1  C   UNL     1      -9.606   9.471  68.806  1.00  0.00    -0.159 C  
HETATM    2  C   UNL     1      -8.271   8.699  68.688  1.00  0.00    -0.121 C  
HETATM    3  C   UNL     1      -8.357   7.268  69.217  1.00  0.00    -0.132 C  
HETATM    4  C   UNL     1      -8.885   7.175  70.665  1.00  0.00    -0.149 C  
HETATM    5  C   UNL     1      -7.870   6.521  71.599  1.00  0.00    -0.100 C  
HETATM    6  C   UNL     1      -9.376   8.565  71.165  1.00  0.00    -0.249 C  
HETATM    7  C   UNL     1      -9.958   8.533  72.577  1.00  0.00    -0.322 C  
HETATM    8  C   UNL     1     -11.349   7.920  72.622  1.00  0.00    -0.468 C  
HETATM    9  C   UNL     1     -12.394   8.692  71.776  1.00  0.00    -0.346 C  
HETATM   10  C   UNL     1     -13.745   8.517  72.476  1.00  0.00    -0.278 C  
HETATM   11  O   UNL     1     -12.563   8.175  70.457  1.00  0.00     0.215 OA 
HETATM   12  O   UNL     1     -11.274   8.050  69.779  1.00  0.00    -0.134 OA 
HETATM   13  C   UNL     1     -10.378   9.138  70.123  1.00  0.00    -0.213 C  
HETATM   14  C   UNL     1     -11.147  10.380  70.657  1.00  0.00    -0.204 C  
HETATM   15  O   UNL     1     -11.761  11.090  69.579  1.00  0.00    -0.271 OA 
HETATM   16  O   UNL     1     -12.098  10.087  71.698  1.00  0.00    -0.387 OA 
HETATM   17  C   UNL     1     -10.819  11.669  68.664  1.00  0.00    -0.213 C  
HETATM   18  C   UNL     1      -9.416  11.003  68.697  1.00  0.00    -0.197 C  
HETATM   19  C   UNL     1      -8.549  11.421  67.503  1.00  0.00    -0.137 C  
ENDROOT
BRANCH  17  20
HETATM   20  O   UNL     1     -11.296  11.548  67.324  1.00  0.00    -0.309 OA 
BRANCH  20  21
HETATM   21  C   UNL     1     -11.912  12.729  66.829  1.00  0.00    -0.319 C  
HETATM   22  C   UNL     1     -12.285  12.469  65.381  1.00  0.00    -0.475 C  
ENDBRANCH  20  21
ENDBRANCH  17  20
TORSDOF 2
ENDMDL
MODEL       66
REMARK 921   NORMALIZED FREE ENERGY PREDICTED BY IDOCK:   -4.41 KCAL/MOL
REMARK 922        TOTAL FREE ENERGY PREDICTED BY IDOCK:   -5.15 KCAL/MOL
REMARK 923 INTER-LIGAND FREE ENERGY PREDICTED BY IDOCK:   -4.88 KCAL/MOL
REMARK 924 INTRA-LIGAND FREE ENERGY PREDICTED BY IDOCK:   -0.27 KCAL/MOL
REMARK 927      BINDING AFFINITY PREDICTED BY RF-SCORE:    0.00 PKD
ROOT
HETATM    1  C   UNL     1      -8.587   6.723  70.864  1.00  0.00    -0.137 C  
HETATM    2  C   UNL     1      -7.320   7.368  70.254  1.00  0.00    -0.078 C  
HETATM    3  C   UNL     1      -7.186   8.854  70.581  1.00  0.00    -0.075 C  
HETATM    4  C   UNL     1      -8.429   9.685  70.197  1.00  0.00    -0.231 C  
HETATM    5  C   UNL     1      -8.090  10.781  69.189  1.00  0.00    -0.133 C  
HETATM    6  C   UNL     1      -9.593   8.761  69.735  1.00  0.00    -0.173 C  
HETATM    7  C   UNL     1     -10.871   9.519  69.387  1.00  0.00    -0.226 C  
HETATM    8  C   UNL     1     -11.619  10.002  70.619  1.00  0.00    -0.422 C  
HETATM    9  C   UNL     1     -12.077   8.854  71.555  1.00  0.00    -0.330 C  
HETATM   10  C   UNL     1     -13.375   9.319  72.223  1.00  0.00    -0.547 C  
HETATM   11  O   UNL     1     -11.165   8.576  72.616  1.00  0.00    -0.331 OA 
HETATM   12  O   UNL     1      -9.814   8.372  72.099  1.00  0.00    -0.243 OA 
HETATM   13  C   UNL     1      -9.824   7.677  70.826  1.00  0.00    -0.177 C  
HETATM   14  C   UNL     1     -11.143   6.883  70.605  1.00  0.00    -0.278 C  
HETATM   15  O   UNL     1     -11.139   5.681  71.379  1.00  0.00    -0.239 OA 
HETATM   16  O   UNL     1     -12.341   7.647  70.836  1.00  0.00    -0.244 OA 
HETATM   17  C   UNL     1     -10.132   4.742  70.973  1.00  0.00    -0.199 C  
HETATM   18  C   UNL     1      -8.954   5.381  70.187  1.00  0.00    -0.157 C  
HETATM   19  C   UNL     1      -7.762   4.425  70.054  1.00  0.00    -0.053 C  
ENDROOT
BRANCH  17  20
HETATM   20  O   UNL     1      -9.562   4.106  72.116  1.00  0.00    -0.133 OA 
BRANCH  20  21
HETATM   21  C   UNL     1     -10.193   4.457  73.339  1.00  0.00    -0.165 C  
HETATM   22  C   UNL     1     -11.033   3.268  73.770  1.00  0.00    -0.310 C  
ENDBRANCH  20  21
ENDBRANCH  17  20
TORSDOF 2
ENDMDL
MODEL       67
REMARK 921   NORMALIZED FREE ENERGY PREDICTED BY IDOCK:   -4.34 KCAL/MOL
REMARK 922        TOTAL FREE ENERGY PREDICTED BY IDOCK:   -5.07 KCAL/MOL
REMARK 923 INTER-LIGAND FREE ENERGY PREDICTED BY IDOCK:   -4.67 KCAL/MOL
REMARK 924 INTRA-LIGAND FREE ENERGY PREDICTED BY IDOCK:   -0.40 KCAL/MOL
REMARK 927      BINDING AFFINITY PREDICTED BY RF-SCORE:    0.00 PKD
ROOT
HETATM    1  C   UNL     1      -8.326   8.515  69.846  1.00  0.00    -0.123 C  
HETATM    2  C   UNL     1      -7.037   7.797  70.309  1.00  0.00    -0.050 C  
HETATM    3  C   UNL     1      -7.289   6.377  70.813  1.00  0.00    -0.076 C  
HETATM    4  C   UNL     1      -8.357   6.297  71.925  1.00  0.00    -0.117 C  
HETATM    5  C   UNL     1      -7.792   5.708  73.215  1.00  0.00    -0.106 C  
HETATM    6  C   UNL     1      -9.049   7.677  72.129  1.00  0.00    -0.180 C  
HETATM    7  C   UNL     1     -10.153   7.655  73.184  1.00  0.00    -0.382 C  
HETATM    8  C   UNL     1     -11.424   6.985  72.686  1.00  0.00    -0.250 C  
HETATM    9  C   UNL     1     -12.057   7.692  71.460  1.00  0.00    -0.310 C  
HETATM   10  C   UNL     1     -13.570   7.478  71.558  1.00  0.00    -0.439 C  
HETATM   11  O   UNL     1     -11.661   7.137  70.206  1.00  0.00    -0.277 OA 
HETATM   12  O   UNL     1     -10.205   7.050  70.114  1.00  0.00    -0.190 OA 
HETATM   13  C   UNL     1      -9.557   8.182  70.748  1.00  0.00    -0.166 C  
HETATM   14  C   UNL     1     -10.511   9.404  70.877  1.00  0.00    -0.310 C  
HETATM   15  O   UNL     1     -10.654  10.061  69.615  1.00  0.00    -0.217 OA 
HETATM   16  O   UNL     1     -11.794   9.097  71.453  1.00  0.00    -0.298 OA 
HETATM   17  C   UNL     1      -9.439  10.657  69.139  1.00  0.00    -0.170 C  
HETATM   18  C   UNL     1      -8.152  10.051  69.764  1.00  0.00    -0.188 C  
HETATM   19  C   UNL     1      -6.887  10.476  69.008  1.00  0.00    -0.068 C  
ENDROOT
BRANCH  17  20
HETATM   20  O   UNL     1      -9.326  10.485  67.726  1.00  0.00    -0.147 OA 
BRANCH  20  21
HETATM   21  C   UNL     1     -10.416   9.781  67.148  1.00  0.00    -0.250 C  
HETATM   22  C   UNL     1      -9.913   8.398  66.777  1.00  0.00    -0.354 C  
ENDBRANCH  20  21
ENDBRANCH  17  20
TORSDOF 2
ENDMDL
MODEL       68
REMARK 921   NORMALIZED FREE ENERGY PREDICTED BY IDOCK:   -4.25 KCAL/MOL
REMARK 922        TOTAL FREE ENERGY PREDICTED BY IDOCK:   -4.97 KCAL/MOL
REMARK 923 INTER-LIGAND FREE ENERGY PREDICTED BY IDOCK:   -4.69 KCAL/MOL
REMARK 924 INTRA-LIGAND FREE ENERGY PREDICTED BY IDOCK:   -0.28 KCAL/MOL
REMARK 927      BINDING AFFINITY PREDICTED BY RF-SCORE:    0.00 PKD
ROOT
HETATM    1  C   UNL     1      -9.436   8.142  67.932  1.00  0.00    -0.162 C  
HETATM    2  C   UNL     1      -9.018   7.325  66.687  1.00  0.00    -0.170 C  
HETATM    3  C   UNL     1      -8.152   8.119  65.710  1.00  0.00    -0.115 C  
HETATM    4  C   UNL     1      -8.790   9.453  65.266  1.00  0.00    -0.227 C  
HETATM    5  C   UNL     1      -8.995   9.510  63.754  1.00  0.00    -0.211 C  
HETATM    6  C   UNL     1     -10.088   9.745  66.075  1.00  0.00    -0.322 C  
HETATM    7  C   UNL     1     -10.743  11.077  65.718  1.00  0.00    -0.216 C  
HETATM    8  C   UNL     1     -10.000  12.269  66.301  1.00  0.00    -0.249 C  
HETATM    9  C   UNL     1      -9.932  12.258  67.850  1.00  0.00    -0.202 C  
HETATM   10  C   UNL     1      -9.917  13.722  68.302  1.00  0.00    -0.243 C  
HETATM   11  O   UNL     1      -8.740  11.673  68.371  1.00  0.00    -0.158 OA 
HETATM   12  O   UNL     1      -8.514  10.351  67.791  1.00  0.00    -0.114 OA 
HETATM   13  C   UNL     1      -9.759   9.632  67.591  1.00  0.00    -0.149 C  
HETATM   14  C   UNL     1     -10.902  10.183  68.490  1.00  0.00    -0.237 C  
HETATM   15  O   UNL     1     -10.739   9.733  69.837  1.00  0.00    -0.231 OA 
HETATM   16  O   UNL     1     -11.065  11.612  68.434  1.00  0.00    -0.200 OA 
HETATM   17  C   UNL     1     -10.875   8.312  69.987  1.00  0.00    -0.232 C  
HETATM   18  C   UNL     1     -10.640   7.514  68.675  1.00  0.00    -0.171 C  
HETATM   19  C   UNL     1     -10.475   6.012  68.934  1.00  0.00    -0.309 C  
ENDROOT
BRANCH  17  20
HETATM   20  O   UNL     1      -9.927   7.824  70.936  1.00  0.00    -0.183 OA 
BRANCH  20  21
HETATM   21  C   UNL     1     -10.256   8.134  72.283  1.00  0.00    -0.278 C  
HETATM   22  C   UNL     1     -10.952   6.918  72.868  1.00  0.00    -0.315 C  
ENDBRANCH  20  21
ENDBRANCH  17  20
TORSDOF 2
ENDMDL
MODEL       69
REMARK 921   NORMALIZED FREE ENERGY PREDICTED BY IDOCK:   -4.24 KCAL/MOL
REMARK 922        TOTAL FREE ENERGY PREDICTED BY IDOCK:   -4.96 KCAL/MOL
REMARK 923 INTER-LIGAND FREE ENERGY PREDICTED BY IDOCK:   -4.66 KCAL/MOL
REMARK 924 INTRA-LIGAND FREE ENERGY PREDICTED BY IDOCK:   -0.31 KCAL/MOL
REMARK 927      BINDING AFFINITY PREDICTED BY RF-SCORE:    0.00 PKD
ROOT
HETATM    1  C   UNL     1      -9.104   7.638  67.859  1.00  0.00    -0.134 C  
HETATM    2  C   UNL     1      -9.384   6.253  68.488  1.00  0.00    -0.121 C  
HETATM    3  C   UNL     1     -10.819   6.101  68.990  1.00  0.00    -0.416 C  
HETATM    4  C   UNL     1     -11.251   7.214  69.969  1.00  0.00    -0.271 C  
HETATM    5  C   UNL     1     -11.652   6.650  71.329  1.00  0.00    -0.374 C  
HETATM    6  C   UNL     1     -10.166   8.326  70.058  1.00  0.00    -0.202 C  
HETATM    7  C   UNL     1     -10.554   9.484  70.974  1.00  0.00    -0.392 C  
HETATM    8  C   UNL     1     -11.584  10.409  70.344  1.00  0.00    -0.423 C  
HETATM    9  C   UNL     1     -11.093  11.081  69.036  1.00  0.00    -0.244 C  
HETATM   10  C   UNL     1     -11.777  12.449  68.958  1.00  0.00    -0.372 C  
HETATM   11  O   UNL     1     -11.473  10.382  67.851  1.00  0.00    -0.392 OA 
HETATM   12  O   UNL     1     -11.093   8.974  67.935  1.00  0.00    -0.035 OA 
HETATM   13  C   UNL     1      -9.824   8.798  68.616  1.00  0.00    -0.168 C  
HETATM   14  C   UNL     1      -8.970  10.098  68.602  1.00  0.00    -0.136 C  
HETATM   15  O   UNL     1      -8.372  10.290  67.319  1.00  0.00    -0.121 OA 
HETATM   16  O   UNL     1      -9.678  11.278  69.029  1.00  0.00    -0.160 OA 
HETATM   17  C   UNL     1      -7.414   9.278  66.977  1.00  0.00    -0.091 C  
HETATM   18  C   UNL     1      -7.591   7.950  67.764  1.00  0.00    -0.109 C  
HETATM   19  C   UNL     1      -6.774   6.804  67.155  1.00  0.00    -0.059 C  
ENDROOT
BRANCH  17  20
HETATM   20  O   UNL     1      -7.518   8.948  65.592  1.00  0.00    -0.084 OA 
BRANCH  20  21
HETATM   21  C   UNL     1      -8.158   9.949  64.813  1.00  0.00    -0.151 C  
HETATM   22  C   UNL     1      -8.644   9.285  63.538  1.00  0.00    -0.201 C  
ENDBRANCH  20  21
ENDBRANCH  17  20
TORSDOF 2
ENDMDL
MODEL       70
REMARK 921   NORMALIZED FREE ENERGY PREDICTED BY IDOCK:   -4.24 KCAL/MOL
REMARK 922        TOTAL FREE ENERGY PREDICTED BY IDOCK:   -4.96 KCAL/MOL
REMARK 923 INTER-LIGAND FREE ENERGY PREDICTED BY IDOCK:   -4.58 KCAL/MOL
REMARK 924 INTRA-LIGAND FREE ENERGY PREDICTED BY IDOCK:   -0.38 KCAL/MOL
REMARK 927      BINDING AFFINITY PREDICTED BY RF-SCORE:    0.00 PKD
ROOT
HETATM    1  C   UNL     1      -9.824  16.728  68.252  1.00  0.00    -0.257 C  
HETATM    2  C   UNL     1     -10.717  17.534  69.225  1.00  0.00     0.136 C  
HETATM    3  C   UNL     1     -11.017  16.787  70.523  1.00  0.00     0.202 C  
HETATM    4  C   UNL     1     -11.623  15.384  70.301  1.00  0.00    -0.346 C  
HETATM    5  C   UNL     1     -13.002  15.254  70.943  1.00  0.00    -0.522 C  
HETATM    6  C   UNL     1     -11.608  15.006  68.791  1.00  0.00    -0.357 C  
HETATM    7  C   UNL     1     -12.150  13.607  68.508  1.00  0.00    -0.321 C  
HETATM    8  C   UNL     1     -11.168  12.511  68.889  1.00  0.00    -0.330 C  
HETATM    9  C   UNL     1      -9.827  12.584  68.115  1.00  0.00    -0.221 C  
HETATM   10  C   UNL     1      -9.321  11.145  67.969  1.00  0.00    -0.166 C  
HETATM   11  O   UNL     1      -8.800  13.294  68.806  1.00  0.00    -0.021 OA 
HETATM   12  O   UNL     1      -9.275  14.610  69.230  1.00  0.00    -0.098 OA 
HETATM   13  C   UNL     1     -10.163  15.204  68.249  1.00  0.00    -0.223 C  
HETATM   14  C   UNL     1      -9.969  14.584  66.836  1.00  0.00    -0.259 C  
HETATM   15  O   UNL     1      -8.783  15.096  66.224  1.00  0.00    -0.251 OA 
HETATM   16  O   UNL     1      -9.989  13.145  66.811  1.00  0.00    -0.239 OA 
HETATM   17  C   UNL     1      -8.842  16.503  65.948  1.00  0.00    -0.113 C  
HETATM   18  C   UNL     1      -9.888  17.271  66.804  1.00  0.00    -0.296 C  
HETATM   19  C   UNL     1      -9.702  18.790  66.718  1.00  0.00    -0.355 C  
ENDROOT
BRANCH  17  20
HETATM   20  O   UNL     1      -7.577  17.111  66.209  1.00  0.00    -0.283 OA 
BRANCH  20  21
HETATM   21  C   UNL     1      -6.691  16.288  66.953  1.00  0.00    -0.130 C  
HETATM   22  C   UNL     1      -6.087  17.149  68.047  1.00  0.00    -0.135 C  
ENDBRANCH  20  21
ENDBRANCH  17  20
TORSDOF 2
ENDMDL
MODEL       71
REMARK 921   NORMALIZED FREE ENERGY PREDICTED BY IDOCK:   -4.20 KCAL/MOL
REMARK 922        TOTAL FREE ENERGY PREDICTED BY IDOCK:   -4.92 KCAL/MOL
REMARK 923 INTER-LIGAND FREE ENERGY PREDICTED BY IDOCK:   -4.65 KCAL/MOL
REMARK 924 INTRA-LIGAND FREE ENERGY PREDICTED BY IDOCK:   -0.27 KCAL/MOL
REMARK 927      BINDING AFFINITY PREDICTED BY RF-SCORE:    0.00 PKD
ROOT
HETATM    1  C   UNL     1      -9.591   5.648  71.557  1.00  0.00    -0.184 C  
HETATM    2  C   UNL     1      -8.541   4.619  72.039  1.00  0.00    -0.124 C  
HETATM    3  C   UNL     1      -7.218   4.713  71.282  1.00  0.00    -0.052 C  
HETATM    4  C   UNL     1      -7.376   4.615  69.749  1.00  0.00    -0.054 C  
HETATM    5  C   UNL     1      -6.607   3.429  69.173  1.00  0.00    -0.034 C  
HETATM    6  C   UNL     1      -8.879   4.631  69.345  1.00  0.00    -0.124 C  
HETATM    7  C   UNL     1      -9.104   4.587  67.835  1.00  0.00    -0.147 C  
HETATM    8  C   UNL     1      -8.813   5.918  67.161  1.00  0.00    -0.107 C  
HETATM    9  C   UNL     1      -9.710   7.077  67.666  1.00  0.00    -0.136 C  
HETATM   10  C   UNL     1      -9.897   8.037  66.487  1.00  0.00    -0.289 C  
HETATM   11  O   UNL     1      -9.122   7.848  68.713  1.00  0.00    -0.141 OA 
HETATM   12  O   UNL     1      -8.660   6.983  69.797  1.00  0.00    -0.139 OA 
HETATM   13  C   UNL     1      -9.556   5.863  70.010  1.00  0.00    -0.163 C  
HETATM   14  C   UNL     1     -10.979   6.137  69.445  1.00  0.00    -0.385 C  
HETATM   15  O   UNL     1     -11.701   7.013  70.314  1.00  0.00    -0.295 OA 
HETATM   16  O   UNL     1     -10.995   6.617  68.088  1.00  0.00    -0.260 OA 
HETATM   17  C   UNL     1     -11.976   6.443  71.602  1.00  0.00    -0.291 C  
HETATM   18  C   UNL     1     -11.029   5.274  71.990  1.00  0.00    -0.196 C  
HETATM   19  C   UNL     1     -11.138   4.911  73.476  1.00  0.00    -0.405 C  
ENDROOT
BRANCH  17  20
HETATM   20  O   UNL     1     -11.838   7.435  72.619  1.00  0.00    -0.237 OA 
BRANCH  20  21
HETATM   21  C   UNL     1     -11.937   8.767  72.135  1.00  0.00    -0.366 C  
HETATM   22  C   UNL     1     -13.348   9.247  72.422  1.00  0.00    -0.521 C  
ENDBRANCH  20  21
ENDBRANCH  17  20
TORSDOF 2
ENDMDL
MODEL       72
REMARK 921   NORMALIZED FREE ENERGY PREDICTED BY IDOCK:   -4.20 KCAL/MOL
REMARK 922        TOTAL FREE ENERGY PREDICTED BY IDOCK:   -4.91 KCAL/MOL
REMARK 923 INTER-LIGAND FREE ENERGY PREDICTED BY IDOCK:   -4.47 KCAL/MOL
REMARK 924 INTRA-LIGAND FREE ENERGY PREDICTED BY IDOCK:   -0.45 KCAL/MOL
REMARK 927      BINDING AFFINITY PREDICTED BY RF-SCORE:    0.00 PKD
ROOT
HETATM    1  C   UNL     1      -9.664   5.780  69.243  1.00  0.00    -0.188 C  
HETATM    2  C   UNL     1     -10.354   5.365  70.564  1.00  0.00    -0.344 C  
HETATM    3  C   UNL     1     -11.536   6.261  70.932  1.00  0.00    -0.377 C  
HETATM    4  C   UNL     1     -11.179   7.763  70.980  1.00  0.00    -0.282 C  
HETATM    5  C   UNL     1     -11.433   8.363  72.361  1.00  0.00    -0.451 C  
HETATM    6  C   UNL     1      -9.733   8.007  70.458  1.00  0.00    -0.179 C  
HETATM    7  C   UNL     1      -9.335   9.481  70.433  1.00  0.00    -0.311 C  
HETATM    8  C   UNL     1      -9.979  10.241  69.284  1.00  0.00    -0.244 C  
HETATM    9  C   UNL     1      -9.589   9.698  67.886  1.00  0.00    -0.139 C  
HETATM   10  C   UNL     1      -9.602  10.892  66.927  1.00  0.00    -0.203 C  
HETATM   11  O   UNL     1     -10.517   8.755  67.353  1.00  0.00    -0.261 OA 
HETATM   12  O   UNL     1     -10.782   7.687  68.316  1.00  0.00    -0.155 OA 
HETATM   13  C   UNL     1      -9.592   7.330  69.064  1.00  0.00    -0.147 C  
HETATM   14  C   UNL     1      -8.290   7.754  68.327  1.00  0.00    -0.125 C  
HETATM   15  O   UNL     1      -8.009   6.855  67.252  1.00  0.00    -0.111 OA 
HETATM   16  O   UNL     1      -8.281   9.122  67.879  1.00  0.00    -0.111 OA 
HETATM   17  C   UNL     1      -7.708   5.521  67.685  1.00  0.00    -0.093 C  
HETATM   18  C   UNL     1      -8.244   5.181  69.104  1.00  0.00    -0.084 C  
HETATM   19  C   UNL     1      -8.190   3.677  69.398  1.00  0.00    -0.068 C  
ENDROOT
BRANCH  17  20
HETATM   20  O   UNL     1      -8.287   4.570  66.792  1.00  0.00    -0.106 OA 
BRANCH  20  21
HETATM   21  C   UNL     1      -9.041   5.158  65.742  1.00  0.00    -0.156 C  
HETATM   22  C   UNL     1     -10.492   4.771  65.958  1.00  0.00    -0.332 C  
ENDBRANCH  20  21
ENDBRANCH  17  20
TORSDOF 2
ENDMDL
MODEL       73
REMARK 921   NORMALIZED FREE ENERGY PREDICTED BY IDOCK:   -4.15 KCAL/MOL
REMARK 922        TOTAL FREE ENERGY PREDICTED BY IDOCK:   -4.86 KCAL/MOL
REMARK 923 INTER-LIGAND FREE ENERGY PREDICTED BY IDOCK:   -4.66 KCAL/MOL
REMARK 924 INTRA-LIGAND FREE ENERGY PREDICTED BY IDOCK:   -0.20 KCAL/MOL
REMARK 927      BINDING AFFINITY PREDICTED BY RF-SCORE:    0.00 PKD
ROOT
HETATM    1  C   UNL     1      -9.442   6.137  68.463  1.00  0.00    -0.121 C  
HETATM    2  C   UNL     1      -8.748   4.760  68.593  1.00  0.00    -0.111 C  
HETATM    3  C   UNL     1      -9.510   3.787  69.491  1.00  0.00    -0.257 C  
HETATM    4  C   UNL     1      -9.813   4.351  70.895  1.00  0.00    -0.266 C  
HETATM    5  C   UNL     1      -9.189   3.498  71.997  1.00  0.00    -0.171 C  
HETATM    6  C   UNL     1      -9.423   5.855  70.985  1.00  0.00    -0.189 C  
HETATM    7  C   UNL     1      -9.744   6.488  72.337  1.00  0.00    -0.158 C  
HETATM    8  C   UNL     1     -11.228   6.767  72.515  1.00  0.00    -0.305 C  
HETATM    9  C   UNL     1     -11.803   7.751  71.465  1.00  0.00    -0.293 C  
HETATM   10  C   UNL     1     -12.937   8.518  72.153  1.00  0.00    -0.403 C  
HETATM   11  O   UNL     1     -12.391   7.110  70.334  1.00  0.00    -0.140 OA 
HETATM   12  O   UNL     1     -11.466   6.143  69.747  1.00  0.00    -0.433 OA 
HETATM   13  C   UNL     1     -10.094   6.610  69.801  1.00  0.00    -0.182 C  
HETATM   14  C   UNL     1     -10.009   8.155  69.957  1.00  0.00    -0.192 C  
HETATM   15  O   UNL     1     -10.287   8.799  68.711  1.00  0.00    -0.210 OA 
HETATM   16  O   UNL     1     -10.825   8.690  71.015  1.00  0.00    -0.227 OA 
HETATM   17  C   UNL     1      -9.310   8.528  67.696  1.00  0.00    -0.137 C  
HETATM   18  C   UNL     1      -8.483   7.236  67.944  1.00  0.00    -0.118 C  
HETATM   19  C   UNL     1      -7.690   6.810  66.702  1.00  0.00    -0.105 C  
ENDROOT
BRANCH  17  20
HETATM   20  O   UNL     1      -9.947   8.368  66.429  1.00  0.00    -0.263 OA 
BRANCH  20  21
HETATM   21  C   UNL     1      -9.974   9.554  65.649  1.00  0.00    -0.199 C  
HETATM   22  C   UNL     1      -8.592   9.728  65.045  1.00  0.00    -0.178 C  
ENDBRANCH  20  21
ENDBRANCH  17  20
TORSDOF 2
ENDMDL
MODEL       74
REMARK 921   NORMALIZED FREE ENERGY PREDICTED BY IDOCK:   -4.14 KCAL/MOL
REMARK 922        TOTAL FREE ENERGY PREDICTED BY IDOCK:   -4.85 KCAL/MOL
REMARK 923 INTER-LIGAND FREE ENERGY PREDICTED BY IDOCK:   -4.62 KCAL/MOL
REMARK 924 INTRA-LIGAND FREE ENERGY PREDICTED BY IDOCK:   -0.23 KCAL/MOL
REMARK 927      BINDING AFFINITY PREDICTED BY RF-SCORE:    0.00 PKD
ROOT
HETATM    1  C   UNL     1      -9.775  13.042  67.820  1.00  0.00    -0.218 C  
HETATM    2  C   UNL     1      -8.677  13.435  66.803  1.00  0.00    -0.093 C  
HETATM    3  C   UNL     1      -7.761  14.549  67.310  1.00  0.00    -0.177 C  
HETATM    4  C   UNL     1      -8.522  15.811  67.770  1.00  0.00    -0.162 C  
HETATM    5  C   UNL     1      -8.111  17.045  66.969  1.00  0.00    -0.234 C  
HETATM    6  C   UNL     1     -10.059  15.563  67.774  1.00  0.00    -0.232 C  
HETATM    7  C   UNL     1     -10.868  16.760  68.267  1.00  0.00    -0.366 C  
HETATM    8  C   UNL     1     -10.797  16.931  69.776  1.00  0.00    -0.041 C  
HETATM    9  C   UNL     1     -11.355  15.719  70.564  1.00  0.00    -0.380 C  
HETATM   10  C   UNL     1     -11.944  16.270  71.866  1.00  0.00    -0.513 C  
HETATM   11  O   UNL     1     -10.359  14.774  70.951  1.00  0.00     0.364 OA 
HETATM   12  O   UNL     1      -9.551  14.372  69.802  1.00  0.00     0.347 OA 
HETATM   13  C   UNL     1     -10.347  14.272  68.593  1.00  0.00    -0.246 C  
HETATM   14  C   UNL     1     -11.860  14.091  68.904  1.00  0.00    -0.355 C  
HETATM   15  O   UNL     1     -12.129  12.749  69.314  1.00  0.00    -0.262 OA 
HETATM   16  O   UNL     1     -12.390  15.041  69.847  1.00  0.00    -0.312 OA 
HETATM   17  C   UNL     1     -11.898  11.778  68.283  1.00  0.00    -0.271 C  
HETATM   18  C   UNL     1     -10.939  12.264  67.161  1.00  0.00    -0.308 C  
HETATM   19  C   UNL     1     -10.467  11.112  66.266  1.00  0.00    -0.312 C  
ENDROOT
BRANCH  17  20
HETATM   20  O   UNL     1     -11.314  10.599  68.838  1.00  0.00    -0.249 OA 
BRANCH  20  21
HETATM   21  C   UNL     1     -10.931  10.737  70.199  1.00  0.00    -0.159 C  
HETATM   22  C   UNL     1     -11.806   9.799  71.010  1.00  0.00    -0.442 C  
ENDBRANCH  20  21
ENDBRANCH  17  20
TORSDOF 2
ENDMDL
MODEL       75
REMARK 921   NORMALIZED FREE ENERGY PREDICTED BY IDOCK:   -4.12 KCAL/MOL
REMARK 922        TOTAL FREE ENERGY PREDICTED BY IDOCK:   -4.83 KCAL/MOL
REMARK 923 INTER-LIGAND FREE ENERGY PREDICTED BY IDOCK:   -4.53 KCAL/MOL
REMARK 924 INTRA-LIGAND FREE ENERGY PREDICTED BY IDOCK:   -0.30 KCAL/MOL
REMARK 927      BINDING AFFINITY PREDICTED BY RF-SCORE:    0.00 PKD
ROOT
HETATM    1  C   UNL     1      -9.974  12.491  67.921  1.00  0.00    -0.212 C  
HETATM    2  C   UNL     1     -11.243  12.387  68.800  1.00  0.00    -0.318 C  
HETATM    3  C   UNL     1     -12.167  13.597  68.664  1.00  0.00    -0.189 C  
HETATM    4  C   UNL     1     -11.462  14.945  68.926  1.00  0.00    -0.320 C  
HETATM    5  C   UNL     1     -12.097  15.701  70.090  1.00  0.00    -0.400 C  
HETATM    6  C   UNL     1      -9.926  14.746  69.085  1.00  0.00    -0.184 C  
HETATM    7  C   UNL     1      -9.161  16.050  69.298  1.00  0.00    -0.243 C  
HETATM    8  C   UNL     1      -9.018  16.860  68.019  1.00  0.00    -0.224 C  
HETATM    9  C   UNL     1      -8.242  16.119  66.901  1.00  0.00    -0.238 C  
HETATM   10  C   UNL     1      -7.516  17.190  66.082  1.00  0.00    -0.295 C  
HETATM   11  O   UNL     1      -9.081  15.421  65.981  1.00  0.00    -0.322 OA 
HETATM   12  O   UNL     1     -10.014  14.548  66.689  1.00  0.00    -0.255 OA 
HETATM   13  C   UNL     1      -9.404  13.944  67.859  1.00  0.00    -0.208 C  
HETATM   14  C   UNL     1      -7.851  13.939  67.769  1.00  0.00    -0.168 C  
HETATM   15  O   UNL     1      -7.405  12.913  66.880  1.00  0.00     0.048 OA 
HETATM   16  O   UNL     1      -7.272  15.212  67.429  1.00  0.00    -0.190 OA 
HETATM   17  C   UNL     1      -7.700  11.587  67.342  1.00  0.00    -0.143 C  
HETATM   18  C   UNL     1      -8.857  11.522  68.378  1.00  0.00    -0.163 C  
HETATM   19  C   UNL     1      -9.354  10.088  68.600  1.00  0.00    -0.156 C  
ENDROOT
BRANCH  17  20
HETATM   20  O   UNL     1      -8.087  10.758  66.246  1.00  0.00    -0.149 OA 
BRANCH  20  21
HETATM   21  C   UNL     1      -6.990  10.221  65.521  1.00  0.00    -0.138 C  
HETATM   22  C   UNL     1      -6.560   8.950  66.230  1.00  0.00    -0.066 C  
ENDBRANCH  20  21
ENDBRANCH  17  20
TORSDOF 2
ENDMDL
MODEL       76
REMARK 921   NORMALIZED FREE ENERGY PREDICTED BY IDOCK:   -4.12 KCAL/MOL
REMARK 922        TOTAL FREE ENERGY PREDICTED BY IDOCK:   -4.83 KCAL/MOL
REMARK 923 INTER-LIGAND FREE ENERGY PREDICTED BY IDOCK:   -4.47 KCAL/MOL
REMARK 924 INTRA-LIGAND FREE ENERGY PREDICTED BY IDOCK:   -0.36 KCAL/MOL
REMARK 927      BINDING AFFINITY PREDICTED BY RF-SCORE:    0.00 PKD
ROOT
HETATM    1  C   UNL     1      -7.533  15.118  67.963  1.00  0.00    -0.128 C  
HETATM    2  C   UNL     1      -7.877  13.628  67.728  1.00  0.00    -0.172 C  
HETATM    3  C   UNL     1      -8.962  13.422  66.671  1.00  0.00    -0.135 C  
HETATM    4  C   UNL     1     -10.255  14.217  66.952  1.00  0.00    -0.267 C  
HETATM    5  C   UNL     1     -11.465  13.298  67.101  1.00  0.00    -0.380 C  
HETATM    6  C   UNL     1     -10.062  15.183  68.158  1.00  0.00    -0.222 C  
HETATM    7  C   UNL     1     -11.292  16.036  68.458  1.00  0.00    -0.382 C  
HETATM    8  C   UNL     1     -11.476  17.168  67.460  1.00  0.00     0.566 C  
HETATM    9  C   UNL     1     -10.292  18.168  67.434  1.00  0.00    -0.389 C  
HETATM   10  C   UNL     1     -10.877  19.537  67.072  1.00  0.00    -0.542 C  
HETATM   11  O   UNL     1      -9.316  17.881  66.434  1.00  0.00    -0.300 OA 
HETATM   12  O   UNL     1      -8.874  16.490  66.525  1.00  0.00    -0.231 OA 
HETATM   13  C   UNL     1      -8.791  16.042  67.902  1.00  0.00    -0.180 C  
HETATM   14  C   UNL     1      -8.668  17.231  68.897  1.00  0.00    -0.172 C  
HETATM   15  O   UNL     1      -7.340  17.760  68.882  1.00  0.00    -0.269 OA 
HETATM   16  O   UNL     1      -9.645  18.270  68.704  1.00  0.00    -0.321 OA 
HETATM   17  C   UNL     1      -6.351  16.839  69.365  1.00  0.00    -0.222 C  
HETATM   18  C   UNL     1      -6.791  15.350  69.301  1.00  0.00    -0.157 C  
HETATM   19  C   UNL     1      -5.615  14.390  69.515  1.00  0.00    -0.092 C  
ENDROOT
BRANCH  17  20
HETATM   20  O   UNL     1      -5.158  16.944  68.589  1.00  0.00    -0.120 OA 
BRANCH  20  21
HETATM   21  C   UNL     1      -5.180  18.011  67.650  1.00  0.00    -0.138 C  
HETATM   22  C   UNL     1      -5.445  17.404  66.285  1.00  0.00    -0.213 C  
ENDBRANCH  20  21
ENDBRANCH  17  20
TORSDOF 2
ENDMDL
MODEL       77
REMARK 921   NORMALIZED FREE ENERGY PREDICTED BY IDOCK:   -4.10 KCAL/MOL
REMARK 922        TOTAL FREE ENERGY PREDICTED BY IDOCK:   -4.80 KCAL/MOL
REMARK 923 INTER-LIGAND FREE ENERGY PREDICTED BY IDOCK:   -4.53 KCAL/MOL
REMARK 924 INTRA-LIGAND FREE ENERGY PREDICTED BY IDOCK:   -0.28 KCAL/MOL
REMARK 927      BINDING AFFINITY PREDICTED BY RF-SCORE:    0.00 PKD
ROOT
HETATM    1  C   UNL     1     -10.128   8.804  69.663  1.00  0.00    -0.204 C  
HETATM    2  C   UNL     1      -9.489   9.203  68.312  1.00  0.00    -0.152 C  
HETATM    3  C   UNL     1      -8.429   8.212  67.833  1.00  0.00    -0.132 C  
HETATM    4  C   UNL     1      -7.321   7.943  68.874  1.00  0.00    -0.085 C  
HETATM    5  C   UNL     1      -5.940   8.320  68.344  1.00  0.00    -0.041 C  
HETATM    6  C   UNL     1      -7.663   8.616  70.235  1.00  0.00    -0.083 C  
HETATM    7  C   UNL     1      -6.629   8.347  71.325  1.00  0.00    -0.053 C  
HETATM    8  C   UNL     1      -6.728   6.939  71.890  1.00  0.00    -0.057 C  
HETATM    9  C   UNL     1      -8.096   6.632  72.552  1.00  0.00    -0.102 C  
HETATM   10  C   UNL     1      -7.827   5.633  73.681  1.00  0.00    -0.105 C  
HETATM   11  O   UNL     1      -9.030   5.998  71.679  1.00  0.00    -0.142 OA 
HETATM   12  O   UNL     1      -9.165   6.747  70.432  1.00  0.00    -0.155 OA 
HETATM   13  C   UNL     1      -9.096   8.179  70.654  1.00  0.00    -0.150 C  
HETATM   14  C   UNL     1      -9.426   8.558  72.127  1.00  0.00    -0.305 C  
HETATM   15  O   UNL     1     -10.835   8.486  72.357  1.00  0.00    -0.346 OA 
HETATM   16  O   UNL     1      -8.697   7.801  73.111  1.00  0.00    -0.153 OA 
HETATM   17  C   UNL     1     -11.588   9.450  71.606  1.00  0.00    -0.396 C  
HETATM   18  C   UNL     1     -10.847   9.989  70.350  1.00  0.00    -0.380 C  
HETATM   19  C   UNL     1     -11.786  10.755  69.411  1.00  0.00    -0.370 C  
ENDROOT
BRANCH  17  20
HETATM   20  O   UNL     1     -12.807   8.870  71.143  1.00  0.00    -0.261 OA 
BRANCH  20  21
HETATM   21  C   UNL     1     -12.922   7.482  71.422  1.00  0.00    -0.335 C  
HETATM   22  C   UNL     1     -14.370   7.214  71.787  1.00  0.00    -0.515 C  
ENDBRANCH  20  21
ENDBRANCH  17  20
TORSDOF 2
ENDMDL
MODEL       78
REMARK 921   NORMALIZED FREE ENERGY PREDICTED BY IDOCK:   -4.09 KCAL/MOL
REMARK 922        TOTAL FREE ENERGY PREDICTED BY IDOCK:   -4.79 KCAL/MOL
REMARK 923 INTER-LIGAND FREE ENERGY PREDICTED BY IDOCK:   -4.54 KCAL/MOL
REMARK 924 INTRA-LIGAND FREE ENERGY PREDICTED BY IDOCK:   -0.25 KCAL/MOL
REMARK 927      BINDING AFFINITY PREDICTED BY RF-SCORE:    0.00 PKD
ROOT
HETATM    1  C   UNL     1      -8.634  16.228  66.292  1.00  0.00    -0.374 C  
HETATM    2  C   UNL     1      -8.069  17.667  66.337  1.00  0.00    -0.302 C  
HETATM    3  C   UNL     1      -6.581  17.717  66.684  1.00  0.00    -0.243 C  
HETATM    4  C   UNL     1      -6.228  16.978  67.993  1.00  0.00    -0.142 C  
HETATM    5  C   UNL     1      -5.595  17.913  69.020  1.00  0.00    -0.192 C  
HETATM    6  C   UNL     1      -7.461  16.203  68.542  1.00  0.00    -0.167 C  
HETATM    7  C   UNL     1      -7.165  15.409  69.812  1.00  0.00    -0.135 C  
HETATM    8  C   UNL     1      -6.373  14.140  69.537  1.00  0.00    -0.120 C  
HETATM    9  C   UNL     1      -7.105  13.143  68.603  1.00  0.00    -0.103 C  
HETATM   10  C   UNL     1      -6.661  11.738  69.022  1.00  0.00    -0.102 C  
HETATM   11  O   UNL     1      -6.750  13.275  67.227  1.00  0.00    -0.172 OA 
HETATM   12  O   UNL     1      -6.888  14.661  66.786  1.00  0.00     0.257 OA 
HETATM   13  C   UNL     1      -8.030  15.311  67.402  1.00  0.00    -0.186 C  
HETATM   14  C   UNL     1      -9.077  14.283  67.918  1.00  0.00    -0.190 C  
HETATM   15  O   UNL     1      -9.836  13.753  66.829  1.00  0.00    -0.258 OA 
HETATM   16  O   UNL     1      -8.525  13.230  68.731  1.00  0.00    -0.035 OA 
HETATM   17  C   UNL     1     -10.651  14.732  66.169  1.00  0.00    -0.311 C  
HETATM   18  C   UNL     1     -10.179  16.196  66.385  1.00  0.00    -0.315 C  
HETATM   19  C   UNL     1     -10.863  17.173  65.422  1.00  0.00    -0.051 C  
ENDROOT
BRANCH  17  20
HETATM   20  O   UNL     1     -10.648  14.507  64.759  1.00  0.00    -0.425 OA 
BRANCH  20  21
HETATM   21  C   UNL     1     -10.460  13.146  64.399  1.00  0.00    -0.407 C  
HETATM   22  C   UNL     1     -11.639  12.742  63.533  1.00  0.00    -0.565 C  
ENDBRANCH  20  21
ENDBRANCH  17  20
TORSDOF 2
ENDMDL
MODEL       79
REMARK 921   NORMALIZED FREE ENERGY PREDICTED BY IDOCK:   -4.06 KCAL/MOL
REMARK 922        TOTAL FREE ENERGY PREDICTED BY IDOCK:   -4.76 KCAL/MOL
REMARK 923 INTER-LIGAND FREE ENERGY PREDICTED BY IDOCK:   -4.56 KCAL/MOL
REMARK 924 INTRA-LIGAND FREE ENERGY PREDICTED BY IDOCK:   -0.20 KCAL/MOL
REMARK 927      BINDING AFFINITY PREDICTED BY RF-SCORE:    0.00 PKD
ROOT
HETATM    1  C   UNL     1      -9.243  13.710  68.163  1.00  0.00    -0.204 C  
HETATM    2  C   UNL     1     -10.417  14.717  68.113  1.00  0.00    -0.237 C  
HETATM    3  C   UNL     1     -11.755  14.061  67.774  1.00  0.00    -0.403 C  
HETATM    4  C   UNL     1     -11.724  13.233  66.471  1.00  0.00    -0.423 C  
HETATM    5  C   UNL     1     -12.724  13.755  65.442  1.00  0.00    -0.513 C  
HETATM    6  C   UNL     1     -10.273  13.122  65.919  1.00  0.00    -0.294 C  
HETATM    7  C   UNL     1     -10.165  12.272  64.656  1.00  0.00    -0.311 C  
HETATM    8  C   UNL     1     -10.270  10.782  64.942  1.00  0.00    -0.388 C  
HETATM    9  C   UNL     1      -9.155  10.251  65.878  1.00  0.00    -0.163 C  
HETATM   10  C   UNL     1      -8.889   8.799  65.470  1.00  0.00    -0.229 C  
HETATM   11  O   UNL     1      -9.527  10.211  67.255  1.00  0.00    -0.151 OA 
HETATM   12  O   UNL     1     -10.053  11.505  67.687  1.00  0.00    -0.181 OA 
HETATM   13  C   UNL     1      -9.350  12.608  67.061  1.00  0.00    -0.220 C  
HETATM   14  C   UNL     1      -7.944  12.187  66.545  1.00  0.00     0.152 C  
HETATM   15  O   UNL     1      -7.023  12.082  67.633  1.00  0.00    -0.096 OA 
HETATM   16  O   UNL     1      -7.940  10.992  65.742  1.00  0.00    -0.121 OA 
HETATM   17  C   UNL     1      -6.760  13.334  68.283  1.00  0.00    -0.103 C  
HETATM   18  C   UNL     1      -7.864  14.405  68.061  1.00  0.00    -0.141 C  
HETATM   19  C   UNL     1      -7.715  15.596  69.016  1.00  0.00    -0.199 C  
ENDROOT
BRANCH  17  20
HETATM   20  O   UNL     1      -6.654  13.144  69.694  1.00  0.00    -0.085 OA 
BRANCH  20  21
HETATM   21  C   UNL     1      -5.383  12.667  70.113  1.00  0.00    -0.112 C  
HETATM   22  C   UNL     1      -5.571  11.235  70.579  1.00  0.00    -0.141 C  
ENDBRANCH  20  21
ENDBRANCH  17  20
TORSDOF 2
ENDMDL
MODEL       80
REMARK 921   NORMALIZED FREE ENERGY PREDICTED BY IDOCK:   -3.99 KCAL/MOL
REMARK 922        TOTAL FREE ENERGY PREDICTED BY IDOCK:   -4.69 KCAL/MOL
REMARK 923 INTER-LIGAND FREE ENERGY PREDICTED BY IDOCK:   -4.40 KCAL/MOL
REMARK 924 INTRA-LIGAND FREE ENERGY PREDICTED BY IDOCK:   -0.29 KCAL/MOL
REMARK 927      BINDING AFFINITY PREDICTED BY RF-SCORE:    0.00 PKD
ROOT
HETATM    1  C   UNL     1      -7.754  18.284  67.557  1.00  0.00    -0.223 C  
HETATM    2  C   UNL     1      -6.230  18.075  67.390  1.00  0.00    -0.173 C  
HETATM    3  C   UNL     1      -5.873  16.722  66.777  1.00  0.00    -0.138 C  
HETATM    4  C   UNL     1      -6.482  15.522  67.535  1.00  0.00    -0.186 C  
HETATM    5  C   UNL     1      -5.406  14.576  68.059  1.00  0.00    -0.111 C  
HETATM    6  C   UNL     1      -7.469  16.005  68.637  1.00  0.00    -0.166 C  
HETATM    7  C   UNL     1      -8.146  14.864  69.392  1.00  0.00    -0.103 C  
HETATM    8  C   UNL     1      -9.239  14.190  68.578  1.00  0.00    -0.187 C  
HETATM    9  C   UNL     1     -10.392  15.146  68.180  1.00  0.00    -0.239 C  
HETATM   10  C   UNL     1     -11.666  14.297  68.113  1.00  0.00    -0.385 C  
HETATM   11  O   UNL     1     -10.239  15.729  66.887  1.00  0.00    -0.267 OA 
HETATM   12  O   UNL     1      -8.923  16.352  66.752  1.00  0.00    -0.205 OA 
HETATM   13  C   UNL     1      -8.495  16.978  67.988  1.00  0.00    -0.216 C  
HETATM   14  C   UNL     1      -9.693  17.293  68.929  1.00  0.00    -0.251 C  
HETATM   15  O   UNL     1     -10.400  18.447  68.469  1.00  0.00    -0.365 OA 
HETATM   16  O   UNL     1     -10.587  16.184  69.142  1.00  0.00    -0.236 OA 
HETATM   17  C   UNL     1      -9.626  19.653  68.527  1.00  0.00    -0.382 C  
HETATM   18  C   UNL     1      -8.090  19.417  68.555  1.00  0.00    -0.396 C  
HETATM   19  C   UNL     1      -7.303  20.707  68.294  1.00  0.00    -0.003 C  
ENDROOT
BRANCH  17  20
HETATM   20  O   UNL     1      -9.893  20.466  67.385  1.00  0.00    -0.425 OA 
BRANCH  20  21
HETATM   21  C   UNL     1     -11.109  20.143  66.726  1.00  0.00     0.459 C  
HETATM   22  C   UNL     1     -10.752  19.323  65.499  1.00  0.00    -0.201 C  
ENDBRANCH  20  21
ENDBRANCH  17  20
TORSDOF 2
ENDMDL
MODEL       81
REMARK 921   NORMALIZED FREE ENERGY PREDICTED BY IDOCK:   -3.98 KCAL/MOL
REMARK 922        TOTAL FREE ENERGY PREDICTED BY IDOCK:   -4.67 KCAL/MOL
REMARK 923 INTER-LIGAND FREE ENERGY PREDICTED BY IDOCK:   -4.42 KCAL/MOL
REMARK 924 INTRA-LIGAND FREE ENERGY PREDICTED BY IDOCK:   -0.25 KCAL/MOL
REMARK 927      BINDING AFFINITY PREDICTED BY RF-SCORE:    0.00 PKD
ROOT
HETATM    1  C   UNL     1     -10.731   9.205  68.320  1.00  0.00    -0.173 C  
HETATM    2  C   UNL     1     -10.796  10.561  67.577  1.00  0.00    -0.357 C  
HETATM    3  C   UNL     1     -10.700  10.418  66.059  1.00  0.00    -0.052 C  
HETATM    4  C   UNL     1      -9.459   9.629  65.591  1.00  0.00    -0.318 C  
HETATM    5  C   UNL     1      -8.561  10.466  64.684  1.00  0.00    -0.192 C  
HETATM    6  C   UNL     1      -8.705   9.010  66.805  1.00  0.00    -0.134 C  
HETATM    7  C   UNL     1      -7.492   8.173  66.406  1.00  0.00    -0.087 C  
HETATM    8  C   UNL     1      -7.879   6.817  65.836  1.00  0.00    -0.103 C  
HETATM    9  C   UNL     1      -8.668   5.930  66.832  1.00  0.00    -0.111 C  
HETATM   10  C   UNL     1      -8.312   4.476  66.507  1.00  0.00    -0.106 C  
HETATM   11  O   UNL     1     -10.085   6.028  66.696  1.00  0.00    -0.169 OA 
HETATM   12  O   UNL     1     -10.513   7.425  66.728  1.00  0.00    -0.296 OA 
HETATM   13  C   UNL     1      -9.725   8.208  67.662  1.00  0.00    -0.159 C  
HETATM   14  C   UNL     1      -9.031   7.316  68.731  1.00  0.00    -0.129 C  
HETATM   15  O   UNL     1      -9.974   6.897  69.720  1.00  0.00    -0.176 OA 
HETATM   16  O   UNL     1      -8.309   6.194  68.190  1.00  0.00    -0.113 OA 
HETATM   17  C   UNL     1     -10.502   7.978  70.502  1.00  0.00    -0.214 C  
HETATM   18  C   UNL     1     -10.384   9.368  69.819  1.00  0.00    -0.240 C  
HETATM   19  C   UNL     1     -11.233  10.433  70.524  1.00  0.00    -0.395 C  
ENDROOT
BRANCH  17  20
HETATM   20  O   UNL     1     -11.890   7.767  70.760  1.00  0.00    -0.271 OA 
BRANCH  20  21
HETATM   21  C   UNL     1     -12.151   6.662  71.614  1.00  0.00    -0.355 C  
HETATM   22  C   UNL     1     -11.222   6.785  72.808  1.00  0.00    -0.267 C  
ENDBRANCH  20  21
ENDBRANCH  17  20
TORSDOF 2
ENDMDL
MODEL       82
REMARK 921   NORMALIZED FREE ENERGY PREDICTED BY IDOCK:   -3.97 KCAL/MOL
REMARK 922        TOTAL FREE ENERGY PREDICTED BY IDOCK:   -4.66 KCAL/MOL
REMARK 923 INTER-LIGAND FREE ENERGY PREDICTED BY IDOCK:   -4.19 KCAL/MOL
REMARK 924 INTRA-LIGAND FREE ENERGY PREDICTED BY IDOCK:   -0.48 KCAL/MOL
REMARK 927      BINDING AFFINITY PREDICTED BY RF-SCORE:    0.00 PKD
ROOT
HETATM    1  C   UNL     1      -9.905   7.172  67.946  1.00  0.00    -0.170 C  
HETATM    2  C   UNL     1     -10.069   8.313  66.913  1.00  0.00    -0.366 C  
HETATM    3  C   UNL     1      -9.650   9.678  67.456  1.00  0.00    -0.180 C  
HETATM    4  C   UNL     1     -10.358  10.063  68.773  1.00  0.00    -0.216 C  
HETATM    5  C   UNL     1     -11.164  11.351  68.630  1.00  0.00    -0.303 C  
HETATM    6  C   UNL     1     -11.195   8.870  69.321  1.00  0.00     0.191 C  
HETATM    7  C   UNL     1     -11.882   9.169  70.651  1.00  0.00    -0.222 C  
HETATM    8  C   UNL     1     -10.917   9.153  71.826  1.00  0.00    -0.429 C  
HETATM    9  C   UNL     1     -10.219   7.785  72.035  1.00  0.00    -0.201 C  
HETATM   10  C   UNL     1      -9.959   7.646  73.538  1.00  0.00    -0.354 C  
HETATM   11  O   UNL     1      -8.943   7.685  71.404  1.00  0.00    -0.131 OA 
HETATM   12  O   UNL     1      -9.031   8.061  69.994  1.00  0.00    -0.142 OA 
HETATM   13  C   UNL     1     -10.276   7.617  69.396  1.00  0.00    -0.206 C  
HETATM   14  C   UNL     1     -10.925   6.451  70.196  1.00  0.00    -0.334 C  
HETATM   15  O   UNL     1     -10.242   5.223  69.933  1.00  0.00    -0.247 OA 
HETATM   16  O   UNL     1     -11.037   6.693  71.611  1.00  0.00    -0.234 OA 
HETATM   17  C   UNL     1     -10.362   4.781  68.573  1.00  0.00     0.107 C  
HETATM   18  C   UNL     1     -10.721   5.913  67.571  1.00  0.00    -0.359 C  
HETATM   19  C   UNL     1     -10.527   5.477  66.113  1.00  0.00    -0.149 C  
ENDROOT
BRANCH  17  20
HETATM   20  O   UNL     1      -9.130   4.217  68.127  1.00  0.00    -0.117 OA 
BRANCH  20  21
HETATM   21  C   UNL     1      -8.120   4.188  69.126  1.00  0.00    -0.066 C  
HETATM   22  C   UNL     1      -7.005   5.109  68.666  1.00  0.00    -0.056 C  
ENDBRANCH  20  21
ENDBRANCH  17  20
TORSDOF 2
ENDMDL
MODEL       83
REMARK 921   NORMALIZED FREE ENERGY PREDICTED BY IDOCK:   -3.93 KCAL/MOL
REMARK 922        TOTAL FREE ENERGY PREDICTED BY IDOCK:   -4.61 KCAL/MOL
REMARK 923 INTER-LIGAND FREE ENERGY PREDICTED BY IDOCK:   -4.51 KCAL/MOL
REMARK 924 INTRA-LIGAND FREE ENERGY PREDICTED BY IDOCK:   -0.10 KCAL/MOL
REMARK 927      BINDING AFFINITY PREDICTED BY RF-SCORE:    0.00 PKD
ROOT
HETATM    1  C   UNL     1      -8.850  10.558  67.751  1.00  0.00    -0.125 C  
HETATM    2  C   UNL     1      -8.326  11.197  69.059  1.00  0.00    -0.054 C  
HETATM    3  C   UNL     1      -7.602  10.202  69.965  1.00  0.00    -0.164 C  
HETATM    4  C   UNL     1      -8.439   8.948  70.298  1.00  0.00    -0.168 C  
HETATM    5  C   UNL     1      -8.666   8.799  71.800  1.00  0.00    -0.223 C  
HETATM    6  C   UNL     1      -9.757   8.925  69.469  1.00  0.00    -0.173 C  
HETATM    7  C   UNL     1     -10.609   7.683  69.716  1.00  0.00    -0.245 C  
HETATM    8  C   UNL     1     -10.049   6.444  69.034  1.00  0.00    -0.193 C  
HETATM    9  C   UNL     1      -9.964   6.571  67.492  1.00  0.00    -0.137 C  
HETATM   10  C   UNL     1     -10.166   5.165  66.920  1.00  0.00    -0.279 C  
HETATM   11  O   UNL     1      -8.691   7.010  67.019  1.00  0.00    -0.119 OA 
HETATM   12  O   UNL     1      -8.275   8.231  67.706  1.00  0.00    -0.124 OA 
HETATM   13  C   UNL     1      -9.398   9.111  67.967  1.00  0.00    -0.137 C  
HETATM   14  C   UNL     1     -10.601   8.816  67.028  1.00  0.00    -0.213 C  
HETATM   15  O   UNL     1     -10.358   9.345  65.722  1.00  0.00    -0.139 OA 
HETATM   16  O   UNL     1     -10.979   7.428  66.966  1.00  0.00    -0.332 OA 
HETATM   17  C   UNL     1     -10.276  10.777  65.692  1.00  0.00    -0.257 C  
HETATM   18  C   UNL     1      -9.937  11.420  67.065  1.00  0.00    -0.227 C  
HETATM   19  C   UNL     1      -9.543  12.896  66.932  1.00  0.00    -0.240 C  
ENDROOT
BRANCH  17  20
HETATM   20  O   UNL     1      -9.255  11.193  64.785  1.00  0.00    -0.202 OA 
BRANCH  20  21
HETATM   21  C   UNL     1      -9.741  11.953  63.687  1.00  0.00    -0.243 C  
HETATM   22  C   UNL     1     -11.243  11.749  63.628  1.00  0.00    -0.519 C  
ENDBRANCH  20  21
ENDBRANCH  17  20
TORSDOF 2
ENDMDL
MODEL       84
REMARK 921   NORMALIZED FREE ENERGY PREDICTED BY IDOCK:   -3.93 KCAL/MOL
REMARK 922        TOTAL FREE ENERGY PREDICTED BY IDOCK:   -4.61 KCAL/MOL
REMARK 923 INTER-LIGAND FREE ENERGY PREDICTED BY IDOCK:   -4.42 KCAL/MOL
REMARK 924 INTRA-LIGAND FREE ENERGY PREDICTED BY IDOCK:   -0.19 KCAL/MOL
REMARK 927      BINDING AFFINITY PREDICTED BY RF-SCORE:    0.00 PKD
ROOT
HETATM    1  C   UNL     1      -7.497  13.958  68.329  1.00  0.00    -0.118 C  
HETATM    2  C   UNL     1      -6.280  14.813  67.901  1.00  0.00    -0.171 C  
HETATM    3  C   UNL     1      -6.289  16.215  68.509  1.00  0.00    -0.116 C  
HETATM    4  C   UNL     1      -7.593  16.996  68.239  1.00  0.00    -0.213 C  
HETATM    5  C   UNL     1      -7.333  18.289  67.470  1.00  0.00    -0.212 C  
HETATM    6  C   UNL     1      -8.658  16.081  67.565  1.00  0.00    -0.190 C  
HETATM    7  C   UNL     1      -9.992  16.781  67.316  1.00  0.00    -0.272 C  
HETATM    8  C   UNL     1     -10.809  16.953  68.587  1.00  0.00    -0.314 C  
HETATM    9  C   UNL     1     -11.181  15.612  69.269  1.00  0.00    -0.320 C  
HETATM   10  C   UNL     1     -12.531  15.828  69.961  1.00  0.00    -0.178 C  
HETATM   11  O   UNL     1     -10.272  15.215  70.295  1.00  0.00    -0.167 OA 
HETATM   12  O   UNL     1      -8.896  15.230  69.803  1.00  0.00    -0.191 OA 
HETATM   13  C   UNL     1      -8.814  14.792  68.422  1.00  0.00    -0.181 C  
HETATM   14  C   UNL     1     -10.050  13.946  68.003  1.00  0.00    -0.244 C  
HETATM   15  O   UNL     1      -9.953  12.623  68.536  1.00  0.00    -0.219 OA 
HETATM   16  O   UNL     1     -11.318  14.548  68.326  1.00  0.00    -0.270 OA 
HETATM   17  C   UNL     1      -8.857  11.869  68.000  1.00  0.00    -0.177 C  
HETATM   18  C   UNL     1      -7.724  12.744  67.396  1.00  0.00    -0.165 C  
HETATM   19  C   UNL     1      -6.447  11.937  67.133  1.00  0.00    -0.146 C  
ENDROOT
BRANCH  17  20
HETATM   20  O   UNL     1      -8.257  11.076  69.024  1.00  0.00    -0.150 OA 
BRANCH  20  21
HETATM   21  C   UNL     1      -8.656   9.713  68.999  1.00  0.00    -0.133 C  
HETATM   22  C   UNL     1      -9.732   9.539  70.055  1.00  0.00    -0.271 C  
ENDBRANCH  20  21
ENDBRANCH  17  20
TORSDOF 2
ENDMDL
MODEL       85
REMARK 921   NORMALIZED FREE ENERGY PREDICTED BY IDOCK:   -3.88 KCAL/MOL
REMARK 922        TOTAL FREE ENERGY PREDICTED BY IDOCK:   -4.55 KCAL/MOL
REMARK 923 INTER-LIGAND FREE ENERGY PREDICTED BY IDOCK:   -4.26 KCAL/MOL
REMARK 924 INTRA-LIGAND FREE ENERGY PREDICTED BY IDOCK:   -0.29 KCAL/MOL
REMARK 927      BINDING AFFINITY PREDICTED BY RF-SCORE:    0.00 PKD
ROOT
HETATM    1  C   UNL     1      -9.103  12.434  66.942  1.00  0.00    -0.211 C  
HETATM    2  C   UNL     1     -10.196  11.810  66.043  1.00  0.00    -0.265 C  
HETATM    3  C   UNL     1     -10.800  12.805  65.054  1.00  0.00    -0.319 C  
HETATM    4  C   UNL     1     -11.346  14.085  65.722  1.00  0.00    -0.312 C  
HETATM    5  C   UNL     1     -12.839  14.270  65.462  1.00  0.00    -0.334 C  
HETATM    6  C   UNL     1     -10.974  14.123  67.233  1.00  0.00    -0.304 C  
HETATM    7  C   UNL     1     -11.443  15.390  67.944  1.00  0.00    -0.306 C  
HETATM    8  C   UNL     1     -10.587  16.601  67.607  1.00  0.00    -0.321 C  
HETATM    9  C   UNL     1      -9.100  16.440  68.015  1.00  0.00    -0.200 C  
HETATM   10  C   UNL     1      -8.583  17.839  68.364  1.00  0.00    -0.292 C  
HETATM   11  O   UNL     1      -8.262  15.961  66.964  1.00  0.00    -0.179 OA 
HETATM   12  O   UNL     1      -8.816  14.745  66.372  1.00  0.00    -0.233 OA 
HETATM   13  C   UNL     1      -9.441  13.898  67.370  1.00  0.00    -0.226 C  
HETATM   14  C   UNL     1      -8.921  14.203  68.803  1.00  0.00    -0.065 C  
HETATM   15  O   UNL     1      -7.620  13.641  68.993  1.00  0.00    -0.064 OA 
HETATM   16  O   UNL     1      -8.944  15.598  69.159  1.00  0.00    -0.221 OA 
HETATM   17  C   UNL     1      -7.604  12.207  68.948  1.00  0.00     0.003 C  
HETATM   18  C   UNL     1      -8.818  11.585  68.204  1.00  0.00    -0.165 C  
HETATM   19  C   UNL     1      -8.607  10.097  67.897  1.00  0.00    -0.118 C  
ENDROOT
BRANCH  17  20
HETATM   20  O   UNL     1      -6.433  11.749  68.272  1.00  0.00    -0.049 OA 
BRANCH  20  21
HETATM   21  C   UNL     1      -5.281  11.690  69.101  1.00  0.00    -0.047 C  
HETATM   22  C   UNL     1      -5.160  10.263  69.604  1.00  0.00    -0.038 C  
ENDBRANCH  20  21
ENDBRANCH  17  20
TORSDOF 2
ENDMDL
MODEL       86
REMARK 921   NORMALIZED FREE ENERGY PREDICTED BY IDOCK:   -3.82 KCAL/MOL
REMARK 922        TOTAL FREE ENERGY PREDICTED BY IDOCK:   -4.49 KCAL/MOL
REMARK 923 INTER-LIGAND FREE ENERGY PREDICTED BY IDOCK:   -4.14 KCAL/MOL
REMARK 924 INTRA-LIGAND FREE ENERGY PREDICTED BY IDOCK:   -0.34 KCAL/MOL
REMARK 927      BINDING AFFINITY PREDICTED BY RF-SCORE:    0.00 PKD
ROOT
HETATM    1  C   UNL     1     -10.367  12.049  67.453  1.00  0.00    -0.226 C  
HETATM    2  C   UNL     1     -11.092  10.997  66.581  1.00  0.00    -0.201 C  
HETATM    3  C   UNL     1     -10.566   9.578  66.792  1.00  0.00    -0.208 C  
HETATM    4  C   UNL     1      -9.040   9.451  66.598  1.00  0.00    -0.181 C  
HETATM    5  C   UNL     1      -8.688   8.469  65.484  1.00  0.00    -0.208 C  
HETATM    6  C   UNL     1      -8.385  10.852  66.415  1.00  0.00    -0.162 C  
HETATM    7  C   UNL     1      -6.866  10.800  66.269  1.00  0.00    -0.135 C  
HETATM    8  C   UNL     1      -6.160  10.538  67.589  1.00  0.00    -0.052 C  
HETATM    9  C   UNL     1      -6.421  11.630  68.658  1.00  0.00    -0.059 C  
HETATM   10  C   UNL     1      -5.163  11.707  69.528  1.00  0.00    -0.057 C  
HETATM   11  O   UNL     1      -7.496  11.323  69.545  1.00  0.00    -0.056 OA 
HETATM   12  O   UNL     1      -8.701  10.970  68.798  1.00  0.00    -0.157 OA 
HETATM   13  C   UNL     1      -8.838  11.764  67.591  1.00  0.00    -0.162 C  
HETATM   14  C   UNL     1      -8.021  13.085  67.666  1.00  0.00    -0.169 C  
HETATM   15  O   UNL     1      -8.689  14.040  68.494  1.00  0.00    -0.181 OA 
HETATM   16  O   UNL     1      -6.650  12.913  68.072  1.00  0.00    -0.080 OA 
HETATM   17  C   UNL     1      -9.948  14.476  67.962  1.00  0.00    -0.222 C  
HETATM   18  C   UNL     1     -10.574  13.493  66.934  1.00  0.00    -0.270 C  
HETATM   19  C   UNL     1     -12.042  13.824  66.637  1.00  0.00    -0.471 C  
ENDROOT
BRANCH  17  20
HETATM   20  O   UNL     1     -10.902  14.628  69.013  1.00  0.00    -0.230 OA 
BRANCH  20  21
HETATM   21  C   UNL     1     -10.778  15.852  69.724  1.00  0.00    -0.324 C  
HETATM   22  C   UNL     1     -10.738  16.968  68.696  1.00  0.00    -0.333 C  
ENDBRANCH  20  21
ENDBRANCH  17  20
TORSDOF 2
ENDMDL
MODEL       87
REMARK 921   NORMALIZED FREE ENERGY PREDICTED BY IDOCK:   -3.81 KCAL/MOL
REMARK 922        TOTAL FREE ENERGY PREDICTED BY IDOCK:   -4.48 KCAL/MOL
REMARK 923 INTER-LIGAND FREE ENERGY PREDICTED BY IDOCK:   -4.01 KCAL/MOL
REMARK 924 INTRA-LIGAND FREE ENERGY PREDICTED BY IDOCK:   -0.47 KCAL/MOL
REMARK 927      BINDING AFFINITY PREDICTED BY RF-SCORE:    0.00 PKD
ROOT
HETATM    1  C   UNL     1     -10.513  10.793  68.649  1.00  0.00    -0.213 C  
HETATM    2  C   UNL     1     -11.786  11.613  68.331  1.00  0.00    -0.374 C  
HETATM    3  C   UNL     1     -11.660  12.447  67.057  1.00  0.00    -0.434 C  
HETATM    4  C   UNL     1     -10.427  13.376  67.048  1.00  0.00    -0.257 C  
HETATM    5  C   UNL     1     -10.824  14.844  66.915  1.00  0.00    -0.319 C  
HETATM    6  C   UNL     1      -9.510  13.094  68.274  1.00  0.00    -0.210 C  
HETATM    7  C   UNL     1      -8.245  13.948  68.298  1.00  0.00    -0.158 C  
HETATM    8  C   UNL     1      -7.204  13.480  67.293  1.00  0.00    -0.006 C  
HETATM    9  C   UNL     1      -6.713  12.031  67.540  1.00  0.00    -0.120 C  
HETATM   10  C   UNL     1      -5.257  11.970  67.068  1.00  0.00    -0.079 C  
HETATM   11  O   UNL     1      -7.415  11.046  66.782  1.00  0.00    -0.125 OA 
HETATM   12  O   UNL     1      -8.859  11.187  66.959  1.00  0.00    -0.144 OA 
HETATM   13  C   UNL     1      -9.200  11.570  68.316  1.00  0.00    -0.186 C  
HETATM   14  C   UNL     1      -8.066  11.223  69.323  1.00  0.00     0.114 C  
HETATM   15  O   UNL     1      -8.064   9.822  69.609  1.00  0.00    -0.120 OA 
HETATM   16  O   UNL     1      -6.759  11.675  68.924  1.00  0.00    -0.074 OA 
HETATM   17  C   UNL     1      -9.244   9.376  70.293  1.00  0.00    -0.245 C  
HETATM   18  C   UNL     1     -10.468  10.318  70.121  1.00  0.00    -0.259 C  
HETATM   19  C   UNL     1     -11.773   9.660  70.585  1.00  0.00    -0.353 C  
ENDROOT
BRANCH  17  20
HETATM   20  O   UNL     1      -9.643   8.096  69.805  1.00  0.00    -0.170 OA 
BRANCH  20  21
HETATM   21  C   UNL     1      -8.736   7.535  68.866  1.00  0.00    -0.132 C  
HETATM   22  C   UNL     1      -9.523   7.236  67.603  1.00  0.00    -0.149 C  
ENDBRANCH  20  21
ENDBRANCH  17  20
TORSDOF 2
ENDMDL
MODEL       88
REMARK 921   NORMALIZED FREE ENERGY PREDICTED BY IDOCK:   -3.81 KCAL/MOL
REMARK 922        TOTAL FREE ENERGY PREDICTED BY IDOCK:   -4.47 KCAL/MOL
REMARK 923 INTER-LIGAND FREE ENERGY PREDICTED BY IDOCK:   -4.20 KCAL/MOL
REMARK 924 INTRA-LIGAND FREE ENERGY PREDICTED BY IDOCK:   -0.28 KCAL/MOL
REMARK 927      BINDING AFFINITY PREDICTED BY RF-SCORE:    0.00 PKD
ROOT
HETATM    1  C   UNL     1      -8.113  17.523  66.923  1.00  0.00    -0.254 C  
HETATM    2  C   UNL     1      -7.607  17.573  65.462  1.00  0.00     0.666 C  
HETATM    3  C   UNL     1      -6.121  17.910  65.353  1.00  0.00    -0.063 C  
HETATM    4  C   UNL     1      -5.727  19.211  66.084  1.00  0.00    -0.177 C  
HETATM    5  C   UNL     1      -5.126  20.240  65.130  1.00  0.00    -0.185 C  
HETATM    6  C   UNL     1      -6.923  19.764  66.913  1.00  0.00    -0.230 C  
HETATM    7  C   UNL     1      -6.585  21.027  67.703  1.00  0.00    -0.416 C  
HETATM    8  C   UNL     1      -5.742  20.738  68.935  1.00  0.00    -0.398 C  
HETATM    9  C   UNL     1      -6.439  19.803  69.956  1.00  0.00    -0.293 C  
HETATM   10  C   UNL     1      -5.934  20.209  71.344  1.00  0.00    -0.313 C  
HETATM   11  O   UNL     1      -6.100  18.425  69.801  1.00  0.00    -0.252 OA 
HETATM   12  O   UNL     1      -6.299  17.994  68.419  1.00  0.00    -0.187 OA 
HETATM   13  C   UNL     1      -7.463  18.623  67.822  1.00  0.00    -0.227 C  
HETATM   14  C   UNL     1      -8.462  19.140  68.895  1.00  0.00    -0.283 C  
HETATM   15  O   UNL     1      -9.207  18.053  69.450  1.00  0.00     0.132 OA 
HETATM   16  O   UNL     1      -7.861  19.941  69.929  1.00  0.00     0.184 OA 
HETATM   17  C   UNL     1     -10.067  17.405  68.501  1.00  0.00    -0.352 C  
HETATM   18  C   UNL     1      -9.654  17.627  67.020  1.00  0.00    -0.276 C  
HETATM   19  C   UNL     1     -10.386  16.675  66.067  1.00  0.00    -0.352 C  
ENDROOT
BRANCH  17  20
HETATM   20  O   UNL     1     -10.065  15.994  68.718  1.00  0.00    -0.210 OA 
BRANCH  20  21
HETATM   21  C   UNL     1     -10.436  15.617  70.036  1.00  0.00    -0.323 C  
HETATM   22  C   UNL     1     -11.952  15.622  70.096  1.00  0.00    -0.387 C  
ENDBRANCH  20  21
ENDBRANCH  17  20
TORSDOF 2
ENDMDL
MODEL       89
REMARK 921   NORMALIZED FREE ENERGY PREDICTED BY IDOCK:   -3.73 KCAL/MOL
REMARK 922        TOTAL FREE ENERGY PREDICTED BY IDOCK:   -4.39 KCAL/MOL
REMARK 923 INTER-LIGAND FREE ENERGY PREDICTED BY IDOCK:   -3.99 KCAL/MOL
REMARK 924 INTRA-LIGAND FREE ENERGY PREDICTED BY IDOCK:   -0.40 KCAL/MOL
REMARK 927      BINDING AFFINITY PREDICTED BY RF-SCORE:    0.00 PKD
ROOT
HETATM    1  C   UNL     1      -8.655   5.617  69.741  1.00  0.00    -0.121 C  
HETATM    2  C   UNL     1      -7.548   4.548  69.582  1.00  0.00    -0.054 C  
HETATM    3  C   UNL     1      -6.357   5.035  68.759  1.00  0.00    -0.035 C  
HETATM    4  C   UNL     1      -6.750   5.585  67.371  1.00  0.00    -0.059 C  
HETATM    5  C   UNL     1      -6.085   4.805  66.240  1.00  0.00    -0.031 C  
HETATM    6  C   UNL     1      -8.298   5.677  67.230  1.00  0.00    -0.100 C  
HETATM    7  C   UNL     1      -8.754   6.263  65.895  1.00  0.00    -0.154 C  
HETATM    8  C   UNL     1      -8.564   7.770  65.822  1.00  0.00    -0.162 C  
HETATM    9  C   UNL     1      -9.367   8.548  66.895  1.00  0.00    -0.172 C  
HETATM   10  C   UNL     1      -9.729   9.903  66.280  1.00  0.00    -0.281 C  
HETATM   11  O   UNL     1      -8.621   8.838  68.076  1.00  0.00    -0.132 OA 
HETATM   12  O   UNL     1      -8.001   7.626  68.609  1.00  0.00    -0.118 OA 
HETATM   13  C   UNL     1      -8.858   6.467  68.447  1.00  0.00    -0.123 C  
HETATM   14  C   UNL     1     -10.350   6.866  68.261  1.00  0.00    -0.193 C  
HETATM   15  O   UNL     1     -10.925   7.246  69.513  1.00  0.00    -0.230 OA 
HETATM   16  O   UNL     1     -10.574   7.874  67.257  1.00  0.00    -0.297 OA 
HETATM   17  C   UNL     1     -11.001   6.169  70.459  1.00  0.00    -0.318 C  
HETATM   18  C   UNL     1     -10.010   5.006  70.171  1.00  0.00    -0.328 C  
HETATM   19  C   UNL     1      -9.890   4.043  71.358  1.00  0.00    -0.249 C  
ENDROOT
BRANCH  17  20
HETATM   20  O   UNL     1     -10.703   6.643  71.771  1.00  0.00    -0.221 OA 
BRANCH  20  21
HETATM   21  C   UNL     1     -10.781   8.056  71.900  1.00  0.00    -0.251 C  
HETATM   22  C   UNL     1      -9.384   8.557  72.216  1.00  0.00    -0.363 C  
ENDBRANCH  20  21
ENDBRANCH  17  20
TORSDOF 2
ENDMDL
MODEL       90
REMARK 921   NORMALIZED FREE ENERGY PREDICTED BY IDOCK:   -3.68 KCAL/MOL
REMARK 922        TOTAL FREE ENERGY PREDICTED BY IDOCK:   -4.33 KCAL/MOL
REMARK 923 INTER-LIGAND FREE ENERGY PREDICTED BY IDOCK:   -4.08 KCAL/MOL
REMARK 924 INTRA-LIGAND FREE ENERGY PREDICTED BY IDOCK:   -0.25 KCAL/MOL
REMARK 927      BINDING AFFINITY PREDICTED BY RF-SCORE:    0.00 PKD
ROOT
HETATM    1  C   UNL     1      -9.412  10.430  66.483  1.00  0.00    -0.204 C  
HETATM    2  C   UNL     1      -8.735  10.683  65.115  1.00  0.00    -0.196 C  
HETATM    3  C   UNL     1      -8.823   9.485  64.171  1.00  0.00    -0.243 C  
HETATM    4  C   UNL     1      -8.282   8.176  64.785  1.00  0.00    -0.137 C  
HETATM    5  C   UNL     1      -7.120   7.607  63.975  1.00  0.00    -0.068 C  
HETATM    6  C   UNL     1      -7.948   8.366  66.293  1.00  0.00    -0.099 C  
HETATM    7  C   UNL     1      -7.453   7.092  66.973  1.00  0.00    -0.094 C  
HETATM    8  C   UNL     1      -8.575   6.104  67.251  1.00  0.00    -0.103 C  
HETATM    9  C   UNL     1      -9.672   6.661  68.194  1.00  0.00    -0.130 C  
HETATM   10  C   UNL     1     -10.227   5.469  68.980  1.00  0.00    -0.298 C  
HETATM   11  O   UNL     1     -10.785   7.234  67.510  1.00  0.00    -0.254 OA 
HETATM   12  O   UNL     1     -10.338   8.219  66.526  1.00  0.00    -0.276 OA 
HETATM   13  C   UNL     1      -9.193   8.973  67.001  1.00  0.00    -0.136 C  
HETATM   14  C   UNL     1      -9.072   8.935  68.551  1.00  0.00    -0.137 C  
HETATM   15  O   UNL     1     -10.029   9.814  69.148  1.00  0.00    -0.172 OA 
HETATM   16  O   UNL     1      -9.150   7.615  69.121  1.00  0.00    -0.142 OA 
HETATM   17  C   UNL     1      -9.801  11.198  68.846  1.00  0.00    -0.162 C  
HETATM   18  C   UNL     1      -8.950  11.433  67.567  1.00  0.00    -0.150 C  
HETATM   19  C   UNL     1      -9.000  12.893  67.100  1.00  0.00    -0.219 C  
ENDROOT
BRANCH  17  20
HETATM   20  O   UNL     1     -11.045  11.868  68.637  1.00  0.00    -0.213 OA 
BRANCH  20  21
HETATM   21  C   UNL     1     -12.080  11.435  69.507  1.00  0.00    -0.302 C  
HETATM   22  C   UNL     1     -12.290  12.530  70.537  1.00  0.00    -0.345 C  
ENDBRANCH  20  21
ENDBRANCH  17  20
TORSDOF 2
ENDMDL
MODEL       91
REMARK 921   NORMALIZED FREE ENERGY PREDICTED BY IDOCK:   -3.60 KCAL/MOL
REMARK 922        TOTAL FREE ENERGY PREDICTED BY IDOCK:   -4.24 KCAL/MOL
REMARK 923 INTER-LIGAND FREE ENERGY PREDICTED BY IDOCK:   -4.02 KCAL/MOL
REMARK 924 INTRA-LIGAND FREE ENERGY PREDICTED BY IDOCK:   -0.23 KCAL/MOL
REMARK 927      BINDING AFFINITY PREDICTED BY RF-SCORE:    0.00 PKD
ROOT
HETATM    1  C   UNL     1     -10.519  12.217  68.250  1.00  0.00    -0.225 C  
HETATM    2  C   UNL     1     -11.662  11.335  68.805  1.00  0.00    -0.405 C  
HETATM    3  C   UNL     1     -11.164  10.195  69.693  1.00  0.00    -0.310 C  
HETATM    4  C   UNL     1     -10.103   9.303  69.013  1.00  0.00    -0.207 C  
HETATM    5  C   UNL     1     -10.559   7.850  68.917  1.00  0.00    -0.165 C  
HETATM    6  C   UNL     1      -9.666   9.905  67.645  1.00  0.00    -0.183 C  
HETATM    7  C   UNL     1      -8.580   9.094  66.943  1.00  0.00    -0.129 C  
HETATM    8  C   UNL     1      -7.208   9.287  67.571  1.00  0.00    -0.080 C  
HETATM    9  C   UNL     1      -6.707  10.753  67.525  1.00  0.00    -0.073 C  
HETATM   10  C   UNL     1      -5.180  10.696  67.422  1.00  0.00    -0.040 C  
HETATM   11  O   UNL     1      -6.994  11.499  68.707  1.00  0.00    -0.081 OA 
HETATM   12  O   UNL     1      -8.411  11.401  69.051  1.00  0.00    -0.075 OA 
HETATM   13  C   UNL     1      -9.252  11.387  67.868  1.00  0.00    -0.164 C  
HETATM   14  C   UNL     1      -8.529  11.994  66.632  1.00  0.00    -0.117 C  
HETATM   15  O   UNL     1      -8.501  13.421  66.720  1.00  0.00    -0.108 OA 
HETATM   16  O   UNL     1      -7.214  11.460  66.391  1.00  0.00    -0.101 OA 
HETATM   17  C   UNL     1      -9.801  14.025  66.656  1.00  0.00    -0.284 C  
HETATM   18  C   UNL     1     -10.962  13.064  67.033  1.00  0.00    -0.289 C  
HETATM   19  C   UNL     1     -12.280  13.813  67.265  1.00  0.00    -0.315 C  
ENDROOT
BRANCH  17  20
HETATM   20  O   UNL     1      -9.876  15.129  67.558  1.00  0.00    -0.219 OA 
BRANCH  20  21
HETATM   21  C   UNL     1      -9.474  16.364  66.984  1.00  0.00    -0.230 C  
HETATM   22  C   UNL     1      -8.534  17.034  67.969  1.00  0.00    -0.216 C  
ENDBRANCH  20  21
ENDBRANCH  17  20
TORSDOF 2
ENDMDL
MODEL       92
REMARK 921   NORMALIZED FREE ENERGY PREDICTED BY IDOCK:   -3.58 KCAL/MOL
REMARK 922        TOTAL FREE ENERGY PREDICTED BY IDOCK:   -4.22 KCAL/MOL
REMARK 923 INTER-LIGAND FREE ENERGY PREDICTED BY IDOCK:   -3.90 KCAL/MOL
REMARK 924 INTRA-LIGAND FREE ENERGY PREDICTED BY IDOCK:   -0.32 KCAL/MOL
REMARK 927      BINDING AFFINITY PREDICTED BY RF-SCORE:    0.00 PKD
ROOT
HETATM    1  C   UNL     1     -10.255  15.623  68.193  1.00  0.00    -0.228 C  
HETATM    2  C   UNL     1     -10.419  17.149  68.382  1.00  0.00    -0.376 C  
HETATM    3  C   UNL     1      -9.279  17.956  67.762  1.00  0.00    -0.258 C  
HETATM    4  C   UNL     1      -7.880  17.520  68.248  1.00  0.00    -0.253 C  
HETATM    5  C   UNL     1      -7.135  18.661  68.936  1.00  0.00    -0.317 C  
HETATM    6  C   UNL     1      -7.971  16.231  69.117  1.00  0.00    -0.221 C  
HETATM    7  C   UNL     1      -6.613  15.717  69.589  1.00  0.00    -0.182 C  
HETATM    8  C   UNL     1      -5.832  15.028  68.482  1.00  0.00    -0.096 C  
HETATM    9  C   UNL     1      -6.549  13.784  67.900  1.00  0.00    -0.160 C  
HETATM   10  C   UNL     1      -5.455  12.808  67.457  1.00  0.00    -0.091 C  
HETATM   11  O   UNL     1      -7.327  14.059  66.735  1.00  0.00     0.308 OA 
HETATM   12  O   UNL     1      -8.241  15.174  66.973  1.00  0.00    -0.205 OA 
HETATM   13  C   UNL     1      -8.770  15.158  68.323  1.00  0.00    -0.171 C  
HETATM   14  C   UNL     1      -8.673  13.747  68.971  1.00  0.00     0.274 C  
HETATM   15  O   UNL     1      -9.692  12.888  68.452  1.00  0.00    -0.223 OA 
HETATM   16  O   UNL     1      -7.374  13.135  68.870  1.00  0.00    -0.095 OA 
HETATM   17  C   UNL     1     -11.021  13.305  68.795  1.00  0.00    -0.260 C  
HETATM   18  C   UNL     1     -11.135  14.808  69.172  1.00  0.00    -0.278 C  
HETATM   19  C   UNL     1     -12.591  15.285  69.216  1.00  0.00     0.115 C  
ENDROOT
BRANCH  17  20
HETATM   20  O   UNL     1     -11.904  13.093  67.694  1.00  0.00    -0.354 OA 
BRANCH  20  21
HETATM   21  C   UNL     1     -11.244  12.688  66.502  1.00  0.00    -0.296 C  
HETATM   22  C   UNL     1     -12.196  12.949  65.350  1.00  0.00    -0.528 C  
ENDBRANCH  20  21
ENDBRANCH  17  20
TORSDOF 2
ENDMDL
MODEL       93
REMARK 921   NORMALIZED FREE ENERGY PREDICTED BY IDOCK:   -3.52 KCAL/MOL
REMARK 922        TOTAL FREE ENERGY PREDICTED BY IDOCK:   -4.16 KCAL/MOL
REMARK 923 INTER-LIGAND FREE ENERGY PREDICTED BY IDOCK:   -3.93 KCAL/MOL
REMARK 924 INTRA-LIGAND FREE ENERGY PREDICTED BY IDOCK:   -0.23 KCAL/MOL
REMARK 927      BINDING AFFINITY PREDICTED BY RF-SCORE:    0.00 PKD
ROOT
HETATM    1  C   UNL     1      -9.994  10.693  66.979  1.00  0.00    -0.243 C  
HETATM    2  C   UNL     1     -10.264   9.409  66.158  1.00  0.00    -0.264 C  
HETATM    3  C   UNL     1      -9.676   8.153  66.798  1.00  0.00    -0.303 C  
HETATM    4  C   UNL     1      -8.167   8.266  67.106  1.00  0.00    -0.119 C  
HETATM    5  C   UNL     1      -7.357   7.201  66.371  1.00  0.00    -0.079 C  
HETATM    6  C   UNL     1      -7.656   9.714  66.852  1.00  0.00    -0.095 C  
HETATM    7  C   UNL     1      -6.179   9.906  67.185  1.00  0.00    -0.063 C  
HETATM    8  C   UNL     1      -5.921   9.977  68.682  1.00  0.00    -0.041 C  
HETATM    9  C   UNL     1      -6.645  11.157  69.379  1.00  0.00    -0.109 C  
HETATM   10  C   UNL     1      -5.762  11.585  70.555  1.00  0.00    -0.146 C  
HETATM   11  O   UNL     1      -7.908  10.807  69.942  1.00  0.00     0.012 OA 
HETATM   12  O   UNL     1      -8.750  10.139  68.952  1.00  0.00    -0.131 OA 
HETATM   13  C   UNL     1      -8.573  10.703  67.627  1.00  0.00    -0.118 C  
HETATM   14  C   UNL     1      -7.986  12.142  67.679  1.00  0.00    -0.157 C  
HETATM   15  O   UNL     1      -8.996  13.081  68.055  1.00  0.00    -0.185 OA 
HETATM   16  O   UNL     1      -6.815  12.276  68.506  1.00  0.00    -0.069 OA 
HETATM   17  C   UNL     1     -10.051  13.204  67.091  1.00  0.00    -0.242 C  
HETATM   18  C   UNL     1     -10.185  11.981  66.142  1.00  0.00    -0.255 C  
HETATM   19  C   UNL     1     -11.501  12.002  65.355  1.00  0.00    -0.361 C  
ENDROOT
BRANCH  17  20
HETATM   20  O   UNL     1     -11.308  13.347  67.752  1.00  0.00    -0.266 OA 
BRANCH  20  21
HETATM   21  C   UNL     1     -11.653  14.694  68.040  1.00  0.00    -0.340 C  
HETATM   22  C   UNL     1     -12.024  14.761  69.510  1.00  0.00    -0.351 C  
ENDBRANCH  20  21
ENDBRANCH  17  20
TORSDOF 2
ENDMDL
MODEL       94
REMARK 921   NORMALIZED FREE ENERGY PREDICTED BY IDOCK:   -3.52 KCAL/MOL
REMARK 922        TOTAL FREE ENERGY PREDICTED BY IDOCK:   -4.15 KCAL/MOL
REMARK 923 INTER-LIGAND FREE ENERGY PREDICTED BY IDOCK:   -3.94 KCAL/MOL
REMARK 924 INTRA-LIGAND FREE ENERGY PREDICTED BY IDOCK:   -0.21 KCAL/MOL
REMARK 927      BINDING AFFINITY PREDICTED BY RF-SCORE:    0.00 PKD
ROOT
HETATM    1  C   UNL     1      -8.251  10.502  69.329  1.00  0.00    -0.151 C  
HETATM    2  C   UNL     1      -8.473  11.860  68.622  1.00  0.00    -0.045 C  
HETATM    3  C   UNL     1      -9.851  11.981  67.974  1.00  0.00    -0.199 C  
HETATM    4  C   UNL     1     -10.178  10.828  67.000  1.00  0.00    -0.261 C  
HETATM    5  C   UNL     1     -10.443  11.337  65.586  1.00  0.00    -0.317 C  
HETATM    6  C   UNL     1      -9.085   9.722  67.063  1.00  0.00    -0.157 C  
HETATM    7  C   UNL     1      -9.374   8.527  66.158  1.00  0.00    -0.279 C  
HETATM    8  C   UNL     1     -10.458   7.619  66.717  1.00  0.00    -0.319 C  
HETATM    9  C   UNL     1     -10.099   7.001  68.093  1.00  0.00    -0.169 C  
HETATM   10  C   UNL     1     -10.782   5.631  68.155  1.00  0.00    -0.231 C  
HETATM   11  O   UNL     1     -10.599   7.741  69.206  1.00  0.00    -0.220 OA 
HETATM   12  O   UNL     1     -10.218   9.148  69.106  1.00  0.00    -0.195 OA 
HETATM   13  C   UNL     1      -8.888   9.308  68.549  1.00  0.00    -0.129 C  
HETATM   14  C   UNL     1      -8.034   8.016  68.698  1.00  0.00    -0.123 C  
HETATM   15  O   UNL     1      -7.566   7.878  70.042  1.00  0.00    -0.080 OA 
HETATM   16  O   UNL     1      -8.691   6.816  68.248  1.00  0.00    -0.123 OA 
HETATM   17  C   UNL     1      -6.652   8.910  70.438  1.00  0.00    -0.045 C  
HETATM   18  C   UNL     1      -6.754  10.206  69.587  1.00  0.00    -0.076 C  
HETATM   19  C   UNL     1      -6.007  11.381  70.230  1.00  0.00    -0.159 C  
ENDROOT
BRANCH  17  20
HETATM   20  O   UNL     1      -6.896   9.291  71.792  1.00  0.00    -0.300 OA 
BRANCH  20  21
HETATM   21  C   UNL     1      -7.072   8.191  72.673  1.00  0.00    -0.097 C  
HETATM   22  C   UNL     1      -8.496   8.254  73.193  1.00  0.00    -0.265 C  
ENDBRANCH  20  21
ENDBRANCH  17  20
TORSDOF 2
ENDMDL
MODEL       95
REMARK 921   NORMALIZED FREE ENERGY PREDICTED BY IDOCK:   -3.50 KCAL/MOL
REMARK 922        TOTAL FREE ENERGY PREDICTED BY IDOCK:   -4.13 KCAL/MOL
REMARK 923 INTER-LIGAND FREE ENERGY PREDICTED BY IDOCK:   -3.94 KCAL/MOL
REMARK 924 INTRA-LIGAND FREE ENERGY PREDICTED BY IDOCK:   -0.19 KCAL/MOL
REMARK 927      BINDING AFFINITY PREDICTED BY RF-SCORE:    0.00 PKD
ROOT
HETATM    1  C   UNL     1      -7.875  11.781  68.145  1.00  0.00    -0.135 C  
HETATM    2  C   UNL     1      -6.540  12.086  68.865  1.00  0.00    -0.089 C  
HETATM    3  C   UNL     1      -5.693  10.839  69.113  1.00  0.00    -0.040 C  
HETATM    4  C   UNL     1      -6.447   9.721  69.867  1.00  0.00    -0.062 C  
HETATM    5  C   UNL     1      -5.768   9.368  71.187  1.00  0.00    -0.064 C  
HETATM    6  C   UNL     1      -7.954  10.078  70.024  1.00  0.00    -0.166 C  
HETATM    7  C   UNL     1      -8.769   8.989  70.719  1.00  0.00    -0.269 C  
HETATM    8  C   UNL     1      -9.048   7.800  69.813  1.00  0.00    -0.147 C  
HETATM    9  C   UNL     1      -9.866   8.165  68.548  1.00  0.00    -0.179 C  
HETATM   10  C   UNL     1     -10.707   6.935  68.194  1.00  0.00    -0.260 C  
HETATM   11  O   UNL     1      -9.063   8.436  67.400  1.00  0.00    -0.135 OA 
HETATM   12  O   UNL     1      -8.035   9.428  67.709  1.00  0.00    -0.095 OA 
HETATM   13  C   UNL     1      -8.524  10.443  68.624  1.00  0.00    -0.129 C  
HETATM   14  C   UNL     1     -10.076  10.534  68.618  1.00  0.00    -0.180 C  
HETATM   15  O   UNL     1     -10.533  11.220  67.450  1.00  0.00    -0.196 OA 
HETATM   16  O   UNL     1     -10.745   9.268  68.775  1.00  0.00    -0.217 OA 
HETATM   17  C   UNL     1     -10.134  12.598  67.403  1.00  0.00    -0.218 C  
HETATM   18  C   UNL     1      -8.902  12.929  68.290  1.00  0.00    -0.168 C  
HETATM   19  C   UNL     1      -8.315  14.309  67.971  1.00  0.00    -0.157 C  
ENDROOT
BRANCH  17  20
HETATM   20  O   UNL     1      -9.787  12.965  66.068  1.00  0.00    -0.267 OA 
BRANCH  20  21
HETATM   21  C   UNL     1     -10.803  13.693  65.393  1.00  0.00    -0.301 C  
HETATM   22  C   UNL     1     -11.914  13.950  66.394  1.00  0.00    -0.467 C  
ENDBRANCH  20  21
ENDBRANCH  17  20
TORSDOF 2
ENDMDL
MODEL       96
REMARK 921   NORMALIZED FREE ENERGY PREDICTED BY IDOCK:   -3.48 KCAL/MOL
REMARK 922        TOTAL FREE ENERGY PREDICTED BY IDOCK:   -4.11 KCAL/MOL
REMARK 923 INTER-LIGAND FREE ENERGY PREDICTED BY IDOCK:   -3.94 KCAL/MOL
REMARK 924 INTRA-LIGAND FREE ENERGY PREDICTED BY IDOCK:   -0.17 KCAL/MOL
REMARK 927      BINDING AFFINITY PREDICTED BY RF-SCORE:    0.00 PKD
ROOT
HETATM    1  C   UNL     1      -9.748  11.486  66.527  1.00  0.00    -0.226 C  
HETATM    2  C   UNL     1      -9.042  11.188  65.183  1.00  0.00    -0.161 C  
HETATM    3  C   UNL     1      -9.082   9.710  64.798  1.00  0.00    -0.283 C  
HETATM    4  C   UNL     1      -8.530   8.773  65.894  1.00  0.00    -0.154 C  
HETATM    5  C   UNL     1      -7.337   7.960  65.399  1.00  0.00    -0.076 C  
HETATM    6  C   UNL     1      -8.238   9.562  67.204  1.00  0.00    -0.113 C  
HETATM    7  C   UNL     1      -7.735   8.682  68.346  1.00  0.00    -0.100 C  
HETATM    8  C   UNL     1      -8.844   7.857  68.980  1.00  0.00    -0.145 C  
HETATM    9  C   UNL     1      -9.975   8.714  69.604  1.00  0.00    -0.191 C  
HETATM   10  C   UNL     1     -10.525   7.923  70.794  1.00  0.00    -0.218 C  
HETATM   11  O   UNL     1     -11.081   8.933  68.730  1.00  0.00     0.023 OA 
HETATM   12  O   UNL     1     -10.630   9.452  67.441  1.00  0.00    -0.265 OA 
HETATM   13  C   UNL     1      -9.513  10.366  67.590  1.00  0.00    -0.148 C  
HETATM   14  C   UNL     1      -9.430  10.957  69.026  1.00  0.00    -0.146 C  
HETATM   15  O   UNL     1     -10.419  11.974  69.205  1.00  0.00    -0.048 OA 
HETATM   16  O   UNL     1      -9.496   9.975  70.077  1.00  0.00    -0.224 OA 
HETATM   17  C   UNL     1     -10.212  13.126  68.375  1.00  0.00    -0.247 C  
HETATM   18  C   UNL     1      -9.334  12.853  67.123  1.00  0.00    -0.229 C  
HETATM   19  C   UNL     1      -9.401  14.000  66.108  1.00  0.00    -0.143 C  
ENDROOT
BRANCH  17  20
HETATM   20  O   UNL     1     -11.463  13.620  67.896  1.00  0.00    -0.279 OA 
BRANCH  20  21
HETATM   21  C   UNL     1     -11.848  14.858  68.475  1.00  0.00    -0.294 C  
HETATM   22  C   UNL     1     -10.760  15.254  69.457  1.00  0.00    -0.270 C  
ENDBRANCH  20  21
ENDBRANCH  17  20
TORSDOF 2
ENDMDL
MODEL       97
REMARK 921   NORMALIZED FREE ENERGY PREDICTED BY IDOCK:   -3.47 KCAL/MOL
REMARK 922        TOTAL FREE ENERGY PREDICTED BY IDOCK:   -4.10 KCAL/MOL
REMARK 923 INTER-LIGAND FREE ENERGY PREDICTED BY IDOCK:   -3.88 KCAL/MOL
REMARK 924 INTRA-LIGAND FREE ENERGY PREDICTED BY IDOCK:   -0.22 KCAL/MOL
REMARK 927      BINDING AFFINITY PREDICTED BY RF-SCORE:    0.00 PKD
ROOT
HETATM    1  C   UNL     1     -10.251   6.307  69.481  1.00  0.00    -0.239 C  
HETATM    2  C   UNL     1      -9.841   5.913  68.043  1.00  0.00    -0.144 C  
HETATM    3  C   UNL     1      -9.612   4.411  67.875  1.00  0.00    -0.205 C  
HETATM    4  C   UNL     1      -8.600   3.825  68.883  1.00  0.00    -0.117 C  
HETATM    5  C   UNL     1      -7.402   3.191  68.182  1.00  0.00    -0.050 C  
HETATM    6  C   UNL     1      -8.201   4.887  69.949  1.00  0.00    -0.073 C  
HETATM    7  C   UNL     1      -7.238   4.356  71.008  1.00  0.00    -0.044 C  
HETATM    8  C   UNL     1      -7.925   3.457  72.024  1.00  0.00    -0.063 C  
HETATM    9  C   UNL     1      -9.044   4.170  72.824  1.00  0.00    -0.105 C  
HETATM   10  C   UNL     1      -9.081   3.521  74.211  1.00  0.00    -0.097 C  
HETATM   11  O   UNL     1     -10.349   3.995  72.273  1.00  0.00    -0.175 OA 
HETATM   12  O   UNL     1     -10.363   4.345  70.854  1.00  0.00    -0.113 OA 
HETATM   13  C   UNL     1      -9.500   5.476  70.569  1.00  0.00    -0.164 C  
HETATM   14  C   UNL     1      -9.219   6.329  71.839  1.00  0.00    -0.146 C  
HETATM   15  O   UNL     1     -10.351   7.142  72.156  1.00  0.00    -0.193 OA 
HETATM   16  O   UNL     1      -8.787   5.567  72.982  1.00  0.00    -0.121 OA 
HETATM   17  C   UNL     1     -10.638   8.136  71.163  1.00  0.00    -0.204 C  
HETATM   18  C   UNL     1     -10.050   7.816  69.760  1.00  0.00    -0.194 C  
HETATM   19  C   UNL     1     -10.638   8.717  68.668  1.00  0.00    -0.174 C  
ENDROOT
BRANCH  17  20
HETATM   20  O   UNL     1     -12.049   8.270  70.992  1.00  0.00    -0.288 OA 
BRANCH  20  21
HETATM   21  C   UNL     1     -12.797   7.205  71.561  1.00  0.00    -0.391 C  
HETATM   22  C   UNL     1     -14.264   7.580  71.461  1.00  0.00    -0.580 C  
ENDBRANCH  20  21
ENDBRANCH  17  20
TORSDOF 2
ENDMDL
MODEL       98
REMARK 921   NORMALIZED FREE ENERGY PREDICTED BY IDOCK:   -3.47 KCAL/MOL
REMARK 922        TOTAL FREE ENERGY PREDICTED BY IDOCK:   -4.10 KCAL/MOL
REMARK 923 INTER-LIGAND FREE ENERGY PREDICTED BY IDOCK:   -4.01 KCAL/MOL
REMARK 924 INTRA-LIGAND FREE ENERGY PREDICTED BY IDOCK:   -0.08 KCAL/MOL
REMARK 927      BINDING AFFINITY PREDICTED BY RF-SCORE:    0.00 PKD
ROOT
HETATM    1  C   UNL     1     -10.821  12.698  67.235  1.00  0.00    -0.277 C  
HETATM    2  C   UNL     1     -11.532  11.394  67.667  1.00  0.00    -0.348 C  
HETATM    3  C   UNL     1     -11.157  10.946  69.079  1.00  0.00    -0.302 C  
HETATM    4  C   UNL     1      -9.635  10.805  69.297  1.00  0.00    -0.121 C  
HETATM    5  C   UNL     1      -9.247   9.383  69.695  1.00  0.00    -0.195 C  
HETATM    6  C   UNL     1      -8.846  11.338  68.065  1.00  0.00    -0.148 C  
HETATM    7  C   UNL     1      -7.331  11.273  68.237  1.00  0.00    -0.095 C  
HETATM    8  C   UNL     1      -6.800  12.356  69.163  1.00  0.00    -0.069 C  
HETATM    9  C   UNL     1      -7.084  13.794  68.660  1.00  0.00    -0.104 C  
HETATM   10  C   UNL     1      -5.929  14.672  69.151  1.00  0.00    -0.100 C  
HETATM   11  O   UNL     1      -8.273  14.370  69.199  1.00  0.00    -0.085 OA 
HETATM   12  O   UNL     1      -9.414  13.475  69.013  1.00  0.00     0.088 OA 
HETATM   13  C   UNL     1      -9.347  12.775  67.744  1.00  0.00    -0.199 C  
HETATM   14  C   UNL     1      -8.433  13.508  66.721  1.00  0.00     0.034 C  
HETATM   15  O   UNL     1      -9.105  14.645  66.175  1.00  0.00    -0.226 OA 
HETATM   16  O   UNL     1      -7.135  13.865  67.233  1.00  0.00    -0.133 OA 
HETATM   17  C   UNL     1     -10.255  14.307  65.387  1.00  0.00    -0.371 C  
HETATM   18  C   UNL     1     -10.845  12.904  65.701  1.00  0.00    -0.296 C  
HETATM   19  C   UNL     1     -12.236  12.711  65.086  1.00  0.00    -0.539 C  
ENDROOT
BRANCH  17  20
HETATM   20  O   UNL     1     -11.303  15.249  65.614  1.00  0.00    -0.301 OA 
BRANCH  20  21
HETATM   21  C   UNL     1     -10.980  16.241  66.578  1.00  0.00    -0.007 C  
HETATM   22  C   UNL     1     -10.427  17.438  65.827  1.00  0.00    -0.221 C  
ENDBRANCH  20  21
ENDBRANCH  17  20
TORSDOF 2
ENDMDL
MODEL       99
REMARK 921   NORMALIZED FREE ENERGY PREDICTED BY IDOCK:   -3.45 KCAL/MOL
REMARK 922        TOTAL FREE ENERGY PREDICTED BY IDOCK:   -4.08 KCAL/MOL
REMARK 923 INTER-LIGAND FREE ENERGY PREDICTED BY IDOCK:   -3.81 KCAL/MOL
REMARK 924 INTRA-LIGAND FREE ENERGY PREDICTED BY IDOCK:   -0.27 KCAL/MOL
REMARK 927      BINDING AFFINITY PREDICTED BY RF-SCORE:    0.00 PKD
ROOT
HETATM    1  C   UNL     1     -10.108   8.948  68.789  1.00  0.00    -0.215 C  
HETATM    2  C   UNL     1     -11.013  10.182  69.020  1.00  0.00    -0.265 C  
HETATM    3  C   UNL     1     -11.409  10.886  67.724  1.00  0.00    -0.366 C  
HETATM    4  C   UNL     1     -10.204  11.283  66.844  1.00  0.00    -0.254 C  
HETATM    5  C   UNL     1     -10.144  12.790  66.609  1.00  0.00    -0.248 C  
HETATM    6  C   UNL     1      -8.881  10.696  67.418  1.00  0.00    -0.132 C  
HETATM    7  C   UNL     1      -7.655  11.011  66.565  1.00  0.00    -0.146 C  
HETATM    8  C   UNL     1      -7.589  10.170  65.301  1.00  0.00    -0.144 C  
HETATM    9  C   UNL     1      -7.506   8.646  65.574  1.00  0.00    -0.085 C  
HETATM   10  C   UNL     1      -6.696   8.034  64.427  1.00  0.00    -0.061 C  
HETATM   11  O   UNL     1      -8.771   7.987  65.559  1.00  0.00    -0.157 OA 
HETATM   12  O   UNL     1      -9.720   8.664  66.440  1.00  0.00    -0.229 OA 
HETATM   13  C   UNL     1      -9.075   9.169  67.638  1.00  0.00    -0.122 C  
HETATM   14  C   UNL     1      -7.736   8.436  67.933  1.00  0.00    -0.103 C  
HETATM   15  O   UNL     1      -7.985   7.142  68.488  1.00  0.00    -0.119 OA 
HETATM   16  O   UNL     1      -6.842   8.356  66.806  1.00  0.00    -0.067 OA 
HETATM   17  C   UNL     1      -8.614   7.184  69.777  1.00  0.00    -0.141 C  
HETATM   18  C   UNL     1      -9.360   8.514  70.073  1.00  0.00    -0.164 C  
HETATM   19  C   UNL     1     -10.275   8.404  71.298  1.00  0.00    -0.269 C  
ENDROOT
BRANCH  17  20
HETATM   20  O   UNL     1      -9.581   6.140  69.888  1.00  0.00    -0.156 OA 
BRANCH  20  21
HETATM   21  C   UNL     1      -9.078   4.957  70.491  1.00  0.00    -0.130 C  
HETATM   22  C   UNL     1     -10.061   4.551  71.574  1.00  0.00    -0.239 C  
ENDBRANCH  20  21
ENDBRANCH  17  20
TORSDOF 2
ENDMDL
MODEL      100
REMARK 921   NORMALIZED FREE ENERGY PREDICTED BY IDOCK:   -3.37 KCAL/MOL
REMARK 922        TOTAL FREE ENERGY PREDICTED BY IDOCK:   -3.98 KCAL/MOL
REMARK 923 INTER-LIGAND FREE ENERGY PREDICTED BY IDOCK:   -3.65 KCAL/MOL
REMARK 924 INTRA-LIGAND FREE ENERGY PREDICTED BY IDOCK:   -0.33 KCAL/MOL
REMARK 927      BINDING AFFINITY PREDICTED BY RF-SCORE:    0.00 PKD
ROOT
HETATM    1  C   UNL     1      -8.252  16.802  68.001  1.00  0.00    -0.192 C  
HETATM    2  C   UNL     1      -9.748  17.192  67.943  1.00  0.00    -0.270 C  
HETATM    3  C   UNL     1     -10.618  16.375  68.898  1.00  0.00    -0.307 C  
HETATM    4  C   UNL     1     -10.471  14.849  68.714  1.00  0.00    -0.242 C  
HETATM    5  C   UNL     1     -11.798  14.190  68.348  1.00  0.00    -0.388 C  
HETATM    6  C   UNL     1      -9.323  14.519  67.715  1.00  0.00    -0.198 C  
HETATM    7  C   UNL     1      -9.092  13.022  67.527  1.00  0.00    -0.191 C  
HETATM    8  C   UNL     1      -8.374  12.387  68.707  1.00  0.00     0.124 C  
HETATM    9  C   UNL     1      -6.965  12.980  68.967  1.00  0.00    -0.056 C  
HETATM   10  C   UNL     1      -6.110  11.851  69.550  1.00  0.00    -0.108 C  
HETATM   11  O   UNL     1      -6.949  14.027  69.936  1.00  0.00    -0.001 OA 
HETATM   12  O   UNL     1      -7.938  15.052  69.609  1.00  0.00    -0.184 OA 
HETATM   13  C   UNL     1      -8.038  15.265  68.178  1.00  0.00    -0.136 C  
HETATM   14  C   UNL     1      -6.767  14.781  67.425  1.00  0.00    -0.029 C  
HETATM   15  O   UNL     1      -5.699  15.717  67.593  1.00  0.00    -0.154 OA 
HETATM   16  O   UNL     1      -6.348  13.446  67.765  1.00  0.00    -0.136 OA 
HETATM   17  C   UNL     1      -5.958  16.993  66.990  1.00  0.00    -0.179 C  
HETATM   18  C   UNL     1      -7.466  17.289  66.760  1.00  0.00    -0.258 C  
HETATM   19  C   UNL     1      -7.720  18.764  66.423  1.00  0.00    -0.289 C  
ENDROOT
BRANCH  17  20
HETATM   20  O   UNL     1      -5.459  18.041  67.822  1.00  0.00    -0.146 OA 
BRANCH  20  21
HETATM   21  C   UNL     1      -5.151  17.623  69.144  1.00  0.00    -0.174 C  
HETATM   22  C   UNL     1      -6.003  18.451  70.088  1.00  0.00    -0.134 C  
ENDBRANCH  20  21
ENDBRANCH  17  20
TORSDOF 2
ENDMDL
MODEL      101
REMARK 921   NORMALIZED FREE ENERGY PREDICTED BY IDOCK:   -3.27 KCAL/MOL
REMARK 922        TOTAL FREE ENERGY PREDICTED BY IDOCK:   -3.88 KCAL/MOL
REMARK 923 INTER-LIGAND FREE ENERGY PREDICTED BY IDOCK:   -3.63 KCAL/MOL
REMARK 924 INTRA-LIGAND FREE ENERGY PREDICTED BY IDOCK:   -0.25 KCAL/MOL
REMARK 927      BINDING AFFINITY PREDICTED BY RF-SCORE:    0.00 PKD
ROOT
HETATM    1  C   UNL     1     -10.085   8.084  70.629  1.00  0.00    -0.203 C  
HETATM    2  C   UNL     1      -9.939   7.017  71.739  1.00  0.00    -0.187 C  
HETATM    3  C   UNL     1      -8.686   6.157  71.585  1.00  0.00    -0.135 C  
HETATM    4  C   UNL     1      -8.565   5.486  70.200  1.00  0.00    -0.122 C  
HETATM    5  C   UNL     1      -8.524   3.963  70.308  1.00  0.00    -0.091 C  
HETATM    6  C   UNL     1      -9.669   6.006  69.233  1.00  0.00    -0.174 C  
HETATM    7  C   UNL     1      -9.575   5.417  67.828  1.00  0.00    -0.147 C  
HETATM    8  C   UNL     1      -8.444   6.024  67.013  1.00  0.00    -0.108 C  
HETATM    9  C   UNL     1      -8.588   7.552  66.798  1.00  0.00    -0.127 C  
HETATM   10  C   UNL     1      -7.951   7.870  65.442  1.00  0.00    -0.123 C  
HETATM   11  O   UNL     1      -7.885   8.340  67.758  1.00  0.00    -0.110 OA 
HETATM   12  O   UNL     1      -8.230   7.930  69.118  1.00  0.00    -0.127 OA 
HETATM   13  C   UNL     1      -9.628   7.560  69.230  1.00  0.00    -0.158 C  
HETATM   14  C   UNL     1     -10.487   8.175  68.088  1.00  0.00    -0.170 C  
HETATM   15  O   UNL     1     -10.728   9.562  68.335  1.00  0.00    -0.221 OA 
HETATM   16  O   UNL     1      -9.956   7.965  66.767  1.00  0.00    -0.227 OA 
HETATM   17  C   UNL     1     -11.528   9.806  69.501  1.00  0.00    -0.009 C  
HETATM   18  C   UNL     1     -11.526   8.636  70.524  1.00  0.00    -0.208 C  
HETATM   19  C   UNL     1     -12.115   9.051  71.878  1.00  0.00    -0.448 C  
ENDROOT
BRANCH  17  20
HETATM   20  O   UNL     1     -11.049  10.956  70.196  1.00  0.00    -0.261 OA 
BRANCH  20  21
HETATM   21  C   UNL     1     -11.584  12.180  69.713  1.00  0.00    -0.262 C  
HETATM   22  C   UNL     1     -11.953  13.019  70.923  1.00  0.00    -0.008 C  
ENDBRANCH  20  21
ENDBRANCH  17  20
TORSDOF 2
ENDMDL
MODEL      102
REMARK 921   NORMALIZED FREE ENERGY PREDICTED BY IDOCK:   -3.25 KCAL/MOL
REMARK 922        TOTAL FREE ENERGY PREDICTED BY IDOCK:   -3.85 KCAL/MOL
REMARK 923 INTER-LIGAND FREE ENERGY PREDICTED BY IDOCK:   -3.60 KCAL/MOL
REMARK 924 INTRA-LIGAND FREE ENERGY PREDICTED BY IDOCK:   -0.25 KCAL/MOL
REMARK 927      BINDING AFFINITY PREDICTED BY RF-SCORE:    0.00 PKD
ROOT
HETATM    1  C   UNL     1      -9.728   6.340  67.256  1.00  0.00    -0.150 C  
HETATM    2  C   UNL     1     -10.267   5.644  68.529  1.00  0.00    -0.253 C  
HETATM    3  C   UNL     1     -11.335   6.463  69.253  1.00  0.00    -0.405 C  
HETATM    4  C   UNL     1     -10.883   7.899  69.596  1.00  0.00    -0.177 C  
HETATM    5  C   UNL     1     -10.920   8.163  71.099  1.00  0.00    -0.271 C  
HETATM    6  C   UNL     1      -9.504   8.217  68.948  1.00  0.00    -0.151 C  
HETATM    7  C   UNL     1      -9.023   9.642  69.208  1.00  0.00    -0.173 C  
HETATM    8  C   UNL     1      -9.761  10.672  68.367  1.00  0.00    -0.172 C  
HETATM    9  C   UNL     1      -9.587  10.463  66.841  1.00  0.00    -0.172 C  
HETATM   10  C   UNL     1      -9.651  11.850  66.194  1.00  0.00    -0.250 C  
HETATM   11  O   UNL     1     -10.633   9.701  66.240  1.00  0.00    -0.127 OA 
HETATM   12  O   UNL     1     -10.837   8.444  66.958  1.00  0.00    -0.224 OA 
HETATM   13  C   UNL     1      -9.585   7.885  67.430  1.00  0.00    -0.152 C  
HETATM   14  C   UNL     1      -8.365   8.433  66.636  1.00  0.00    -0.110 C  
HETATM   15  O   UNL     1      -8.280   7.805  65.355  1.00  0.00    -0.128 OA 
HETATM   16  O   UNL     1      -8.329   9.867  66.519  1.00  0.00    -0.123 OA 
HETATM   17  C   UNL     1      -8.008   6.398  65.423  1.00  0.00    -0.116 C  
HETATM   18  C   UNL     1      -8.377   5.749  66.786  1.00  0.00    -0.109 C  
HETATM   19  C   UNL     1      -8.378   4.217  66.715  1.00  0.00    -0.101 C  
ENDROOT
BRANCH  17  20
HETATM   20  O   UNL     1      -8.754   5.703  64.425  1.00  0.00    -0.051 OA 
BRANCH  20  21
HETATM   21  C   UNL     1      -8.080   5.593  63.180  1.00  0.00    -0.101 C  
HETATM   22  C   UNL     1      -8.342   4.197  62.646  1.00  0.00    -0.083 C  
ENDBRANCH  20  21
ENDBRANCH  17  20
TORSDOF 2
ENDMDL
MODEL      103
REMARK 921   NORMALIZED FREE ENERGY PREDICTED BY IDOCK:   -3.19 KCAL/MOL
REMARK 922        TOTAL FREE ENERGY PREDICTED BY IDOCK:   -3.79 KCAL/MOL
REMARK 923 INTER-LIGAND FREE ENERGY PREDICTED BY IDOCK:   -3.33 KCAL/MOL
REMARK 924 INTRA-LIGAND FREE ENERGY PREDICTED BY IDOCK:   -0.45 KCAL/MOL
REMARK 927      BINDING AFFINITY PREDICTED BY RF-SCORE:    0.00 PKD
ROOT
HETATM    1  C   UNL     1      -9.931  14.200  68.197  1.00  0.00    -0.232 C  
HETATM    2  C   UNL     1      -9.373  15.458  68.903  1.00  0.00    -0.218 C  
HETATM    3  C   UNL     1      -7.912  15.743  68.557  1.00  0.00    -0.141 C  
HETATM    4  C   UNL     1      -6.973  14.544  68.811  1.00  0.00    -0.104 C  
HETATM    5  C   UNL     1      -5.880  14.883  69.821  1.00  0.00    -0.116 C  
HETATM    6  C   UNL     1      -7.788  13.272  69.188  1.00  0.00     0.345 C  
HETATM    7  C   UNL     1      -6.919  12.035  69.405  1.00  0.00     0.024 C  
HETATM    8  C   UNL     1      -6.414  11.439  68.101  1.00  0.00    -0.056 C  
HETATM    9  C   UNL     1      -7.548  10.971  67.154  1.00  0.00    -0.117 C  
HETATM   10  C   UNL     1      -7.001   9.778  66.363  1.00  0.00    -0.093 C  
HETATM   11  O   UNL     1      -7.929  11.945  66.183  1.00  0.00     0.130 OA 
HETATM   12  O   UNL     1      -8.225  13.225  66.823  1.00  0.00    -0.028 OA 
HETATM   13  C   UNL     1      -8.881  13.048  68.105  1.00  0.00    -0.194 C  
HETATM   14  C   UNL     1      -9.560  11.654  68.225  1.00  0.00    -0.198 C  
HETATM   15  O   UNL     1     -10.780  11.626  67.481  1.00  0.00    -0.198 OA 
HETATM   16  O   UNL     1      -8.709  10.547  67.872  1.00  0.00    -0.125 OA 
HETATM   17  C   UNL     1     -11.784  12.513  67.995  1.00  0.00    -0.355 C  
HETATM   18  C   UNL     1     -11.219  13.667  68.869  1.00  0.00    -0.309 C  
HETATM   19  C   UNL     1     -12.263  14.760  69.127  1.00  0.00    -0.208 C  
ENDROOT
BRANCH  17  20
HETATM   20  O   UNL     1     -12.497  13.126  66.921  1.00  0.00    -0.279 OA 
BRANCH  20  21
HETATM   21  C   UNL     1     -12.049  12.723  65.635  1.00  0.00    -0.459 C  
HETATM   22  C   UNL     1     -11.794  13.985  64.831  1.00  0.00    -0.402 C  
ENDBRANCH  20  21
ENDBRANCH  17  20
TORSDOF 2
ENDMDL
MODEL      104
REMARK 921   NORMALIZED FREE ENERGY PREDICTED BY IDOCK:   -3.16 KCAL/MOL
REMARK 922        TOTAL FREE ENERGY PREDICTED BY IDOCK:   -3.75 KCAL/MOL
REMARK 923 INTER-LIGAND FREE ENERGY PREDICTED BY IDOCK:   -3.27 KCAL/MOL
REMARK 924 INTRA-LIGAND FREE ENERGY PREDICTED BY IDOCK:   -0.48 KCAL/MOL
REMARK 927      BINDING AFFINITY PREDICTED BY RF-SCORE:    0.00 PKD
ROOT
HETATM    1  C   UNL     1      -9.698   7.764  67.980  1.00  0.00    -0.176 C  
HETATM    2  C   UNL     1     -10.535   8.845  68.703  1.00  0.00    -0.223 C  
HETATM    3  C   UNL     1     -10.853  10.050  67.818  1.00  0.00    -0.337 C  
HETATM    4  C   UNL     1      -9.602  10.697  67.186  1.00  0.00    -0.189 C  
HETATM    5  C   UNL     1      -9.448  12.158  67.600  1.00  0.00    -0.187 C  
HETATM    6  C   UNL     1      -8.333   9.840  67.463  1.00  0.00    -0.114 C  
HETATM    7  C   UNL     1      -7.067  10.401  66.821  1.00  0.00    -0.105 C  
HETATM    8  C   UNL     1      -7.016  10.159  65.321  1.00  0.00    -0.137 C  
HETATM    9  C   UNL     1      -7.029   8.659  64.934  1.00  0.00    -0.073 C  
HETATM   10  C   UNL     1      -6.225   8.528  63.637  1.00  0.00    -0.073 C  
HETATM   11  O   UNL     1      -8.330   8.149  64.644  1.00  0.00    -0.148 OA 
HETATM   12  O   UNL     1      -9.262   8.458  65.727  1.00  0.00    -0.182 OA 
HETATM   13  C   UNL     1      -8.622   8.375  67.026  1.00  0.00    -0.122 C  
HETATM   14  C   UNL     1      -7.337   7.501  66.990  1.00  0.00    -0.094 C  
HETATM   15  O   UNL     1      -7.677   6.113  66.955  1.00  0.00    -0.100 OA 
HETATM   16  O   UNL     1      -6.418   7.840  65.934  1.00  0.00    -0.042 OA 
HETATM   17  C   UNL     1      -8.338   5.656  68.143  1.00  0.00    -0.099 C  
HETATM   18  C   UNL     1      -9.013   6.788  68.966  1.00  0.00    -0.131 C  
HETATM   19  C   UNL     1      -9.967   6.237  70.033  1.00  0.00    -0.208 C  
ENDROOT
BRANCH  17  20
HETATM   20  O   UNL     1      -9.368   4.726  67.808  1.00  0.00    -0.123 OA 
BRANCH  20  21
HETATM   21  C   UNL     1      -9.419   4.405  66.425  1.00  0.00    -0.176 C  
HETATM   22  C   UNL     1     -10.764   4.876  65.903  1.00  0.00    -0.233 C  
ENDBRANCH  20  21
ENDBRANCH  17  20
TORSDOF 2
ENDMDL
MODEL      105
REMARK 921   NORMALIZED FREE ENERGY PREDICTED BY IDOCK:   -2.97 KCAL/MOL
REMARK 922        TOTAL FREE ENERGY PREDICTED BY IDOCK:   -3.55 KCAL/MOL
REMARK 923 INTER-LIGAND FREE ENERGY PREDICTED BY IDOCK:   -3.25 KCAL/MOL
REMARK 924 INTRA-LIGAND FREE ENERGY PREDICTED BY IDOCK:   -0.30 KCAL/MOL
REMARK 927      BINDING AFFINITY PREDICTED BY RF-SCORE:    0.00 PKD
ROOT
HETATM    1  C   UNL     1      -9.414   5.012  66.803  1.00  0.00    -0.148 C  
HETATM    2  C   UNL     1     -10.719   5.843  66.827  1.00  0.00    -0.371 C  
HETATM    3  C   UNL     1     -10.748   6.882  67.948  1.00  0.00    -0.294 C  
HETATM    4  C   UNL     1     -10.485   6.286  69.348  1.00  0.00    -0.298 C  
HETATM    5  C   UNL     1     -11.658   6.524  70.296  1.00  0.00    -0.473 C  
HETATM    6  C   UNL     1     -10.070   4.789  69.244  1.00  0.00    -0.217 C  
HETATM    7  C   UNL     1      -9.747   4.152  70.594  1.00  0.00    -0.273 C  
HETATM    8  C   UNL     1      -8.395   4.586  71.137  1.00  0.00    -0.095 C  
HETATM    9  C   UNL     1      -7.207   4.203  70.219  1.00  0.00    -0.042 C  
HETATM   10  C   UNL     1      -6.002   3.958  71.133  1.00  0.00    -0.014 C  
HETATM   11  O   UNL     1      -6.814   5.239  69.320  1.00  0.00    -0.050 OA 
HETATM   12  O   UNL     1      -7.965   5.738  68.569  1.00  0.00    -0.099 OA 
HETATM   13  C   UNL     1      -8.892   4.673  68.235  1.00  0.00    -0.105 C  
HETATM   14  C   UNL     1      -8.212   3.275  68.273  1.00  0.00    -0.077 C  
HETATM   15  O   UNL     1      -7.407   3.079  67.109  1.00  0.00    -0.060 OA 
HETATM   16  O   UNL     1      -7.464   3.011  69.475  1.00  0.00    -0.044 OA 
HETATM   17  C   UNL     1      -8.164   3.030  65.891  1.00  0.00    -0.088 C  
HETATM   18  C   UNL     1      -9.561   3.704  65.988  1.00  0.00    -0.143 C  
HETATM   19  C   UNL     1     -10.197   3.919  64.610  1.00  0.00    -0.216 C  
ENDROOT
BRANCH  17  20
HETATM   20  O   UNL     1      -7.460   3.701  64.846  1.00  0.00    -0.071 OA 
BRANCH  20  21
HETATM   21  C   UNL     1      -6.502   2.885  64.187  1.00  0.00    -0.030 C  
HETATM   22  C   UNL     1      -7.223   2.161  63.065  1.00  0.00    -0.040 C  
ENDBRANCH  20  21
ENDBRANCH  17  20
TORSDOF 2
ENDMDL
MODEL      106
REMARK 921   NORMALIZED FREE ENERGY PREDICTED BY IDOCK:   -2.92 KCAL/MOL
REMARK 922        TOTAL FREE ENERGY PREDICTED BY IDOCK:   -3.48 KCAL/MOL
REMARK 923 INTER-LIGAND FREE ENERGY PREDICTED BY IDOCK:   -3.85 KCAL/MOL
REMARK 924 INTRA-LIGAND FREE ENERGY PREDICTED BY IDOCK:    0.37 KCAL/MOL
REMARK 927      BINDING AFFINITY PREDICTED BY RF-SCORE:    0.00 PKD
ROOT
HETATM    1  C   UNL     1      -9.811  11.690  66.919  1.00  0.00    -0.218 C  
HETATM    2  C   UNL     1      -9.408  10.273  67.392  1.00  0.00    -0.163 C  
HETATM    3  C   UNL     1      -8.938  10.237  68.846  1.00  0.00    -0.164 C  
HETATM    4  C   UNL     1      -7.796  11.230  69.150  1.00  0.00    -0.020 C  
HETATM    5  C   UNL     1      -6.542  10.519  69.651  1.00  0.00    -0.098 C  
HETATM    6  C   UNL     1      -7.531  12.161  67.930  1.00  0.00    -0.117 C  
HETATM    7  C   UNL     1      -6.444  13.203  68.184  1.00  0.00    -0.105 C  
HETATM    8  C   UNL     1      -6.922  14.343  69.069  1.00  0.00    -0.114 C  
HETATM    9  C   UNL     1      -8.107  15.140  68.467  1.00  0.00    -0.145 C  
HETATM   10  C   UNL     1      -7.969  16.582  68.964  1.00  0.00    -0.225 C  
HETATM   11  O   UNL     1      -9.388  14.692  68.909  1.00  0.00    -0.199 OA 
HETATM   12  O   UNL     1      -9.527  13.250  68.718  1.00  0.00    -0.070 OA 
HETATM   13  C   UNL     1      -8.881  12.803  67.499  1.00  0.00    -0.187 C  
HETATM   14  C   UNL     1      -8.688  13.964  66.482  1.00  0.00     0.095 C  
HETATM   15  O   UNL     1      -9.925  14.273  65.835  1.00  0.00    -0.299 OA 
HETATM   16  O   UNL     1      -8.081  15.146  67.038  1.00  0.00    -0.200 OA 
HETATM   17  C   UNL     1     -10.421  13.209  65.011  1.00  0.00    -0.342 C  
HETATM   18  C   UNL     1      -9.854  11.809  65.377  1.00  0.00    -0.261 C  
HETATM   19  C   UNL     1     -10.635  10.675  64.704  1.00  0.00    -0.166 C  
ENDROOT
BRANCH  17  20
HETATM   20  O   UNL     1     -11.841  13.117  65.127  1.00  0.00    -0.326 OA 
BRANCH  20  21
HETATM   21  C   UNL     1     -12.532  13.389  63.916  1.00  0.00    -0.243 C  
HETATM   22  C   UNL     1     -12.962  12.056  63.333  1.00  0.00    -0.282 C  
ENDBRANCH  20  21
ENDBRANCH  17  20
TORSDOF 2
ENDMDL
MODEL      107
REMARK 921   NORMALIZED FREE ENERGY PREDICTED BY IDOCK:   -2.91 KCAL/MOL
REMARK 922        TOTAL FREE ENERGY PREDICTED BY IDOCK:   -3.47 KCAL/MOL
REMARK 923 INTER-LIGAND FREE ENERGY PREDICTED BY IDOCK:   -3.22 KCAL/MOL
REMARK 924 INTRA-LIGAND FREE ENERGY PREDICTED BY IDOCK:   -0.26 KCAL/MOL
REMARK 927      BINDING AFFINITY PREDICTED BY RF-SCORE:    0.00 PKD
ROOT
HETATM    1  C   UNL     1      -6.780  14.379  67.851  1.00  0.00    -0.177 C  
HETATM    2  C   UNL     1      -5.442  13.601  67.853  1.00  0.00    -0.099 C  
HETATM    3  C   UNL     1      -5.509  12.292  67.068  1.00  0.00    -0.020 C  
HETATM    4  C   UNL     1      -6.654  11.360  67.519  1.00  0.00    -0.078 C  
HETATM    5  C   UNL     1      -6.130  10.013  68.010  1.00  0.00    -0.049 C  
HETATM    6  C   UNL     1      -7.578  12.074  68.549  1.00  0.00    -0.126 C  
HETATM    7  C   UNL     1      -8.762  11.222  68.999  1.00  0.00     0.026 C  
HETATM    8  C   UNL     1      -9.852  11.130  67.943  1.00  0.00    -0.187 C  
HETATM    9  C   UNL     1     -10.467  12.503  67.568  1.00  0.00    -0.219 C  
HETATM   10  C   UNL     1     -11.928  12.244  67.188  1.00  0.00    -0.207 C  
HETATM   11  O   UNL     1      -9.865  13.113  66.428  1.00  0.00    -0.267 OA 
HETATM   12  O   UNL     1      -8.412  13.171  66.577  1.00  0.00     0.042 OA 
HETATM   13  C   UNL     1      -8.022  13.438  67.949  1.00  0.00    -0.155 C  
HETATM   14  C   UNL     1      -9.170  14.100  68.763  1.00  0.00    -0.080 C  
HETATM   15  O   UNL     1      -9.293  15.483  68.421  1.00  0.00    -0.186 OA 
HETATM   16  O   UNL     1     -10.437  13.423  68.662  1.00  0.00    -0.243 OA 
HETATM   17  C   UNL     1      -8.150  16.268  68.788  1.00  0.00    -0.227 C  
HETATM   18  C   UNL     1      -6.849  15.439  68.977  1.00  0.00    -0.136 C  
HETATM   19  C   UNL     1      -5.602  16.328  69.049  1.00  0.00    -0.116 C  
ENDROOT
BRANCH  17  20
HETATM   20  O   UNL     1      -7.873  17.238  67.779  1.00  0.00    -0.183 OA 
BRANCH  20  21
HETATM   21  C   UNL     1      -8.501  18.492  68.003  1.00  0.00    -0.283 C  
HETATM   22  C   UNL     1      -7.710  19.204  69.085  1.00  0.00    -0.247 C  
ENDBRANCH  20  21
ENDBRANCH  17  20
TORSDOF 2
ENDMDL
MODEL      108
REMARK 921   NORMALIZED FREE ENERGY PREDICTED BY IDOCK:   -2.90 KCAL/MOL
REMARK 922        TOTAL FREE ENERGY PREDICTED BY IDOCK:   -3.46 KCAL/MOL
REMARK 923 INTER-LIGAND FREE ENERGY PREDICTED BY IDOCK:   -3.01 KCAL/MOL
REMARK 924 INTRA-LIGAND FREE ENERGY PREDICTED BY IDOCK:   -0.46 KCAL/MOL
REMARK 927      BINDING AFFINITY PREDICTED BY RF-SCORE:    0.00 PKD
ROOT
HETATM    1  C   UNL     1      -8.176   9.192  68.075  1.00  0.00    -0.112 C  
HETATM    2  C   UNL     1      -7.186   8.173  68.688  1.00  0.00    -0.084 C  
HETATM    3  C   UNL     1      -5.926   7.980  67.845  1.00  0.00    -0.042 C  
HETATM    4  C   UNL     1      -6.218   7.604  66.376  1.00  0.00    -0.045 C  
HETATM    5  C   UNL     1      -5.607   6.255  66.003  1.00  0.00    -0.014 C  
HETATM    6  C   UNL     1      -7.741   7.696  66.072  1.00  0.00    -0.090 C  
HETATM    7  C   UNL     1      -8.093   7.384  64.620  1.00  0.00    -0.092 C  
HETATM    8  C   UNL     1      -7.740   8.522  63.675  1.00  0.00    -0.142 C  
HETATM    9  C   UNL     1      -8.486   9.843  63.992  1.00  0.00    -0.180 C  
HETATM   10  C   UNL     1      -8.682  10.571  62.658  1.00  0.00    -0.254 C  
HETATM   11  O   UNL     1      -7.747  10.738  64.823  1.00  0.00     0.027 OA 
HETATM   12  O   UNL     1      -7.277  10.057  66.028  1.00  0.00    -0.101 OA 
HETATM   13  C   UNL     1      -8.249   9.098  66.518  1.00  0.00    -0.111 C  
HETATM   14  C   UNL     1      -9.683   9.403  66.000  1.00  0.00    -0.275 C  
HETATM   15  O   UNL     1     -10.251  10.501  66.718  1.00  0.00    -0.217 OA 
HETATM   16  O   UNL     1      -9.768   9.611  64.577  1.00  0.00    -0.163 OA 
HETATM   17  C   UNL     1     -10.469  10.224  68.109  1.00  0.00    -0.190 C  
HETATM   18  C   UNL     1      -9.601   9.060  68.664  1.00  0.00    -0.158 C  
HETATM   19  C   UNL     1      -9.619   9.006  70.197  1.00  0.00    -0.217 C  
ENDROOT
BRANCH  17  20
HETATM   20  O   UNL     1     -10.160  11.374  68.895  1.00  0.00    -0.204 OA 
BRANCH  20  21
HETATM   21  C   UNL     1      -9.925  12.545  68.127  1.00  0.00    -0.224 C  
HETATM   22  C   UNL     1      -8.512  13.008  68.431  1.00  0.00    -0.118 C  
ENDBRANCH  20  21
ENDBRANCH  17  20
TORSDOF 2
ENDMDL
MODEL      109
REMARK 921   NORMALIZED FREE ENERGY PREDICTED BY IDOCK:   -2.86 KCAL/MOL
REMARK 922        TOTAL FREE ENERGY PREDICTED BY IDOCK:   -3.42 KCAL/MOL
REMARK 923 INTER-LIGAND FREE ENERGY PREDICTED BY IDOCK:   -3.13 KCAL/MOL
REMARK 924 INTRA-LIGAND FREE ENERGY PREDICTED BY IDOCK:   -0.29 KCAL/MOL
REMARK 927      BINDING AFFINITY PREDICTED BY RF-SCORE:    0.00 PKD
ROOT
HETATM    1  C   UNL     1      -9.926   8.153  68.769  1.00  0.00    -0.198 C  
HETATM    2  C   UNL     1     -10.556   8.455  67.388  1.00  0.00    -0.313 C  
HETATM    3  C   UNL     1     -10.259   7.379  66.345  1.00  0.00    -0.011 C  
HETATM    4  C   UNL     1      -8.753   7.083  66.175  1.00  0.00    -0.155 C  
HETATM    5  C   UNL     1      -8.279   7.349  64.749  1.00  0.00    -0.060 C  
HETATM    6  C   UNL     1      -7.916   7.833  67.253  1.00  0.00    -0.118 C  
HETATM    7  C   UNL     1      -6.419   7.543  67.172  1.00  0.00    -0.061 C  
HETATM    8  C   UNL     1      -6.059   6.169  67.713  1.00  0.00    -0.017 C  
HETATM    9  C   UNL     1      -6.423   5.977  69.208  1.00  0.00    -0.043 C  
HETATM   10  C   UNL     1      -5.390   5.011  69.794  1.00  0.00     0.000 C  
HETATM   11  O   UNL     1      -7.696   5.368  69.418  1.00  0.00    -0.082 OA 
HETATM   12  O   UNL     1      -8.738   6.073  68.673  1.00  0.00    -0.111 OA 
HETATM   13  C   UNL     1      -8.509   7.505  68.653  1.00  0.00    -0.129 C  
HETATM   14  C   UNL     1      -7.582   7.965  69.814  1.00  0.00    -0.090 C  
HETATM   15  O   UNL     1      -8.302   7.993  71.048  1.00  0.00    -0.108 OA 
HETATM   16  O   UNL     1      -6.365   7.205  69.937  1.00  0.00    -0.033 OA 
HETATM   17  C   UNL     1      -9.352   8.970  71.076  1.00  0.00    -0.271 C  
HETATM   18  C   UNL     1      -9.844   9.409  69.669  1.00  0.00    -0.205 C  
HETATM   19  C   UNL     1     -11.160  10.193  69.735  1.00  0.00    -0.328 C  
ENDROOT
BRANCH  17  20
HETATM   20  O   UNL     1     -10.491   8.450  71.762  1.00  0.00    -0.238 OA 
BRANCH  20  21
HETATM   21  C   UNL     1     -10.163   7.617  72.865  1.00  0.00    -0.298 C  
HETATM   22  C   UNL     1     -11.127   6.445  72.847  1.00  0.00    -0.259 C  
ENDBRANCH  20  21
ENDBRANCH  17  20
TORSDOF 2
ENDMDL
MODEL      110
REMARK 921   NORMALIZED FREE ENERGY PREDICTED BY IDOCK:   -2.86 KCAL/MOL
REMARK 922        TOTAL FREE ENERGY PREDICTED BY IDOCK:   -3.42 KCAL/MOL
REMARK 923 INTER-LIGAND FREE ENERGY PREDICTED BY IDOCK:   -3.18 KCAL/MOL
REMARK 924 INTRA-LIGAND FREE ENERGY PREDICTED BY IDOCK:   -0.24 KCAL/MOL
REMARK 927      BINDING AFFINITY PREDICTED BY RF-SCORE:    0.00 PKD
ROOT
HETATM    1  C   UNL     1      -9.190   8.001  68.450  1.00  0.00    -0.135 C  
HETATM    2  C   UNL     1      -9.814   8.192  69.853  1.00  0.00    -0.186 C  
HETATM    3  C   UNL     1     -11.122   8.982  69.825  1.00  0.00    -0.117 C  
HETATM    4  C   UNL     1     -11.002  10.350  69.119  1.00  0.00    -0.285 C  
HETATM    5  C   UNL     1     -11.351  11.505  70.054  1.00  0.00    -0.222 C  
HETATM    6  C   UNL     1      -9.608  10.504  68.442  1.00  0.00    -0.164 C  
HETATM    7  C   UNL     1      -9.442  11.818  67.682  1.00  0.00    -0.180 C  
HETATM    8  C   UNL     1     -10.190  11.826  66.358  1.00  0.00    -0.248 C  
HETATM    9  C   UNL     1      -9.714  10.730  65.371  1.00  0.00    -0.245 C  
HETATM   10  C   UNL     1      -9.907  11.292  63.960  1.00  0.00    -0.334 C  
HETATM   11  O   UNL     1     -10.483   9.530  65.427  1.00  0.00     0.202 OA 
HETATM   12  O   UNL     1     -10.585   9.042  66.800  1.00  0.00    -0.228 OA 
HETATM   13  C   UNL     1      -9.358   9.261  67.542  1.00  0.00    -0.127 C  
HETATM   14  C   UNL     1      -8.133   9.446  66.601  1.00  0.00    -0.108 C  
HETATM   15  O   UNL     1      -7.711   8.186  66.075  1.00  0.00    -0.086 OA 
HETATM   16  O   UNL     1      -8.333  10.409  65.549  1.00  0.00    -0.157 OA 
HETATM   17  C   UNL     1      -7.210   7.287  67.075  1.00  0.00    -0.092 C  
HETATM   18  C   UNL     1      -7.694   7.612  68.516  1.00  0.00    -0.119 C  
HETATM   19  C   UNL     1      -7.410   6.465  69.493  1.00  0.00    -0.088 C  
ENDROOT
BRANCH  17  20
HETATM   20  O   UNL     1      -7.631   5.952  66.795  1.00  0.00    -0.095 OA 
BRANCH  20  21
HETATM   21  C   UNL     1      -6.942   5.352  65.707  1.00  0.00    -0.066 C  
HETATM   22  C   UNL     1      -7.982   4.973  64.669  1.00  0.00    -0.102 C  
ENDBRANCH  20  21
ENDBRANCH  17  20
TORSDOF 2
ENDMDL
MODEL      111
REMARK 921   NORMALIZED FREE ENERGY PREDICTED BY IDOCK:   -2.63 KCAL/MOL
REMARK 922        TOTAL FREE ENERGY PREDICTED BY IDOCK:   -3.17 KCAL/MOL
REMARK 923 INTER-LIGAND FREE ENERGY PREDICTED BY IDOCK:   -3.15 KCAL/MOL
REMARK 924 INTRA-LIGAND FREE ENERGY PREDICTED BY IDOCK:   -0.02 KCAL/MOL
REMARK 927      BINDING AFFINITY PREDICTED BY RF-SCORE:    0.00 PKD
ROOT
HETATM    1  C   UNL     1      -9.296   7.634  68.651  1.00  0.00    -0.147 C  
HETATM    2  C   UNL     1      -9.205   9.013  67.956  1.00  0.00    -0.143 C  
HETATM    3  C   UNL     1      -9.627   8.975  66.488  1.00  0.00    -0.286 C  
HETATM    4  C   UNL     1      -8.866   7.922  65.655  1.00  0.00    -0.121 C  
HETATM    5  C   UNL     1      -8.095   8.559  64.501  1.00  0.00    -0.158 C  
HETATM    6  C   UNL     1      -7.979   7.027  66.569  1.00  0.00    -0.108 C  
HETATM    7  C   UNL     1      -7.235   5.930  65.811  1.00  0.00    -0.075 C  
HETATM    8  C   UNL     1      -8.143   4.779  65.407  1.00  0.00    -0.112 C  
HETATM    9  C   UNL     1      -8.801   4.058  66.610  1.00  0.00    -0.122 C  
HETATM   10  C   UNL     1      -8.987   2.593  66.201  1.00  0.00    -0.139 C  
HETATM   11  O   UNL     1     -10.103   4.544  66.933  1.00  0.00    -0.212 OA 
HETATM   12  O   UNL     1     -10.090   5.997  67.089  1.00  0.00    -0.139 OA 
HETATM   13  C   UNL     1      -8.866   6.460  67.714  1.00  0.00    -0.112 C  
HETATM   14  C   UNL     1      -8.156   5.331  68.513  1.00  0.00    -0.087 C  
HETATM   15  O   UNL     1      -8.824   5.101  69.756  1.00  0.00    -0.103 OA 
HETATM   16  O   UNL     1      -7.981   4.104  67.780  1.00  0.00    -0.089 OA 
HETATM   17  C   UNL     1      -8.759   6.216  70.656  1.00  0.00    -0.139 C  
HETATM   18  C   UNL     1      -8.472   7.574  69.959  1.00  0.00    -0.137 C  
HETATM   19  C   UNL     1      -8.726   8.766  70.889  1.00  0.00    -0.235 C  
ENDROOT
BRANCH  17  20
HETATM   20  O   UNL     1      -9.999   6.365  71.346  1.00  0.00    -0.183 OA 
BRANCH  20  21
HETATM   21  C   UNL     1      -9.880   6.281  72.759  1.00  0.00    -0.166 C  
HETATM   22  C   UNL     1      -9.304   4.914  73.082  1.00  0.00    -0.131 C  
ENDBRANCH  20  21
ENDBRANCH  17  20
TORSDOF 2
ENDMDL
MODEL      112
REMARK 921   NORMALIZED FREE ENERGY PREDICTED BY IDOCK:   -2.61 KCAL/MOL
REMARK 922        TOTAL FREE ENERGY PREDICTED BY IDOCK:   -3.13 KCAL/MOL
REMARK 923 INTER-LIGAND FREE ENERGY PREDICTED BY IDOCK:   -3.14 KCAL/MOL
REMARK 924 INTRA-LIGAND FREE ENERGY PREDICTED BY IDOCK:    0.01 KCAL/MOL
REMARK 927      BINDING AFFINITY PREDICTED BY RF-SCORE:    0.00 PKD
ROOT
HETATM    1  C   UNL     1      -8.653   3.817  69.177  1.00  0.00    -0.115 C  
HETATM    2  C   UNL     1      -8.683   2.280  69.003  1.00  0.00    -0.129 C  
HETATM    3  C   UNL     1      -7.992   1.807  67.725  1.00  0.00    -0.060 C  
HETATM    4  C   UNL     1      -8.530   2.485  66.446  1.00  0.00    -0.099 C  
HETATM    5  C   UNL     1      -9.102   1.469  65.461  1.00  0.00    -0.084 C  
HETATM    6  C   UNL     1      -9.525   3.629  66.801  1.00  0.00    -0.203 C  
HETATM    7  C   UNL     1     -10.056   4.375  65.580  1.00  0.00    -0.251 C  
HETATM    8  C   UNL     1      -9.031   5.326  64.983  1.00  0.00    -0.079 C  
HETATM    9  C   UNL     1      -8.573   6.436  65.963  1.00  0.00    -0.147 C  
HETATM   10  C   UNL     1      -8.240   7.666  65.113  1.00  0.00    -0.130 C  
HETATM   11  O   UNL     1      -7.381   6.119  66.680  1.00  0.00    -0.078 OA 
HETATM   12  O   UNL     1      -7.498   4.813  67.327  1.00  0.00    -0.080 OA 
HETATM   13  C   UNL     1      -8.840   4.578  67.826  1.00  0.00    -0.107 C  
HETATM   14  C   UNL     1      -9.628   5.903  68.027  1.00  0.00    -0.116 C  
HETATM   15  O   UNL     1      -9.193   6.568  69.216  1.00  0.00    -0.139 OA 
HETATM   16  O   UNL     1      -9.599   6.790  66.893  1.00  0.00    -0.147 OA 
HETATM   17  C   UNL     1      -9.483   5.840  70.418  1.00  0.00    -0.166 C  
HETATM   18  C   UNL     1      -9.703   4.318  70.197  1.00  0.00    -0.282 C  
HETATM   19  C   UNL     1      -9.689   3.534  71.515  1.00  0.00    -0.237 C  
ENDROOT
BRANCH  17  20
HETATM   20  O   UNL     1      -8.403   5.965  71.343  1.00  0.00    -0.124 OA 
BRANCH  20  21
HETATM   21  C   UNL     1      -8.793   6.466  72.613  1.00  0.00    -0.125 C  
HETATM   22  C   UNL     1      -9.271   7.892  72.408  1.00  0.00    -0.239 C  
ENDBRANCH  20  21
ENDBRANCH  17  20
TORSDOF 2
ENDMDL
MODEL      113
REMARK 921   NORMALIZED FREE ENERGY PREDICTED BY IDOCK:   -2.47 KCAL/MOL
REMARK 922        TOTAL FREE ENERGY PREDICTED BY IDOCK:   -2.98 KCAL/MOL
REMARK 923 INTER-LIGAND FREE ENERGY PREDICTED BY IDOCK:   -2.73 KCAL/MOL
REMARK 924 INTRA-LIGAND FREE ENERGY PREDICTED BY IDOCK:   -0.25 KCAL/MOL
REMARK 927      BINDING AFFINITY PREDICTED BY RF-SCORE:    0.00 PKD
ROOT
HETATM    1  C   UNL     1      -7.842   6.607  68.052  1.00  0.00    -0.113 C  
HETATM    2  C   UNL     1      -6.885   5.395  67.955  1.00  0.00    -0.060 C  
HETATM    3  C   UNL     1      -5.699   5.640  67.023  1.00  0.00    -0.017 C  
HETATM    4  C   UNL     1      -6.112   6.091  65.605  1.00  0.00    -0.029 C  
HETATM    5  C   UNL     1      -5.620   5.121  64.534  1.00  0.00    -0.017 C  
HETATM    6  C   UNL     1      -7.643   6.364  65.534  1.00  0.00    -0.087 C  
HETATM    7  C   UNL     1      -8.110   6.862  64.168  1.00  0.00    -0.026 C  
HETATM    8  C   UNL     1      -7.745   8.317  63.920  1.00  0.00    -0.141 C  
HETATM    9  C   UNL     1      -8.377   9.297  64.941  1.00  0.00    -0.158 C  
HETATM   10  C   UNL     1      -8.612  10.617  64.201  1.00  0.00    -0.100 C  
HETATM   11  O   UNL     1      -7.526   9.610  66.044  1.00  0.00    -0.096 OA 
HETATM   12  O   UNL     1      -7.024   8.390  66.673  1.00  0.00    -0.070 OA 
HETATM   13  C   UNL     1      -8.024   7.339  66.684  1.00  0.00    -0.114 C  
HETATM   14  C   UNL     1      -9.465   7.903  66.532  1.00  0.00    -0.214 C  
HETATM   15  O   UNL     1      -9.909   8.479  67.763  1.00  0.00    -0.159 OA 
HETATM   16  O   UNL     1      -9.630   8.823  65.437  1.00  0.00    -0.071 OA 
HETATM   17  C   UNL     1     -10.053   7.523  68.823  1.00  0.00    -0.185 C  
HETATM   18  C   UNL     1      -9.230   6.221  68.615  1.00  0.00    -0.124 C  
HETATM   19  C   UNL     1      -9.151   5.376  69.893  1.00  0.00    -0.165 C  
ENDROOT
BRANCH  17  20
HETATM   20  O   UNL     1      -9.615   8.088  70.059  1.00  0.00    -0.171 OA 
BRANCH  20  21
HETATM   21  C   UNL     1     -10.659   8.685  70.815  1.00  0.00    -0.210 C  
HETATM   22  C   UNL     1     -10.351   8.440  72.281  1.00  0.00    -0.403 C  
ENDBRANCH  20  21
ENDBRANCH  17  20
TORSDOF 2
ENDMDL
MODEL      114
REMARK 921   NORMALIZED FREE ENERGY PREDICTED BY IDOCK:   -2.41 KCAL/MOL
REMARK 922        TOTAL FREE ENERGY PREDICTED BY IDOCK:   -2.92 KCAL/MOL
REMARK 923 INTER-LIGAND FREE ENERGY PREDICTED BY IDOCK:   -2.90 KCAL/MOL
REMARK 924 INTRA-LIGAND FREE ENERGY PREDICTED BY IDOCK:   -0.02 KCAL/MOL
REMARK 927      BINDING AFFINITY PREDICTED BY RF-SCORE:    0.00 PKD
ROOT
HETATM    1  C   UNL     1      -9.506   6.637  66.452  1.00  0.00    -0.166 C  
HETATM    2  C   UNL     1     -10.224   7.032  67.764  1.00  0.00    -0.227 C  
HETATM    3  C   UNL     1     -10.501   8.532  67.868  1.00  0.00    -0.262 C  
HETATM    4  C   UNL     1      -9.242   9.405  67.680  1.00  0.00    -0.142 C  
HETATM    5  C   UNL     1      -8.961  10.268  68.907  1.00  0.00    -0.164 C  
HETATM    6  C   UNL     1      -8.024   8.538  67.244  1.00  0.00    -0.102 C  
HETATM    7  C   UNL     1      -6.757   9.351  66.993  1.00  0.00    -0.076 C  
HETATM    8  C   UNL     1      -6.802  10.114  65.679  1.00  0.00    -0.124 C  
HETATM    9  C   UNL     1      -6.944   9.199  64.436  1.00  0.00    -0.091 C  
HETATM   10  C   UNL     1      -6.220   9.903  63.283  1.00  0.00    -0.123 C  
HETATM   11  O   UNL     1      -8.291   9.019  64.003  1.00  0.00    -0.167 OA 
HETATM   12  O   UNL     1      -9.140   8.592  65.113  1.00  0.00    -0.085 OA 
HETATM   13  C   UNL     1      -8.441   7.690  66.009  1.00  0.00    -0.144 C  
HETATM   14  C   UNL     1      -7.225   7.008  65.318  1.00  0.00    -0.074 C  
HETATM   15  O   UNL     1      -7.666   5.965  64.446  1.00  0.00    -0.085 OA 
HETATM   16  O   UNL     1      -6.342   7.919  64.638  1.00  0.00    -0.048 OA 
HETATM   17  C   UNL     1      -8.295   4.873  65.131  1.00  0.00    -0.133 C  
HETATM   18  C   UNL     1      -8.842   5.241  66.538  1.00  0.00    -0.116 C  
HETATM   19  C   UNL     1      -9.776   4.161  67.096  1.00  0.00    -0.224 C  
ENDROOT
BRANCH  17  20
HETATM   20  O   UNL     1      -9.405   4.390  64.375  1.00  0.00    -0.154 OA 
BRANCH  20  21
HETATM   21  C   UNL     1      -9.308   3.015  64.032  1.00  0.00    -0.120 C  
HETATM   22  C   UNL     1      -7.904   2.780  63.507  1.00  0.00    -0.072 C  
ENDBRANCH  20  21
ENDBRANCH  17  20
TORSDOF 2
ENDMDL
MODEL      115
REMARK 921   NORMALIZED FREE ENERGY PREDICTED BY IDOCK:   -2.41 KCAL/MOL
REMARK 922        TOTAL FREE ENERGY PREDICTED BY IDOCK:   -2.91 KCAL/MOL
REMARK 923 INTER-LIGAND FREE ENERGY PREDICTED BY IDOCK:   -2.58 KCAL/MOL
REMARK 924 INTRA-LIGAND FREE ENERGY PREDICTED BY IDOCK:   -0.33 KCAL/MOL
REMARK 927      BINDING AFFINITY PREDICTED BY RF-SCORE:    0.00 PKD
ROOT
HETATM    1  C   UNL     1      -8.819   6.017  70.304  1.00  0.00    -0.144 C  
HETATM    2  C   UNL     1      -8.892   4.517  69.932  1.00  0.00    -0.129 C  
HETATM    3  C   UNL     1      -8.640   3.592  71.121  1.00  0.00    -0.109 C  
HETATM    4  C   UNL     1      -7.315   3.881  71.859  1.00  0.00    -0.059 C  
HETATM    5  C   UNL     1      -6.384   2.671  71.850  1.00  0.00    -0.015 C  
HETATM    6  C   UNL     1      -6.647   5.177  71.312  1.00  0.00    -0.039 C  
HETATM    7  C   UNL     1      -5.354   5.548  72.034  1.00  0.00    -0.017 C  
HETATM    8  C   UNL     1      -5.603   6.145  73.410  1.00  0.00    -0.037 C  
HETATM    9  C   UNL     1      -6.432   7.454  73.376  1.00  0.00    -0.064 C  
HETATM   10  C   UNL     1      -5.961   8.307  74.558  1.00  0.00    -0.117 C  
HETATM   11  O   UNL     1      -7.832   7.256  73.566  1.00  0.00    -0.097 OA 
HETATM   12  O   UNL     1      -8.343   6.245  72.643  1.00  0.00    -0.120 OA 
HETATM   13  C   UNL     1      -7.697   6.324  71.346  1.00  0.00    -0.100 C  
HETATM   14  C   UNL     1      -7.060   7.721  71.096  1.00  0.00    -0.050 C  
HETATM   15  O   UNL     1      -8.068   8.679  70.767  1.00  0.00    -0.102 OA 
HETATM   16  O   UNL     1      -6.223   8.192  72.169  1.00  0.00    -0.046 OA 
HETATM   17  C   UNL     1      -8.732   8.406  69.524  1.00  0.00    -0.137 C  
HETATM   18  C   UNL     1      -8.630   6.925  69.065  1.00  0.00    -0.128 C  
HETATM   19  C   UNL     1      -9.605   6.605  67.926  1.00  0.00    -0.121 C  
ENDROOT
BRANCH  17  20
HETATM   20  O   UNL     1     -10.124   8.704  69.634  1.00  0.00    -0.191 OA 
BRANCH  20  21
HETATM   21  C   UNL     1     -10.420   9.702  70.601  1.00  0.00    -0.312 C  
HETATM   22  C   UNL     1     -11.399   9.095  71.589  1.00  0.00    -0.446 C  
ENDBRANCH  20  21
ENDBRANCH  17  20
TORSDOF 2
ENDMDL
MODEL      116
REMARK 921   NORMALIZED FREE ENERGY PREDICTED BY IDOCK:   -2.24 KCAL/MOL
REMARK 922        TOTAL FREE ENERGY PREDICTED BY IDOCK:   -2.72 KCAL/MOL
REMARK 923 INTER-LIGAND FREE ENERGY PREDICTED BY IDOCK:   -2.51 KCAL/MOL
REMARK 924 INTRA-LIGAND FREE ENERGY PREDICTED BY IDOCK:   -0.21 KCAL/MOL
REMARK 927      BINDING AFFINITY PREDICTED BY RF-SCORE:    0.00 PKD
ROOT
HETATM    1  C   UNL     1      -8.224   6.970  67.446  1.00  0.00    -0.119 C  
HETATM    2  C   UNL     1      -9.414   7.383  68.344  1.00  0.00    -0.143 C  
HETATM    3  C   UNL     1     -10.517   8.113  67.580  1.00  0.00    -0.326 C  
HETATM    4  C   UNL     1     -10.012   9.339  66.789  1.00  0.00    -0.312 C  
HETATM    5  C   UNL     1     -10.693  10.627  67.243  1.00  0.00    -0.338 C  
HETATM    6  C   UNL     1      -8.458   9.418  66.820  1.00  0.00    -0.129 C  
HETATM    7  C   UNL     1      -7.891  10.583  66.013  1.00  0.00    -0.147 C  
HETATM    8  C   UNL     1      -7.941  10.335  64.514  1.00  0.00    -0.133 C  
HETATM    9  C   UNL     1      -7.121   9.099  64.062  1.00  0.00    -0.096 C  
HETATM   10  C   UNL     1      -6.611   9.398  62.650  1.00  0.00    -0.096 C  
HETATM   11  O   UNL     1      -7.892   7.903  63.958  1.00  0.00    -0.130 OA 
HETATM   12  O   UNL     1      -8.642   7.659  65.188  1.00  0.00    -0.095 OA 
HETATM   13  C   UNL     1      -7.886   8.045  66.365  1.00  0.00    -0.097 C  
HETATM   14  C   UNL     1      -6.357   8.102  66.083  1.00  0.00    -0.046 C  
HETATM   15  O   UNL     1      -5.808   6.784  66.036  1.00  0.00    -0.028 OA 
HETATM   16  O   UNL     1      -5.998   8.860  64.912  1.00  0.00    -0.062 OA 
HETATM   17  C   UNL     1      -5.873   6.091  67.290  1.00  0.00    -0.017 C  
HETATM   18  C   UNL     1      -6.950   6.647  68.263  1.00  0.00    -0.077 C  
HETATM   19  C   UNL     1      -7.210   5.699  69.440  1.00  0.00    -0.066 C  
ENDROOT
BRANCH  17  20
HETATM   20  O   UNL     1      -6.187   4.715  67.078  1.00  0.00    -0.033 OA 
BRANCH  20  21
HETATM   21  C   UNL     1      -5.162   3.991  66.412  1.00  0.00    -0.009 C  
HETATM   22  C   UNL     1      -5.370   2.521  66.727  1.00  0.00    -0.013 C  
ENDBRANCH  20  21
ENDBRANCH  17  20
TORSDOF 2
ENDMDL
MODEL      117
REMARK 921   NORMALIZED FREE ENERGY PREDICTED BY IDOCK:   -2.19 KCAL/MOL
REMARK 922        TOTAL FREE ENERGY PREDICTED BY IDOCK:   -2.67 KCAL/MOL
REMARK 923 INTER-LIGAND FREE ENERGY PREDICTED BY IDOCK:   -2.81 KCAL/MOL
REMARK 924 INTRA-LIGAND FREE ENERGY PREDICTED BY IDOCK:    0.14 KCAL/MOL
REMARK 927      BINDING AFFINITY PREDICTED BY RF-SCORE:    0.00 PKD
ROOT
HETATM    1  C   UNL     1      -9.189  15.808  67.562  1.00  0.00    -0.207 C  
HETATM    2  C   UNL     1      -9.274  14.640  68.573  1.00  0.00    -0.193 C  
HETATM    3  C   UNL     1      -8.576  14.942  69.898  1.00  0.00     0.346 C  
HETATM    4  C   UNL     1      -7.105  15.383  69.735  1.00  0.00    -0.139 C  
HETATM    5  C   UNL     1      -6.146  14.441  70.458  1.00  0.00    -0.185 C  
HETATM    6  C   UNL     1      -6.752  15.589  68.233  1.00  0.00    -0.122 C  
HETATM    7  C   UNL     1      -5.322  16.074  68.004  1.00  0.00    -0.128 C  
HETATM    8  C   UNL     1      -5.143  17.545  68.345  1.00  0.00    -0.142 C  
HETATM    9  C   UNL     1      -6.028  18.491  67.492  1.00  0.00    -0.171 C  
HETATM   10  C   UNL     1      -5.254  19.803  67.340  1.00  0.00    -0.160 C  
HETATM   11  O   UNL     1      -7.267  18.834  68.110  1.00  0.00    -0.241 OA 
HETATM   12  O   UNL     1      -7.982  17.634  68.541  1.00  0.00    -0.267 OA 
HETATM   13  C   UNL     1      -7.810  16.539  67.603  1.00  0.00    -0.159 C  
HETATM   14  C   UNL     1      -7.393  17.041  66.191  1.00  0.00    -0.190 C  
HETATM   15  O   UNL     1      -8.520  17.589  65.503  1.00  0.00    -0.230 OA 
HETATM   16  O   UNL     1      -6.284  17.959  66.191  1.00  0.00    -0.190 OA 
HETATM   17  C   UNL     1      -9.537  16.621  65.208  1.00  0.00     0.737 C  
HETATM   18  C   UNL     1      -9.487  15.358  66.112  1.00  0.00    -0.371 C  
HETATM   19  C   UNL     1     -10.759  14.510  65.991  1.00  0.00    -0.306 C  
ENDROOT
BRANCH  17  20
HETATM   20  O   UNL     1     -10.831  17.198  65.384  1.00  0.00    -0.477 OA 
BRANCH  20  21
HETATM   21  C   UNL     1     -10.881  18.192  66.397  1.00  0.00     0.040 C  
HETATM   22  C   UNL     1     -11.109  19.525  65.709  1.00  0.00    -0.058 C  
ENDBRANCH  20  21
ENDBRANCH  17  20
TORSDOF 2
ENDMDL
MODEL      118
REMARK 921   NORMALIZED FREE ENERGY PREDICTED BY IDOCK:   -2.06 KCAL/MOL
REMARK 922        TOTAL FREE ENERGY PREDICTED BY IDOCK:   -2.52 KCAL/MOL
REMARK 923 INTER-LIGAND FREE ENERGY PREDICTED BY IDOCK:   -2.44 KCAL/MOL
REMARK 924 INTRA-LIGAND FREE ENERGY PREDICTED BY IDOCK:   -0.09 KCAL/MOL
REMARK 927      BINDING AFFINITY PREDICTED BY RF-SCORE:    0.00 PKD
ROOT
HETATM    1  C   UNL     1      -8.693   6.897  67.860  1.00  0.00    -0.121 C  
HETATM    2  C   UNL     1      -9.192   8.004  66.901  1.00  0.00    -0.191 C  
HETATM    3  C   UNL     1      -8.301   9.245  66.903  1.00  0.00    -0.123 C  
HETATM    4  C   UNL     1      -8.074   9.839  68.310  1.00  0.00    -0.104 C  
HETATM    5  C   UNL     1      -8.572  11.279  68.406  1.00  0.00    -0.155 C  
HETATM    6  C   UNL     1      -8.666   8.907  69.407  1.00  0.00    -0.142 C  
HETATM    7  C   UNL     1      -8.430   9.414  70.828  1.00  0.00    -0.188 C  
HETATM    8  C   UNL     1      -6.997   9.207  71.293  1.00  0.00    -0.065 C  
HETATM    9  C   UNL     1      -6.565   7.719  71.322  1.00  0.00    -0.041 C  
HETATM   10  C   UNL     1      -5.544   7.577  72.456  1.00  0.00    -0.037 C  
HETATM   11  O   UNL     1      -5.898   7.288  70.136  1.00  0.00    -0.023 OA 
HETATM   12  O   UNL     1      -6.685   7.621  68.950  1.00  0.00    -0.047 OA 
HETATM   13  C   UNL     1      -8.108   7.472  69.188  1.00  0.00    -0.123 C  
HETATM   14  C   UNL     1      -8.403   6.530  70.390  1.00  0.00    -0.127 C  
HETATM   15  O   UNL     1      -8.219   5.164  70.012  1.00  0.00    -0.080 OA 
HETATM   16  O   UNL     1      -7.663   6.844  71.586  1.00  0.00    -0.093 OA 
HETATM   17  C   UNL     1      -9.153   4.714  69.020  1.00  0.00    -0.118 C  
HETATM   18  C   UNL     1      -9.794   5.861  68.191  1.00  0.00    -0.155 C  
HETATM   19  C   UNL     1     -10.525   5.337  66.949  1.00  0.00    -0.313 C  
ENDROOT
BRANCH  17  20
HETATM   20  O   UNL     1      -8.503   3.850  68.087  1.00  0.00    -0.090 OA 
BRANCH  20  21
HETATM   21  C   UNL     1      -7.119   4.124  67.923  1.00  0.00    -0.059 C  
HETATM   22  C   UNL     1      -6.656   3.376  66.686  1.00  0.00    -0.041 C  
ENDBRANCH  20  21
ENDBRANCH  17  20
TORSDOF 2
ENDMDL
MODEL      119
REMARK 921   NORMALIZED FREE ENERGY PREDICTED BY IDOCK:   -1.92 KCAL/MOL
REMARK 922        TOTAL FREE ENERGY PREDICTED BY IDOCK:   -2.37 KCAL/MOL
REMARK 923 INTER-LIGAND FREE ENERGY PREDICTED BY IDOCK:   -3.18 KCAL/MOL
REMARK 924 INTRA-LIGAND FREE ENERGY PREDICTED BY IDOCK:    0.81 KCAL/MOL
REMARK 927      BINDING AFFINITY PREDICTED BY RF-SCORE:    0.00 PKD
ROOT
HETATM    1  C   UNL     1      -8.507  15.863  67.275  1.00  0.00    -0.207 C  
HETATM    2  C   UNL     1      -7.216  15.390  66.564  1.00  0.00     0.939 C  
HETATM    3  C   UNL     1      -6.011  16.285  66.851  1.00  0.00     0.073 C  
HETATM    4  C   UNL     1      -6.261  17.776  66.538  1.00  0.00    -0.226 C  
HETATM    5  C   UNL     1      -5.289  18.306  65.487  1.00  0.00    -0.218 C  
HETATM    6  C   UNL     1      -7.755  18.024  66.177  1.00  0.00    -0.266 C  
HETATM    7  C   UNL     1      -8.080  19.490  65.904  1.00  0.00    -0.204 C  
HETATM    8  C   UNL     1      -8.153  20.320  67.176  1.00  0.00    -0.379 C  
HETATM    9  C   UNL     1      -9.248  19.845  68.163  1.00  0.00    -0.285 C  
HETATM   10  C   UNL     1      -9.740  21.088  68.911  1.00  0.00     1.107 C  
HETATM   11  O   UNL     1      -8.773  18.946  69.164  1.00  0.00    -0.178 OA 
HETATM   12  O   UNL     1      -8.043  17.834  68.558  1.00  0.00    -0.284 OA 
HETATM   13  C   UNL     1      -8.641  17.418  67.303  1.00  0.00    -0.212 C  
HETATM   14  C   UNL     1     -10.128  17.860  67.191  1.00  0.00    -0.340 C  
HETATM   15  O   UNL     1     -10.962  17.014  67.987  1.00  0.00    -0.360 OA 
HETATM   16  O   UNL     1     -10.359  19.249  67.490  1.00  0.00    -0.382 OA 
HETATM   17  C   UNL     1     -10.999  15.654  67.531  1.00  0.00    -0.309 C  
HETATM   18  C   UNL     1      -9.784  15.250  66.651  1.00  0.00    -0.268 C  
HETATM   19  C   UNL     1      -9.692  13.731  66.455  1.00  0.00    -0.301 C  
ENDROOT
BRANCH  17  20
HETATM   20  O   UNL     1     -11.013  14.761  68.644  1.00  0.00    -0.238 OA 
BRANCH  20  21
HETATM   21  C   UNL     1     -11.804  13.600  68.435  1.00  0.00    -0.372 C  
HETATM   22  C   UNL     1     -11.008  12.414  68.950  1.00  0.00    -0.268 C  
ENDBRANCH  20  21
ENDBRANCH  17  20
TORSDOF 2
ENDMDL
MODEL      120
REMARK 921   NORMALIZED FREE ENERGY PREDICTED BY IDOCK:   -1.86 KCAL/MOL
REMARK 922        TOTAL FREE ENERGY PREDICTED BY IDOCK:   -2.30 KCAL/MOL
REMARK 923 INTER-LIGAND FREE ENERGY PREDICTED BY IDOCK:   -2.63 KCAL/MOL
REMARK 924 INTRA-LIGAND FREE ENERGY PREDICTED BY IDOCK:    0.33 KCAL/MOL
REMARK 927      BINDING AFFINITY PREDICTED BY RF-SCORE:    0.00 PKD
ROOT
HETATM    1  C   UNL     1      -8.124  13.293  68.006  1.00  0.00    -0.157 C  
HETATM    2  C   UNL     1      -6.946  13.448  68.998  1.00  0.00    -0.084 C  
HETATM    3  C   UNL     1      -5.712  12.643  68.593  1.00  0.00    -0.059 C  
HETATM    4  C   UNL     1      -6.002  11.144  68.360  1.00  0.00    -0.045 C  
HETATM    5  C   UNL     1      -5.187  10.255  69.295  1.00  0.00    -0.038 C  
HETATM    6  C   UNL     1      -7.532  10.860  68.416  1.00  0.00    -0.098 C  
HETATM    7  C   UNL     1      -7.891   9.402  68.143  1.00  0.00    -0.087 C  
HETATM    8  C   UNL     1      -7.783   9.038  66.670  1.00  0.00    -0.096 C  
HETATM    9  C   UNL     1      -8.729   9.861  65.759  1.00  0.00    -0.141 C  
HETATM   10  C   UNL     1      -9.110   8.955  64.584  1.00  0.00     0.052 C  
HETATM   11  O   UNL     1      -8.118  11.015  65.185  1.00  0.00     0.018 OA 
HETATM   12  O   UNL     1      -7.482  11.833  66.216  1.00  0.00     0.087 OA 
HETATM   13  C   UNL     1      -8.251  11.841  67.447  1.00  0.00    -0.160 C  
HETATM   14  C   UNL     1      -9.739  11.456  67.207  1.00  0.00    -0.185 C  
HETATM   15  O   UNL     1     -10.453  12.552  66.633  1.00  0.00    -0.231 OA 
HETATM   16  O   UNL     1      -9.924  10.252  66.438  1.00  0.00    -0.209 OA 
HETATM   17  C   UNL     1     -10.556  13.688  67.505  1.00  0.00    -0.241 C  
HETATM   18  C   UNL     1      -9.476  13.726  68.622  1.00  0.00    -0.099 C  
HETATM   19  C   UNL     1      -9.414  15.090  69.320  1.00  0.00    -0.171 C  
ENDROOT
BRANCH  17  20
HETATM   20  O   UNL     1     -10.414  14.896  66.759  1.00  0.00    -0.274 OA 
BRANCH  20  21
HETATM   21  C   UNL     1      -9.338  14.872  65.831  1.00  0.00    -0.181 C  
HETATM   22  C   UNL     1      -8.568  16.169  65.999  1.00  0.00    -0.231 C  
ENDBRANCH  20  21
ENDBRANCH  17  20
TORSDOF 2
ENDMDL
MODEL      121
REMARK 921   NORMALIZED FREE ENERGY PREDICTED BY IDOCK:   -1.80 KCAL/MOL
REMARK 922        TOTAL FREE ENERGY PREDICTED BY IDOCK:   -2.23 KCAL/MOL
REMARK 923 INTER-LIGAND FREE ENERGY PREDICTED BY IDOCK:   -2.22 KCAL/MOL
REMARK 924 INTRA-LIGAND FREE ENERGY PREDICTED BY IDOCK:   -0.01 KCAL/MOL
REMARK 927      BINDING AFFINITY PREDICTED BY RF-SCORE:    0.00 PKD
ROOT
HETATM    1  C   UNL     1      -7.764   8.007  67.619  1.00  0.00    -0.110 C  
HETATM    2  C   UNL     1      -8.086   8.496  69.051  1.00  0.00    -0.115 C  
HETATM    3  C   UNL     1      -7.587   7.545  70.137  1.00  0.00    -0.088 C  
HETATM    4  C   UNL     1      -8.082   6.093  69.960  1.00  0.00    -0.119 C  
HETATM    5  C   UNL     1      -8.899   5.621  71.160  1.00  0.00    -0.141 C  
HETATM    6  C   UNL     1      -8.824   5.922  68.602  1.00  0.00    -0.111 C  
HETATM    7  C   UNL     1      -9.296   4.493  68.342  1.00  0.00    -0.194 C  
HETATM    8  C   UNL     1      -8.160   3.564  67.946  1.00  0.00    -0.082 C  
HETATM    9  C   UNL     1      -7.438   3.990  66.642  1.00  0.00    -0.084 C  
HETATM   10  C   UNL     1      -6.948   2.705  65.967  1.00  0.00    -0.052 C  
HETATM   11  O   UNL     1      -6.276   4.788  66.860  1.00  0.00    -0.030 OA 
HETATM   12  O   UNL     1      -6.582   5.924  67.728  1.00  0.00    -0.052 OA 
HETATM   13  C   UNL     1      -7.905   6.459  67.468  1.00  0.00    -0.105 C  
HETATM   14  C   UNL     1      -8.422   6.074  66.052  1.00  0.00    -0.139 C  
HETATM   15  O   UNL     1      -7.789   6.877  65.053  1.00  0.00    -0.108 OA 
HETATM   16  O   UNL     1      -8.313   4.673  65.741  1.00  0.00    -0.113 OA 
HETATM   17  C   UNL     1      -8.119   8.270  65.144  1.00  0.00    -0.142 C  
HETATM   18  C   UNL     1      -8.629   8.708  66.545  1.00  0.00    -0.124 C  
HETATM   19  C   UNL     1      -8.663  10.234  66.697  1.00  0.00    -0.134 C  
ENDROOT
BRANCH  17  20
HETATM   20  O   UNL     1      -6.971   9.069  64.860  1.00  0.00    -0.076 OA 
BRANCH  20  21
HETATM   21  C   UNL     1      -5.772   8.319  64.729  1.00  0.00    -0.044 C  
HETATM   22  C   UNL     1      -5.588   8.016  63.254  1.00  0.00    -0.058 C  
ENDBRANCH  20  21
ENDBRANCH  17  20
TORSDOF 2
ENDMDL
MODEL      122
REMARK 921   NORMALIZED FREE ENERGY PREDICTED BY IDOCK:   -1.47 KCAL/MOL
REMARK 922        TOTAL FREE ENERGY PREDICTED BY IDOCK:   -1.86 KCAL/MOL
REMARK 923 INTER-LIGAND FREE ENERGY PREDICTED BY IDOCK:   -1.93 KCAL/MOL
REMARK 924 INTRA-LIGAND FREE ENERGY PREDICTED BY IDOCK:    0.06 KCAL/MOL
REMARK 927      BINDING AFFINITY PREDICTED BY RF-SCORE:    0.00 PKD
ROOT
HETATM    1  C   UNL     1      -8.854   6.786  67.640  1.00  0.00    -0.117 C  
HETATM    2  C   UNL     1      -9.926   6.874  66.528  1.00  0.00    -0.150 C  
HETATM    3  C   UNL     1      -9.777   8.114  65.648  1.00  0.00     0.393 C  
HETATM    4  C   UNL     1      -9.744   9.436  66.445  1.00  0.00    -0.315 C  
HETATM    5  C   UNL     1     -10.881  10.371  66.042  1.00  0.00     0.046 C  
HETATM    6  C   UNL     1      -9.685   9.159  67.976  1.00  0.00    -0.177 C  
HETATM    7  C   UNL     1      -9.600  10.428  68.821  1.00  0.00    -0.178 C  
HETATM    8  C   UNL     1      -8.218  11.061  68.788  1.00  0.00    -0.146 C  
HETATM    9  C   UNL     1      -7.101  10.138  69.338  1.00  0.00    -0.085 C  
HETATM   10  C   UNL     1      -6.043  11.050  69.967  1.00  0.00    -0.128 C  
HETATM   11  O   UNL     1      -6.425   9.387  68.331  1.00  0.00    -0.053 OA 
HETATM   12  O   UNL     1      -7.380   8.671  67.489  1.00  0.00    -0.086 OA 
HETATM   13  C   UNL     1      -8.510   8.180  68.255  1.00  0.00    -0.130 C  
HETATM   14  C   UNL     1      -8.180   8.063  69.770  1.00  0.00    -0.120 C  
HETATM   15  O   UNL     1      -7.377   6.907  70.020  1.00  0.00    -0.077 OA 
HETATM   16  O   UNL     1      -7.587   9.244  70.341  1.00  0.00    -0.094 OA 
HETATM   17  C   UNL     1      -8.052   5.671  69.746  1.00  0.00    -0.102 C  
HETATM   18  C   UNL     1      -9.255   5.811  68.773  1.00  0.00    -0.128 C  
HETATM   19  C   UNL     1      -9.742   4.451  68.257  1.00  0.00    -0.171 C  
ENDROOT
BRANCH  17  20
HETATM   20  O   UNL     1      -7.151   4.739  69.149  1.00  0.00    -0.050 OA 
BRANCH  20  21
HETATM   21  C   UNL     1      -6.210   5.337  68.269  1.00  0.00    -0.034 C  
HETATM   22  C   UNL     1      -5.542   4.217  67.494  1.00  0.00    -0.021 C  
ENDBRANCH  20  21
ENDBRANCH  17  20
TORSDOF 2
ENDMDL
MODEL      123
REMARK 921   NORMALIZED FREE ENERGY PREDICTED BY IDOCK:   -1.05 KCAL/MOL
REMARK 922        TOTAL FREE ENERGY PREDICTED BY IDOCK:   -1.39 KCAL/MOL
REMARK 923 INTER-LIGAND FREE ENERGY PREDICTED BY IDOCK:   -1.11 KCAL/MOL
REMARK 924 INTRA-LIGAND FREE ENERGY PREDICTED BY IDOCK:   -0.29 KCAL/MOL
REMARK 927      BINDING AFFINITY PREDICTED BY RF-SCORE:    0.00 PKD
ROOT
HETATM    1  C   UNL     1      -9.858   8.285  66.657  1.00  0.00    -0.337 C  
HETATM    2  C   UNL     1     -10.977   9.184  66.082  1.00  0.00     1.210 C  
HETATM    3  C   UNL     1     -10.484  10.574  65.682  1.00  0.00    -0.213 C  
HETATM    4  C   UNL     1      -9.751  11.319  66.818  1.00  0.00    -0.218 C  
HETATM    5  C   UNL     1     -10.442  12.633  67.174  1.00  0.00    -0.245 C  
HETATM    6  C   UNL     1      -9.534  10.385  68.044  1.00  0.00    -0.152 C  
HETATM    7  C   UNL     1      -8.769  11.047  69.187  1.00  0.00    -0.002 C  
HETATM    8  C   UNL     1      -7.281  11.171  68.900  1.00  0.00    -0.106 C  
HETATM    9  C   UNL     1      -6.576   9.808  68.684  1.00  0.00    -0.051 C  
HETATM   10  C   UNL     1      -5.137   9.969  69.183  1.00  0.00    -0.035 C  
HETATM   11  O   UNL     1      -6.477   9.419  67.315  1.00  0.00    -0.068 OA 
HETATM   12  O   UNL     1      -7.783   9.486  66.661  1.00  0.00    -0.097 OA 
HETATM   13  C   UNL     1      -8.852   9.076  67.552  1.00  0.00    -0.123 C  
HETATM   14  C   UNL     1      -8.330   8.200  68.726  1.00  0.00    -0.126 C  
HETATM   15  O   UNL     1      -8.057   6.871  68.276  1.00  0.00    -0.116 OA 
HETATM   16  O   UNL     1      -7.200   8.757  69.425  1.00  0.00    -0.059 OA 
HETATM   17  C   UNL     1      -9.227   6.161  67.847  1.00  0.00    -0.115 C  
HETATM   18  C   UNL     1     -10.416   7.082  67.454  1.00  0.00    -0.343 C  
HETATM   19  C   UNL     1     -11.516   6.318  66.706  1.00  0.00     0.363 C  
ENDROOT
BRANCH  17  20
HETATM   20  O   UNL     1      -8.929   5.368  66.698  1.00  0.00    -0.114 OA 
BRANCH  20  21
HETATM   21  C   UNL     1      -8.449   4.068  67.009  1.00  0.00    -0.100 C  
HETATM   22  C   UNL     1      -9.661   3.177  67.210  1.00  0.00    -0.058 C  
ENDBRANCH  20  21
ENDBRANCH  17  20
TORSDOF 2
ENDMDL
MODEL      124
REMARK 921   NORMALIZED FREE ENERGY PREDICTED BY IDOCK:   -0.98 KCAL/MOL
REMARK 922        TOTAL FREE ENERGY PREDICTED BY IDOCK:   -1.31 KCAL/MOL
REMARK 923 INTER-LIGAND FREE ENERGY PREDICTED BY IDOCK:   -1.24 KCAL/MOL
REMARK 924 INTRA-LIGAND FREE ENERGY PREDICTED BY IDOCK:   -0.07 KCAL/MOL
REMARK 927      BINDING AFFINITY PREDICTED BY RF-SCORE:    0.00 PKD
ROOT
HETATM    1  C   UNL     1      -9.311  14.571  67.402  1.00  0.00    -0.197 C  
HETATM    2  C   UNL     1     -10.375  15.295  66.543  1.00  0.00    -0.289 C  
HETATM    3  C   UNL     1     -11.789  14.757  66.760  1.00  0.00    -0.272 C  
HETATM    4  C   UNL     1     -11.906  13.231  66.555  1.00  0.00    -0.450 C  
HETATM    5  C   UNL     1     -12.894  12.882  65.445  1.00  0.00    -0.123 C  
HETATM    6  C   UNL     1     -10.502  12.589  66.356  1.00  0.00    -0.269 C  
HETATM    7  C   UNL     1     -10.544  11.071  66.198  1.00  0.00    -0.288 C  
HETATM    8  C   UNL     1     -10.790  10.351  67.514  1.00  0.00    -0.358 C  
HETATM    9  C   UNL     1      -9.693  10.612  68.577  1.00  0.00    -0.174 C  
HETATM   10  C   UNL     1      -9.600   9.348  69.436  1.00  0.00    -0.177 C  
HETATM   11  O   UNL     1     -10.001  11.677  69.475  1.00  0.00     0.267 OA 
HETATM   12  O   UNL     1     -10.368  12.886  68.740  1.00  0.00    -0.216 OA 
HETATM   13  C   UNL     1      -9.584  13.038  67.529  1.00  0.00    -0.204 C  
HETATM   14  C   UNL     1      -8.257  12.230  67.588  1.00  0.00    -0.166 C  
HETATM   15  O   UNL     1      -7.300  12.899  68.413  1.00  0.00    -0.104 OA 
HETATM   16  O   UNL     1      -8.416  10.855  67.983  1.00  0.00    -0.123 OA 
HETATM   17  C   UNL     1      -6.878  14.166  67.888  1.00  0.00    -0.165 C  
HETATM   18  C   UNL     1      -7.874  14.793  66.873  1.00  0.00     0.045 C  
HETATM   19  C   UNL     1      -7.556  16.265  66.586  1.00  0.00    -0.268 C  
ENDROOT
BRANCH  17  20
HETATM   20  O   UNL     1      -6.725  15.112  68.947  1.00  0.00    -0.102 OA 
BRANCH  20  21
HETATM   21  C   UNL     1      -7.645  14.929  70.013  1.00  0.00     0.189 C  
HETATM   22  C   UNL     1      -8.120  16.306  70.440  1.00  0.00     2.204 C  
ENDBRANCH  20  21
ENDBRANCH  17  20
TORSDOF 2
ENDMDL
MODEL      125
REMARK 921   NORMALIZED FREE ENERGY PREDICTED BY IDOCK:   -0.91 KCAL/MOL
REMARK 922        TOTAL FREE ENERGY PREDICTED BY IDOCK:   -1.24 KCAL/MOL
REMARK 923 INTER-LIGAND FREE ENERGY PREDICTED BY IDOCK:   -0.97 KCAL/MOL
REMARK 924 INTRA-LIGAND FREE ENERGY PREDICTED BY IDOCK:   -0.28 KCAL/MOL
REMARK 927      BINDING AFFINITY PREDICTED BY RF-SCORE:    0.00 PKD
ROOT
HETATM    1  C   UNL     1      -9.048  16.850  68.947  1.00  0.00    -0.223 C  
HETATM    2  C   UNL     1      -8.785  15.687  69.933  1.00  0.00     0.222 C  
HETATM    3  C   UNL     1      -7.356  15.669  70.473  1.00  0.00     1.071 C  
HETATM    4  C   UNL     1      -6.278  15.667  69.367  1.00  0.00    -0.136 C  
HETATM    5  C   UNL     1      -5.383  14.433  69.447  1.00  0.00    -0.089 C  
HETATM    6  C   UNL     1      -6.923  15.872  67.965  1.00  0.00    -0.141 C  
HETATM    7  C   UNL     1      -5.904  15.929  66.829  1.00  0.00     0.680 C  
HETATM    8  C   UNL     1      -5.155  17.252  66.781  1.00  0.00    -0.195 C  
HETATM    9  C   UNL     1      -6.077  18.477  66.554  1.00  0.00    -0.158 C  
HETATM   10  C   UNL     1      -5.257  19.511  65.777  1.00  0.00    -0.169 C  
HETATM   11  O   UNL     1      -6.485  19.124  67.759  1.00  0.00    -0.210 OA 
HETATM   12  O   UNL     1      -7.055  18.159  68.698  1.00  0.00    -0.250 OA 
HETATM   13  C   UNL     1      -7.826  17.137  68.017  1.00  0.00    -0.195 C  
HETATM   14  C   UNL     1      -8.287  17.597  66.605  1.00  0.00    -0.260 C  
HETATM   15  O   UNL     1      -9.387  18.503  66.708  1.00  0.00    -0.279 OA 
HETATM   16  O   UNL     1      -7.236  18.144  65.787  1.00  0.00    -0.457 OA 
HETATM   17  C   UNL     1     -10.574  17.904  67.249  1.00  0.00    -0.332 C  
HETATM   18  C   UNL     1     -10.309  16.618  68.081  1.00  0.00    -0.303 C  
HETATM   19  C   UNL     1     -11.535  16.195  68.898  1.00  0.00    -0.331 C  
ENDROOT
BRANCH  17  20
HETATM   20  O   UNL     1     -11.238  18.821  68.118  1.00  0.00     0.178 OA 
BRANCH  20  21
HETATM   21  C   UNL     1     -10.405  19.875  68.580  1.00  0.00    -0.294 C  
HETATM   22  C   UNL     1     -10.424  19.832  70.097  1.00  0.00     0.903 C  
ENDBRANCH  20  21
ENDBRANCH  17  20
TORSDOF 2
ENDMDL
MODEL      126
REMARK 921   NORMALIZED FREE ENERGY PREDICTED BY IDOCK:    0.63 KCAL/MOL
REMARK 922        TOTAL FREE ENERGY PREDICTED BY IDOCK:    0.48 KCAL/MOL
REMARK 923 INTER-LIGAND FREE ENERGY PREDICTED BY IDOCK:    0.15 KCAL/MOL
REMARK 924 INTRA-LIGAND FREE ENERGY PREDICTED BY IDOCK:    0.33 KCAL/MOL
REMARK 927      BINDING AFFINITY PREDICTED BY RF-SCORE:    0.00 PKD
ROOT
HETATM    1  C   UNL     1      -8.147  18.577  67.190  1.00  0.00    -0.248 C  
HETATM    2  C   UNL     1      -7.596  18.263  68.601  1.00  0.00    -0.311 C  
HETATM    3  C   UNL     1      -7.634  16.774  68.943  1.00  0.00    -0.239 C  
HETATM    4  C   UNL     1      -9.032  16.140  68.778  1.00  0.00    -0.236 C  
HETATM    5  C   UNL     1      -9.548  15.552  70.089  1.00  0.00     0.191 C  
HETATM    6  C   UNL     1     -10.023  17.145  68.121  1.00  0.00    -0.297 C  
HETATM    7  C   UNL     1     -11.414  16.561  67.883  1.00  0.00     0.071 C  
HETATM    8  C   UNL     1     -11.453  15.605  66.702  1.00  0.00     0.144 C  
HETATM    9  C   UNL     1     -11.062  16.268  65.356  1.00  0.00    -0.087 C  
HETATM   10  C   UNL     1     -11.850  15.543  64.261  1.00  0.00    -0.179 C  
HETATM   11  O   UNL     1      -9.685  16.116  65.017  1.00  0.00    -0.238 OA 
HETATM   12  O   UNL     1      -8.828  16.542  66.122  1.00  0.00    -0.305 OA 
HETATM   13  C   UNL     1      -9.377  17.691  66.816  1.00  0.00    -0.278 C  
HETATM   14  C   UNL     1     -10.391  18.476  65.934  1.00  0.00    -0.315 C  
HETATM   15  O   UNL     1      -9.702  19.264  64.961  1.00  0.00     0.850 OA 
HETATM   16  O   UNL     1     -11.403  17.655  65.321  1.00  0.00     0.024 OA 
HETATM   17  C   UNL     1      -8.903  20.309  65.532  1.00  0.00     0.503 C  
HETATM   18  C   UNL     1      -8.518  20.069  67.019  1.00  0.00    -0.390 C  
HETATM   19  C   UNL     1      -7.416  21.025  67.492  1.00  0.00    -0.230 C  
ENDROOT
BRANCH  17  20
HETATM   20  O   UNL     1      -7.679  20.445  64.811  1.00  0.00     0.134 OA 
BRANCH  20  21
HETATM   21  C   UNL     1      -7.102  19.205  64.427  1.00  0.00     1.857 C  
HETATM   22  C   UNL     1      -5.699  19.163  65.003  1.00  0.00    -0.273 C  
ENDBRANCH  20  21
ENDBRANCH  17  20
TORSDOF 2
ENDMDL
MODEL      127
REMARK 921   NORMALIZED FREE ENERGY PREDICTED BY IDOCK:    1.88 KCAL/MOL
REMARK 922        TOTAL FREE ENERGY PREDICTED BY IDOCK:    1.87 KCAL/MOL
REMARK 923 INTER-LIGAND FREE ENERGY PREDICTED BY IDOCK:   -1.73 KCAL/MOL
REMARK 924 INTRA-LIGAND FREE ENERGY PREDICTED BY IDOCK:    3.60 KCAL/MOL
REMARK 927      BINDING AFFINITY PREDICTED BY RF-SCORE:    0.00 PKD
ROOT
HETATM    1  C   UNL     1      -8.855  11.964  67.601  1.00  0.00    -0.169 C  
HETATM    2  C   UNL     1      -9.686  12.920  66.713  1.00  0.00    -0.246 C  
HETATM    3  C   UNL     1     -11.028  12.327  66.287  1.00  0.00    -0.327 C  
HETATM    4  C   UNL     1     -10.903  10.952  65.596  1.00  0.00    -0.112 C  
HETATM    5  C   UNL     1     -11.464  10.977  64.176  1.00  0.00     0.465 C  
HETATM    6  C   UNL     1      -9.441  10.424  65.672  1.00  0.00    -0.262 C  
HETATM    7  C   UNL     1      -9.259   9.042  65.049  1.00  0.00    -0.116 C  
HETATM    8  C   UNL     1      -9.807   7.928  65.927  1.00  0.00     0.302 C  
HETATM    9  C   UNL     1      -9.117   7.836  67.312  1.00  0.00    -0.131 C  
HETATM   10  C   UNL     1      -9.143   6.360  67.722  1.00  0.00    -0.111 C  
HETATM   11  O   UNL     1      -9.801   8.544  68.345  1.00  0.00    -0.163 OA 
HETATM   12  O   UNL     1     -10.066   9.923  67.941  1.00  0.00    -0.158 OA 
HETATM   13  C   UNL     1      -8.976  10.472  67.156  1.00  0.00    -0.140 C  
HETATM   14  C   UNL     1      -7.645   9.703  67.387  1.00  0.00    -0.095 C  
HETATM   15  O   UNL     1      -7.064  10.073  68.640  1.00  0.00    -0.075 OA 
HETATM   16  O   UNL     1      -7.757   8.272  67.266  1.00  0.00    -0.098 OA 
HETATM   17  C   UNL     1      -6.651  11.446  68.696  1.00  0.00    -0.062 C  
HETATM   18  C   UNL     1      -7.360  12.361  67.660  1.00  0.00    -0.132 C  
HETATM   19  C   UNL     1      -7.141  13.849  67.958  1.00  0.00    -0.145 C  
ENDROOT
BRANCH  17  20
HETATM   20  O   UNL     1      -6.933  11.993  69.984  1.00  0.00     0.199 OA 
BRANCH  20  21
HETATM   21  C   UNL     1      -6.129  13.116  70.316  1.00  0.00    -0.079 C  
HETATM   22  C   UNL     1      -5.236  13.399  69.122  1.00  0.00    -0.073 C  
ENDBRANCH  20  21
ENDBRANCH  17  20
TORSDOF 2
ENDMDL
MODEL      128
REMARK 921   NORMALIZED FREE ENERGY PREDICTED BY IDOCK:    6.84 KCAL/MOL
REMARK 922        TOTAL FREE ENERGY PREDICTED BY IDOCK:    7.42 KCAL/MOL
REMARK 923 INTER-LIGAND FREE ENERGY PREDICTED BY IDOCK:    7.67 KCAL/MOL
REMARK 924 INTRA-LIGAND FREE ENERGY PREDICTED BY IDOCK:   -0.25 KCAL/MOL
REMARK 927      BINDING AFFINITY PREDICTED BY RF-SCORE:    0.00 PKD
ROOT
HETATM    1  C   UNL     1      -9.212  18.093  67.032  1.00  0.00    -0.270 C  
HETATM    2  C   UNL     1      -8.181  19.225  67.253  1.00  0.00    -0.304 C  
HETATM    3  C   UNL     1      -7.268  18.979  68.454  1.00  0.00    -0.318 C  
HETATM    4  C   UNL     1      -8.035  18.710  69.766  1.00  0.00     0.814 C  
HETATM    5  C   UNL     1      -7.699  19.740  70.842  1.00  0.00     1.570 C  
HETATM    6  C   UNL     1      -9.562  18.573  69.499  1.00  0.00     0.298 C  
HETATM    7  C   UNL     1     -10.374  18.256  70.752  1.00  0.00     2.359 C  
HETATM    8  C   UNL     1     -10.227  16.809  71.194  1.00  0.00     2.510 C  
HETATM    9  C   UNL     1     -10.711  15.786  70.135  1.00  0.00    -0.344 C  
HETATM   10  C   UNL     1     -11.243  14.572  70.902  1.00  0.00     0.037 C  
HETATM   11  O   UNL     1      -9.671  15.294  69.291  1.00  0.00    -0.230 OA 
HETATM   12  O   UNL     1      -8.916  16.397  68.701  1.00  0.00    -0.213 OA 
HETATM   13  C   UNL     1      -9.773  17.521  68.373  1.00  0.00    -0.316 C  
HETATM   14  C   UNL     1     -11.262  17.096  68.227  1.00  0.00     0.028 C  
HETATM   15  O   UNL     1     -11.474  16.437  66.977  1.00  0.00     0.227 OA 
HETATM   16  O   UNL     1     -11.765  16.309  69.323  1.00  0.00    -0.263 OA 
HETATM   17  C   UNL     1     -11.275  17.289  65.840  1.00  0.00     0.654 C  
HETATM   18  C   UNL     1     -10.390  18.533  66.130  1.00  0.00    -0.457 C  
HETATM   19  C   UNL     1      -9.938  19.234  64.843  1.00  0.00     2.522 C  
ENDROOT
BRANCH  17  20
HETATM   20  O   UNL     1     -10.631  16.568  64.789  1.00  0.00    -0.684 OA 
BRANCH  20  21
HETATM   21  C   UNL     1     -11.411  15.501  64.269  1.00  0.00    -0.155 C  
HETATM   22  C   UNL     1     -10.549  14.252  64.311  1.00  0.00     0.200 C  
ENDBRANCH  20  21
ENDBRANCH  17  20
TORSDOF 2
ENDMDL
MODEL      129
REMARK 921   NORMALIZED FREE ENERGY PREDICTED BY IDOCK:    8.49 KCAL/MOL
REMARK 922        TOTAL FREE ENERGY PREDICTED BY IDOCK:    9.26 KCAL/MOL
REMARK 923 INTER-LIGAND FREE ENERGY PREDICTED BY IDOCK:    8.32 KCAL/MOL
REMARK 924 INTRA-LIGAND FREE ENERGY PREDICTED BY IDOCK:    0.94 KCAL/MOL
REMARK 927      BINDING AFFINITY PREDICTED BY RF-SCORE:    0.00 PKD
ROOT
HETATM    1  C   UNL     1      -8.610  17.590  65.714  1.00  0.00     0.245 C  
HETATM    2  C   UNL     1      -7.080  17.642  65.492  1.00  0.00     0.305 C  
HETATM    3  C   UNL     1      -6.395  16.295  65.718  1.00  0.00     2.980 C  
HETATM    4  C   UNL     1      -6.699  15.673  67.098  1.00  0.00    -0.080 C  
HETATM    5  C   UNL     1      -5.429  15.459  67.917  1.00  0.00    -0.139 C  
HETATM    6  C   UNL     1      -7.786  16.495  67.850  1.00  0.00    -0.162 C  
HETATM    7  C   UNL     1      -8.170  15.903  69.204  1.00  0.00    -0.240 C  
HETATM    8  C   UNL     1      -9.055  14.674  69.075  1.00  0.00    -0.097 C  
HETATM    9  C   UNL     1     -10.404  14.953  68.365  1.00  0.00    -0.233 C  
HETATM   10  C   UNL     1     -11.429  13.987  68.965  1.00  0.00    -0.337 C  
HETATM   11  O   UNL     1     -10.384  14.685  66.963  1.00  0.00    -0.259 OA 
HETATM   12  O   UNL     1      -9.260  15.364  66.321  1.00  0.00    -0.275 OA 
HETATM   13  C   UNL     1      -9.012  16.667  66.908  1.00  0.00    -0.222 C  
HETATM   14  C   UNL     1     -10.261  17.219  67.653  1.00  0.00    -0.333 C  
HETATM   15  O   UNL     1     -11.225  17.710  66.719  1.00  0.00     0.236 OA 
HETATM   16  O   UNL     1     -10.858  16.291  68.579  1.00  0.00    -0.294 OA 
HETATM   17  C   UNL     1     -10.771  18.849  65.973  1.00  0.00    -0.301 C  
HETATM   18  C   UNL     1      -9.225  18.995  65.922  1.00  0.00     0.105 C  
HETATM   19  C   UNL     1      -8.775  20.015  64.869  1.00  0.00     1.947 C  
ENDROOT
BRANCH  17  20
HETATM   20  O   UNL     1     -11.217  18.762  64.620  1.00  0.00     0.112 OA 
BRANCH  20  21
HETATM   21  C   UNL     1     -10.836  17.559  63.969  1.00  0.00     4.373 C  
HETATM   22  C   UNL     1     -11.952  16.554  64.191  1.00  0.00     0.994 C  
ENDBRANCH  20  21
ENDBRANCH  17  20
TORSDOF 2
ENDMDL
MODEL      130
REMARK 921   NORMALIZED FREE ENERGY PREDICTED BY IDOCK:   12.00 KCAL/MOL
REMARK 922        TOTAL FREE ENERGY PREDICTED BY IDOCK:   13.18 KCAL/MOL
REMARK 923 INTER-LIGAND FREE ENERGY PREDICTED BY IDOCK:   13.36 KCAL/MOL
REMARK 924 INTRA-LIGAND FREE ENERGY PREDICTED BY IDOCK:   -0.19 KCAL/MOL
REMARK 927      BINDING AFFINITY PREDICTED BY RF-SCORE:    0.00 PKD
ROOT
HETATM    1  C   UNL     1      -9.793  14.219  69.270  1.00  0.00     0.100 C  
HETATM    2  C   UNL     1     -11.136  13.732  69.865  1.00  0.00     0.045 C  
HETATM    3  C   UNL     1     -11.521  12.326  69.407  1.00  0.00    -0.341 C  
HETATM    4  C   UNL     1     -11.541  12.161  67.872  1.00  0.00    -0.413 C  
HETATM    5  C   UNL     1     -12.920  11.748  67.363  1.00  0.00     4.408 C  
HETATM    6  C   UNL     1     -10.980  13.432  67.170  1.00  0.00    -0.292 C  
HETATM    7  C   UNL     1     -10.927  13.314  65.649  1.00  0.00    -0.292 C  
HETATM    8  C   UNL     1      -9.785  12.432  65.170  1.00  0.00    -0.070 C  
HETATM    9  C   UNL     1      -8.385  12.955  65.580  1.00  0.00     1.915 C  
HETATM   10  C   UNL     1      -7.411  12.525  64.479  1.00  0.00     6.623 C  
HETATM   11  O   UNL     1      -7.887  12.385  66.790  1.00  0.00    -0.066 OA 
HETATM   12  O   UNL     1      -8.869  12.510  67.865  1.00  0.00    -0.168 OA 
HETATM   13  C   UNL     1      -9.593  13.765  67.789  1.00  0.00    -0.219 C  
HETATM   14  C   UNL     1      -8.818  14.837  66.970  1.00  0.00    -0.237 C  
HETATM   15  O   UNL     1      -7.748  15.382  67.745  1.00  0.00    -0.125 OA 
HETATM   16  O   UNL     1      -8.352  14.380  65.686  1.00  0.00     1.663 OA 
HETATM   17  C   UNL     1      -8.191  16.120  68.893  1.00  0.00    -0.229 C  
HETATM   18  C   UNL     1      -9.627  15.754  69.363  1.00  0.00    -0.284 C  
HETATM   19  C   UNL     1      -9.938  16.313  70.757  1.00  0.00     1.560 C  
ENDROOT
BRANCH  17  20
HETATM   20  O   UNL     1      -7.325  15.875  70.001  1.00  0.00     0.053 OA 
BRANCH  20  21
HETATM   21  C   UNL     1      -6.037  15.408  69.627  1.00  0.00    -0.140 C  
HETATM   22  C   UNL     1      -6.057  13.894  69.733  1.00  0.00    -0.129 C  
ENDBRANCH  20  21
ENDBRANCH  17  20
TORSDOF 2
ENDMDL
MODEL      131
REMARK 921   NORMALIZED FREE ENERGY PREDICTED BY IDOCK:   14.50 KCAL/MOL
REMARK 922        TOTAL FREE ENERGY PREDICTED BY IDOCK:   15.98 KCAL/MOL
REMARK 923 INTER-LIGAND FREE ENERGY PREDICTED BY IDOCK:   16.36 KCAL/MOL
REMARK 924 INTRA-LIGAND FREE ENERGY PREDICTED BY IDOCK:   -0.38 KCAL/MOL
REMARK 927      BINDING AFFINITY PREDICTED BY RF-SCORE:    0.00 PKD
ROOT
HETATM    1  C   UNL     1     -12.308  15.495  70.346  1.00  0.00    -0.451 C  
HETATM    2  C   UNL     1     -12.401  16.278  69.015  1.00  0.00     0.698 C  
HETATM    3  C   UNL     1     -13.333  15.622  67.996  1.00  0.00     4.286 C  
HETATM    4  C   UNL     1     -12.989  14.145  67.708  1.00  0.00     1.875 C  
HETATM    5  C   UNL     1     -12.660  13.916  66.235  1.00  0.00    -0.376 C  
HETATM    6  C   UNL     1     -11.880  13.634  68.674  1.00  0.00    -0.409 C  
HETATM    7  C   UNL     1     -11.528  12.163  68.473  1.00  0.00    -0.349 C  
HETATM    8  C   UNL     1     -12.583  11.226  69.040  1.00  0.00     0.452 C  
HETATM    9  C   UNL     1     -12.793  11.382  70.567  1.00  0.00    -0.042 C  
HETATM   10  C   UNL     1     -13.197  10.005  71.102  1.00  0.00    -0.441 C  
HETATM   11  O   UNL     1     -13.858  12.267  70.916  1.00  0.00     1.218 OA 
HETATM   12  O   UNL     1     -13.708  13.552  70.236  1.00  0.00     0.924 OA 
HETATM   13  C   UNL     1     -12.316  13.947  70.134  1.00  0.00    -0.334 C  
HETATM   14  C   UNL     1     -11.426  13.228  71.187  1.00  0.00     1.522 C  
HETATM   15  O   UNL     1     -11.605  13.815  72.478  1.00  0.00     1.451 OA 
HETATM   16  O   UNL     1     -11.601  11.799  71.235  1.00  0.00     0.754 OA 
HETATM   17  C   UNL     1     -11.152  15.174  72.556  1.00  0.00     0.335 C  
HETATM   18  C   UNL     1     -11.066  15.891  71.180  1.00  0.00    -0.245 C  
HETATM   19  C   UNL     1     -10.896  17.408  71.328  1.00  0.00     1.812 C  
ENDROOT
BRANCH  17  20
HETATM   20  O   UNL     1     -12.044  15.945  73.362  1.00  0.00    -0.447 OA 
BRANCH  20  21
HETATM   21  C   UNL     1     -12.986  15.162  74.080  1.00  0.00     0.263 C  
HETATM   22  C   UNL     1     -14.309  15.905  74.046  1.00  0.00     3.862 C  
ENDBRANCH  20  21
ENDBRANCH  17  20
TORSDOF 2
ENDMDL
MODEL      132
REMARK 921   NORMALIZED FREE ENERGY PREDICTED BY IDOCK:   14.78 KCAL/MOL
REMARK 922        TOTAL FREE ENERGY PREDICTED BY IDOCK:   16.28 KCAL/MOL
REMARK 923 INTER-LIGAND FREE ENERGY PREDICTED BY IDOCK:   13.79 KCAL/MOL
REMARK 924 INTRA-LIGAND FREE ENERGY PREDICTED BY IDOCK:    2.49 KCAL/MOL
REMARK 927      BINDING AFFINITY PREDICTED BY RF-SCORE:    0.00 PKD
ROOT
HETATM    1  C   UNL     1      -8.329  17.908  68.782  1.00  0.00    -0.222 C  
HETATM    2  C   UNL     1      -7.011  18.618  68.393  1.00  0.00    -0.278 C  
HETATM    3  C   UNL     1      -6.653  18.452  66.917  1.00  0.00    -0.206 C  
HETATM    4  C   UNL     1      -6.605  16.979  66.456  1.00  0.00    -0.254 C  
HETATM    5  C   UNL     1      -5.228  16.594  65.923  1.00  0.00     1.388 C  
HETATM    6  C   UNL     1      -7.120  16.030  67.578  1.00  0.00    -0.199 C  
HETATM    7  C   UNL     1      -7.145  14.559  67.168  1.00  0.00     0.203 C  
HETATM    8  C   UNL     1      -8.299  14.233  66.233  1.00  0.00     0.796 C  
HETATM    9  C   UNL     1      -9.694  14.499  66.855  1.00  0.00    -0.252 C  
HETATM   10  C   UNL     1     -10.655  13.478  66.239  1.00  0.00    -0.288 C  
HETATM   11  O   UNL     1     -10.230  15.784  66.541  1.00  0.00    -0.267 OA 
HETATM   12  O   UNL     1      -9.267  16.838  66.853  1.00  0.00    -0.218 OA 
HETATM   13  C   UNL     1      -8.511  16.538  68.054  1.00  0.00    -0.186 C  
HETATM   14  C   UNL     1      -9.241  15.508  68.961  1.00  0.00    -0.238 C  
HETATM   15  O   UNL     1     -10.313  16.136  69.669  1.00  0.00    -0.263 OA 
HETATM   16  O   UNL     1      -9.693  14.326  68.273  1.00  0.00    -0.209 OA 
HETATM   17  C   UNL     1      -9.875  17.130  70.606  1.00  0.00     2.636 C  
HETATM   18  C   UNL     1      -8.459  17.697  70.310  1.00  0.00     3.158 C  
HETATM   19  C   UNL     1      -8.161  18.963  71.123  1.00  0.00     5.146 C  
ENDROOT
BRANCH  17  20
HETATM   20  O   UNL     1     -10.769  18.242  70.600  1.00  0.00     1.406 OA 
BRANCH  20  21
HETATM   21  C   UNL     1     -10.424  19.247  69.657  1.00  0.00     0.771 C  
HETATM   22  C   UNL     1     -10.450  20.578  70.386  1.00  0.00     1.365 C  
ENDBRANCH  20  21
ENDBRANCH  17  20
TORSDOF 2
ENDMDL
MODEL      133
REMARK 921   NORMALIZED FREE ENERGY PREDICTED BY IDOCK:   26.06 KCAL/MOL
REMARK 922        TOTAL FREE ENERGY PREDICTED BY IDOCK:   28.88 KCAL/MOL
REMARK 923 INTER-LIGAND FREE ENERGY PREDICTED BY IDOCK:   28.81 KCAL/MOL
REMARK 924 INTRA-LIGAND FREE ENERGY PREDICTED BY IDOCK:    0.08 KCAL/MOL
REMARK 927      BINDING AFFINITY PREDICTED BY RF-SCORE:    0.00 PKD
ROOT
HETATM    1  C   UNL     1      -6.772  16.830  69.384  1.00  0.00    -0.226 C  
HETATM    2  C   UNL     1      -6.430  15.352  69.687  1.00  0.00    -0.171 C  
HETATM    3  C   UNL     1      -5.488  14.730  68.657  1.00  0.00    -0.094 C  
HETATM    4  C   UNL     1      -5.992  14.861  67.203  1.00  0.00     0.654 C  
HETATM    5  C   UNL     1      -6.185  13.497  66.545  1.00  0.00     2.874 C  
HETATM    6  C   UNL     1      -7.258  15.764  67.133  1.00  0.00    -0.241 C  
HETATM    7  C   UNL     1      -7.779  15.974  65.714  1.00  0.00     1.696 C  
HETATM    8  C   UNL     1      -6.925  16.948  64.916  1.00  0.00     4.877 C  
HETATM    9  C   UNL     1      -6.864  18.368  65.534  1.00  0.00    -0.183 C  
HETATM   10  C   UNL     1      -6.709  19.351  64.370  1.00  0.00     0.619 C  
HETATM   11  O   UNL     1      -5.736  18.580  66.382  1.00  0.00    -0.146 OA 
HETATM   12  O   UNL     1      -5.639  17.525  67.389  1.00  0.00    -0.125 OA 
HETATM   13  C   UNL     1      -6.946  17.105  67.857  1.00  0.00    -0.165 C  
HETATM   14  C   UNL     1      -8.033  18.187  67.598  1.00  0.00    -0.233 C  
HETATM   15  O   UNL     1      -7.920  19.248  68.549  1.00  0.00    -0.334 OA 
HETATM   16  O   UNL     1      -8.056  18.695  66.250  1.00  0.00    -0.301 OA 
HETATM   17  C   UNL     1      -8.194  18.839  69.897  1.00  0.00     1.147 C  
HETATM   18  C   UNL     1      -8.033  17.313  70.139  1.00  0.00     2.287 C  
HETATM   19  C   UNL     1      -8.016  16.963  71.632  1.00  0.00     9.664 C  
ENDROOT
BRANCH  17  20
HETATM   20  O   UNL     1      -7.302  19.492  70.800  1.00  0.00     0.792 OA 
BRANCH  20  21
HETATM   21  C   UNL     1      -7.945  20.397  71.685  1.00  0.00     2.084 C  
HETATM   22  C   UNL     1      -7.729  19.879  73.096  1.00  0.00     4.331 C  
ENDBRANCH  20  21
ENDBRANCH  17  20
TORSDOF 2
ENDMDL
MODEL      134
REMARK 921   NORMALIZED FREE ENERGY PREDICTED BY IDOCK:   29.89 KCAL/MOL
REMARK 922        TOTAL FREE ENERGY PREDICTED BY IDOCK:   33.16 KCAL/MOL
REMARK 923 INTER-LIGAND FREE ENERGY PREDICTED BY IDOCK:   20.23 KCAL/MOL
REMARK 924 INTRA-LIGAND FREE ENERGY PREDICTED BY IDOCK:   12.93 KCAL/MOL
REMARK 927      BINDING AFFINITY PREDICTED BY RF-SCORE:    0.00 PKD
ROOT
HETATM    1  C   UNL     1      -8.051  18.441  65.654  1.00  0.00     0.412 C  
HETATM    2  C   UNL     1      -6.549  18.149  65.879  1.00  0.00    -0.316 C  
HETATM    3  C   UNL     1      -6.291  16.784  66.515  1.00  0.00    -0.056 C  
HETATM    4  C   UNL     1      -7.068  16.561  67.831  1.00  0.00    -0.150 C  
HETATM    5  C   UNL     1      -6.130  16.302  69.007  1.00  0.00    -0.142 C  
HETATM    6  C   UNL     1      -8.071  17.723  68.087  1.00  0.00    -0.265 C  
HETATM    7  C   UNL     1      -8.908  17.538  69.351  1.00  0.00     0.427 C  
HETATM    8  C   UNL     1     -10.008  16.502  69.177  1.00  0.00    -0.275 C  
HETATM    9  C   UNL     1     -11.030  16.863  68.070  1.00  0.00    -0.271 C  
HETATM   10  C   UNL     1     -12.375  16.271  68.499  1.00  0.00     0.965 C  
HETATM   11  O   UNL     1     -10.733  16.286  66.799  1.00  0.00    -0.293 OA 
HETATM   12  O   UNL     1      -9.355  16.575  66.407  1.00  0.00    -0.250 OA 
HETATM   13  C   UNL     1      -8.948  17.906  66.815  1.00  0.00    -0.261 C  
HETATM   14  C   UNL     1     -10.167  18.839  67.063  1.00  0.00    -0.381 C  
HETATM   15  O   UNL     1     -10.722  19.278  65.821  1.00  0.00    -0.467 OA 
HETATM   16  O   UNL     1     -11.181  18.276  67.917  1.00  0.00    -0.043 OA 
HETATM   17  C   UNL     1      -9.835  20.111  65.061  1.00  0.00     1.221 C  
HETATM   18  C   UNL     1      -8.336  19.946  65.437  1.00  0.00     0.533 C  
HETATM   19  C   UNL     1      -7.406  20.596  64.406  1.00  0.00     0.687 C  
ENDROOT
BRANCH  17  20
HETATM   20  O   UNL     1      -9.942  19.806  63.671  1.00  0.00     7.501 OA 
BRANCH  20  21
HETATM   21  C   UNL     1      -8.979  20.469  62.864  1.00  0.00     9.753 C  
HETATM   22  C   UNL     1      -7.771  20.747  63.741  1.00  0.00     1.896 C  
ENDBRANCH  20  21
ENDBRANCH  17  20
TORSDOF 2
ENDMDL
MODEL      135
REMARK 921   NORMALIZED FREE ENERGY PREDICTED BY IDOCK:   33.93 KCAL/MOL
REMARK 922        TOTAL FREE ENERGY PREDICTED BY IDOCK:   37.67 KCAL/MOL
REMARK 923 INTER-LIGAND FREE ENERGY PREDICTED BY IDOCK:   37.90 KCAL/MOL
REMARK 924 INTRA-LIGAND FREE ENERGY PREDICTED BY IDOCK:   -0.23 KCAL/MOL
REMARK 927      BINDING AFFINITY PREDICTED BY RF-SCORE:    0.00 PKD
ROOT
HETATM    1  C   UNL     1     -10.278  17.752  65.234  1.00  0.00     0.586 C  
HETATM    2  C   UNL     1     -10.486  18.577  63.941  1.00  0.00     9.132 C  
HETATM    3  C   UNL     1      -9.179  19.096  63.344  1.00  0.00    16.811 C  
HETATM    4  C   UNL     1      -8.322  19.903  64.344  1.00  0.00     3.566 C  
HETATM    5  C   UNL     1      -8.082  21.332  63.862  1.00  0.00     2.145 C  
HETATM    6  C   UNL     1      -8.925  19.829  65.777  1.00  0.00     0.004 C  
HETATM    7  C   UNL     1      -8.096  20.567  66.825  1.00  0.00    -0.228 C  
HETATM    8  C   UNL     1      -6.836  19.810  67.215  1.00  0.00    -0.238 C  
HETATM    9  C   UNL     1      -7.117  18.418  67.835  1.00  0.00    -0.224 C  
HETATM   10  C   UNL     1      -5.990  18.143  68.834  1.00  0.00    -0.211 C  
HETATM   11  O   UNL     1      -7.079  17.348  66.893  1.00  0.00    -0.163 OA 
HETATM   12  O   UNL     1      -7.939  17.635  65.746  1.00  0.00    -0.549 OA 
HETATM   13  C   UNL     1      -9.147  18.333  66.141  1.00  0.00    -0.105 C  
HETATM   14  C   UNL     1      -9.472  18.131  67.649  1.00  0.00    -0.264 C  
HETATM   15  O   UNL     1     -10.027  16.832  67.870  1.00  0.00    -0.254 OA 
HETATM   16  O   UNL     1      -8.364  18.382  68.533  1.00  0.00    -0.317 OA 
HETATM   17  C   UNL     1     -11.303  16.640  67.243  1.00  0.00     0.324 C  
HETATM   18  C   UNL     1     -11.578  17.612  66.062  1.00  0.00     2.006 C  
HETATM   19  C   UNL     1     -12.785  17.175  65.223  1.00  0.00     6.732 C  
ENDROOT
BRANCH  17  20
HETATM   20  O   UNL     1     -11.398  15.318  66.713  1.00  0.00    -0.291 OA 
BRANCH  20  21
HETATM   21  C   UNL     1     -10.155  14.633  66.660  1.00  0.00    -0.273 C  
HETATM   22  C   UNL     1     -10.456  13.176  66.364  1.00  0.00    -0.287 C  
ENDBRANCH  20  21
ENDBRANCH  17  20
TORSDOF 2
ENDMDL
MODEL      136
REMARK 921   NORMALIZED FREE ENERGY PREDICTED BY IDOCK:   34.05 KCAL/MOL
REMARK 922        TOTAL FREE ENERGY PREDICTED BY IDOCK:   37.81 KCAL/MOL
REMARK 923 INTER-LIGAND FREE ENERGY PREDICTED BY IDOCK:   38.09 KCAL/MOL
REMARK 924 INTRA-LIGAND FREE ENERGY PREDICTED BY IDOCK:   -0.29 KCAL/MOL
REMARK 927      BINDING AFFINITY PREDICTED BY RF-SCORE:    0.00 PKD
ROOT
HETATM    1  C   UNL     1     -10.527  15.084  68.239  1.00  0.00    -0.237 C  
HETATM    2  C   UNL     1     -11.000  16.504  68.630  1.00  0.00    -0.344 C  
HETATM    3  C   UNL     1     -11.009  17.479  67.454  1.00  0.00    -0.053 C  
HETATM    4  C   UNL     1      -9.656  17.566  66.715  1.00  0.00    -0.286 C  
HETATM    5  C   UNL     1      -9.085  18.982  66.742  1.00  0.00    -0.340 C  
HETATM    6  C   UNL     1      -8.664  16.491  67.246  1.00  0.00    -0.204 C  
HETATM    7  C   UNL     1      -7.320  16.491  66.521  1.00  0.00    -0.229 C  
HETATM    8  C   UNL     1      -7.402  15.867  65.137  1.00  0.00     6.816 C  
HETATM    9  C   UNL     1      -7.847  14.383  65.152  1.00  0.00     8.008 C  
HETATM   10  C   UNL     1      -7.167  13.704  63.960  1.00  0.00    19.765 C  
HETATM   11  O   UNL     1      -9.250  14.199  64.962  1.00  0.00     0.720 OA 
HETATM   12  O   UNL     1     -10.012  15.024  65.898  1.00  0.00    -0.285 OA 
HETATM   13  C   UNL     1      -9.366  15.104  67.194  1.00  0.00    -0.212 C  
HETATM   14  C   UNL     1      -8.376  13.927  67.427  1.00  0.00    -0.198 C  
HETATM   15  O   UNL     1      -9.089  12.729  67.742  1.00  0.00    -0.179 OA 
HETATM   16  O   UNL     1      -7.446  13.713  66.349  1.00  0.00     1.042 OA 
HETATM   17  C   UNL     1      -9.799  12.796  68.986  1.00  0.00     0.306 C  
HETATM   18  C   UNL     1     -10.098  14.244  69.466  1.00  0.00     0.214 C  
HETATM   19  C   UNL     1     -11.121  14.275  70.608  1.00  0.00     0.263 C  
ENDROOT
BRANCH  17  20
HETATM   20  O   UNL     1     -11.060  12.136  68.870  1.00  0.00    -0.222 OA 
BRANCH  20  21
HETATM   21  C   UNL     1     -11.465  11.910  67.528  1.00  0.00    -0.326 C  
HETATM   22  C   UNL     1     -12.982  11.854  67.518  1.00  0.00     4.075 C  
ENDBRANCH  20  21
ENDBRANCH  17  20
TORSDOF 2
ENDMDL
MODEL      137
REMARK 921   NORMALIZED FREE ENERGY PREDICTED BY IDOCK:   61.69 KCAL/MOL
REMARK 922        TOTAL FREE ENERGY PREDICTED BY IDOCK:   68.68 KCAL/MOL
REMARK 923 INTER-LIGAND FREE ENERGY PREDICTED BY IDOCK:   64.02 KCAL/MOL
REMARK 924 INTRA-LIGAND FREE ENERGY PREDICTED BY IDOCK:    4.67 KCAL/MOL
REMARK 927      BINDING AFFINITY PREDICTED BY RF-SCORE:    0.00 PKD
ROOT
HETATM    1  C   UNL     1     -10.178   7.141  66.130  1.00  0.00     0.392 C  
HETATM    2  C   UNL     1      -8.985   6.190  66.389  1.00  0.00    -0.156 C  
HETATM    3  C   UNL     1      -8.840   5.797  67.859  1.00  0.00    -0.108 C  
HETATM    4  C   UNL     1      -8.759   7.006  68.815  1.00  0.00    -0.127 C  
HETATM    5  C   UNL     1      -7.452   7.020  69.605  1.00  0.00    -0.098 C  
HETATM    6  C   UNL     1      -9.033   8.336  68.053  1.00  0.00    -0.138 C  
HETATM    7  C   UNL     1      -9.016   9.569  68.954  1.00  0.00    -0.141 C  
HETATM    8  C   UNL     1     -10.271   9.689  69.804  1.00  0.00    -0.262 C  
HETATM    9  C   UNL     1     -11.572   9.818  68.973  1.00  0.00     0.243 C  
HETATM   10  C   UNL     1     -12.541  10.672  69.797  1.00  0.00    -0.091 C  
HETATM   11  O   UNL     1     -12.238   8.577  68.745  1.00  0.00     2.530 OA 
HETATM   12  O   UNL     1     -11.315   7.587  68.192  1.00  0.00     0.300 OA 
HETATM   13  C   UNL     1     -10.369   8.189  67.271  1.00  0.00    -0.303 C  
HETATM   14  C   UNL     1     -10.883   9.547  66.712  1.00  0.00     0.039 C  
HETATM   15  O   UNL     1     -11.878   9.330  65.709  1.00  0.00     4.641 OA 
HETATM   16  O   UNL     1     -11.348  10.465  67.719  1.00  0.00    -0.353 OA 
HETATM   17  C   UNL     1     -11.376   8.673  64.537  1.00  0.00    11.783 C  
HETATM   18  C   UNL     1     -10.063   7.876  64.773  1.00  0.00     3.836 C  
HETATM   19  C   UNL     1      -9.737   6.940  63.603  1.00  0.00     4.058 C  
ENDROOT
BRANCH  17  20
HETATM   20  O   UNL     1     -12.337   7.740  64.045  1.00  0.00    20.022 OA 
BRANCH  20  21
HETATM   21  C   UNL     1     -12.003   6.384  64.306  1.00  0.00    11.592 C  
HETATM   22  C   UNL     1     -11.544   5.772  62.996  1.00  0.00     6.357 C  
ENDBRANCH  20  21
ENDBRANCH  17  20
TORSDOF 2
ENDMDL
