MODEL        1
REMARK 921   NORMALIZED FREE ENERGY PREDICTED BY IDOCK:   -6.83 KCAL/MOL
REMARK 922        TOTAL FREE ENERGY PREDICTED BY IDOCK:   -7.26 KCAL/MOL
REMARK 923 INTER-LIGAND FREE ENERGY PREDICTED BY IDOCK:   -7.23 KCAL/MOL
REMARK 924 INTRA-LIGAND FREE ENERGY PREDICTED BY IDOCK:   -0.04 KCAL/MOL
REMARK 927      BINDING AFFINITY PREDICTED BY RF-SCORE:    0.00 PKD
ROOT
HETATM    1  C   UNL     1     -11.790  13.504  70.449  1.00  0.00    -0.293 C  
HETATM    2  C   UNL     1     -12.002  12.025  70.051  1.00  0.00    -0.400 C  
HETATM    3  C   UNL     1     -10.986  11.531  69.017  1.00  0.00    -0.285 C  
HETATM    4  C   UNL     1     -10.935  12.411  67.746  1.00  0.00    -0.267 C  
HETATM    5  C   UNL     1     -11.797  13.698  67.923  1.00  0.00    -0.402 C  
HETATM    6  C   UNL     1     -11.285  11.610  66.494  1.00  0.00    -0.356 C  
HETATM    7  C   UNL     1     -11.752  14.638  66.721  1.00  0.00    -0.355 C  
HETATM    8  C   UNL     1     -10.450  15.413  66.631  1.00  0.00    -0.293 C  
HETATM    9  C   UNL     1     -10.173  16.308  67.861  1.00  0.00    -0.261 C  
HETATM   10  C   UNL     1      -9.369  17.511  67.350  1.00  0.00    -0.249 C  
HETATM   11  O   UNL     1      -9.361  15.691  68.860  1.00  0.00    -0.194 OA 
HETATM   12  O   UNL     1      -9.915  14.395  69.254  1.00  0.00    -0.121 OA 
HETATM   13  C   UNL     1     -11.362  14.399  69.243  1.00  0.00    -0.284 C  
HETATM   14  C   UNL     1     -11.943  15.839  69.376  1.00  0.00    -0.305 C  
HETATM   15  O   UNL     1     -11.845  16.297  70.722  1.00  0.00    -0.316 OA 
HETATM   16  O   UNL     1     -11.375  16.790  68.459  1.00  0.00    -0.268 OA 
HETATM   17  C   UNL     1     -12.635  15.537  71.647  1.00  0.00    -0.419 C  
HETATM   18  C   UNL     1     -13.651  13.246  72.213  1.00  0.00    -0.703 C  
HETATM   19  C   UNL     1     -13.034  14.128  71.122  1.00  0.00    -0.419 C  
ENDROOT
BRANCH  17  20
HETATM   20  O   UNL     1     -11.909  15.337  72.865  1.00  0.00    -0.414 OA 
HETATM   21  C   UNL     1     -12.437  16.073  73.955  1.00  0.00    -0.621 C  
ENDBRANCH  17  20
TORSDOF 1
ENDMDL
MODEL        2
REMARK 921   NORMALIZED FREE ENERGY PREDICTED BY IDOCK:   -6.69 KCAL/MOL
REMARK 922        TOTAL FREE ENERGY PREDICTED BY IDOCK:   -7.12 KCAL/MOL
REMARK 923 INTER-LIGAND FREE ENERGY PREDICTED BY IDOCK:   -7.00 KCAL/MOL
REMARK 924 INTRA-LIGAND FREE ENERGY PREDICTED BY IDOCK:   -0.12 KCAL/MOL
REMARK 927      BINDING AFFINITY PREDICTED BY RF-SCORE:    0.00 PKD
ROOT
HETATM    1  C   UNL     1     -11.253  14.349  66.340  1.00  0.00    -0.345 C  
HETATM    2  C   UNL     1     -11.278  14.520  64.804  1.00  0.00    -0.395 C  
HETATM    3  C   UNL     1     -11.814  13.285  64.072  1.00  0.00    -0.512 C  
HETATM    4  C   UNL     1     -11.060  11.985  64.441  1.00  0.00    -0.399 C  
HETATM    5  C   UNL     1     -10.067  12.231  65.618  1.00  0.00    -0.275 C  
HETATM    6  C   UNL     1     -10.409  11.348  63.216  1.00  0.00    -0.422 C  
HETATM    7  C   UNL     1      -9.324  10.975  66.066  1.00  0.00    -0.225 C  
HETATM    8  C   UNL     1     -10.197  10.035  66.878  1.00  0.00    -0.299 C  
HETATM    9  C   UNL     1     -10.751  10.667  68.175  1.00  0.00    -0.225 C  
HETATM   10  C   UNL     1     -10.898   9.524  69.187  1.00  0.00    -0.194 C  
HETATM   11  O   UNL     1     -12.053  11.237  68.036  1.00  0.00    -0.638 OA 
HETATM   12  O   UNL     1     -12.092  12.181  66.920  1.00  0.00    -0.600 OA 
HETATM   13  C   UNL     1     -10.848  12.908  66.781  1.00  0.00    -0.267 C  
HETATM   14  C   UNL     1     -10.036  12.933  68.112  1.00  0.00    -0.234 C  
HETATM   15  O   UNL     1     -10.603  13.866  69.027  1.00  0.00    -0.233 OA 
HETATM   16  O   UNL     1      -9.864  11.642  68.722  1.00  0.00    -0.193 OA 
HETATM   17  C   UNL     1     -10.538  15.226  68.576  1.00  0.00    -0.237 C  
HETATM   18  C   UNL     1     -10.517  16.809  66.552  1.00  0.00    -0.258 C  
HETATM   19  C   UNL     1     -10.328  15.369  67.041  1.00  0.00    -0.280 C  
ENDROOT
BRANCH  17  20
HETATM   20  O   UNL     1     -11.756  15.909  68.894  1.00  0.00    -0.390 OA 
HETATM   21  C   UNL     1     -12.271  15.563  70.169  1.00  0.00    -0.376 C  
ENDBRANCH  17  20
TORSDOF 1
ENDMDL
MODEL        3
REMARK 921   NORMALIZED FREE ENERGY PREDICTED BY IDOCK:   -6.52 KCAL/MOL
REMARK 922        TOTAL FREE ENERGY PREDICTED BY IDOCK:   -6.94 KCAL/MOL
REMARK 923 INTER-LIGAND FREE ENERGY PREDICTED BY IDOCK:   -6.82 KCAL/MOL
REMARK 924 INTRA-LIGAND FREE ENERGY PREDICTED BY IDOCK:   -0.11 KCAL/MOL
REMARK 927      BINDING AFFINITY PREDICTED BY RF-SCORE:    0.00 PKD
ROOT
HETATM    1  C   UNL     1     -11.079  14.087  66.187  1.00  0.00    -0.302 C  
HETATM    2  C   UNL     1     -11.028  14.196  64.646  1.00  0.00    -0.393 C  
HETATM    3  C   UNL     1     -11.526  12.931  63.939  1.00  0.00    -0.504 C  
HETATM    4  C   UNL     1     -10.791  11.649  64.396  1.00  0.00    -0.399 C  
HETATM    5  C   UNL     1      -9.857  11.944  65.610  1.00  0.00    -0.266 C  
HETATM    6  C   UNL     1     -10.079  10.965  63.231  1.00  0.00    -0.368 C  
HETATM    7  C   UNL     1      -9.135  10.710  66.143  1.00  0.00    -0.190 C  
HETATM    8  C   UNL     1     -10.047   9.801  66.949  1.00  0.00    -0.287 C  
HETATM    9  C   UNL     1     -10.665  10.483  68.191  1.00  0.00    -0.233 C  
HETATM   10  C   UNL     1     -10.860   9.380  69.239  1.00  0.00    -0.190 C  
HETATM   11  O   UNL     1     -11.958  11.042  67.966  1.00  0.00    -0.623 OA 
HETATM   12  O   UNL     1     -11.943  11.942  66.812  1.00  0.00    -0.613 OA 
HETATM   13  C   UNL     1     -10.694  12.665  66.705  1.00  0.00    -0.239 C  
HETATM   14  C   UNL     1      -9.949  12.746  68.072  1.00  0.00    -0.225 C  
HETATM   15  O   UNL     1     -10.561  13.714  68.920  1.00  0.00    -0.245 OA 
HETATM   16  O   UNL     1      -9.806  11.481  68.741  1.00  0.00    -0.201 OA 
HETATM   17  C   UNL     1     -10.475  15.054  68.418  1.00  0.00    -0.238 C  
HETATM   18  C   UNL     1     -10.355  16.555  66.337  1.00  0.00    -0.316 C  
HETATM   19  C   UNL     1     -10.190  15.137  66.892  1.00  0.00    -0.259 C  
ENDROOT
BRANCH  17  20
HETATM   20  O   UNL     1     -11.707  15.746  68.649  1.00  0.00    -0.375 OA 
HETATM   21  C   UNL     1     -12.144  15.673  69.996  1.00  0.00    -0.359 C  
ENDBRANCH  17  20
TORSDOF 1
ENDMDL
MODEL        4
REMARK 921   NORMALIZED FREE ENERGY PREDICTED BY IDOCK:   -6.34 KCAL/MOL
REMARK 922        TOTAL FREE ENERGY PREDICTED BY IDOCK:   -6.75 KCAL/MOL
REMARK 923 INTER-LIGAND FREE ENERGY PREDICTED BY IDOCK:   -6.62 KCAL/MOL
REMARK 924 INTRA-LIGAND FREE ENERGY PREDICTED BY IDOCK:   -0.13 KCAL/MOL
REMARK 927      BINDING AFFINITY PREDICTED BY RF-SCORE:    0.00 PKD
ROOT
HETATM    1  C   UNL     1     -10.644  15.198  66.397  1.00  0.00    -0.305 C  
HETATM    2  C   UNL     1     -11.037  15.352  64.910  1.00  0.00    -0.435 C  
HETATM    3  C   UNL     1     -12.227  14.474  64.510  1.00  0.00    -0.483 C  
HETATM    4  C   UNL     1     -12.016  12.978  64.840  1.00  0.00    -0.441 C  
HETATM    5  C   UNL     1     -10.719  12.769  65.680  1.00  0.00    -0.297 C  
HETATM    6  C   UNL     1     -12.076  12.112  63.585  1.00  0.00    -0.648 C  
HETATM    7  C   UNL     1     -10.475  11.317  66.083  1.00  0.00    -0.305 C  
HETATM    8  C   UNL     1     -11.386  10.861  67.209  1.00  0.00    -0.230 C  
HETATM    9  C   UNL     1     -11.224  11.680  68.510  1.00  0.00    -0.256 C  
HETATM   10  C   UNL     1     -11.538  10.723  69.667  1.00  0.00    -0.388 C  
HETATM   11  O   UNL     1     -12.147  12.762  68.637  1.00  0.00    -0.273 OA 
HETATM   12  O   UNL     1     -12.107  13.621  67.453  1.00  0.00    -0.380 OA 
HETATM   13  C   UNL     1     -10.771  13.727  66.905  1.00  0.00    -0.280 C  
HETATM   14  C   UNL     1      -9.678  13.401  67.967  1.00  0.00    -0.222 C  
HETATM   15  O   UNL     1      -9.511  14.494  68.867  1.00  0.00    -0.203 OA 
HETATM   16  O   UNL     1      -9.895  12.169  68.677  1.00  0.00    -0.188 OA 
HETATM   17  C   UNL     1      -9.016  15.684  68.238  1.00  0.00    -0.181 C  
HETATM   18  C   UNL     1      -8.919  17.086  66.087  1.00  0.00    -0.243 C  
HETATM   19  C   UNL     1      -9.218  15.712  66.697  1.00  0.00    -0.294 C  
ENDROOT
BRANCH  17  20
HETATM   20  O   UNL     1      -9.687  16.834  68.766  1.00  0.00    -0.243 OA 
HETATM   21  C   UNL     1     -10.725  16.506  69.674  1.00  0.00    -0.323 C  
ENDBRANCH  17  20
TORSDOF 1
ENDMDL
MODEL        5
REMARK 921   NORMALIZED FREE ENERGY PREDICTED BY IDOCK:   -6.27 KCAL/MOL
REMARK 922        TOTAL FREE ENERGY PREDICTED BY IDOCK:   -6.67 KCAL/MOL
REMARK 923 INTER-LIGAND FREE ENERGY PREDICTED BY IDOCK:   -6.57 KCAL/MOL
REMARK 924 INTRA-LIGAND FREE ENERGY PREDICTED BY IDOCK:   -0.10 KCAL/MOL
REMARK 927      BINDING AFFINITY PREDICTED BY RF-SCORE:    0.00 PKD
ROOT
HETATM    1  C   UNL     1     -10.748  14.640  66.821  1.00  0.00    -0.301 C  
HETATM    2  C   UNL     1     -10.669  16.086  67.363  1.00  0.00    -0.306 C  
HETATM    3  C   UNL     1     -10.100  16.163  68.783  1.00  0.00    -0.237 C  
HETATM    4  C   UNL     1     -10.859  15.269  69.792  1.00  0.00    -0.300 C  
HETATM    5  C   UNL     1     -11.896  14.361  69.062  1.00  0.00    -0.358 C  
HETATM    6  C   UNL     1     -11.462  16.091  70.928  1.00  0.00    -0.451 C  
HETATM    7  C   UNL     1     -12.648  13.415  69.995  1.00  0.00    -0.091 C  
HETATM    8  C   UNL     1     -11.800  12.240  70.447  1.00  0.00    -0.259 C  
HETATM    9  C   UNL     1     -11.297  11.353  69.285  1.00  0.00    -0.289 C  
HETATM   10  C   UNL     1     -11.180   9.930  69.845  1.00  0.00    -0.298 C  
HETATM   11  O   UNL     1      -9.994  11.696  68.812  1.00  0.00    -0.200 OA 
HETATM   12  O   UNL     1      -9.920  13.117  68.474  1.00  0.00    -0.232 OA 
HETATM   13  C   UNL     1     -11.162  13.606  67.915  1.00  0.00    -0.274 C  
HETATM   14  C   UNL     1     -12.022  12.456  67.309  1.00  0.00    -0.176 C  
HETATM   15  O   UNL     1     -11.494  12.046  66.050  1.00  0.00    -0.350 OA 
HETATM   16  O   UNL     1     -12.208  11.334  68.188  1.00  0.00    -0.622 OA 
HETATM   17  C   UNL     1     -11.549  13.066  65.044  1.00  0.00    -0.325 C  
HETATM   18  C   UNL     1     -11.506  15.586  64.547  1.00  0.00    -0.311 C  
HETATM   19  C   UNL     1     -11.704  14.504  65.614  1.00  0.00    -0.335 C  
ENDROOT
BRANCH  17  20
HETATM   20  O   UNL     1     -10.348  13.054  64.265  1.00  0.00    -0.404 OA 
HETATM   21  C   UNL     1     -10.250  11.929  63.407  1.00  0.00    -0.449 C  
ENDBRANCH  17  20
TORSDOF 1
ENDMDL
MODEL        6
REMARK 921   NORMALIZED FREE ENERGY PREDICTED BY IDOCK:   -6.22 KCAL/MOL
REMARK 922        TOTAL FREE ENERGY PREDICTED BY IDOCK:   -6.62 KCAL/MOL
REMARK 923 INTER-LIGAND FREE ENERGY PREDICTED BY IDOCK:   -6.54 KCAL/MOL
REMARK 924 INTRA-LIGAND FREE ENERGY PREDICTED BY IDOCK:   -0.08 KCAL/MOL
REMARK 927      BINDING AFFINITY PREDICTED BY RF-SCORE:    0.00 PKD
ROOT
HETATM    1  C   UNL     1     -11.459  12.460  70.065  1.00  0.00    -0.110 C  
HETATM    2  C   UNL     1     -11.437  10.918  70.168  1.00  0.00    -0.405 C  
HETATM    3  C   UNL     1     -10.388  10.272  69.257  1.00  0.00    -0.250 C  
HETATM    4  C   UNL     1     -10.528  10.694  67.775  1.00  0.00    -0.258 C  
HETATM    5  C   UNL     1     -11.585  11.829  67.615  1.00  0.00    -0.364 C  
HETATM    6  C   UNL     1     -10.783   9.491  66.870  1.00  0.00    -0.184 C  
HETATM    7  C   UNL     1     -11.738  12.328  66.181  1.00  0.00    -0.440 C  
HETATM    8  C   UNL     1     -10.586  13.215  65.743  1.00  0.00    -0.293 C  
HETATM    9  C   UNL     1     -10.419  14.488  66.603  1.00  0.00    -0.274 C  
HETATM   10  C   UNL     1      -9.844  15.567  65.677  1.00  0.00    -0.377 C  
HETATM   11  O   UNL     1      -9.483  14.351  67.672  1.00  0.00    -0.206 OA 
HETATM   12  O   UNL     1      -9.800  13.184  68.496  1.00  0.00    -0.218 OA 
HETATM   13  C   UNL     1     -11.227  12.972  68.609  1.00  0.00    -0.277 C  
HETATM   14  C   UNL     1     -12.034  14.277  68.335  1.00  0.00    -0.309 C  
HETATM   15  O   UNL     1     -11.967  15.153  69.458  1.00  0.00    -0.312 OA 
HETATM   16  O   UNL     1     -11.664  14.955  67.122  1.00  0.00    -0.356 OA 
HETATM   17  C   UNL     1     -12.587  14.623  70.637  1.00  0.00    -0.357 C  
HETATM   18  C   UNL     1     -13.189  12.513  71.974  1.00  0.00    -0.524 C  
HETATM   19  C   UNL     1     -12.765  13.078  70.614  1.00  0.00    -0.175 C  
ENDROOT
BRANCH  17  20
HETATM   20  O   UNL     1     -11.797  14.934  71.790  1.00  0.00    -0.353 OA 
HETATM   21  C   UNL     1     -12.315  16.016  72.545  1.00  0.00    -0.496 C  
ENDBRANCH  17  20
TORSDOF 1
ENDMDL
MODEL        7
REMARK 921   NORMALIZED FREE ENERGY PREDICTED BY IDOCK:   -6.17 KCAL/MOL
REMARK 922        TOTAL FREE ENERGY PREDICTED BY IDOCK:   -6.57 KCAL/MOL
REMARK 923 INTER-LIGAND FREE ENERGY PREDICTED BY IDOCK:   -6.56 KCAL/MOL
REMARK 924 INTRA-LIGAND FREE ENERGY PREDICTED BY IDOCK:   -0.02 KCAL/MOL
REMARK 927      BINDING AFFINITY PREDICTED BY RF-SCORE:    0.00 PKD
ROOT
HETATM    1  C   UNL     1     -11.429  15.940  69.360  1.00  0.00    -0.351 C  
HETATM    2  C   UNL     1     -10.658  17.279  69.298  1.00  0.00    -0.156 C  
HETATM    3  C   UNL     1     -10.400  17.757  67.866  1.00  0.00    -0.388 C  
HETATM    4  C   UNL     1      -9.681  16.701  66.993  1.00  0.00    -0.253 C  
HETATM    5  C   UNL     1      -9.575  15.337  67.742  1.00  0.00    -0.206 C  
HETATM    6  C   UNL     1      -8.340  17.218  66.477  1.00  0.00    -0.312 C  
HETATM    7  C   UNL     1      -8.917  14.233  66.917  1.00  0.00    -0.255 C  
HETATM    8  C   UNL     1      -9.836  13.677  65.844  1.00  0.00    -0.263 C  
HETATM    9  C   UNL     1     -11.136  13.052  66.401  1.00  0.00    -0.287 C  
HETATM   10  C   UNL     1     -11.528  11.930  65.432  1.00  0.00    -0.310 C  
HETATM   11  O   UNL     1     -12.247  13.948  66.432  1.00  0.00    -0.435 OA 
HETATM   12  O   UNL     1     -11.900  15.183  67.136  1.00  0.00    -0.233 OA 
HETATM   13  C   UNL     1     -10.995  14.942  68.240  1.00  0.00    -0.264 C  
HETATM   14  C   UNL     1     -11.066  13.467  68.740  1.00  0.00    -0.264 C  
HETATM   15  O   UNL     1     -12.242  13.258  69.518  1.00  0.00    -0.269 OA 
HETATM   16  O   UNL     1     -10.949  12.485  67.697  1.00  0.00    -0.226 OA 
HETATM   17  C   UNL     1     -12.270  14.020  70.733  1.00  0.00    -0.367 C  
HETATM   18  C   UNL     1     -11.537  16.176  71.923  1.00  0.00    -0.491 C  
HETATM   19  C   UNL     1     -11.305  15.240  70.732  1.00  0.00    -0.365 C  
ENDROOT
BRANCH  17  20
HETATM   20  O   UNL     1     -13.588  14.532  70.961  1.00  0.00    -0.359 OA 
HETATM   21  C   UNL     1     -14.227  13.945  72.082  1.00  0.00    -0.501 C  
ENDBRANCH  17  20
TORSDOF 1
ENDMDL
MODEL        8
REMARK 921   NORMALIZED FREE ENERGY PREDICTED BY IDOCK:   -6.09 KCAL/MOL
REMARK 922        TOTAL FREE ENERGY PREDICTED BY IDOCK:   -6.48 KCAL/MOL
REMARK 923 INTER-LIGAND FREE ENERGY PREDICTED BY IDOCK:   -6.31 KCAL/MOL
REMARK 924 INTRA-LIGAND FREE ENERGY PREDICTED BY IDOCK:   -0.17 KCAL/MOL
REMARK 927      BINDING AFFINITY PREDICTED BY RF-SCORE:    0.00 PKD
ROOT
HETATM    1  C   UNL     1     -10.919   9.971  69.943  1.00  0.00    -0.339 C  
HETATM    2  C   UNL     1     -11.598   9.879  71.330  1.00  0.00    -0.456 C  
HETATM    3  C   UNL     1     -12.973  10.553  71.370  1.00  0.00    -0.542 C  
HETATM    4  C   UNL     1     -12.941  12.028  70.902  1.00  0.00    -0.087 C  
HETATM    5  C   UNL     1     -11.543  12.398  70.318  1.00  0.00    -0.060 C  
HETATM    6  C   UNL     1     -13.414  12.976  72.001  1.00  0.00    -0.584 C  
HETATM    7  C   UNL     1     -11.456  13.828  69.792  1.00  0.00    -0.267 C  
HETATM    8  C   UNL     1     -12.161  14.005  68.458  1.00  0.00    -0.329 C  
HETATM    9  C   UNL     1     -11.587  13.118  67.330  1.00  0.00    -0.355 C  
HETATM   10  C   UNL     1     -11.791  13.893  66.022  1.00  0.00    -0.412 C  
HETATM   11  O   UNL     1     -12.271  11.876  67.159  1.00  0.00    -0.501 OA 
HETATM   12  O   UNL     1     -12.352  11.148  68.426  1.00  0.00    -0.556 OA 
HETATM   13  C   UNL     1     -11.170  11.341  69.238  1.00  0.00    -0.272 C  
HETATM   14  C   UNL     1      -9.938  11.769  68.384  1.00  0.00    -0.202 C  
HETATM   15  O   UNL     1      -9.403  10.650  67.681  1.00  0.00    -0.145 OA 
HETATM   16  O   UNL     1     -10.192  12.870  67.495  1.00  0.00    -0.211 OA 
HETATM   17  C   UNL     1      -8.871   9.633  68.541  1.00  0.00    -0.124 C  
HETATM   18  C   UNL     1      -9.020   8.471  70.828  1.00  0.00    -0.193 C  
HETATM   19  C   UNL     1      -9.398   9.706  70.002  1.00  0.00    -0.276 C  
ENDROOT
BRANCH  17  20
HETATM   20  O   UNL     1      -9.214   8.336  68.040  1.00  0.00    -0.137 OA 
HETATM   21  C   UNL     1      -9.869   8.380  66.783  1.00  0.00    -0.259 C  
ENDBRANCH  17  20
TORSDOF 1
ENDMDL
MODEL        9
REMARK 921   NORMALIZED FREE ENERGY PREDICTED BY IDOCK:   -6.07 KCAL/MOL
REMARK 922        TOTAL FREE ENERGY PREDICTED BY IDOCK:   -6.46 KCAL/MOL
REMARK 923 INTER-LIGAND FREE ENERGY PREDICTED BY IDOCK:   -6.36 KCAL/MOL
REMARK 924 INTRA-LIGAND FREE ENERGY PREDICTED BY IDOCK:   -0.10 KCAL/MOL
REMARK 927      BINDING AFFINITY PREDICTED BY RF-SCORE:    0.00 PKD
ROOT
HETATM    1  C   UNL     1     -11.210  13.116  66.802  1.00  0.00    -0.330 C  
HETATM    2  C   UNL     1     -11.942  14.323  67.434  1.00  0.00    -0.426 C  
HETATM    3  C   UNL     1     -11.488  14.616  68.867  1.00  0.00    -0.323 C  
HETATM    4  C   UNL     1     -11.599  13.390  69.803  1.00  0.00    -0.305 C  
HETATM    5  C   UNL     1     -11.964  12.105  68.999  1.00  0.00    -0.302 C  
HETATM    6  C   UNL     1     -12.538  13.662  70.976  1.00  0.00    -0.441 C  
HETATM    7  C   UNL     1     -12.042  10.845  69.857  1.00  0.00    -0.428 C  
HETATM    8  C   UNL     1     -10.674  10.319  70.252  1.00  0.00    -0.310 C  
HETATM    9  C   UNL     1      -9.782   9.939  69.048  1.00  0.00    -0.193 C  
HETATM   10  C   UNL     1      -8.879   8.793  69.521  1.00  0.00    -0.144 C  
HETATM   11  O   UNL     1      -8.902  10.980  68.623  1.00  0.00    -0.156 OA 
HETATM   12  O   UNL     1      -9.641  12.218  68.374  1.00  0.00    -0.213 OA 
HETATM   13  C   UNL     1     -10.955  11.963  67.823  1.00  0.00    -0.228 C  
HETATM   14  C   UNL     1     -11.036  10.569  67.129  1.00  0.00    -0.228 C  
HETATM   15  O   UNL     1     -10.391  10.603  65.859  1.00  0.00    -0.255 OA 
HETATM   16  O   UNL     1     -10.547   9.482  67.934  1.00  0.00    -0.231 OA 
HETATM   17  C   UNL     1     -11.026  11.478  64.916  1.00  0.00    -0.254 C  
HETATM   18  C   UNL     1     -12.408  13.617  64.577  1.00  0.00    -0.402 C  
HETATM   19  C   UNL     1     -11.948  12.545  65.571  1.00  0.00    -0.500 C  
ENDROOT
BRANCH  17  20
HETATM   20  O   UNL     1     -10.038  12.188  64.162  1.00  0.00    -0.313 OA 
HETATM   21  C   UNL     1      -9.556  11.458  63.046  1.00  0.00    -0.376 C  
ENDBRANCH  17  20
TORSDOF 1
ENDMDL
MODEL       10
REMARK 921   NORMALIZED FREE ENERGY PREDICTED BY IDOCK:   -6.06 KCAL/MOL
REMARK 922        TOTAL FREE ENERGY PREDICTED BY IDOCK:   -6.45 KCAL/MOL
REMARK 923 INTER-LIGAND FREE ENERGY PREDICTED BY IDOCK:   -6.35 KCAL/MOL
REMARK 924 INTRA-LIGAND FREE ENERGY PREDICTED BY IDOCK:   -0.10 KCAL/MOL
REMARK 927      BINDING AFFINITY PREDICTED BY RF-SCORE:    0.00 PKD
ROOT
HETATM    1  C   UNL     1     -10.394  10.577  68.335  1.00  0.00    -0.199 C  
HETATM    2  C   UNL     1     -10.725  10.514  69.845  1.00  0.00    -0.301 C  
HETATM    3  C   UNL     1     -12.052  11.193  70.197  1.00  0.00    -0.443 C  
HETATM    4  C   UNL     1     -12.134  12.658  69.706  1.00  0.00    -0.301 C  
HETATM    5  C   UNL     1     -10.915  13.012  68.801  1.00  0.00    -0.295 C  
HETATM    6  C   UNL     1     -12.334  13.628  70.867  1.00  0.00    -0.450 C  
HETATM    7  C   UNL     1     -10.957  14.432  68.241  1.00  0.00    -0.259 C  
HETATM    8  C   UNL     1     -11.958  14.586  67.110  1.00  0.00    -0.373 C  
HETATM    9  C   UNL     1     -11.667  13.676  65.895  1.00  0.00    -0.354 C  
HETATM   10  C   UNL     1     -12.177  14.426  64.658  1.00  0.00    -0.479 C  
HETATM   11  O   UNL     1     -12.370  12.433  65.915  1.00  0.00    -0.638 OA 
HETATM   12  O   UNL     1     -12.147  11.730  67.179  1.00  0.00    -0.592 OA 
HETATM   13  C   UNL     1     -10.806  11.935  67.684  1.00  0.00    -0.227 C  
HETATM   14  C   UNL     1      -9.813  12.342  66.553  1.00  0.00    -0.229 C  
HETATM   15  O   UNL     1      -9.458  11.208  65.766  1.00  0.00    -0.205 OA 
HETATM   16  O   UNL     1     -10.272  13.427  65.729  1.00  0.00    -0.285 OA 
HETATM   17  C   UNL     1      -8.736  10.206  66.494  1.00  0.00    -0.129 C  
HETATM   18  C   UNL     1      -8.337   9.089  68.773  1.00  0.00    -0.122 C  
HETATM   19  C   UNL     1      -8.902  10.308  68.037  1.00  0.00    -0.122 C  
ENDROOT
BRANCH  17  20
HETATM   20  O   UNL     1      -9.186   8.901  66.113  1.00  0.00    -0.184 OA 
HETATM   21  C   UNL     1      -8.376   8.302  65.116  1.00  0.00    -0.157 C  
ENDBRANCH  17  20
TORSDOF 1
ENDMDL
MODEL       11
REMARK 921   NORMALIZED FREE ENERGY PREDICTED BY IDOCK:   -6.03 KCAL/MOL
REMARK 922        TOTAL FREE ENERGY PREDICTED BY IDOCK:   -6.42 KCAL/MOL
REMARK 923 INTER-LIGAND FREE ENERGY PREDICTED BY IDOCK:   -6.34 KCAL/MOL
REMARK 924 INTRA-LIGAND FREE ENERGY PREDICTED BY IDOCK:   -0.08 KCAL/MOL
REMARK 927      BINDING AFFINITY PREDICTED BY RF-SCORE:    0.00 PKD
ROOT
HETATM    1  C   UNL     1     -10.138  10.520  66.903  1.00  0.00    -0.265 C  
HETATM    2  C   UNL     1     -10.029  10.042  65.437  1.00  0.00    -0.364 C  
HETATM    3  C   UNL     1      -9.712  11.177  64.458  1.00  0.00    -0.310 C  
HETATM    4  C   UNL     1     -10.709  12.356  64.550  1.00  0.00    -0.355 C  
HETATM    5  C   UNL     1     -11.678  12.174  65.759  1.00  0.00    -0.391 C  
HETATM    6  C   UNL     1     -11.428  12.588  63.223  1.00  0.00    -0.409 C  
HETATM    7  C   UNL     1     -12.660  13.329  65.938  1.00  0.00    -0.349 C  
HETATM    8  C   UNL     1     -12.008  14.567  66.528  1.00  0.00    -0.358 C  
HETATM    9  C   UNL     1     -11.389  14.337  67.926  1.00  0.00    -0.297 C  
HETATM   10  C   UNL     1     -11.495  15.672  68.673  1.00  0.00    -0.381 C  
HETATM   11  O   UNL     1      -9.999  14.012  67.901  1.00  0.00    -0.227 OA 
HETATM   12  O   UNL     1      -9.744  12.881  67.008  1.00  0.00    -0.219 OA 
HETATM   13  C   UNL     1     -10.823  11.917  67.034  1.00  0.00    -0.259 C  
HETATM   14  C   UNL     1     -11.660  12.013  68.345  1.00  0.00    -0.311 C  
HETATM   15  O   UNL     1     -10.959  11.417  69.433  1.00  0.00    -0.240 OA 
HETATM   16  O   UNL     1     -12.093  13.345  68.671  1.00  0.00    -0.346 OA 
HETATM   17  C   UNL     1     -10.750  10.007  69.278  1.00  0.00    -0.224 C  
HETATM   18  C   UNL     1     -10.403   8.063  67.633  1.00  0.00    -0.312 C  
HETATM   19  C   UNL     1     -10.877   9.510  67.810  1.00  0.00    -0.258 C  
ENDROOT
BRANCH  17  20
HETATM   20  O   UNL     1      -9.436   9.652  69.725  1.00  0.00    -0.191 OA 
HETATM   21  C   UNL     1      -9.428   9.056  71.011  1.00  0.00    -0.274 C  
ENDBRANCH  17  20
TORSDOF 1
ENDMDL
MODEL       12
REMARK 921   NORMALIZED FREE ENERGY PREDICTED BY IDOCK:   -5.88 KCAL/MOL
REMARK 922        TOTAL FREE ENERGY PREDICTED BY IDOCK:   -6.26 KCAL/MOL
REMARK 923 INTER-LIGAND FREE ENERGY PREDICTED BY IDOCK:   -6.16 KCAL/MOL
REMARK 924 INTRA-LIGAND FREE ENERGY PREDICTED BY IDOCK:   -0.10 KCAL/MOL
REMARK 927      BINDING AFFINITY PREDICTED BY RF-SCORE:    0.00 PKD
ROOT
HETATM    1  C   UNL     1     -11.678  11.945  69.479  1.00  0.00    -0.410 C  
HETATM    2  C   UNL     1     -12.286  12.229  70.872  1.00  0.00    -0.363 C  
HETATM    3  C   UNL     1     -13.160  13.487  70.898  1.00  0.00    -0.145 C  
HETATM    4  C   UNL     1     -12.426  14.748  70.383  1.00  0.00    -0.405 C  
HETATM    5  C   UNL     1     -11.037  14.377  69.779  1.00  0.00    -0.202 C  
HETATM    6  C   UNL     1     -12.356  15.834  71.453  1.00  0.00    -0.505 C  
HETATM    7  C   UNL     1     -10.278  15.571  69.206  1.00  0.00    -0.252 C  
HETATM    8  C   UNL     1     -10.836  16.034  67.872  1.00  0.00    -0.333 C  
HETATM    9  C   UNL     1     -10.789  14.952  66.769  1.00  0.00    -0.320 C  
HETATM   10  C   UNL     1     -10.618  15.695  65.438  1.00  0.00    -0.436 C  
HETATM   11  O   UNL     1     -11.993  14.195  66.643  1.00  0.00    -0.408 OA 
HETATM   12  O   UNL     1     -12.390  13.631  67.933  1.00  0.00    -0.238 OA 
HETATM   13  C   UNL     1     -11.246  13.246  68.732  1.00  0.00    -0.276 C  
HETATM   14  C   UNL     1      -9.980  12.999  67.856  1.00  0.00    -0.230 C  
HETATM   15  O   UNL     1     -10.070  11.744  67.187  1.00  0.00    -0.201 OA 
HETATM   16  O   UNL     1      -9.686  14.062  66.934  1.00  0.00    -0.253 OA 
HETATM   17  C   UNL     1     -10.081  10.619  68.076  1.00  0.00    -0.157 C  
HETATM   18  C   UNL     1     -10.727   9.734  70.400  1.00  0.00    -0.368 C  
HETATM   19  C   UNL     1     -10.475  10.975  69.537  1.00  0.00    -0.133 C  
ENDROOT
BRANCH  17  20
HETATM   20  O   UNL     1     -11.021   9.639  67.619  1.00  0.00    -0.268 OA 
HETATM   21  C   UNL     1     -10.421   8.604  66.859  1.00  0.00    -0.258 C  
ENDBRANCH  17  20
TORSDOF 1
ENDMDL
MODEL       13
REMARK 921   NORMALIZED FREE ENERGY PREDICTED BY IDOCK:   -5.82 KCAL/MOL
REMARK 922        TOTAL FREE ENERGY PREDICTED BY IDOCK:   -6.19 KCAL/MOL
REMARK 923 INTER-LIGAND FREE ENERGY PREDICTED BY IDOCK:   -6.06 KCAL/MOL
REMARK 924 INTRA-LIGAND FREE ENERGY PREDICTED BY IDOCK:   -0.14 KCAL/MOL
REMARK 927      BINDING AFFINITY PREDICTED BY RF-SCORE:    0.00 PKD
ROOT
HETATM    1  C   UNL     1     -10.003  16.214  66.780  1.00  0.00    -0.264 C  
HETATM    2  C   UNL     1     -10.183  15.587  65.378  1.00  0.00    -0.409 C  
HETATM    3  C   UNL     1     -11.534  14.886  65.204  1.00  0.00    -0.357 C  
HETATM    4  C   UNL     1     -11.812  13.822  66.292  1.00  0.00    -0.426 C  
HETATM    5  C   UNL     1     -10.725  13.869  67.409  1.00  0.00    -0.275 C  
HETATM    6  C   UNL     1     -12.002  12.434  65.684  1.00  0.00    -0.449 C  
HETATM    7  C   UNL     1     -10.965  12.875  68.542  1.00  0.00    -0.288 C  
HETATM    8  C   UNL     1     -12.077  13.312  69.479  1.00  0.00    -0.315 C  
HETATM    9  C   UNL     1     -11.809  14.666  70.174  1.00  0.00    -0.307 C  
HETATM   10  C   UNL     1     -12.505  14.600  71.539  1.00  0.00    -0.411 C  
HETATM   11  O   UNL     1     -12.375  15.790  69.499  1.00  0.00    -0.281 OA 
HETATM   12  O   UNL     1     -11.965  15.816  68.095  1.00  0.00    -0.164 OA 
HETATM   13  C   UNL     1     -10.611  15.336  67.917  1.00  0.00    -0.260 C  
HETATM   14  C   UNL     1      -9.774  15.452  69.228  1.00  0.00    -0.268 C  
HETATM   15  O   UNL     1      -9.380  16.803  69.452  1.00  0.00    -0.124 OA 
HETATM   16  O   UNL     1     -10.417  14.896  70.388  1.00  0.00    -0.056 OA 
HETATM   17  C   UNL     1      -8.494  17.317  68.448  1.00  0.00    -0.254 C  
HETATM   18  C   UNL     1      -7.772  17.229  65.984  1.00  0.00    -0.223 C  
HETATM   19  C   UNL     1      -8.525  16.519  67.114  1.00  0.00    -0.205 C  
ENDROOT
BRANCH  17  20
HETATM   20  O   UNL     1      -8.841  18.670  68.132  1.00  0.00    -0.294 OA 
HETATM   21  C   UNL     1      -9.999  19.122  68.814  1.00  0.00    -0.427 C  
ENDBRANCH  17  20
TORSDOF 1
ENDMDL
MODEL       14
REMARK 921   NORMALIZED FREE ENERGY PREDICTED BY IDOCK:   -5.80 KCAL/MOL
REMARK 922        TOTAL FREE ENERGY PREDICTED BY IDOCK:   -6.18 KCAL/MOL
REMARK 923 INTER-LIGAND FREE ENERGY PREDICTED BY IDOCK:   -6.18 KCAL/MOL
REMARK 924 INTRA-LIGAND FREE ENERGY PREDICTED BY IDOCK:   -0.00 KCAL/MOL
REMARK 927      BINDING AFFINITY PREDICTED BY RF-SCORE:    0.00 PKD
ROOT
HETATM    1  C   UNL     1     -11.098  10.464  68.759  1.00  0.00    -0.298 C  
HETATM    2  C   UNL     1     -11.265  11.047  70.181  1.00  0.00    -0.264 C  
HETATM    3  C   UNL     1     -12.093  12.336  70.207  1.00  0.00    -0.376 C  
HETATM    4  C   UNL     1     -11.549  13.428  69.255  1.00  0.00    -0.365 C  
HETATM    5  C   UNL     1     -10.402  12.867  68.361  1.00  0.00    -0.249 C  
HETATM    6  C   UNL     1     -11.165  14.694  70.016  1.00  0.00    -0.252 C  
HETATM    7  C   UNL     1      -9.850  13.880  67.362  1.00  0.00    -0.237 C  
HETATM    8  C   UNL     1     -10.781  14.109  66.184  1.00  0.00    -0.297 C  
HETATM    9  C   UNL     1     -11.062  12.832  65.358  1.00  0.00    -0.284 C  
HETATM   10  C   UNL     1     -11.297  13.293  63.914  1.00  0.00    -0.360 C  
HETATM   11  O   UNL     1     -12.248  12.137  65.745  1.00  0.00    -0.586 OA 
HETATM   12  O   UNL     1     -12.242  11.857  67.181  1.00  0.00    -0.501 OA 
HETATM   13  C   UNL     1     -10.911  11.568  67.671  1.00  0.00    -0.242 C  
HETATM   14  C   UNL     1      -9.963  11.083  66.533  1.00  0.00    -0.212 C  
HETATM   15  O   UNL     1     -10.246   9.730  66.188  1.00  0.00    -0.259 OA 
HETATM   16  O   UNL     1      -9.959  11.928  65.370  1.00  0.00    -0.244 OA 
HETATM   17  C   UNL     1      -9.989   8.800  67.249  1.00  0.00    -0.220 C  
HETATM   18  C   UNL     1      -9.913   8.421  69.789  1.00  0.00    -0.191 C  
HETATM   19  C   UNL     1      -9.931   9.455  68.658  1.00  0.00    -0.187 C  
ENDROOT
BRANCH  17  20
HETATM   20  O   UNL     1     -11.021   7.808  67.294  1.00  0.00    -0.221 OA 
HETATM   21  C   UNL     1     -10.560   6.509  66.961  1.00  0.00    -0.332 C  
ENDBRANCH  17  20
TORSDOF 1
ENDMDL
MODEL       15
REMARK 921   NORMALIZED FREE ENERGY PREDICTED BY IDOCK:   -5.71 KCAL/MOL
REMARK 922        TOTAL FREE ENERGY PREDICTED BY IDOCK:   -6.08 KCAL/MOL
REMARK 923 INTER-LIGAND FREE ENERGY PREDICTED BY IDOCK:   -5.93 KCAL/MOL
REMARK 924 INTRA-LIGAND FREE ENERGY PREDICTED BY IDOCK:   -0.15 KCAL/MOL
REMARK 927      BINDING AFFINITY PREDICTED BY RF-SCORE:    0.00 PKD
ROOT
HETATM    1  C   UNL     1     -10.604  11.975  68.481  1.00  0.00    -0.252 C  
HETATM    2  C   UNL     1      -9.988  10.569  68.301  1.00  0.00    -0.176 C  
HETATM    3  C   UNL     1      -8.957  10.506  67.169  1.00  0.00    -0.147 C  
HETATM    4  C   UNL     1      -9.510  11.010  65.815  1.00  0.00    -0.242 C  
HETATM    5  C   UNL     1     -10.926  11.641  65.990  1.00  0.00    -0.338 C  
HETATM    6  C   UNL     1      -9.456   9.921  64.747  1.00  0.00    -0.356 C  
HETATM    7  C   UNL     1     -11.511  12.204  64.698  1.00  0.00    -0.388 C  
HETATM    8  C   UNL     1     -10.874  13.520  64.291  1.00  0.00    -0.340 C  
HETATM    9  C   UNL     1     -11.044  14.643  65.340  1.00  0.00    -0.348 C  
HETATM   10  C   UNL     1     -11.092  15.963  64.559  1.00  0.00    -0.285 C  
HETATM   11  O   UNL     1      -9.948  14.765  66.246  1.00  0.00    -0.264 OA 
HETATM   12  O   UNL     1      -9.650  13.479  66.879  1.00  0.00    -0.241 OA 
HETATM   13  C   UNL     1     -10.848  12.705  67.123  1.00  0.00    -0.253 C  
HETATM   14  C   UNL     1     -12.120  13.604  67.187  1.00  0.00    -0.362 C  
HETATM   15  O   UNL     1     -12.184  14.295  68.432  1.00  0.00    -0.299 OA 
HETATM   16  O   UNL     1     -12.257  14.512  66.079  1.00  0.00    -0.348 OA 
HETATM   17  C   UNL     1     -12.336  13.426  69.563  1.00  0.00    -0.102 C  
HETATM   18  C   UNL     1     -11.852  11.109  70.562  1.00  0.00    -0.448 C  
HETATM   19  C   UNL     1     -11.924  11.953  69.285  1.00  0.00    -0.342 C  
ENDROOT
BRANCH  17  20
HETATM   20  O   UNL     1     -11.525  13.887  70.650  1.00  0.00    -0.094 OA 
HETATM   21  C   UNL     1     -11.211  15.267  70.564  1.00  0.00    -0.310 C  
ENDBRANCH  17  20
TORSDOF 1
ENDMDL
MODEL       16
REMARK 921   NORMALIZED FREE ENERGY PREDICTED BY IDOCK:   -5.67 KCAL/MOL
REMARK 922        TOTAL FREE ENERGY PREDICTED BY IDOCK:   -6.03 KCAL/MOL
REMARK 923 INTER-LIGAND FREE ENERGY PREDICTED BY IDOCK:   -5.95 KCAL/MOL
REMARK 924 INTRA-LIGAND FREE ENERGY PREDICTED BY IDOCK:   -0.08 KCAL/MOL
REMARK 927      BINDING AFFINITY PREDICTED BY RF-SCORE:    0.00 PKD
ROOT
HETATM    1  C   UNL     1      -9.193  14.818  67.686  1.00  0.00    -0.191 C  
HETATM    2  C   UNL     1      -8.063  14.195  68.539  1.00  0.00    -0.143 C  
HETATM    3  C   UNL     1      -7.564  15.128  69.647  1.00  0.00    -0.163 C  
HETATM    4  C   UNL     1      -7.118  16.512  69.120  1.00  0.00    -0.227 C  
HETATM    5  C   UNL     1      -7.474  16.677  67.611  1.00  0.00    -0.168 C  
HETATM    6  C   UNL     1      -5.648  16.784  69.433  1.00  0.00    -0.158 C  
HETATM    7  C   UNL     1      -7.104  18.042  67.038  1.00  0.00    -0.218 C  
HETATM    8  C   UNL     1      -8.057  19.140  67.477  1.00  0.00    -0.301 C  
HETATM    9  C   UNL     1      -9.522  18.899  67.047  1.00  0.00    -0.310 C  
HETATM   10  C   UNL     1     -10.147  20.285  66.839  1.00  0.00    -0.565 C  
HETATM   11  O   UNL     1     -10.322  18.254  68.037  1.00  0.00    -0.368 OA 
HETATM   12  O   UNL     1      -9.687  17.018  68.495  1.00  0.00    -0.259 OA 
HETATM   13  C   UNL     1      -8.983  16.343  67.427  1.00  0.00    -0.191 C  
HETATM   14  C   UNL     1      -9.520  16.755  66.022  1.00  0.00    -0.223 C  
HETATM   15  O   UNL     1     -10.763  16.112  65.753  1.00  0.00    -0.329 OA 
HETATM   16  O   UNL     1      -9.612  18.175  65.821  1.00  0.00    -0.492 OA 
HETATM   17  C   UNL     1     -10.664  14.684  65.662  1.00  0.00    -0.332 C  
HETATM   18  C   UNL     1      -9.431  12.571  66.447  1.00  0.00    -0.233 C  
HETATM   19  C   UNL     1      -9.388  14.098  66.332  1.00  0.00    -0.254 C  
ENDROOT
BRANCH  17  20
HETATM   20  O   UNL     1     -11.788  14.071  66.303  1.00  0.00    -0.372 OA 
HETATM   21  C   UNL     1     -12.777  13.628  65.389  1.00  0.00    -0.453 C  
ENDBRANCH  17  20
TORSDOF 1
ENDMDL
MODEL       17
REMARK 921   NORMALIZED FREE ENERGY PREDICTED BY IDOCK:   -5.62 KCAL/MOL
REMARK 922        TOTAL FREE ENERGY PREDICTED BY IDOCK:   -5.99 KCAL/MOL
REMARK 923 INTER-LIGAND FREE ENERGY PREDICTED BY IDOCK:   -5.82 KCAL/MOL
REMARK 924 INTRA-LIGAND FREE ENERGY PREDICTED BY IDOCK:   -0.17 KCAL/MOL
REMARK 927      BINDING AFFINITY PREDICTED BY RF-SCORE:    0.00 PKD
ROOT
HETATM    1  C   UNL     1      -8.231  17.379  67.715  1.00  0.00    -0.216 C  
HETATM    2  C   UNL     1      -6.805  16.943  68.124  1.00  0.00    -0.164 C  
HETATM    3  C   UNL     1      -6.356  15.647  67.442  1.00  0.00    -0.144 C  
HETATM    4  C   UNL     1      -7.342  14.474  67.657  1.00  0.00    -0.201 C  
HETATM    5  C   UNL     1      -8.648  14.963  68.354  1.00  0.00    -0.159 C  
HETATM    6  C   UNL     1      -6.673  13.302  68.370  1.00  0.00    -0.096 C  
HETATM    7  C   UNL     1      -9.687  13.863  68.552  1.00  0.00    -0.202 C  
HETATM    8  C   UNL     1     -10.403  13.494  67.265  1.00  0.00    -0.241 C  
HETATM    9  C   UNL     1     -11.172  14.671  66.622  1.00  0.00    -0.349 C  
HETATM   10  C   UNL     1     -12.375  14.058  65.893  1.00  0.00    -0.515 C  
HETATM   11  O   UNL     1     -10.430  15.377  65.627  1.00  0.00    -0.319 OA 
HETATM   12  O   UNL     1      -9.133  15.805  66.150  1.00  0.00    -0.307 OA 
HETATM   13  C   UNL     1      -9.207  16.172  67.548  1.00  0.00    -0.208 C  
HETATM   14  C   UNL     1     -10.656  16.556  67.974  1.00  0.00    -0.328 C  
HETATM   15  O   UNL     1     -10.988  17.860  67.504  1.00  0.00    -0.304 OA 
HETATM   16  O   UNL     1     -11.656  15.595  67.595  1.00  0.00    -0.237 OA 
HETATM   17  C   UNL     1     -10.187  18.900  68.082  1.00  0.00    -0.391 C  
HETATM   18  C   UNL     1      -7.907  19.542  69.077  1.00  0.00    -0.310 C  
HETATM   19  C   UNL     1      -8.852  18.396  68.699  1.00  0.00    -0.306 C  
ENDROOT
BRANCH  17  20
HETATM   20  O   UNL     1      -9.845  19.870  67.086  1.00  0.00    -0.354 OA 
HETATM   21  C   UNL     1     -10.548  19.688  65.867  1.00  0.00    -0.466 C  
ENDBRANCH  17  20
TORSDOF 1
ENDMDL
MODEL       18
REMARK 921   NORMALIZED FREE ENERGY PREDICTED BY IDOCK:   -5.60 KCAL/MOL
REMARK 922        TOTAL FREE ENERGY PREDICTED BY IDOCK:   -5.96 KCAL/MOL
REMARK 923 INTER-LIGAND FREE ENERGY PREDICTED BY IDOCK:   -5.86 KCAL/MOL
REMARK 924 INTRA-LIGAND FREE ENERGY PREDICTED BY IDOCK:   -0.10 KCAL/MOL
REMARK 927      BINDING AFFINITY PREDICTED BY RF-SCORE:    0.00 PKD
ROOT
HETATM    1  C   UNL     1     -10.342  15.031  66.341  1.00  0.00    -0.293 C  
HETATM    2  C   UNL     1     -11.058  15.439  65.033  1.00  0.00    -0.428 C  
HETATM    3  C   UNL     1     -12.219  14.507  64.670  1.00  0.00    -0.474 C  
HETATM    4  C   UNL     1     -11.803  13.019  64.594  1.00  0.00    -0.422 C  
HETATM    5  C   UNL     1     -10.342  12.822  65.102  1.00  0.00    -0.314 C  
HETATM    6  C   UNL     1     -12.050  12.437  63.205  1.00  0.00    -0.519 C  
HETATM    7  C   UNL     1      -9.882  11.366  65.100  1.00  0.00    -0.302 C  
HETATM    8  C   UNL     1     -10.483  10.561  66.238  1.00  0.00    -0.250 C  
HETATM    9  C   UNL     1     -10.122  11.102  67.641  1.00  0.00    -0.179 C  
HETATM   10  C   UNL     1     -10.089   9.889  68.579  1.00  0.00    -0.186 C  
HETATM   11  O   UNL     1     -11.093  11.994  68.189  1.00  0.00    -0.214 OA 
HETATM   12  O   UNL     1     -11.389  13.080  67.254  1.00  0.00    -0.276 OA 
HETATM   13  C   UNL     1     -10.219  13.484  66.505  1.00  0.00    -0.283 C  
HETATM   14  C   UNL     1      -8.897  13.098  67.235  1.00  0.00    -0.208 C  
HETATM   15  O   UNL     1      -8.643  13.990  68.317  1.00  0.00    -0.168 OA 
HETATM   16  O   UNL     1      -8.840  11.727  67.664  1.00  0.00    -0.152 OA 
HETATM   17  C   UNL     1      -8.408  15.343  67.904  1.00  0.00    -0.144 C  
HETATM   18  C   UNL     1      -8.907  17.164  66.162  1.00  0.00    -0.220 C  
HETATM   19  C   UNL     1      -8.939  15.665  66.478  1.00  0.00    -0.343 C  
ENDROOT
BRANCH  17  20
HETATM   20  O   UNL     1      -9.054  16.251  68.803  1.00  0.00    -0.222 OA 
HETATM   21  C   UNL     1      -9.897  15.602  69.740  1.00  0.00    -0.257 C  
ENDBRANCH  17  20
TORSDOF 1
ENDMDL
MODEL       19
REMARK 921   NORMALIZED FREE ENERGY PREDICTED BY IDOCK:   -5.59 KCAL/MOL
REMARK 922        TOTAL FREE ENERGY PREDICTED BY IDOCK:   -5.95 KCAL/MOL
REMARK 923 INTER-LIGAND FREE ENERGY PREDICTED BY IDOCK:   -5.92 KCAL/MOL
REMARK 924 INTRA-LIGAND FREE ENERGY PREDICTED BY IDOCK:   -0.03 KCAL/MOL
REMARK 927      BINDING AFFINITY PREDICTED BY RF-SCORE:    0.00 PKD
ROOT
HETATM    1  C   UNL     1     -10.105  13.556  66.193  1.00  0.00    -0.307 C  
HETATM    2  C   UNL     1      -9.026  12.635  66.808  1.00  0.00    -0.197 C  
HETATM    3  C   UNL     1      -8.509  13.137  68.160  1.00  0.00    -0.173 C  
HETATM    4  C   UNL     1      -7.984  14.591  68.107  1.00  0.00    -0.133 C  
HETATM    5  C   UNL     1      -8.297  15.248  66.728  1.00  0.00    -0.258 C  
HETATM    6  C   UNL     1      -6.511  14.671  68.501  1.00  0.00    -0.089 C  
HETATM    7  C   UNL     1      -7.848  16.703  66.624  1.00  0.00    -0.316 C  
HETATM    8  C   UNL     1      -8.757  17.652  67.385  1.00  0.00    -0.235 C  
HETATM    9  C   UNL     1     -10.222  17.640  66.890  1.00  0.00    -0.334 C  
HETATM   10  C   UNL     1     -10.774  19.050  67.132  1.00  0.00    -0.541 C  
HETATM   11  O   UNL     1     -11.075  16.755  67.617  1.00  0.00    -0.235 OA 
HETATM   12  O   UNL     1     -10.511  15.406  67.659  1.00  0.00    -0.261 OA 
HETATM   13  C   UNL     1      -9.815  15.071  66.436  1.00  0.00    -0.272 C  
HETATM   14  C   UNL     1     -10.299  15.937  65.233  1.00  0.00    -0.324 C  
HETATM   15  O   UNL     1     -11.565  15.481  64.764  1.00  0.00    -0.346 OA 
HETATM   16  O   UNL     1     -10.318  17.351  65.496  1.00  0.00    -0.621 OA 
HETATM   17  C   UNL     1     -11.532  14.154  64.222  1.00  0.00    -0.272 C  
HETATM   18  C   UNL     1     -10.421  11.838  64.298  1.00  0.00    -0.373 C  
HETATM   19  C   UNL     1     -10.302  13.318  64.678  1.00  0.00    -0.394 C  
ENDROOT
BRANCH  17  20
HETATM   20  O   UNL     1     -12.700  13.429  64.625  1.00  0.00    -0.637 OA 
HETATM   21  C   UNL     1     -13.398  14.047  65.693  1.00  0.00     0.396 C  
ENDBRANCH  17  20
TORSDOF 1
ENDMDL
MODEL       20
REMARK 921   NORMALIZED FREE ENERGY PREDICTED BY IDOCK:   -5.55 KCAL/MOL
REMARK 922        TOTAL FREE ENERGY PREDICTED BY IDOCK:   -5.91 KCAL/MOL
REMARK 923 INTER-LIGAND FREE ENERGY PREDICTED BY IDOCK:   -5.96 KCAL/MOL
REMARK 924 INTRA-LIGAND FREE ENERGY PREDICTED BY IDOCK:    0.04 KCAL/MOL
REMARK 927      BINDING AFFINITY PREDICTED BY RF-SCORE:    0.00 PKD
ROOT
HETATM    1  C   UNL     1      -9.551   9.826  66.803  1.00  0.00    -0.228 C  
HETATM    2  C   UNL     1      -8.913   8.885  65.755  1.00  0.00    -0.249 C  
HETATM    3  C   UNL     1      -8.163   9.638  64.651  1.00  0.00    -0.149 C  
HETATM    4  C   UNL     1      -9.036  10.697  63.937  1.00  0.00    -0.244 C  
HETATM    5  C   UNL     1     -10.409  10.867  64.658  1.00  0.00    -0.407 C  
HETATM    6  C   UNL     1      -9.163  10.406  62.444  1.00  0.00    -0.304 C  
HETATM    7  C   UNL     1     -11.303  11.935  64.033  1.00  0.00    -0.475 C  
HETATM    8  C   UNL     1     -10.850  13.346  64.365  1.00  0.00    -0.422 C  
HETATM    9  C   UNL     1     -10.841  13.655  65.879  1.00  0.00    -0.275 C  
HETATM   10  C   UNL     1     -11.140  15.154  66.018  1.00  0.00    -0.312 C  
HETATM   11  O   UNL     1      -9.577  13.448  66.509  1.00  0.00    -0.265 OA 
HETATM   12  O   UNL     1      -9.071  12.103  66.233  1.00  0.00    -0.206 OA 
HETATM   13  C   UNL     1     -10.138  11.127  66.168  1.00  0.00    -0.238 C  
HETATM   14  C   UNL     1     -11.411  11.602  66.932  1.00  0.00    -0.295 C  
HETATM   15  O   UNL     1     -11.230  11.469  68.339  1.00  0.00    -0.213 OA 
HETATM   16  O   UNL     1     -11.846  12.928  66.584  1.00  0.00    -0.374 OA 
HETATM   17  C   UNL     1     -11.073  10.111  68.772  1.00  0.00    -0.203 C  
HETATM   18  C   UNL     1     -10.245   7.755  68.169  1.00  0.00    -0.244 C  
HETATM   19  C   UNL     1     -10.651   9.134  67.638  1.00  0.00    -0.307 C  
ENDROOT
BRANCH  17  20
HETATM   20  O   UNL     1     -10.065  10.031  69.786  1.00  0.00    -0.226 OA 
HETATM   21  C   UNL     1     -10.562   9.573  71.032  1.00  0.00    -0.322 C  
ENDBRANCH  17  20
TORSDOF 1
ENDMDL
MODEL       21
REMARK 921   NORMALIZED FREE ENERGY PREDICTED BY IDOCK:   -5.51 KCAL/MOL
REMARK 922        TOTAL FREE ENERGY PREDICTED BY IDOCK:   -5.87 KCAL/MOL
REMARK 923 INTER-LIGAND FREE ENERGY PREDICTED BY IDOCK:   -5.77 KCAL/MOL
REMARK 924 INTRA-LIGAND FREE ENERGY PREDICTED BY IDOCK:   -0.10 KCAL/MOL
REMARK 927      BINDING AFFINITY PREDICTED BY RF-SCORE:    0.00 PKD
ROOT
HETATM    1  C   UNL     1     -10.330  12.473  66.440  1.00  0.00    -0.261 C  
HETATM    2  C   UNL     1     -10.913  13.892  66.638  1.00  0.00    -0.302 C  
HETATM    3  C   UNL     1     -10.731  14.420  68.065  1.00  0.00    -0.244 C  
HETATM    4  C   UNL     1     -11.301  13.467  69.143  1.00  0.00    -0.333 C  
HETATM    5  C   UNL     1     -11.743  12.112  68.511  1.00  0.00    -0.382 C  
HETATM    6  C   UNL     1     -12.395  14.142  69.967  1.00  0.00    -0.403 C  
HETATM    7  C   UNL     1     -12.271  11.104  69.529  1.00  0.00    -0.347 C  
HETATM    8  C   UNL     1     -11.164  10.466  70.350  1.00  0.00    -0.399 C  
HETATM    9  C   UNL     1     -10.131   9.688  69.502  1.00  0.00    -0.209 C  
HETATM   10  C   UNL     1      -9.616   8.545  70.386  1.00  0.00    -0.189 C  
HETATM   11  O   UNL     1      -8.981  10.452  69.141  1.00  0.00    -0.169 OA 
HETATM   12  O   UNL     1      -9.370  11.706  68.496  1.00  0.00    -0.195 OA 
HETATM   13  C   UNL     1     -10.554  11.550  67.679  1.00  0.00    -0.199 C  
HETATM   14  C   UNL     1     -10.773  10.069  67.246  1.00  0.00    -0.244 C  
HETATM   15  O   UNL     1      -9.874   9.715  66.199  1.00  0.00    -0.227 OA 
HETATM   16  O   UNL     1     -10.712   9.124  68.328  1.00  0.00    -0.199 OA 
HETATM   17  C   UNL     1     -10.088  10.448  64.985  1.00  0.00    -0.309 C  
HETATM   18  C   UNL     1     -10.879  12.652  63.929  1.00  0.00    -0.468 C  
HETATM   19  C   UNL     1     -10.885  11.769  65.181  1.00  0.00    -0.351 C  
ENDROOT
BRANCH  17  20
HETATM   20  O   UNL     1      -8.831  10.804  64.397  1.00  0.00    -0.180 OA 
HETATM   21  C   UNL     1      -8.268   9.765  63.615  1.00  0.00    -0.158 C  
ENDBRANCH  17  20
TORSDOF 1
ENDMDL
MODEL       22
REMARK 921   NORMALIZED FREE ENERGY PREDICTED BY IDOCK:   -5.50 KCAL/MOL
REMARK 922        TOTAL FREE ENERGY PREDICTED BY IDOCK:   -5.86 KCAL/MOL
REMARK 923 INTER-LIGAND FREE ENERGY PREDICTED BY IDOCK:   -5.79 KCAL/MOL
REMARK 924 INTRA-LIGAND FREE ENERGY PREDICTED BY IDOCK:   -0.07 KCAL/MOL
REMARK 927      BINDING AFFINITY PREDICTED BY RF-SCORE:    0.00 PKD
ROOT
HETATM    1  C   UNL     1      -8.584  15.704  67.283  1.00  0.00    -0.213 C  
HETATM    2  C   UNL     1      -7.351  15.178  68.053  1.00  0.00    -0.133 C  
HETATM    3  C   UNL     1      -6.934  13.767  67.625  1.00  0.00    -0.186 C  
HETATM    4  C   UNL     1      -8.085  12.738  67.718  1.00  0.00    -0.168 C  
HETATM    5  C   UNL     1      -9.439  13.443  68.040  1.00  0.00    -0.218 C  
HETATM    6  C   UNL     1      -7.746  11.602  68.678  1.00  0.00    -0.134 C  
HETATM    7  C   UNL     1     -10.629  12.489  68.097  1.00  0.00    -0.239 C  
HETATM    8  C   UNL     1     -11.086  12.039  66.721  1.00  0.00    -0.353 C  
HETATM    9  C   UNL     1     -11.537  13.199  65.805  1.00  0.00    -0.347 C  
HETATM   10  C   UNL     1     -12.619  12.628  64.880  1.00  0.00    -0.525 C  
HETATM   11  O   UNL     1     -10.510  13.695  64.946  1.00  0.00    -0.368 OA 
HETATM   12  O   UNL     1      -9.315  14.049  65.713  1.00  0.00    -0.081 OA 
HETATM   13  C   UNL     1      -9.647  14.593  67.012  1.00  0.00    -0.240 C  
HETATM   14  C   UNL     1     -11.092  15.175  67.049  1.00  0.00    -0.328 C  
HETATM   15  O   UNL     1     -11.142  16.437  66.389  1.00  0.00    -0.037 OA 
HETATM   16  O   UNL     1     -12.100  14.282  66.543  1.00  0.00    -0.431 OA 
HETATM   17  C   UNL     1     -10.361  17.453  67.033  1.00  0.00    -0.318 C  
HETATM   18  C   UNL     1      -8.292  17.975  68.464  1.00  0.00    -0.313 C  
HETATM   19  C   UNL     1      -9.270  16.895  67.991  1.00  0.00    -0.235 C  
ENDROOT
BRANCH  17  20
HETATM   20  O   UNL     1      -9.686  18.250  66.054  1.00  0.00    -0.498 OA 
HETATM   21  C   UNL     1     -10.276  19.526  65.871  1.00  0.00    -0.422 C  
ENDBRANCH  17  20
TORSDOF 1
ENDMDL
MODEL       23
REMARK 921   NORMALIZED FREE ENERGY PREDICTED BY IDOCK:   -5.50 KCAL/MOL
REMARK 922        TOTAL FREE ENERGY PREDICTED BY IDOCK:   -5.85 KCAL/MOL
REMARK 923 INTER-LIGAND FREE ENERGY PREDICTED BY IDOCK:   -5.75 KCAL/MOL
REMARK 924 INTRA-LIGAND FREE ENERGY PREDICTED BY IDOCK:   -0.10 KCAL/MOL
REMARK 927      BINDING AFFINITY PREDICTED BY RF-SCORE:    0.00 PKD
ROOT
HETATM    1  C   UNL     1     -12.027  12.571  68.928  1.00  0.00    -0.282 C  
HETATM    2  C   UNL     1     -12.160  14.065  68.551  1.00  0.00    -0.329 C  
HETATM    3  C   UNL     1     -11.944  14.328  67.057  1.00  0.00    -0.463 C  
HETATM    4  C   UNL     1     -10.598  13.776  66.531  1.00  0.00    -0.279 C  
HETATM    5  C   UNL     1      -9.885  12.914  67.618  1.00  0.00    -0.211 C  
HETATM    6  C   UNL     1      -9.720  14.887  65.961  1.00  0.00    -0.358 C  
HETATM    7  C   UNL     1      -8.571  12.297  67.148  1.00  0.00    -0.187 C  
HETATM    8  C   UNL     1      -8.779  11.115  66.217  1.00  0.00    -0.183 C  
HETATM    9  C   UNL     1      -9.571   9.952  66.857  1.00  0.00    -0.179 C  
HETATM   10  C   UNL     1      -9.057   8.664  66.202  1.00  0.00    -0.250 C  
HETATM   11  O   UNL     1     -10.974   9.990  66.596  1.00  0.00    -0.056 OA 
HETATM   12  O   UNL     1     -11.537  11.290  66.964  1.00  0.00    -0.496 OA 
HETATM   13  C   UNL     1     -10.894  11.847  68.134  1.00  0.00    -0.221 C  
HETATM   14  C   UNL     1     -10.210  10.748  69.003  1.00  0.00    -0.213 C  
HETATM   15  O   UNL     1     -11.183  10.024  69.751  1.00  0.00    -0.247 OA 
HETATM   16  O   UNL     1      -9.354   9.861  68.264  1.00  0.00    -0.131 OA 
HETATM   17  C   UNL     1     -11.878  10.825  70.718  1.00  0.00    -0.339 C  
HETATM   18  C   UNL     1     -12.751  13.162  71.329  1.00  0.00    -0.396 C  
HETATM   19  C   UNL     1     -11.800  12.353  70.441  1.00  0.00    -0.249 C  
ENDROOT
BRANCH  17  20
HETATM   20  O   UNL     1     -13.266  10.476  70.739  1.00  0.00    -0.335 OA 
HETATM   21  C   UNL     1     -13.537   9.310  71.499  1.00  0.00    -0.346 C  
ENDBRANCH  17  20
TORSDOF 1
ENDMDL
MODEL       24
REMARK 921   NORMALIZED FREE ENERGY PREDICTED BY IDOCK:   -5.49 KCAL/MOL
REMARK 922        TOTAL FREE ENERGY PREDICTED BY IDOCK:   -5.84 KCAL/MOL
REMARK 923 INTER-LIGAND FREE ENERGY PREDICTED BY IDOCK:   -5.81 KCAL/MOL
REMARK 924 INTRA-LIGAND FREE ENERGY PREDICTED BY IDOCK:   -0.03 KCAL/MOL
REMARK 927      BINDING AFFINITY PREDICTED BY RF-SCORE:    0.00 PKD
ROOT
HETATM    1  C   UNL     1     -10.373  10.693  65.451  1.00  0.00    -0.303 C  
HETATM    2  C   UNL     1      -9.857   9.370  66.064  1.00  0.00    -0.366 C  
HETATM    3  C   UNL     1     -10.299   9.170  67.517  1.00  0.00    -0.324 C  
HETATM    4  C   UNL     1      -9.919  10.355  68.437  1.00  0.00    -0.177 C  
HETATM    5  C   UNL     1      -9.350  11.546  67.606  1.00  0.00    -0.171 C  
HETATM    6  C   UNL     1      -9.001   9.911  69.573  1.00  0.00    -0.224 C  
HETATM    7  C   UNL     1      -8.999  12.769  68.448  1.00  0.00    -0.120 C  
HETATM    8  C   UNL     1     -10.225  13.546  68.894  1.00  0.00    -0.069 C  
HETATM    9  C   UNL     1     -11.077  14.087  67.723  1.00  0.00    -0.267 C  
HETATM   10  C   UNL     1     -11.726  15.385  68.221  1.00  0.00    -0.313 C  
HETATM   11  O   UNL     1     -12.156  13.232  67.343  1.00  0.00    -0.351 OA 
HETATM   12  O   UNL     1     -11.676  11.875  67.077  1.00  0.00    -0.538 OA 
HETATM   13  C   UNL     1     -10.362  11.875  66.470  1.00  0.00    -0.216 C  
HETATM   14  C   UNL     1     -10.046  13.227  65.762  1.00  0.00    -0.286 C  
HETATM   15  O   UNL     1     -10.737  13.314  64.518  1.00  0.00    -0.368 OA 
HETATM   16  O   UNL     1     -10.286  14.389  66.575  1.00  0.00    -0.272 OA 
HETATM   17  C   UNL     1     -10.320  12.334  63.559  1.00  0.00    -0.410 C  
HETATM   18  C   UNL     1      -9.384   9.970  63.184  1.00  0.00    -0.297 C  
HETATM   19  C   UNL     1      -9.591  11.112  64.186  1.00  0.00    -0.290 C  
ENDROOT
BRANCH  17  20
HETATM   20  O   UNL     1     -11.455  11.823  62.852  1.00  0.00    -0.017 OA 
HETATM   21  C   UNL     1     -12.688  12.135  63.477  1.00  0.00    -0.431 C  
ENDBRANCH  17  20
TORSDOF 1
ENDMDL
MODEL       25
REMARK 921   NORMALIZED FREE ENERGY PREDICTED BY IDOCK:   -5.47 KCAL/MOL
REMARK 922        TOTAL FREE ENERGY PREDICTED BY IDOCK:   -5.82 KCAL/MOL
REMARK 923 INTER-LIGAND FREE ENERGY PREDICTED BY IDOCK:   -5.69 KCAL/MOL
REMARK 924 INTRA-LIGAND FREE ENERGY PREDICTED BY IDOCK:   -0.14 KCAL/MOL
REMARK 927      BINDING AFFINITY PREDICTED BY RF-SCORE:    0.00 PKD
ROOT
HETATM    1  C   UNL     1     -11.037  10.240  69.949  1.00  0.00    -0.362 C  
HETATM    2  C   UNL     1     -12.415  10.890  70.216  1.00  0.00    -0.383 C  
HETATM    3  C   UNL     1     -12.913  10.669  71.648  1.00  0.00    -0.582 C  
HETATM    4  C   UNL     1     -12.953   9.176  72.054  1.00  0.00    -0.496 C  
HETATM    5  C   UNL     1     -12.285   8.283  70.964  1.00  0.00    -0.189 C  
HETATM    6  C   UNL     1     -14.366   8.733  72.425  1.00  0.00    -0.419 C  
HETATM    7  C   UNL     1     -12.246   6.801  71.324  1.00  0.00    -0.415 C  
HETATM    8  C   UNL     1     -11.189   6.478  72.365  1.00  0.00    -0.310 C  
HETATM    9  C   UNL     1      -9.751   6.829  71.919  1.00  0.00    -0.155 C  
HETATM   10  C   UNL     1      -8.824   5.821  72.611  1.00  0.00    -0.125 C  
HETATM   11  O   UNL     1      -9.309   8.119  72.340  1.00  0.00    -0.189 OA 
HETATM   12  O   UNL     1     -10.263   9.153  71.938  1.00  0.00    -0.332 OA 
HETATM   13  C   UNL     1     -10.872   8.860  70.659  1.00  0.00    -0.239 C  
HETATM   14  C   UNL     1     -10.001   7.888  69.807  1.00  0.00    -0.186 C  
HETATM   15  O   UNL     1      -8.890   8.578  69.239  1.00  0.00    -0.139 OA 
HETATM   16  O   UNL     1      -9.578   6.707  70.509  1.00  0.00    -0.168 OA 
HETATM   17  C   UNL     1      -9.264   9.595  68.300  1.00  0.00    -0.129 C  
HETATM   18  C   UNL     1     -11.037  11.322  67.610  1.00  0.00    -0.336 C  
HETATM   19  C   UNL     1     -10.738  10.070  68.442  1.00  0.00    -0.271 C  
ENDROOT
BRANCH  17  20
HETATM   20  O   UNL     1      -8.436  10.751  68.472  1.00  0.00    -0.128 OA 
HETATM   21  C   UNL     1      -7.532  10.633  69.557  1.00  0.00    -0.130 C  
ENDBRANCH  17  20
TORSDOF 1
ENDMDL
MODEL       26
REMARK 921   NORMALIZED FREE ENERGY PREDICTED BY IDOCK:   -5.42 KCAL/MOL
REMARK 922        TOTAL FREE ENERGY PREDICTED BY IDOCK:   -5.78 KCAL/MOL
REMARK 923 INTER-LIGAND FREE ENERGY PREDICTED BY IDOCK:   -5.67 KCAL/MOL
REMARK 924 INTRA-LIGAND FREE ENERGY PREDICTED BY IDOCK:   -0.10 KCAL/MOL
REMARK 927      BINDING AFFINITY PREDICTED BY RF-SCORE:    0.00 PKD
ROOT
HETATM    1  C   UNL     1     -12.112  11.890  69.402  1.00  0.00    -0.277 C  
HETATM    2  C   UNL     1     -12.130  13.392  69.035  1.00  0.00    -0.299 C  
HETATM    3  C   UNL     1     -11.718  13.660  67.584  1.00  0.00    -0.398 C  
HETATM    4  C   UNL     1     -10.343  13.051  67.220  1.00  0.00    -0.238 C  
HETATM    5  C   UNL     1      -9.811  12.147  68.374  1.00  0.00    -0.200 C  
HETATM    6  C   UNL     1      -9.352  14.126  66.781  1.00  0.00    -0.295 C  
HETATM    7  C   UNL     1      -8.477  11.474  68.061  1.00  0.00    -0.148 C  
HETATM    8  C   UNL     1      -8.620  10.312  67.094  1.00  0.00    -0.126 C  
HETATM    9  C   UNL     1      -9.537   9.181  67.612  1.00  0.00    -0.149 C  
HETATM   10  C   UNL     1      -9.003   7.877  67.005  1.00  0.00    -0.145 C  
HETATM   11  O   UNL     1     -10.894   9.287  67.179  1.00  0.00    -0.217 OA 
HETATM   12  O   UNL     1     -11.439  10.607  67.494  1.00  0.00    -0.460 OA 
HETATM   13  C   UNL     1     -10.923  11.123  68.744  1.00  0.00    -0.219 C  
HETATM   14  C   UNL     1     -10.403   9.985  69.674  1.00  0.00    -0.247 C  
HETATM   15  O   UNL     1     -11.493   9.299  70.284  1.00  0.00    -0.243 OA 
HETATM   16  O   UNL     1      -9.501   9.066  69.033  1.00  0.00    -0.153 OA 
HETATM   17  C   UNL     1     -12.266  10.121  71.169  1.00  0.00    -0.389 C  
HETATM   18  C   UNL     1     -13.103  12.491  71.703  1.00  0.00    -0.414 C  
HETATM   19  C   UNL     1     -12.086  11.647  70.928  1.00  0.00    -0.312 C  
ENDROOT
BRANCH  17  20
HETATM   20  O   UNL     1     -13.660   9.837  71.012  1.00  0.00    -0.320 OA 
HETATM   21  C   UNL     1     -14.113   8.788  71.852  1.00  0.00    -0.420 C  
ENDBRANCH  17  20
TORSDOF 1
ENDMDL
MODEL       27
REMARK 921   NORMALIZED FREE ENERGY PREDICTED BY IDOCK:   -5.41 KCAL/MOL
REMARK 922        TOTAL FREE ENERGY PREDICTED BY IDOCK:   -5.76 KCAL/MOL
REMARK 923 INTER-LIGAND FREE ENERGY PREDICTED BY IDOCK:   -5.80 KCAL/MOL
REMARK 924 INTRA-LIGAND FREE ENERGY PREDICTED BY IDOCK:    0.04 KCAL/MOL
REMARK 927      BINDING AFFINITY PREDICTED BY RF-SCORE:    0.00 PKD
ROOT
HETATM    1  C   UNL     1      -9.039  15.257  67.452  1.00  0.00    -0.201 C  
HETATM    2  C   UNL     1      -8.298  14.528  68.597  1.00  0.00    -0.164 C  
HETATM    3  C   UNL     1      -7.965  13.071  68.263  1.00  0.00    -0.151 C  
HETATM    4  C   UNL     1      -9.203  12.247  67.836  1.00  0.00    -0.190 C  
HETATM    5  C   UNL     1     -10.452  13.165  67.664  1.00  0.00    -0.225 C  
HETATM    6  C   UNL     1      -9.440  11.064  68.771  1.00  0.00    -0.190 C  
HETATM    7  C   UNL     1     -11.700  12.422  67.195  1.00  0.00    -0.415 C  
HETATM    8  C   UNL     1     -11.649  12.062  65.721  1.00  0.00    -0.353 C  
HETATM    9  C   UNL     1     -11.526  13.287  64.786  1.00  0.00    -0.327 C  
HETATM   10  C   UNL     1     -12.237  12.909  63.480  1.00  0.00    -0.595 C  
HETATM   11  O   UNL     1     -10.184  13.610  64.422  1.00  0.00    -0.393 OA 
HETATM   12  O   UNL     1      -9.343  13.756  65.610  1.00  0.00     0.017 OA 
HETATM   13  C   UNL     1     -10.068  14.340  66.719  1.00  0.00    -0.264 C  
HETATM   14  C   UNL     1     -11.308  15.154  66.240  1.00  0.00    -0.219 C  
HETATM   15  O   UNL     1     -10.906  16.411  65.702  1.00  0.00    -0.278 OA 
HETATM   16  O   UNL     1     -12.162  14.444  65.327  1.00  0.00    -0.393 OA 
HETATM   17  C   UNL     1     -10.293  17.279  66.666  1.00  0.00    -0.305 C  
HETATM   18  C   UNL     1      -8.890  17.441  68.812  1.00  0.00    -0.220 C  
HETATM   19  C   UNL     1      -9.758  16.541  67.926  1.00  0.00    -0.236 C  
ENDROOT
BRANCH  17  20
HETATM   20  O   UNL     1      -9.179  17.958  66.077  1.00  0.00    -0.509 OA 
HETATM   21  C   UNL     1      -9.348  19.365  66.024  1.00  0.00    -0.187 C  
ENDBRANCH  17  20
TORSDOF 1
ENDMDL
MODEL       28
REMARK 921   NORMALIZED FREE ENERGY PREDICTED BY IDOCK:   -5.36 KCAL/MOL
REMARK 922        TOTAL FREE ENERGY PREDICTED BY IDOCK:   -5.71 KCAL/MOL
REMARK 923 INTER-LIGAND FREE ENERGY PREDICTED BY IDOCK:   -5.55 KCAL/MOL
REMARK 924 INTRA-LIGAND FREE ENERGY PREDICTED BY IDOCK:   -0.16 KCAL/MOL
REMARK 927      BINDING AFFINITY PREDICTED BY RF-SCORE:    0.00 PKD
ROOT
HETATM    1  C   UNL     1     -11.812  13.301  68.967  1.00  0.00    -0.365 C  
HETATM    2  C   UNL     1     -12.352  13.196  70.412  1.00  0.00    -0.351 C  
HETATM    3  C   UNL     1     -12.946  14.511  70.927  1.00  0.00    -0.424 C  
HETATM    4  C   UNL     1     -11.965  15.703  70.822  1.00  0.00    -0.438 C  
HETATM    5  C   UNL     1     -10.681  15.301  70.033  1.00  0.00    -0.297 C  
HETATM    6  C   UNL     1     -11.673  16.312  72.191  1.00  0.00    -0.531 C  
HETATM    7  C   UNL     1      -9.689  16.447  69.850  1.00  0.00     0.329 C  
HETATM    8  C   UNL     1     -10.135  17.445  68.796  1.00  0.00    -0.346 C  
HETATM    9  C   UNL     1     -10.310  16.827  67.390  1.00  0.00    -0.302 C  
HETATM   10  C   UNL     1      -9.985  17.938  66.384  1.00  0.00    -0.358 C  
HETATM   11  O   UNL     1     -11.645  16.413  67.098  1.00  0.00     0.310 OA 
HETATM   12  O   UNL     1     -12.154  15.524  68.142  1.00  0.00    -0.124 OA 
HETATM   13  C   UNL     1     -11.117  14.669  68.680  1.00  0.00    -0.262 C  
HETATM   14  C   UNL     1      -9.928  14.500  67.687  1.00  0.00    -0.224 C  
HETATM   15  O   UNL     1     -10.275  13.600  66.638  1.00  0.00    -0.266 OA 
HETATM   16  O   UNL     1      -9.416  15.738  67.164  1.00  0.00    -0.209 OA 
HETATM   17  C   UNL     1     -10.521  12.261  67.088  1.00  0.00    -0.219 C  
HETATM   18  C   UNL     1     -11.344  10.767  69.011  1.00  0.00    -0.349 C  
HETATM   19  C   UNL     1     -10.837  12.156  68.607  1.00  0.00    -0.268 C  
ENDROOT
BRANCH  17  20
HETATM   20  O   UNL     1     -11.643  11.706  66.391  1.00  0.00    -0.447 OA 
HETATM   21  C   UNL     1     -12.000  12.443  65.234  1.00  0.00    -0.404 C  
ENDBRANCH  17  20
TORSDOF 1
ENDMDL
MODEL       29
REMARK 921   NORMALIZED FREE ENERGY PREDICTED BY IDOCK:   -5.35 KCAL/MOL
REMARK 922        TOTAL FREE ENERGY PREDICTED BY IDOCK:   -5.70 KCAL/MOL
REMARK 923 INTER-LIGAND FREE ENERGY PREDICTED BY IDOCK:   -5.59 KCAL/MOL
REMARK 924 INTRA-LIGAND FREE ENERGY PREDICTED BY IDOCK:   -0.10 KCAL/MOL
REMARK 927      BINDING AFFINITY PREDICTED BY RF-SCORE:    0.00 PKD
ROOT
HETATM    1  C   UNL     1     -10.395  15.526  65.481  1.00  0.00    -0.419 C  
HETATM    2  C   UNL     1     -10.980  16.953  65.371  1.00  0.00    -0.029 C  
HETATM    3  C   UNL     1     -10.067  18.023  65.979  1.00  0.00    -0.268 C  
HETATM    4  C   UNL     1      -9.682  17.730  67.448  1.00  0.00    -0.284 C  
HETATM    5  C   UNL     1     -10.164  16.310  67.879  1.00  0.00    -0.261 C  
HETATM    6  C   UNL     1     -10.148  18.842  68.384  1.00  0.00    -0.443 C  
HETATM    7  C   UNL     1      -9.773  15.935  69.306  1.00  0.00    -0.263 C  
HETATM    8  C   UNL     1      -8.303  15.576  69.435  1.00  0.00    -0.249 C  
HETATM    9  C   UNL     1      -7.879  14.370  68.565  1.00  0.00    -0.138 C  
HETATM   10  C   UNL     1      -6.739  13.672  69.317  1.00  0.00    -0.094 C  
HETATM   11  O   UNL     1      -7.346  14.730  67.291  1.00  0.00    -0.195 OA 
HETATM   12  O   UNL     1      -8.265  15.614  66.573  1.00  0.00    -0.264 OA 
HETATM   13  C   UNL     1      -9.649  15.281  66.831  1.00  0.00    -0.233 C  
HETATM   14  C   UNL     1      -9.816  13.807  67.308  1.00  0.00    -0.241 C  
HETATM   15  O   UNL     1      -9.693  12.908  66.209  1.00  0.00    -0.267 OA 
HETATM   16  O   UNL     1      -8.942  13.435  68.387  1.00  0.00    -0.184 OA 
HETATM   17  C   UNL     1     -10.728  13.056  65.227  1.00  0.00    -0.299 C  
HETATM   18  C   UNL     1     -12.378  14.659  64.083  1.00  0.00    -0.294 C  
HETATM   19  C   UNL     1     -11.463  14.425  65.289  1.00  0.00    -0.350 C  
ENDROOT
BRANCH  17  20
HETATM   20  O   UNL     1     -10.177  12.939  63.910  1.00  0.00    -0.383 OA 
HETATM   21  C   UNL     1     -10.251  11.623  63.390  1.00  0.00    -0.433 C  
ENDBRANCH  17  20
TORSDOF 1
ENDMDL
MODEL       30
REMARK 921   NORMALIZED FREE ENERGY PREDICTED BY IDOCK:   -5.33 KCAL/MOL
REMARK 922        TOTAL FREE ENERGY PREDICTED BY IDOCK:   -5.68 KCAL/MOL
REMARK 923 INTER-LIGAND FREE ENERGY PREDICTED BY IDOCK:   -5.52 KCAL/MOL
REMARK 924 INTRA-LIGAND FREE ENERGY PREDICTED BY IDOCK:   -0.17 KCAL/MOL
REMARK 927      BINDING AFFINITY PREDICTED BY RF-SCORE:    0.00 PKD
ROOT
HETATM    1  C   UNL     1      -9.237  13.212  68.088  1.00  0.00    -0.215 C  
HETATM    2  C   UNL     1      -8.969  14.560  68.797  1.00  0.00    -0.157 C  
HETATM    3  C   UNL     1     -10.168  15.512  68.747  1.00  0.00    -0.212 C  
HETATM    4  C   UNL     1     -10.679  15.771  67.310  1.00  0.00    -0.313 C  
HETATM    5  C   UNL     1      -9.962  14.838  66.286  1.00  0.00    -0.308 C  
HETATM    6  C   UNL     1     -10.600  17.251  66.945  1.00  0.00    -0.213 C  
HETATM    7  C   UNL     1     -10.455  15.008  64.851  1.00  0.00    -0.367 C  
HETATM    8  C   UNL     1     -11.813  14.371  64.619  1.00  0.00    -0.460 C  
HETATM    9  C   UNL     1     -11.840  12.848  64.883  1.00  0.00    -0.366 C  
HETATM   10  C   UNL     1     -12.892  12.261  63.934  1.00  0.00    -0.409 C  
HETATM   11  O   UNL     1     -12.258  12.492  66.200  1.00  0.00    -0.609 OA 
HETATM   12  O   UNL     1     -11.465  13.198  67.207  1.00  0.00    -0.296 OA 
HETATM   13  C   UNL     1     -10.090  13.372  66.790  1.00  0.00    -0.260 C  
HETATM   14  C   UNL     1      -9.673  12.329  65.709  1.00  0.00    -0.216 C  
HETATM   15  O   UNL     1      -9.443  11.054  66.305  1.00  0.00    -0.182 OA 
HETATM   16  O   UNL     1     -10.584  12.231  64.602  1.00  0.00    -0.277 OA 
HETATM   17  C   UNL     1      -8.341  11.039  67.222  1.00  0.00    -0.125 C  
HETATM   18  C   UNL     1      -6.940  12.381  68.906  1.00  0.00    -0.091 C  
HETATM   19  C   UNL     1      -7.939  12.447  67.746  1.00  0.00    -0.156 C  
ENDROOT
BRANCH  17  20
HETATM   20  O   UNL     1      -8.666  10.245  68.369  1.00  0.00    -0.122 OA 
HETATM   21  C   UNL     1      -9.816   9.438  68.180  1.00  0.00    -0.160 C  
ENDBRANCH  17  20
TORSDOF 1
ENDMDL
MODEL       31
REMARK 921   NORMALIZED FREE ENERGY PREDICTED BY IDOCK:   -5.33 KCAL/MOL
REMARK 922        TOTAL FREE ENERGY PREDICTED BY IDOCK:   -5.67 KCAL/MOL
REMARK 923 INTER-LIGAND FREE ENERGY PREDICTED BY IDOCK:   -5.57 KCAL/MOL
REMARK 924 INTRA-LIGAND FREE ENERGY PREDICTED BY IDOCK:   -0.10 KCAL/MOL
REMARK 927      BINDING AFFINITY PREDICTED BY RF-SCORE:    0.00 PKD
ROOT
HETATM    1  C   UNL     1     -11.103   9.468  70.876  1.00  0.00    -0.406 C  
HETATM    2  C   UNL     1     -10.556   8.085  71.298  1.00  0.00    -0.245 C  
HETATM    3  C   UNL     1      -9.176   7.781  70.707  1.00  0.00    -0.157 C  
HETATM    4  C   UNL     1      -9.132   7.912  69.166  1.00  0.00    -0.145 C  
HETATM    5  C   UNL     1     -10.463   8.513  68.619  1.00  0.00    -0.200 C  
HETATM    6  C   UNL     1      -8.741   6.594  68.502  1.00  0.00    -0.123 C  
HETATM    7  C   UNL     1     -10.470   8.716  67.106  1.00  0.00    -0.360 C  
HETATM    8  C   UNL     1      -9.643   9.912  66.671  1.00  0.00    -0.235 C  
HETATM    9  C   UNL     1     -10.131  11.254  67.265  1.00  0.00    -0.186 C  
HETATM   10  C   UNL     1      -9.791  12.335  66.232  1.00  0.00    -0.254 C  
HETATM   11  O   UNL     1      -9.462  11.637  68.467  1.00  0.00    -0.195 OA 
HETATM   12  O   UNL     1      -9.513  10.561  69.457  1.00  0.00    -0.179 OA 
HETATM   13  C   UNL     1     -10.759   9.828  69.397  1.00  0.00    -0.228 C  
HETATM   14  C   UNL     1     -11.898  10.667  68.742  1.00  0.00    -0.107 C  
HETATM   15  O   UNL     1     -12.392  11.643  69.656  1.00  0.00    -0.216 OA 
HETATM   16  O   UNL     1     -11.540  11.265  67.484  1.00  0.00    -0.508 OA 
HETATM   17  C   UNL     1     -13.022  11.078  70.814  1.00  0.00    -0.177 C  
HETATM   18  C   UNL     1     -13.108   9.101  72.453  1.00  0.00    -0.493 C  
HETATM   19  C   UNL     1     -12.629   9.598  71.085  1.00  0.00    -0.411 C  
ENDROOT
BRANCH  17  20
HETATM   20  O   UNL     1     -12.664  11.823  71.983  1.00  0.00    -0.213 OA 
HETATM   21  C   UNL     1     -13.503  12.943  72.208  1.00  0.00    -0.531 C  
ENDBRANCH  17  20
TORSDOF 1
ENDMDL
MODEL       32
REMARK 921   NORMALIZED FREE ENERGY PREDICTED BY IDOCK:   -5.32 KCAL/MOL
REMARK 922        TOTAL FREE ENERGY PREDICTED BY IDOCK:   -5.66 KCAL/MOL
REMARK 923 INTER-LIGAND FREE ENERGY PREDICTED BY IDOCK:   -5.49 KCAL/MOL
REMARK 924 INTRA-LIGAND FREE ENERGY PREDICTED BY IDOCK:   -0.17 KCAL/MOL
REMARK 927      BINDING AFFINITY PREDICTED BY RF-SCORE:    0.00 PKD
ROOT
HETATM    1  C   UNL     1     -10.994   8.394  70.206  1.00  0.00    -0.236 C  
HETATM    2  C   UNL     1     -10.060   8.500  68.979  1.00  0.00    -0.207 C  
HETATM    3  C   UNL     1      -9.421   7.161  68.595  1.00  0.00    -0.140 C  
HETATM    4  C   UNL     1      -8.669   6.488  69.767  1.00  0.00    -0.143 C  
HETATM    5  C   UNL     1      -8.918   7.253  71.103  1.00  0.00    -0.147 C  
HETATM    6  C   UNL     1      -7.190   6.289  69.444  1.00  0.00    -0.082 C  
HETATM    7  C   UNL     1      -8.243   6.612  72.312  1.00  0.00    -0.104 C  
HETATM    8  C   UNL     1      -8.959   5.361  72.789  1.00  0.00    -0.121 C  
HETATM    9  C   UNL     1     -10.422   5.609  73.221  1.00  0.00    -0.231 C  
HETATM   10  C   UNL     1     -10.729   4.585  74.322  1.00  0.00    -0.280 C  
HETATM   11  O   UNL     1     -11.382   5.375  72.191  1.00  0.00    -0.191 OA 
HETATM   12  O   UNL     1     -11.044   6.129  70.983  1.00  0.00    -0.278 OA 
HETATM   13  C   UNL     1     -10.454   7.413  71.294  1.00  0.00    -0.208 C  
HETATM   14  C   UNL     1     -10.832   7.897  72.727  1.00  0.00    -0.386 C  
HETATM   15  O   UNL     1     -12.170   8.385  72.755  1.00  0.00    -0.339 OA 
HETATM   16  O   UNL     1     -10.612   6.918  73.756  1.00  0.00    -0.360 OA 
HETATM   17  C   UNL     1     -12.373   9.553  71.948  1.00  0.00    -0.373 C  
HETATM   18  C   UNL     1     -11.651  10.861  69.858  1.00  0.00    -0.410 C  
HETATM   19  C   UNL     1     -11.280   9.764  70.862  1.00  0.00    -0.429 C  
ENDROOT
BRANCH  17  20
HETATM   20  O   UNL     1     -13.628   9.467  71.264  1.00  0.00    -0.360 OA 
HETATM   21  C   UNL     1     -14.392   8.334  71.641  1.00  0.00    -0.467 C  
ENDBRANCH  17  20
TORSDOF 1
ENDMDL
MODEL       33
REMARK 921   NORMALIZED FREE ENERGY PREDICTED BY IDOCK:   -5.28 KCAL/MOL
REMARK 922        TOTAL FREE ENERGY PREDICTED BY IDOCK:   -5.63 KCAL/MOL
REMARK 923 INTER-LIGAND FREE ENERGY PREDICTED BY IDOCK:   -5.45 KCAL/MOL
REMARK 924 INTRA-LIGAND FREE ENERGY PREDICTED BY IDOCK:   -0.17 KCAL/MOL
REMARK 927      BINDING AFFINITY PREDICTED BY RF-SCORE:    0.00 PKD
ROOT
HETATM    1  C   UNL     1      -9.540  13.524  66.659  1.00  0.00    -0.282 C  
HETATM    2  C   UNL     1      -8.310  14.232  67.273  1.00  0.00    -0.222 C  
HETATM    3  C   UNL     1      -7.112  13.297  67.462  1.00  0.00    -0.156 C  
HETATM    4  C   UNL     1      -7.451  12.033  68.287  1.00  0.00    -0.106 C  
HETATM    5  C   UNL     1      -8.984  11.935  68.553  1.00  0.00    -0.115 C  
HETATM    6  C   UNL     1      -6.605  11.947  69.555  1.00  0.00    -0.093 C  
HETATM    7  C   UNL     1      -9.395  10.683  69.322  1.00  0.00    -0.136 C  
HETATM    8  C   UNL     1      -9.372   9.432  68.461  1.00  0.00    -0.139 C  
HETATM    9  C   UNL     1     -10.326   9.497  67.246  1.00  0.00    -0.255 C  
HETATM   10  C   UNL     1     -10.780   8.057  66.972  1.00  0.00    -0.263 C  
HETATM   11  O   UNL     1      -9.705   9.947  66.041  1.00  0.00    -0.209 OA 
HETATM   12  O   UNL     1      -9.018  11.221  66.254  1.00  0.00    -0.187 OA 
HETATM   13  C   UNL     1      -9.725  12.068  67.191  1.00  0.00    -0.197 C  
HETATM   14  C   UNL     1     -11.235  11.692  67.291  1.00  0.00    -0.304 C  
HETATM   15  O   UNL     1     -11.948  12.173  66.155  1.00  0.00    -0.593 OA 
HETATM   16  O   UNL     1     -11.480  10.292  67.508  1.00  0.00    -0.323 OA 
HETATM   17  C   UNL     1     -11.969  13.603  66.053  1.00  0.00    -0.413 C  
HETATM   18  C   UNL     1     -10.737  15.803  66.550  1.00  0.00    -0.283 C  
HETATM   19  C   UNL     1     -10.853  14.309  66.874  1.00  0.00    -0.298 C  
ENDROOT
BRANCH  17  20
HETATM   20  O   UNL     1     -11.797  14.002  64.688  1.00  0.00    -0.376 OA 
HETATM   21  C   UNL     1     -11.869  12.918  63.778  1.00  0.00    -0.504 C  
ENDBRANCH  17  20
TORSDOF 1
ENDMDL
MODEL       34
REMARK 921   NORMALIZED FREE ENERGY PREDICTED BY IDOCK:   -5.27 KCAL/MOL
REMARK 922        TOTAL FREE ENERGY PREDICTED BY IDOCK:   -5.61 KCAL/MOL
REMARK 923 INTER-LIGAND FREE ENERGY PREDICTED BY IDOCK:   -5.53 KCAL/MOL
REMARK 924 INTRA-LIGAND FREE ENERGY PREDICTED BY IDOCK:   -0.08 KCAL/MOL
REMARK 927      BINDING AFFINITY PREDICTED BY RF-SCORE:    0.00 PKD
ROOT
HETATM    1  C   UNL     1      -9.220  14.133  67.582  1.00  0.00    -0.193 C  
HETATM    2  C   UNL     1      -7.961  13.498  68.216  1.00  0.00    -0.147 C  
HETATM    3  C   UNL     1      -7.226  12.546  67.267  1.00  0.00    -0.114 C  
HETATM    4  C   UNL     1      -8.137  11.436  66.693  1.00  0.00    -0.155 C  
HETATM    5  C   UNL     1      -9.628  11.684  67.077  1.00  0.00    -0.196 C  
HETATM    6  C   UNL     1      -7.633  10.045  67.072  1.00  0.00    -0.092 C  
HETATM    7  C   UNL     1     -10.591  10.649  66.501  1.00  0.00    -0.257 C  
HETATM    8  C   UNL     1     -10.844  10.847  65.017  1.00  0.00    -0.142 C  
HETATM    9  C   UNL     1     -11.464  12.220  64.669  1.00  0.00    -0.336 C  
HETATM   10  C   UNL     1     -12.333  12.001  63.424  1.00  0.00    -0.635 C  
HETATM   11  O   UNL     1     -10.508  13.217  64.310  1.00  0.00    -0.414 OA 
HETATM   12  O   UNL     1      -9.472  13.339  65.335  1.00  0.00     0.041 OA 
HETATM   13  C   UNL     1     -10.002  13.138  66.667  1.00  0.00    -0.270 C  
HETATM   14  C   UNL     1     -11.537  13.402  66.730  1.00  0.00    -0.365 C  
HETATM   15  O   UNL     1     -11.805  14.802  66.719  1.00  0.00    -0.353 OA 
HETATM   16  O   UNL     1     -12.294  12.717  65.718  1.00  0.00    -0.594 OA 
HETATM   17  C   UNL     1     -11.304  15.492  67.872  1.00  0.00    -0.308 C  
HETATM   18  C   UNL     1      -9.498  15.577  69.697  1.00  0.00    -0.244 C  
HETATM   19  C   UNL     1     -10.190  14.719  68.632  1.00  0.00    -0.236 C  
ENDROOT
BRANCH  17  20
HETATM   20  O   UNL     1     -10.746  16.753  67.486  1.00  0.00    -0.328 OA 
HETATM   21  C   UNL     1     -10.609  16.896  66.082  1.00  0.00    -0.194 C  
ENDBRANCH  17  20
TORSDOF 1
ENDMDL
MODEL       35
REMARK 921   NORMALIZED FREE ENERGY PREDICTED BY IDOCK:   -5.26 KCAL/MOL
REMARK 922        TOTAL FREE ENERGY PREDICTED BY IDOCK:   -5.60 KCAL/MOL
REMARK 923 INTER-LIGAND FREE ENERGY PREDICTED BY IDOCK:   -5.43 KCAL/MOL
REMARK 924 INTRA-LIGAND FREE ENERGY PREDICTED BY IDOCK:   -0.17 KCAL/MOL
REMARK 927      BINDING AFFINITY PREDICTED BY RF-SCORE:    0.00 PKD
ROOT
HETATM    1  C   UNL     1      -9.455  10.889  66.115  1.00  0.00    -0.230 C  
HETATM    2  C   UNL     1     -10.009  10.109  64.901  1.00  0.00    -0.358 C  
HETATM    3  C   UNL     1     -10.394  11.018  63.729  1.00  0.00    -0.427 C  
HETATM    4  C   UNL     1     -11.387  12.135  64.127  1.00  0.00    -0.449 C  
HETATM    5  C   UNL     1     -11.594  12.172  65.673  1.00  0.00    -0.409 C  
HETATM    6  C   UNL     1     -12.690  12.034  63.339  1.00  0.00    -0.527 C  
HETATM    7  C   UNL     1     -12.528  13.286  66.140  1.00  0.00    -0.335 C  
HETATM    8  C   UNL     1     -11.871  14.655  66.103  1.00  0.00    -0.282 C  
HETATM    9  C   UNL     1     -10.618  14.768  67.002  1.00  0.00    -0.290 C  
HETATM   10  C   UNL     1     -10.549  16.226  67.470  1.00  0.00    -0.310 C  
HETATM   11  O   UNL     1      -9.389  14.517  66.321  1.00  0.00    -0.285 OA 
HETATM   12  O   UNL     1      -9.434  13.233  65.620  1.00  0.00    -0.064 OA 
HETATM   13  C   UNL     1     -10.196  12.243  66.351  1.00  0.00    -0.225 C  
HETATM   14  C   UNL     1     -10.284  12.581  67.871  1.00  0.00    -0.219 C  
HETATM   15  O   UNL     1      -9.055  12.273  68.524  1.00  0.00    -0.166 OA 
HETATM   16  O   UNL     1     -10.702  13.927  68.152  1.00  0.00    -0.240 OA 
HETATM   17  C   UNL     1      -8.733  10.876  68.515  1.00  0.00    -0.153 C  
HETATM   18  C   UNL     1      -8.942   8.641  67.264  1.00  0.00    -0.145 C  
HETATM   19  C   UNL     1      -9.487  10.064  67.422  1.00  0.00    -0.176 C  
ENDROOT
BRANCH  17  20
HETATM   20  O   UNL     1      -7.333  10.695  68.275  1.00  0.00    -0.084 OA 
HETATM   21  C   UNL     1      -6.601  11.908  68.309  1.00  0.00    -0.054 C  
ENDBRANCH  17  20
TORSDOF 1
ENDMDL
MODEL       36
REMARK 921   NORMALIZED FREE ENERGY PREDICTED BY IDOCK:   -5.22 KCAL/MOL
REMARK 922        TOTAL FREE ENERGY PREDICTED BY IDOCK:   -5.56 KCAL/MOL
REMARK 923 INTER-LIGAND FREE ENERGY PREDICTED BY IDOCK:   -5.39 KCAL/MOL
REMARK 924 INTRA-LIGAND FREE ENERGY PREDICTED BY IDOCK:   -0.17 KCAL/MOL
REMARK 927      BINDING AFFINITY PREDICTED BY RF-SCORE:    0.00 PKD
ROOT
HETATM    1  C   UNL     1      -9.931  10.417  69.793  1.00  0.00    -0.167 C  
HETATM    2  C   UNL     1      -8.697   9.534  70.089  1.00  0.00    -0.258 C  
HETATM    3  C   UNL     1      -7.447   9.974  69.320  1.00  0.00    -0.103 C  
HETATM    4  C   UNL     1      -7.672  10.061  67.792  1.00  0.00    -0.090 C  
HETATM    5  C   UNL     1      -9.178   9.865  67.438  1.00  0.00    -0.151 C  
HETATM    6  C   UNL     1      -6.740   9.120  67.033  1.00  0.00    -0.072 C  
HETATM    7  C   UNL     1      -9.479   9.988  65.946  1.00  0.00    -0.260 C  
HETATM    8  C   UNL     1      -9.457  11.426  65.460  1.00  0.00    -0.251 C  
HETATM    9  C   UNL     1     -10.492  12.335  66.162  1.00  0.00    -0.240 C  
HETATM   10  C   UNL     1     -10.897  13.403  65.138  1.00  0.00    -0.322 C  
HETATM   11  O   UNL     1      -9.975  13.047  67.286  1.00  0.00    -0.227 OA 
HETATM   12  O   UNL     1      -9.334  12.133  68.232  1.00  0.00    -0.198 OA 
HETATM   13  C   UNL     1     -10.014  10.857  68.297  1.00  0.00    -0.175 C  
HETATM   14  C   UNL     1     -11.495  10.961  67.821  1.00  0.00    -0.243 C  
HETATM   15  O   UNL     1     -12.304  11.564  68.827  1.00  0.00    -0.425 OA 
HETATM   16  O   UNL     1     -11.661  11.618  66.554  1.00  0.00    -0.498 OA 
HETATM   17  C   UNL     1     -12.397  10.790  70.031  1.00  0.00    -0.298 C  
HETATM   18  C   UNL     1     -11.236   9.109  71.589  1.00  0.00    -0.447 C  
HETATM   19  C   UNL     1     -11.262   9.739  70.192  1.00  0.00    -0.324 C  
ENDROOT
BRANCH  17  20
HETATM   20  O   UNL     1     -12.335  11.649  71.175  1.00  0.00    -0.331 OA 
HETATM   21  C   UNL     1     -12.500  13.019  70.852  1.00  0.00    -0.310 C  
ENDBRANCH  17  20
TORSDOF 1
ENDMDL
MODEL       37
REMARK 921   NORMALIZED FREE ENERGY PREDICTED BY IDOCK:   -5.18 KCAL/MOL
REMARK 922        TOTAL FREE ENERGY PREDICTED BY IDOCK:   -5.52 KCAL/MOL
REMARK 923 INTER-LIGAND FREE ENERGY PREDICTED BY IDOCK:   -5.37 KCAL/MOL
REMARK 924 INTRA-LIGAND FREE ENERGY PREDICTED BY IDOCK:   -0.14 KCAL/MOL
REMARK 927      BINDING AFFINITY PREDICTED BY RF-SCORE:    0.00 PKD
ROOT
HETATM    1  C   UNL     1     -11.641   9.357  70.161  1.00  0.00    -0.117 C  
HETATM    2  C   UNL     1     -11.141  10.431  69.167  1.00  0.00    -0.296 C  
HETATM    3  C   UNL     1     -10.397   9.837  67.967  1.00  0.00    -0.250 C  
HETATM    4  C   UNL     1      -9.221   8.918  68.375  1.00  0.00    -0.140 C  
HETATM    5  C   UNL     1      -9.214   8.671  69.915  1.00  0.00    -0.155 C  
HETATM    6  C   UNL     1      -7.891   9.434  67.834  1.00  0.00    -0.091 C  
HETATM    7  C   UNL     1      -8.106   7.731  70.381  1.00  0.00    -0.115 C  
HETATM    8  C   UNL     1      -8.398   6.276  70.058  1.00  0.00    -0.129 C  
HETATM    9  C   UNL     1      -9.692   5.741  70.713  1.00  0.00    -0.174 C  
HETATM   10  C   UNL     1      -9.463   4.246  70.969  1.00  0.00    -0.236 C  
HETATM   11  O   UNL     1     -10.846   5.822  69.877  1.00  0.00    -0.324 OA 
HETATM   12  O   UNL     1     -11.025   7.182  69.367  1.00  0.00    -0.225 OA 
HETATM   13  C   UNL     1     -10.629   8.181  70.337  1.00  0.00    -0.224 C  
HETATM   14  C   UNL     1     -10.660   7.624  71.793  1.00  0.00    -0.214 C  
HETATM   15  O   UNL     1     -12.001   7.539  72.268  1.00  0.00    -0.297 OA 
HETATM   16  O   UNL     1      -9.966   6.376  71.961  1.00  0.00    -0.168 OA 
HETATM   17  C   UNL     1     -12.650   8.812  72.388  1.00  0.00    -0.363 C  
HETATM   18  C   UNL     1     -12.833  11.213  71.493  1.00  0.00    -0.542 C  
HETATM   19  C   UNL     1     -11.982   9.939  71.551  1.00  0.00    -0.473 C  
ENDROOT
BRANCH  17  20
HETATM   20  O   UNL     1     -14.009   8.715  71.946  1.00  0.00    -0.399 OA 
HETATM   21  C   UNL     1     -14.346   7.426  71.460  1.00  0.00    -0.440 C  
ENDBRANCH  17  20
TORSDOF 1
ENDMDL
MODEL       38
REMARK 921   NORMALIZED FREE ENERGY PREDICTED BY IDOCK:   -5.14 KCAL/MOL
REMARK 922        TOTAL FREE ENERGY PREDICTED BY IDOCK:   -5.48 KCAL/MOL
REMARK 923 INTER-LIGAND FREE ENERGY PREDICTED BY IDOCK:   -5.33 KCAL/MOL
REMARK 924 INTRA-LIGAND FREE ENERGY PREDICTED BY IDOCK:   -0.15 KCAL/MOL
REMARK 927      BINDING AFFINITY PREDICTED BY RF-SCORE:    0.00 PKD
ROOT
HETATM    1  C   UNL     1     -10.645   8.144  68.496  1.00  0.00    -0.142 C  
HETATM    2  C   UNL     1     -10.374   7.544  67.097  1.00  0.00    -0.384 C  
HETATM    3  C   UNL     1     -10.850   6.094  66.965  1.00  0.00    -0.435 C  
HETATM    4  C   UNL     1     -10.269   5.161  68.054  1.00  0.00    -0.178 C  
HETATM    5  C   UNL     1      -9.495   5.978  69.133  1.00  0.00    -0.146 C  
HETATM    6  C   UNL     1      -9.449   4.028  67.443  1.00  0.00    -0.231 C  
HETATM    7  C   UNL     1      -8.935   5.123  70.266  1.00  0.00    -0.156 C  
HETATM    8  C   UNL     1     -10.006   4.672  71.244  1.00  0.00    -0.268 C  
HETATM    9  C   UNL     1     -10.745   5.839  71.939  1.00  0.00    -0.242 C  
HETATM   10  C   UNL     1     -11.154   5.329  73.326  1.00  0.00    -0.376 C  
HETATM   11  O   UNL     1     -11.956   6.230  71.292  1.00  0.00    -0.279 OA 
HETATM   12  O   UNL     1     -11.723   6.509  69.875  1.00  0.00    -0.406 OA 
HETATM   13  C   UNL     1     -10.428   7.113  69.648  1.00  0.00    -0.229 C  
HETATM   14  C   UNL     1      -9.875   7.807  70.929  1.00  0.00    -0.175 C  
HETATM   15  O   UNL     1     -10.535   9.051  71.150  1.00  0.00    -0.241 OA 
HETATM   16  O   UNL     1      -9.908   6.983  72.107  1.00  0.00    -0.156 OA 
HETATM   17  C   UNL     1     -10.294  10.020  70.120  1.00  0.00    -0.266 C  
HETATM   18  C   UNL     1      -9.792  10.417  67.632  1.00  0.00    -0.197 C  
HETATM   19  C   UNL     1      -9.796   9.404  68.781  1.00  0.00    -0.172 C  
ENDROOT
BRANCH  17  20
HETATM   20  O   UNL     1     -11.500  10.734  69.825  1.00  0.00    -0.259 OA 
HETATM   21  C   UNL     1     -12.434  10.715  70.891  1.00  0.00    -0.397 C  
ENDBRANCH  17  20
TORSDOF 1
ENDMDL
MODEL       39
REMARK 921   NORMALIZED FREE ENERGY PREDICTED BY IDOCK:   -5.12 KCAL/MOL
REMARK 922        TOTAL FREE ENERGY PREDICTED BY IDOCK:   -5.45 KCAL/MOL
REMARK 923 INTER-LIGAND FREE ENERGY PREDICTED BY IDOCK:   -5.33 KCAL/MOL
REMARK 924 INTRA-LIGAND FREE ENERGY PREDICTED BY IDOCK:   -0.12 KCAL/MOL
REMARK 927      BINDING AFFINITY PREDICTED BY RF-SCORE:    0.00 PKD
ROOT
HETATM    1  C   UNL     1     -10.695   9.909  70.189  1.00  0.00    -0.361 C  
HETATM    2  C   UNL     1     -10.978   9.294  71.579  1.00  0.00    -0.446 C  
HETATM    3  C   UNL     1     -10.064   8.110  71.909  1.00  0.00    -0.285 C  
HETATM    4  C   UNL     1     -10.095   7.000  70.832  1.00  0.00    -0.204 C  
HETATM    5  C   UNL     1     -10.905   7.458  69.581  1.00  0.00    -0.222 C  
HETATM    6  C   UNL     1     -10.569   5.669  71.411  1.00  0.00    -0.317 C  
HETATM    7  C   UNL     1     -10.935   6.427  68.457  1.00  0.00    -0.396 C  
HETATM    8  C   UNL     1      -9.624   6.353  67.694  1.00  0.00    -0.126 C  
HETATM    9  C   UNL     1      -9.223   7.683  67.017  1.00  0.00    -0.138 C  
HETATM   10  C   UNL     1      -8.433   7.309  65.757  1.00  0.00    -0.148 C  
HETATM   11  O   UNL     1      -8.349   8.495  67.801  1.00  0.00    -0.127 OA 
HETATM   12  O   UNL     1      -8.902   8.718  69.137  1.00  0.00    -0.134 OA 
HETATM   13  C   UNL     1     -10.345   8.833  69.113  1.00  0.00    -0.217 C  
HETATM   14  C   UNL     1     -10.874   9.248  67.707  1.00  0.00    -0.126 C  
HETATM   15  O   UNL     1     -10.653  10.637  67.479  1.00  0.00    -0.216 OA 
HETATM   16  O   UNL     1     -10.359   8.453  66.626  1.00  0.00    -0.303 OA 
HETATM   17  C   UNL     1     -11.383  11.490  68.371  1.00  0.00    -0.279 C  
HETATM   18  C   UNL     1     -12.410  11.760  70.711  1.00  0.00    -0.433 C  
HETATM   19  C   UNL     1     -11.862  10.779  69.669  1.00  0.00    -0.392 C  
ENDROOT
BRANCH  17  20
HETATM   20  O   UNL     1     -10.565  12.592  68.779  1.00  0.00    -0.237 OA 
HETATM   21  C   UNL     1      -9.834  13.168  67.709  1.00  0.00    -0.228 C  
ENDBRANCH  17  20
TORSDOF 1
ENDMDL
MODEL       40
REMARK 921   NORMALIZED FREE ENERGY PREDICTED BY IDOCK:   -5.10 KCAL/MOL
REMARK 922        TOTAL FREE ENERGY PREDICTED BY IDOCK:   -5.44 KCAL/MOL
REMARK 923 INTER-LIGAND FREE ENERGY PREDICTED BY IDOCK:   -5.28 KCAL/MOL
REMARK 924 INTRA-LIGAND FREE ENERGY PREDICTED BY IDOCK:   -0.16 KCAL/MOL
REMARK 927      BINDING AFFINITY PREDICTED BY RF-SCORE:    0.00 PKD
ROOT
HETATM    1  C   UNL     1     -10.184   9.540  69.139  1.00  0.00    -0.209 C  
HETATM    2  C   UNL     1     -11.429  10.441  68.970  1.00  0.00    -0.258 C  
HETATM    3  C   UNL     1     -11.888  11.080  70.284  1.00  0.00    -0.456 C  
HETATM    4  C   UNL     1     -12.142  10.047  71.407  1.00  0.00    -0.498 C  
HETATM    5  C   UNL     1     -11.674   8.624  70.971  1.00  0.00    -0.319 C  
HETATM    6  C   UNL     1     -13.588  10.090  71.895  1.00  0.00    -0.354 C  
HETATM    7  C   UNL     1     -11.850   7.562  72.053  1.00  0.00    -0.331 C  
HETATM    8  C   UNL     1     -10.809   7.667  73.153  1.00  0.00    -0.440 C  
HETATM    9  C   UNL     1      -9.356   7.502  72.652  1.00  0.00    -0.159 C  
HETATM   10  C   UNL     1      -8.567   6.871  73.806  1.00  0.00    -0.165 C  
HETATM   11  O   UNL     1      -8.699   8.734  72.356  1.00  0.00    -0.392 OA 
HETATM   12  O   UNL     1      -9.497   9.543  71.434  1.00  0.00    -0.224 OA 
HETATM   13  C   UNL     1     -10.204   8.726  70.471  1.00  0.00    -0.202 C  
HETATM   14  C   UNL     1      -9.536   7.329  70.288  1.00  0.00    -0.165 C  
HETATM   15  O   UNL     1      -8.359   7.437  69.492  1.00  0.00    -0.129 OA 
HETATM   16  O   UNL     1      -9.271   6.637  71.520  1.00  0.00    -0.147 OA 
HETATM   17  C   UNL     1      -8.612   7.860  68.146  1.00  0.00    -0.123 C  
HETATM   18  C   UNL     1     -10.123   9.229  66.582  1.00  0.00    -0.341 C  
HETATM   19  C   UNL     1      -9.986   8.565  67.956  1.00  0.00    -0.221 C  
ENDROOT
BRANCH  17  20
HETATM   20  O   UNL     1      -7.607   8.789  67.724  1.00  0.00    -0.095 OA 
HETATM   21  C   UNL     1      -6.632   9.045  68.721  1.00  0.00    -0.053 C  
ENDBRANCH  17  20
TORSDOF 1
ENDMDL
MODEL       41
REMARK 921   NORMALIZED FREE ENERGY PREDICTED BY IDOCK:   -5.03 KCAL/MOL
REMARK 922        TOTAL FREE ENERGY PREDICTED BY IDOCK:   -5.36 KCAL/MOL
REMARK 923 INTER-LIGAND FREE ENERGY PREDICTED BY IDOCK:   -5.26 KCAL/MOL
REMARK 924 INTRA-LIGAND FREE ENERGY PREDICTED BY IDOCK:   -0.10 KCAL/MOL
REMARK 927      BINDING AFFINITY PREDICTED BY RF-SCORE:    0.00 PKD
ROOT
HETATM    1  C   UNL     1     -11.864   8.055  71.699  1.00  0.00    -0.329 C  
HETATM    2  C   UNL     1     -12.144   6.581  72.073  1.00  0.00    -0.358 C  
HETATM    3  C   UNL     1     -10.868   5.779  72.345  1.00  0.00    -0.294 C  
HETATM    4  C   UNL     1      -9.853   5.837  71.179  1.00  0.00    -0.227 C  
HETATM    5  C   UNL     1     -10.306   6.863  70.095  1.00  0.00    -0.218 C  
HETATM    6  C   UNL     1      -9.563   4.447  70.618  1.00  0.00    -0.262 C  
HETATM    7  C   UNL     1      -9.323   7.007  68.936  1.00  0.00    -0.139 C  
HETATM    8  C   UNL     1      -8.089   7.807  69.310  1.00  0.00    -0.127 C  
HETATM    9  C   UNL     1      -8.399   9.252  69.764  1.00  0.00    -0.142 C  
HETATM   10  C   UNL     1      -7.189  10.104  69.360  1.00  0.00    -0.096 C  
HETATM   11  O   UNL     1      -8.530   9.404  71.178  1.00  0.00    -0.303 OA 
HETATM   12  O   UNL     1      -9.501   8.451  71.716  1.00  0.00    -0.186 OA 
HETATM   13  C   UNL     1     -10.597   8.220  70.800  1.00  0.00    -0.210 C  
HETATM   14  C   UNL     1     -10.772   9.394  69.790  1.00  0.00    -0.234 C  
HETATM   15  O   UNL     1     -11.394  10.510  70.422  1.00  0.00    -0.303 OA 
HETATM   16  O   UNL     1      -9.559   9.782  69.123  1.00  0.00    -0.170 OA 
HETATM   17  C   UNL     1     -12.735  10.249  70.858  1.00  0.00    -0.370 C  
HETATM   18  C   UNL     1     -14.403   8.490  71.710  1.00  0.00    -0.522 C  
HETATM   19  C   UNL     1     -13.065   8.736  71.005  1.00  0.00     0.018 C  
ENDROOT
BRANCH  17  20
HETATM   20  O   UNL     1     -12.961  10.850  72.138  1.00  0.00    -0.419 OA 
HETATM   21  C   UNL     1     -13.333  12.215  72.055  1.00  0.00    -0.365 C  
ENDBRANCH  17  20
TORSDOF 1
ENDMDL
MODEL       42
REMARK 921   NORMALIZED FREE ENERGY PREDICTED BY IDOCK:   -5.02 KCAL/MOL
REMARK 922        TOTAL FREE ENERGY PREDICTED BY IDOCK:   -5.35 KCAL/MOL
REMARK 923 INTER-LIGAND FREE ENERGY PREDICTED BY IDOCK:   -5.18 KCAL/MOL
REMARK 924 INTRA-LIGAND FREE ENERGY PREDICTED BY IDOCK:   -0.17 KCAL/MOL
REMARK 927      BINDING AFFINITY PREDICTED BY RF-SCORE:    0.00 PKD
ROOT
HETATM    1  C   UNL     1     -10.588   9.799  70.226  1.00  0.00    -0.348 C  
HETATM    2  C   UNL     1     -11.336   9.565  71.559  1.00  0.00    -0.456 C  
HETATM    3  C   UNL     1     -10.802   8.361  72.342  1.00  0.00    -0.416 C  
HETATM    4  C   UNL     1     -10.790   7.054  71.515  1.00  0.00    -0.255 C  
HETATM    5  C   UNL     1     -11.143   7.336  70.022  1.00  0.00    -0.262 C  
HETATM    6  C   UNL     1     -11.662   5.977  72.155  1.00  0.00    -0.335 C  
HETATM    7  C   UNL     1     -11.102   6.093  69.136  1.00  0.00    -0.448 C  
HETATM    8  C   UNL     1      -9.686   5.651  68.813  1.00  0.00    -0.178 C  
HETATM    9  C   UNL     1      -8.858   6.718  68.060  1.00  0.00    -0.119 C  
HETATM   10  C   UNL     1      -7.870   5.952  67.171  1.00  0.00    -0.102 C  
HETATM   11  O   UNL     1      -8.061   7.543  68.910  1.00  0.00    -0.123 OA 
HETATM   12  O   UNL     1      -8.876   8.143  69.966  1.00  0.00    -0.137 OA 
HETATM   13  C   UNL     1     -10.209   8.467  69.505  1.00  0.00    -0.206 C  
HETATM   14  C   UNL     1     -10.266   8.630  67.956  1.00  0.00    -0.210 C  
HETATM   15  O   UNL     1      -9.710   9.881  67.562  1.00  0.00    -0.153 OA 
HETATM   16  O   UNL     1      -9.671   7.542  67.227  1.00  0.00    -0.147 OA 
HETATM   17  C   UNL     1     -10.448  11.014  68.040  1.00  0.00    -0.189 C  
HETATM   18  C   UNL     1     -11.954  11.958  69.895  1.00  0.00    -0.398 C  
HETATM   19  C   UNL     1     -11.377  10.696  69.246  1.00  0.00    -0.346 C  
ENDROOT
BRANCH  17  20
HETATM   20  O   UNL     1      -9.549  12.043  68.468  1.00  0.00    -0.198 OA 
HETATM   21  C   UNL     1      -8.203  11.797  68.096  1.00  0.00    -0.153 C  
ENDBRANCH  17  20
TORSDOF 1
ENDMDL
MODEL       43
REMARK 921   NORMALIZED FREE ENERGY PREDICTED BY IDOCK:   -4.96 KCAL/MOL
REMARK 922        TOTAL FREE ENERGY PREDICTED BY IDOCK:   -5.29 KCAL/MOL
REMARK 923 INTER-LIGAND FREE ENERGY PREDICTED BY IDOCK:   -5.13 KCAL/MOL
REMARK 924 INTRA-LIGAND FREE ENERGY PREDICTED BY IDOCK:   -0.15 KCAL/MOL
REMARK 927      BINDING AFFINITY PREDICTED BY RF-SCORE:    0.00 PKD
ROOT
HETATM    1  C   UNL     1     -11.988  10.615  69.963  1.00  0.00    -0.408 C  
HETATM    2  C   UNL     1     -11.871  11.939  69.172  1.00  0.00    -0.371 C  
HETATM    3  C   UNL     1     -11.185  11.767  67.813  1.00  0.00    -0.331 C  
HETATM    4  C   UNL     1      -9.794  11.096  67.915  1.00  0.00    -0.187 C  
HETATM    5  C   UNL     1      -9.526  10.585  69.364  1.00  0.00    -0.158 C  
HETATM    6  C   UNL     1      -8.692  12.004  67.375  1.00  0.00    -0.170 C  
HETATM    7  C   UNL     1      -8.189   9.867  69.524  1.00  0.00    -0.163 C  
HETATM    8  C   UNL     1      -8.200   8.468  68.934  1.00  0.00    -0.117 C  
HETATM    9  C   UNL     1      -9.247   7.530  69.578  1.00  0.00    -0.146 C  
HETATM   10  C   UNL     1      -8.667   6.112  69.498  1.00  0.00    -0.130 C  
HETATM   11  O   UNL     1     -10.493   7.484  68.884  1.00  0.00    -0.209 OA 
HETATM   12  O   UNL     1     -11.029   8.831  68.684  1.00  0.00    -0.039 OA 
HETATM   13  C   UNL     1     -10.732   9.703  69.801  1.00  0.00    -0.245 C  
HETATM   14  C   UNL     1     -10.445   8.901  71.106  1.00  0.00    -0.266 C  
HETATM   15  O   UNL     1     -11.658   8.414  71.672  1.00  0.00    -0.260 OA 
HETATM   16  O   UNL     1      -9.481   7.845  70.950  1.00  0.00    -0.156 OA 
HETATM   17  C   UNL     1     -12.545   9.452  72.111  1.00  0.00    -0.348 C  
HETATM   18  C   UNL     1     -13.362  11.862  71.751  1.00  0.00    -0.334 C  
HETATM   19  C   UNL     1     -12.256  10.839  71.468  1.00  0.00    -0.302 C  
ENDROOT
BRANCH  17  20
HETATM   20  O   UNL     1     -13.898   9.115  71.782  1.00  0.00    -0.389 OA 
HETATM   21  C   UNL     1     -14.081   7.733  71.526  1.00  0.00    -0.404 C  
ENDBRANCH  17  20
TORSDOF 1
ENDMDL
MODEL       44
REMARK 921   NORMALIZED FREE ENERGY PREDICTED BY IDOCK:   -4.92 KCAL/MOL
REMARK 922        TOTAL FREE ENERGY PREDICTED BY IDOCK:   -5.24 KCAL/MOL
REMARK 923 INTER-LIGAND FREE ENERGY PREDICTED BY IDOCK:   -5.15 KCAL/MOL
REMARK 924 INTRA-LIGAND FREE ENERGY PREDICTED BY IDOCK:   -0.09 KCAL/MOL
REMARK 927      BINDING AFFINITY PREDICTED BY RF-SCORE:    0.00 PKD
ROOT
HETATM    1  C   UNL     1     -11.380  11.506  66.970  1.00  0.00    -0.340 C  
HETATM    2  C   UNL     1     -11.619  12.419  65.744  1.00  0.00    -0.449 C  
HETATM    3  C   UNL     1     -11.488  11.678  64.410  1.00  0.00    -0.302 C  
HETATM    4  C   UNL     1     -10.138  10.939  64.255  1.00  0.00    -0.413 C  
HETATM    5  C   UNL     1      -9.326  10.974  65.586  1.00  0.00    -0.239 C  
HETATM    6  C   UNL     1      -9.354  11.449  63.049  1.00  0.00    -0.344 C  
HETATM    7  C   UNL     1      -8.001  10.219  65.517  1.00  0.00    -0.151 C  
HETATM    8  C   UNL     1      -8.182   8.712  65.561  1.00  0.00    -0.135 C  
HETATM    9  C   UNL     1      -8.875   8.207  66.848  1.00  0.00    -0.131 C  
HETATM   10  C   UNL     1      -8.316   6.804  67.119  1.00  0.00    -0.121 C  
HETATM   11  O   UNL     1     -10.288   8.049  66.725  1.00  0.00    -0.311 OA 
HETATM   12  O   UNL     1     -10.909   9.277  66.229  1.00  0.00     0.129 OA 
HETATM   13  C   UNL     1     -10.245  10.461  66.732  1.00  0.00    -0.226 C  
HETATM   14  C   UNL     1      -9.459  10.174  68.047  1.00  0.00    -0.145 C  
HETATM   15  O   UNL     1     -10.352  10.074  69.153  1.00  0.00    -0.191 OA 
HETATM   16  O   UNL     1      -8.587   9.033  67.975  1.00  0.00    -0.128 OA 
HETATM   17  C   UNL     1     -11.046  11.295  69.443  1.00  0.00    -0.257 C  
HETATM   18  C   UNL     1     -12.026  13.475  68.501  1.00  0.00    -0.379 C  
HETATM   19  C   UNL     1     -11.071  12.301  68.258  1.00  0.00    -0.282 C  
ENDROOT
BRANCH  17  20
HETATM   20  O   UNL     1     -12.410  11.017  69.782  1.00  0.00    -0.321 OA 
HETATM   21  C   UNL     1     -12.656  11.049  71.177  1.00  0.00    -0.418 C  
ENDBRANCH  17  20
TORSDOF 1
ENDMDL
MODEL       45
REMARK 921   NORMALIZED FREE ENERGY PREDICTED BY IDOCK:   -4.91 KCAL/MOL
REMARK 922        TOTAL FREE ENERGY PREDICTED BY IDOCK:   -5.24 KCAL/MOL
REMARK 923 INTER-LIGAND FREE ENERGY PREDICTED BY IDOCK:   -5.13 KCAL/MOL
REMARK 924 INTRA-LIGAND FREE ENERGY PREDICTED BY IDOCK:   -0.11 KCAL/MOL
REMARK 927      BINDING AFFINITY PREDICTED BY RF-SCORE:    0.00 PKD
ROOT
HETATM    1  C   UNL     1      -9.948   5.699  71.241  1.00  0.00    -0.248 C  
HETATM    2  C   UNL     1      -9.803   4.231  70.777  1.00  0.00    -0.265 C  
HETATM    3  C   UNL     1      -8.925   4.082  69.530  1.00  0.00    -0.163 C  
HETATM    4  C   UNL     1      -9.396   4.959  68.346  1.00  0.00    -0.172 C  
HETATM    5  C   UNL     1     -10.537   5.926  68.788  1.00  0.00    -0.340 C  
HETATM    6  C   UNL     1      -9.753   4.112  67.127  1.00  0.00    -0.224 C  
HETATM    7  C   UNL     1     -11.017   6.857  67.678  1.00  0.00    -0.304 C  
HETATM    8  C   UNL     1     -10.042   7.987  67.398  1.00  0.00    -0.294 C  
HETATM    9  C   UNL     1      -9.786   8.903  68.617  1.00  0.00    -0.167 C  
HETATM   10  C   UNL     1      -9.489  10.299  68.057  1.00  0.00    -0.156 C  
HETATM   11  O   UNL     1      -8.642   8.539  69.389  1.00  0.00    -0.125 OA 
HETATM   12  O   UNL     1      -8.703   7.130  69.779  1.00  0.00    -0.140 OA 
HETATM   13  C   UNL     1     -10.058   6.701  70.050  1.00  0.00    -0.177 C  
HETATM   14  C   UNL     1     -10.989   7.900  70.405  1.00  0.00    -0.249 C  
HETATM   15  O   UNL     1     -10.750   8.343  71.738  1.00  0.00    -0.244 OA 
HETATM   16  O   UNL     1     -10.924   8.992  69.472  1.00  0.00    -0.207 OA 
HETATM   17  C   UNL     1     -11.075   7.365  72.735  1.00  0.00    -0.346 C  
HETATM   18  C   UNL     1     -11.245   4.865  73.306  1.00  0.00    -0.423 C  
HETATM   19  C   UNL     1     -11.151   5.911  72.189  1.00  0.00    -0.333 C  
ENDROOT
BRANCH  17  20
HETATM   20  O   UNL     1     -10.086   7.370  73.771  1.00  0.00    -0.327 OA 
HETATM   21  C   UNL     1      -8.973   8.195  73.474  1.00  0.00    -0.225 C  
ENDBRANCH  17  20
TORSDOF 1
ENDMDL
MODEL       46
REMARK 921   NORMALIZED FREE ENERGY PREDICTED BY IDOCK:   -4.90 KCAL/MOL
REMARK 922        TOTAL FREE ENERGY PREDICTED BY IDOCK:   -5.22 KCAL/MOL
REMARK 923 INTER-LIGAND FREE ENERGY PREDICTED BY IDOCK:   -5.12 KCAL/MOL
REMARK 924 INTRA-LIGAND FREE ENERGY PREDICTED BY IDOCK:   -0.10 KCAL/MOL
REMARK 927      BINDING AFFINITY PREDICTED BY RF-SCORE:    0.00 PKD
ROOT
HETATM    1  C   UNL     1     -10.440  11.421  68.187  1.00  0.00    -0.212 C  
HETATM    2  C   UNL     1     -10.955  10.946  69.565  1.00  0.00    -0.306 C  
HETATM    3  C   UNL     1     -10.142   9.782  70.140  1.00  0.00    -0.317 C  
HETATM    4  C   UNL     1     -10.040   8.576  69.177  1.00  0.00    -0.207 C  
HETATM    5  C   UNL     1     -10.631   8.928  67.778  1.00  0.00    -0.266 C  
HETATM    6  C   UNL     1     -10.640   7.314  69.793  1.00  0.00    -0.247 C  
HETATM    7  C   UNL     1     -10.519   7.795  66.761  1.00  0.00    -0.318 C  
HETATM    8  C   UNL     1      -9.109   7.627  66.225  1.00  0.00    -0.204 C  
HETATM    9  C   UNL     1      -8.565   8.881  65.501  1.00  0.00    -0.168 C  
HETATM   10  C   UNL     1      -7.601   8.375  64.421  1.00  0.00    -0.115 C  
HETATM   11  O   UNL     1      -7.797   9.748  66.336  1.00  0.00    -0.104 OA 
HETATM   12  O   UNL     1      -8.544  10.105  67.543  1.00  0.00    -0.119 OA 
HETATM   13  C   UNL     1      -9.961  10.242  67.282  1.00  0.00    -0.190 C  
HETATM   14  C   UNL     1     -10.252  10.532  65.778  1.00  0.00    -0.243 C  
HETATM   15  O   UNL     1      -9.954  11.889  65.462  1.00  0.00    -0.230 OA 
HETATM   16  O   UNL     1      -9.601   9.629  64.868  1.00  0.00    -0.277 OA 
HETATM   17  C   UNL     1     -10.786  12.835  66.148  1.00  0.00    -0.279 C  
HETATM   18  C   UNL     1     -12.155  13.342  68.262  1.00  0.00    -0.271 C  
HETATM   19  C   UNL     1     -11.483  12.258  67.413  1.00  0.00    -0.422 C  
ENDROOT
BRANCH  17  20
HETATM   20  O   UNL     1     -10.007  13.956  66.577  1.00  0.00    -0.269 OA 
HETATM   21  C   UNL     1      -9.928  14.985  65.605  1.00  0.00    -0.355 C  
ENDBRANCH  17  20
TORSDOF 1
ENDMDL
MODEL       47
REMARK 921   NORMALIZED FREE ENERGY PREDICTED BY IDOCK:   -4.89 KCAL/MOL
REMARK 922        TOTAL FREE ENERGY PREDICTED BY IDOCK:   -5.21 KCAL/MOL
REMARK 923 INTER-LIGAND FREE ENERGY PREDICTED BY IDOCK:   -5.04 KCAL/MOL
REMARK 924 INTRA-LIGAND FREE ENERGY PREDICTED BY IDOCK:   -0.17 KCAL/MOL
REMARK 927      BINDING AFFINITY PREDICTED BY RF-SCORE:    0.00 PKD
ROOT
HETATM    1  C   UNL     1     -10.132   7.374  71.778  1.00  0.00    -0.197 C  
HETATM    2  C   UNL     1     -11.136   7.903  72.828  1.00  0.00    -0.462 C  
HETATM    3  C   UNL     1     -12.467   8.350  72.214  1.00  0.00    -0.417 C  
HETATM    4  C   UNL     1     -12.295   9.394  71.086  1.00  0.00    -0.386 C  
HETATM    5  C   UNL     1     -10.789   9.583  70.725  1.00  0.00    -0.386 C  
HETATM    6  C   UNL     1     -13.011  10.701  71.416  1.00  0.00    -0.545 C  
HETATM    7  C   UNL     1     -10.550  10.566  69.582  1.00  0.00    -0.281 C  
HETATM    8  C   UNL     1     -10.897   9.982  68.224  1.00  0.00    -0.286 C  
HETATM    9  C   UNL     1     -10.075   8.724  67.860  1.00  0.00    -0.207 C  
HETATM   10  C   UNL     1      -9.933   8.725  66.332  1.00  0.00    -0.346 C  
HETATM   11  O   UNL     1     -10.715   7.493  68.193  1.00  0.00    -0.174 OA 
HETATM   12  O   UNL     1     -11.121   7.480  69.599  1.00  0.00    -0.198 OA 
HETATM   13  C   UNL     1     -10.176   8.181  70.442  1.00  0.00    -0.201 C  
HETATM   14  C   UNL     1      -8.763   8.266  69.788  1.00  0.00    -0.134 C  
HETATM   15  O   UNL     1      -8.088   7.015  69.888  1.00  0.00    -0.121 OA 
HETATM   16  O   UNL     1      -8.769   8.749  68.434  1.00  0.00    -0.133 OA 
HETATM   17  C   UNL     1      -7.804   6.621  71.238  1.00  0.00    -0.102 C  
HETATM   18  C   UNL     1      -8.538   6.731  73.698  1.00  0.00    -0.149 C  
HETATM   19  C   UNL     1      -8.678   7.346  72.301  1.00  0.00    -0.138 C  
ENDROOT
BRANCH  17  20
HETATM   20  O   UNL     1      -8.032   5.217  71.399  1.00  0.00    -0.106 OA 
HETATM   21  C   UNL     1      -8.414   4.572  70.196  1.00  0.00    -0.073 C  
ENDBRANCH  17  20
TORSDOF 1
ENDMDL
MODEL       48
REMARK 921   NORMALIZED FREE ENERGY PREDICTED BY IDOCK:   -4.87 KCAL/MOL
REMARK 922        TOTAL FREE ENERGY PREDICTED BY IDOCK:   -5.19 KCAL/MOL
REMARK 923 INTER-LIGAND FREE ENERGY PREDICTED BY IDOCK:   -5.07 KCAL/MOL
REMARK 924 INTRA-LIGAND FREE ENERGY PREDICTED BY IDOCK:   -0.12 KCAL/MOL
REMARK 927      BINDING AFFINITY PREDICTED BY RF-SCORE:    0.00 PKD
ROOT
HETATM    1  C   UNL     1      -7.969  14.602  68.089  1.00  0.00    -0.136 C  
HETATM    2  C   UNL     1      -7.059  13.468  68.615  1.00  0.00    -0.106 C  
HETATM    3  C   UNL     1      -7.254  12.147  67.863  1.00  0.00    -0.102 C  
HETATM    4  C   UNL     1      -8.726  11.669  67.845  1.00  0.00    -0.154 C  
HETATM    5  C   UNL     1      -9.674  12.760  68.432  1.00  0.00    -0.186 C  
HETATM    6  C   UNL     1      -8.881  10.304  68.510  1.00  0.00    -0.127 C  
HETATM    7  C   UNL     1     -11.150  12.373  68.399  1.00  0.00    -0.288 C  
HETATM    8  C   UNL     1     -11.750  12.469  67.008  1.00  0.00    -0.437 C  
HETATM    9  C   UNL     1     -11.686  13.889  66.401  1.00  0.00    -0.383 C  
HETATM   10  C   UNL     1     -12.907  14.024  65.481  1.00  0.00    -0.453 C  
HETATM   11  O   UNL     1     -10.546  14.119  65.573  1.00  0.00    -0.296 OA 
HETATM   12  O   UNL     1      -9.311  13.782  66.282  1.00  0.00    -0.239 OA 
HETATM   13  C   UNL     1      -9.393  14.100  67.692  1.00  0.00    -0.209 C  
HETATM   14  C   UNL     1     -10.475  15.183  67.984  1.00  0.00    -0.247 C  
HETATM   15  O   UNL     1     -10.004  16.475  67.611  1.00  0.00    -0.245 OA 
HETATM   16  O   UNL     1     -11.759  14.906  67.399  1.00  0.00    -0.356 OA 
HETATM   17  C   UNL     1      -8.877  16.920  68.378  1.00  0.00    -0.244 C  
HETATM   18  C   UNL     1      -6.776  16.233  69.688  1.00  0.00    -0.154 C  
HETATM   19  C   UNL     1      -8.109  15.771  69.091  1.00  0.00    -0.237 C  
ENDROOT
BRANCH  17  20
HETATM   20  O   UNL     1      -7.935  17.584  67.529  1.00  0.00    -0.196 OA 
HETATM   21  C   UNL     1      -8.547  18.451  66.588  1.00  0.00    -0.278 C  
ENDBRANCH  17  20
TORSDOF 1
ENDMDL
MODEL       49
REMARK 921   NORMALIZED FREE ENERGY PREDICTED BY IDOCK:   -4.85 KCAL/MOL
REMARK 922        TOTAL FREE ENERGY PREDICTED BY IDOCK:   -5.16 KCAL/MOL
REMARK 923 INTER-LIGAND FREE ENERGY PREDICTED BY IDOCK:   -5.03 KCAL/MOL
REMARK 924 INTRA-LIGAND FREE ENERGY PREDICTED BY IDOCK:   -0.13 KCAL/MOL
REMARK 927      BINDING AFFINITY PREDICTED BY RF-SCORE:    0.00 PKD
ROOT
HETATM    1  C   UNL     1      -9.709   7.758  71.354  1.00  0.00    -0.194 C  
HETATM    2  C   UNL     1     -10.717   7.258  72.415  1.00  0.00    -0.283 C  
HETATM    3  C   UNL     1     -12.161   7.230  71.902  1.00  0.00    -0.349 C  
HETATM    4  C   UNL     1     -12.631   8.590  71.335  1.00  0.00    -0.309 C  
HETATM    5  C   UNL     1     -11.446   9.599  71.249  1.00  0.00    -0.463 C  
HETATM    6  C   UNL     1     -13.837   9.130  72.100  1.00  0.00    -0.508 C  
HETATM    7  C   UNL     1     -11.831  10.950  70.651  1.00  0.00    -0.453 C  
HETATM    8  C   UNL     1     -12.012  10.893  69.145  1.00  0.00    -0.359 C  
HETATM    9  C   UNL     1     -10.740  10.456  68.382  1.00  0.00    -0.225 C  
HETATM   10  C   UNL     1     -10.790  11.156  67.018  1.00  0.00    -0.338 C  
HETATM   11  O   UNL     1     -10.680   9.058  68.103  1.00  0.00    -0.195 OA 
HETATM   12  O   UNL     1     -10.870   8.274  69.323  1.00  0.00    -0.171 OA 
HETATM   13  C   UNL     1     -10.279   8.917  70.478  1.00  0.00    -0.204 C  
HETATM   14  C   UNL     1      -9.159   9.923  70.075  1.00  0.00    -0.178 C  
HETATM   15  O   UNL     1      -7.966   9.229  69.718  1.00  0.00    -0.083 OA 
HETATM   16  O   UNL     1      -9.545  10.856  69.052  1.00  0.00    -0.200 OA 
HETATM   17  C   UNL     1      -7.379   8.499  70.804  1.00  0.00    -0.066 C  
HETATM   18  C   UNL     1      -7.794   7.218  72.992  1.00  0.00    -0.113 C  
HETATM   19  C   UNL     1      -8.365   8.208  71.971  1.00  0.00    -0.199 C  
ENDROOT
BRANCH  17  20
HETATM   20  O   UNL     1      -6.897   7.232  70.341  1.00  0.00    -0.051 OA 
HETATM   21  C   UNL     1      -7.204   6.982  68.980  1.00  0.00    -0.091 C  
ENDBRANCH  17  20
TORSDOF 1
ENDMDL
MODEL       50
REMARK 921   NORMALIZED FREE ENERGY PREDICTED BY IDOCK:   -4.84 KCAL/MOL
REMARK 922        TOTAL FREE ENERGY PREDICTED BY IDOCK:   -5.16 KCAL/MOL
REMARK 923 INTER-LIGAND FREE ENERGY PREDICTED BY IDOCK:   -5.02 KCAL/MOL
REMARK 924 INTRA-LIGAND FREE ENERGY PREDICTED BY IDOCK:   -0.14 KCAL/MOL
REMARK 927      BINDING AFFINITY PREDICTED BY RF-SCORE:    0.00 PKD
ROOT
HETATM    1  C   UNL     1     -10.119  12.067  66.095  1.00  0.00    -0.252 C  
HETATM    2  C   UNL     1      -9.460  10.713  66.446  1.00  0.00    -0.204 C  
HETATM    3  C   UNL     1      -9.106  10.586  67.931  1.00  0.00    -0.136 C  
HETATM    4  C   UNL     1      -8.222  11.746  68.447  1.00  0.00    -0.154 C  
HETATM    5  C   UNL     1      -8.075  12.860  67.365  1.00  0.00    -0.181 C  
HETATM    6  C   UNL     1      -6.886  11.238  68.983  1.00  0.00    -0.099 C  
HETATM    7  C   UNL     1      -7.253  14.060  67.826  1.00  0.00    -0.175 C  
HETATM    8  C   UNL     1      -8.016  14.961  68.782  1.00  0.00    -0.156 C  
HETATM    9  C   UNL     1      -9.307  15.558  68.176  1.00  0.00    -0.197 C  
HETATM   10  C   UNL     1      -9.510  16.922  68.847  1.00  0.00    -0.241 C  
HETATM   11  O   UNL     1     -10.486  14.804  68.457  1.00  0.00    -0.236 OA 
HETATM   12  O   UNL     1     -10.311  13.403  68.074  1.00  0.00    -0.229 OA 
HETATM   13  C   UNL     1      -9.500  13.263  66.884  1.00  0.00    -0.249 C  
HETATM   14  C   UNL     1      -9.496  14.564  66.025  1.00  0.00    -0.229 C  
HETATM   15  O   UNL     1     -10.719  14.693  65.306  1.00  0.00    -0.329 OA 
HETATM   16  O   UNL     1      -9.198  15.759  66.768  1.00  0.00    -0.214 OA 
HETATM   17  C   UNL     1     -10.926  13.658  64.335  1.00  0.00    -0.366 C  
HETATM   18  C   UNL     1     -10.492  11.208  63.694  1.00  0.00    -0.438 C  
HETATM   19  C   UNL     1     -10.070  12.383  64.583  1.00  0.00    -0.266 C  
ENDROOT
BRANCH  17  20
HETATM   20  O   UNL     1     -12.298  13.245  64.342  1.00  0.00    -0.483 OA 
HETATM   21  C   UNL     1     -13.069  13.889  65.342  1.00  0.00    -0.189 C  
ENDBRANCH  17  20
TORSDOF 1
ENDMDL
MODEL       51
REMARK 921   NORMALIZED FREE ENERGY PREDICTED BY IDOCK:   -4.83 KCAL/MOL
REMARK 922        TOTAL FREE ENERGY PREDICTED BY IDOCK:   -5.15 KCAL/MOL
REMARK 923 INTER-LIGAND FREE ENERGY PREDICTED BY IDOCK:   -4.98 KCAL/MOL
REMARK 924 INTRA-LIGAND FREE ENERGY PREDICTED BY IDOCK:   -0.16 KCAL/MOL
REMARK 927      BINDING AFFINITY PREDICTED BY RF-SCORE:    0.00 PKD
ROOT
HETATM    1  C   UNL     1     -10.042   7.403  68.684  1.00  0.00    -0.186 C  
HETATM    2  C   UNL     1     -10.353   8.739  67.970  1.00  0.00    -0.273 C  
HETATM    3  C   UNL     1     -10.100   9.964  68.854  1.00  0.00    -0.194 C  
HETATM    4  C   UNL     1     -10.853   9.906  70.204  1.00  0.00    -0.356 C  
HETATM    5  C   UNL     1     -11.530   8.515  70.406  1.00  0.00    -0.135 C  
HETATM    6  C   UNL     1     -11.816  11.080  70.360  1.00  0.00    -0.460 C  
HETATM    7  C   UNL     1     -12.252   8.372  71.743  1.00  0.00    -0.377 C  
HETATM    8  C   UNL     1     -11.296   8.179  72.907  1.00  0.00    -0.301 C  
HETATM    9  C   UNL     1     -10.412   6.917  72.783  1.00  0.00    -0.224 C  
HETATM   10  C   UNL     1     -10.133   6.440  74.214  1.00  0.00    -0.365 C  
HETATM   11  O   UNL     1      -9.134   7.156  72.194  1.00  0.00    -0.130 OA 
HETATM   12  O   UNL     1      -9.273   7.843  70.910  1.00  0.00    -0.150 OA 
HETATM   13  C   UNL     1     -10.453   7.413  70.190  1.00  0.00    -0.220 C  
HETATM   14  C   UNL     1     -10.936   6.005  70.652  1.00  0.00    -0.307 C  
HETATM   15  O   UNL     1     -10.102   4.985  70.108  1.00  0.00    -0.232 OA 
HETATM   16  O   UNL     1     -11.069   5.866  72.077  1.00  0.00    -0.254 OA 
HETATM   17  C   UNL     1     -10.156   4.900  68.678  1.00  0.00    -0.088 C  
HETATM   18  C   UNL     1     -10.508   6.168  66.471  1.00  0.00    -0.195 C  
HETATM   19  C   UNL     1     -10.697   6.186  67.991  1.00  0.00    -0.370 C  
ENDROOT
BRANCH  17  20
HETATM   20  O   UNL     1      -8.847   4.666  68.148  1.00  0.00    -0.102 OA 
HETATM   21  C   UNL     1      -7.918   4.235  69.129  1.00  0.00    -0.060 C  
ENDBRANCH  17  20
TORSDOF 1
ENDMDL
MODEL       52
REMARK 921   NORMALIZED FREE ENERGY PREDICTED BY IDOCK:   -4.81 KCAL/MOL
REMARK 922        TOTAL FREE ENERGY PREDICTED BY IDOCK:   -5.13 KCAL/MOL
REMARK 923 INTER-LIGAND FREE ENERGY PREDICTED BY IDOCK:   -4.99 KCAL/MOL
REMARK 924 INTRA-LIGAND FREE ENERGY PREDICTED BY IDOCK:   -0.14 KCAL/MOL
REMARK 927      BINDING AFFINITY PREDICTED BY RF-SCORE:    0.00 PKD
ROOT
HETATM    1  C   UNL     1     -10.224  14.785  66.395  1.00  0.00    -0.299 C  
HETATM    2  C   UNL     1     -11.237  15.570  65.530  1.00  0.00    -0.188 C  
HETATM    3  C   UNL     1     -10.660  16.872  64.965  1.00  0.00     0.004 C  
HETATM    4  C   UNL     1     -10.074  17.801  66.055  1.00  0.00    -0.254 C  
HETATM    5  C   UNL     1     -10.043  17.086  67.440  1.00  0.00    -0.291 C  
HETATM    6  C   UNL     1     -10.784  19.152  66.082  1.00  0.00    -0.442 C  
HETATM    7  C   UNL     1      -9.430  17.930  68.554  1.00  0.00    -0.316 C  
HETATM    8  C   UNL     1      -7.917  18.014  68.461  1.00  0.00    -0.310 C  
HETATM    9  C   UNL     1      -7.212  16.642  68.554  1.00  0.00    -0.183 C  
HETATM   10  C   UNL     1      -5.848  16.897  69.207  1.00  0.00    -0.171 C  
HETATM   11  O   UNL     1      -6.934  16.043  67.288  1.00  0.00    -0.171 OA 
HETATM   12  O   UNL     1      -8.143  15.971  66.469  1.00  0.00    -0.269 OA 
HETATM   13  C   UNL     1      -9.324  15.717  67.267  1.00  0.00    -0.215 C  
HETATM   14  C   UNL     1      -8.973  15.047  68.630  1.00  0.00    -0.186 C  
HETATM   15  O   UNL     1      -8.669  13.667  68.447  1.00  0.00    -0.176 OA 
HETATM   16  O   UNL     1      -7.935  15.718  69.365  1.00  0.00    -0.229 OA 
HETATM   17  C   UNL     1      -9.780  12.892  67.975  1.00  0.00    -0.224 C  
HETATM   18  C   UNL     1     -11.945  12.878  66.593  1.00  0.00    -0.436 C  
HETATM   19  C   UNL     1     -10.901  13.740  67.310  1.00  0.00    -0.292 C  
ENDROOT
BRANCH  17  20
HETATM   20  O   UNL     1      -9.338  11.946  66.995  1.00  0.00    -0.179 OA 
HETATM   21  C   UNL     1      -7.974  11.587  67.142  1.00  0.00    -0.160 C  
ENDBRANCH  17  20
TORSDOF 1
ENDMDL
MODEL       53
REMARK 921   NORMALIZED FREE ENERGY PREDICTED BY IDOCK:   -4.75 KCAL/MOL
REMARK 922        TOTAL FREE ENERGY PREDICTED BY IDOCK:   -5.07 KCAL/MOL
REMARK 923 INTER-LIGAND FREE ENERGY PREDICTED BY IDOCK:   -5.01 KCAL/MOL
REMARK 924 INTRA-LIGAND FREE ENERGY PREDICTED BY IDOCK:   -0.06 KCAL/MOL
REMARK 927      BINDING AFFINITY PREDICTED BY RF-SCORE:    0.00 PKD
ROOT
HETATM    1  C   UNL     1     -10.766  14.960  66.572  1.00  0.00    -0.309 C  
HETATM    2  C   UNL     1     -11.674  13.782  66.149  1.00  0.00    -0.392 C  
HETATM    3  C   UNL     1     -11.729  12.662  67.194  1.00  0.00    -0.438 C  
HETATM    4  C   UNL     1     -10.331  12.129  67.587  1.00  0.00    -0.215 C  
HETATM    5  C   UNL     1      -9.203  13.005  66.960  1.00  0.00    -0.232 C  
HETATM    6  C   UNL     1     -10.190  10.641  67.276  1.00  0.00    -0.250 C  
HETATM    7  C   UNL     1      -7.794  12.562  67.348  1.00  0.00    -0.175 C  
HETATM    8  C   UNL     1      -7.430  12.947  68.771  1.00  0.00    -0.047 C  
HETATM    9  C   UNL     1      -7.465  14.471  69.031  1.00  0.00    -0.131 C  
HETATM   10  C   UNL     1      -6.410  14.753  70.107  1.00  0.00    -0.169 C  
HETATM   11  O   UNL     1      -8.703  14.943  69.564  1.00  0.00    -0.109 OA 
HETATM   12  O   UNL     1      -9.826  14.514  68.730  1.00  0.00    -0.224 OA 
HETATM   13  C   UNL     1      -9.481  14.492  67.325  1.00  0.00    -0.217 C  
HETATM   14  C   UNL     1      -8.271  15.422  67.007  1.00  0.00    -0.236 C  
HETATM   15  O   UNL     1      -8.679  16.788  66.996  1.00  0.00    -0.190 OA 
HETATM   16  O   UNL     1      -7.135  15.224  67.865  1.00  0.00    -0.114 OA 
HETATM   17  C   UNL     1      -9.616  17.099  65.956  1.00  0.00    -0.163 C  
HETATM   18  C   UNL     1     -11.521  16.235  64.464  1.00  0.00    -0.171 C  
HETATM   19  C   UNL     1     -10.354  15.856  65.382  1.00  0.00    -0.399 C  
ENDROOT
BRANCH  17  20
HETATM   20  O   UNL     1     -10.623  17.988  66.451  1.00  0.00    -0.339 OA 
HETATM   21  C   UNL     1     -10.477  19.316  65.975  1.00  0.00    -0.487 C  
ENDBRANCH  17  20
TORSDOF 1
ENDMDL
MODEL       54
REMARK 921   NORMALIZED FREE ENERGY PREDICTED BY IDOCK:   -4.74 KCAL/MOL
REMARK 922        TOTAL FREE ENERGY PREDICTED BY IDOCK:   -5.05 KCAL/MOL
REMARK 923 INTER-LIGAND FREE ENERGY PREDICTED BY IDOCK:   -4.88 KCAL/MOL
REMARK 924 INTRA-LIGAND FREE ENERGY PREDICTED BY IDOCK:   -0.17 KCAL/MOL
REMARK 927      BINDING AFFINITY PREDICTED BY RF-SCORE:    0.00 PKD
ROOT
HETATM    1  C   UNL     1     -10.111   9.754  68.904  1.00  0.00    -0.194 C  
HETATM    2  C   UNL     1     -10.561  10.096  70.343  1.00  0.00    -0.287 C  
HETATM    3  C   UNL     1      -9.936   9.181  71.401  1.00  0.00    -0.373 C  
HETATM    4  C   UNL     1     -10.176   7.678  71.123  1.00  0.00    -0.207 C  
HETATM    5  C   UNL     1     -10.831   7.467  69.724  1.00  0.00    -0.234 C  
HETATM    6  C   UNL     1     -10.944   7.013  72.262  1.00  0.00    -0.279 C  
HETATM    7  C   UNL     1     -11.053   6.001  69.364  1.00  0.00    -0.445 C  
HETATM    8  C   UNL     1      -9.768   5.294  68.971  1.00  0.00    -0.217 C  
HETATM    9  C   UNL     1      -9.068   5.915  67.740  1.00  0.00    -0.109 C  
HETATM   10  C   UNL     1      -8.342   4.767  67.027  1.00  0.00    -0.106 C  
HETATM   11  O   UNL     1      -8.061   6.873  68.065  1.00  0.00    -0.113 OA 
HETATM   12  O   UNL     1      -8.590   7.903  68.959  1.00  0.00    -0.133 OA 
HETATM   13  C   UNL     1      -9.972   8.217  68.665  1.00  0.00    -0.190 C  
HETATM   14  C   UNL     1     -10.358   7.838  67.203  1.00  0.00    -0.319 C  
HETATM   15  O   UNL     1      -9.834   8.791  66.283  1.00  0.00    -0.268 OA 
HETATM   16  O   UNL     1      -9.997   6.497  66.828  1.00  0.00    -0.162 OA 
HETATM   17  C   UNL     1     -10.387  10.105  66.439  1.00  0.00    -0.188 C  
HETATM   18  C   UNL     1     -11.397  11.822  68.062  1.00  0.00    -0.355 C  
HETATM   19  C   UNL     1     -11.046  10.349  67.827  1.00  0.00    -0.365 C  
ENDROOT
BRANCH  17  20
HETATM   20  O   UNL     1      -9.361  11.092  66.287  1.00  0.00    -0.183 OA 
HETATM   21  C   UNL     1      -8.118  10.546  65.878  1.00  0.00    -0.154 C  
ENDBRANCH  17  20
TORSDOF 1
ENDMDL
MODEL       55
REMARK 921   NORMALIZED FREE ENERGY PREDICTED BY IDOCK:   -4.73 KCAL/MOL
REMARK 922        TOTAL FREE ENERGY PREDICTED BY IDOCK:   -5.04 KCAL/MOL
REMARK 923 INTER-LIGAND FREE ENERGY PREDICTED BY IDOCK:   -4.87 KCAL/MOL
REMARK 924 INTRA-LIGAND FREE ENERGY PREDICTED BY IDOCK:   -0.17 KCAL/MOL
REMARK 927      BINDING AFFINITY PREDICTED BY RF-SCORE:    0.00 PKD
ROOT
HETATM    1  C   UNL     1     -10.554   9.267  70.068  1.00  0.00    -0.256 C  
HETATM    2  C   UNL     1     -11.414  10.384  70.702  1.00  0.00    -0.438 C  
HETATM    3  C   UNL     1     -12.280  11.127  69.679  1.00  0.00    -0.360 C  
HETATM    4  C   UNL     1     -11.465  11.704  68.497  1.00  0.00    -0.358 C  
HETATM    5  C   UNL     1      -9.986  11.212  68.546  1.00  0.00    -0.204 C  
HETATM    6  C   UNL     1     -11.600  13.222  68.410  1.00  0.00    -0.372 C  
HETATM    7  C   UNL     1      -9.136  11.705  67.379  1.00  0.00    -0.169 C  
HETATM    8  C   UNL     1      -9.434  10.969  66.085  1.00  0.00    -0.230 C  
HETATM    9  C   UNL     1      -9.177   9.446  66.162  1.00  0.00    -0.190 C  
HETATM   10  C   UNL     1      -8.761   9.003  64.754  1.00  0.00    -0.187 C  
HETATM   11  O   UNL     1     -10.334   8.676  66.489  1.00  0.00    -0.282 OA 
HETATM   12  O   UNL     1     -10.966   9.178  67.709  1.00  0.00    -0.160 OA 
HETATM   13  C   UNL     1      -9.992   9.660  68.665  1.00  0.00    -0.165 C  
HETATM   14  C   UNL     1      -8.583   9.036  68.427  1.00  0.00    -0.130 C  
HETATM   15  O   UNL     1      -8.543   7.693  68.902  1.00  0.00    -0.128 OA 
HETATM   16  O   UNL     1      -8.123   9.123  67.067  1.00  0.00    -0.108 OA 
HETATM   17  C   UNL     1      -8.718   7.580  70.321  1.00  0.00    -0.145 C  
HETATM   18  C   UNL     1      -9.788   8.583  72.431  1.00  0.00    -0.358 C  
HETATM   19  C   UNL     1      -9.382   8.826  70.974  1.00  0.00    -0.280 C  
ENDROOT
BRANCH  17  20
HETATM   20  O   UNL     1      -9.553   6.457  70.626  1.00  0.00    -0.171 OA 
HETATM   21  C   UNL     1      -9.836   5.650  69.496  1.00  0.00    -0.180 C  
ENDBRANCH  17  20
TORSDOF 1
ENDMDL
MODEL       56
REMARK 921   NORMALIZED FREE ENERGY PREDICTED BY IDOCK:   -4.73 KCAL/MOL
REMARK 922        TOTAL FREE ENERGY PREDICTED BY IDOCK:   -5.04 KCAL/MOL
REMARK 923 INTER-LIGAND FREE ENERGY PREDICTED BY IDOCK:   -4.94 KCAL/MOL
REMARK 924 INTRA-LIGAND FREE ENERGY PREDICTED BY IDOCK:   -0.11 KCAL/MOL
REMARK 927      BINDING AFFINITY PREDICTED BY RF-SCORE:    0.00 PKD
ROOT
HETATM    1  C   UNL     1     -11.010   6.848  72.073  1.00  0.00    -0.266 C  
HETATM    2  C   UNL     1     -11.651   8.072  72.767  1.00  0.00    -0.390 C  
HETATM    3  C   UNL     1     -12.538   8.896  71.828  1.00  0.00    -0.420 C  
HETATM    4  C   UNL     1     -11.807   9.349  70.542  1.00  0.00    -0.207 C  
HETATM    5  C   UNL     1     -10.401   8.683  70.436  1.00  0.00    -0.225 C  
HETATM    6  C   UNL     1     -11.771  10.871  70.423  1.00  0.00    -0.444 C  
HETATM    7  C   UNL     1      -9.643   9.049  69.163  1.00  0.00    -0.161 C  
HETATM    8  C   UNL     1     -10.177   8.332  67.936  1.00  0.00    -0.276 C  
HETATM    9  C   UNL     1     -10.095   6.791  68.031  1.00  0.00    -0.159 C  
HETATM   10  C   UNL     1      -9.904   6.276  66.599  1.00  0.00    -0.201 C  
HETATM   11  O   UNL     1     -11.288   6.173  68.513  1.00  0.00    -0.289 OA 
HETATM   12  O   UNL     1     -11.707   6.768  69.782  1.00  0.00    -0.270 OA 
HETATM   13  C   UNL     1     -10.576   7.145  70.603  1.00  0.00    -0.225 C  
HETATM   14  C   UNL     1      -9.289   6.351  70.224  1.00  0.00    -0.158 C  
HETATM   15  O   UNL     1      -9.352   5.022  70.734  1.00  0.00    -0.141 OA 
HETATM   16  O   UNL     1      -8.986   6.358  68.818  1.00  0.00    -0.127 OA 
HETATM   17  C   UNL     1      -9.370   4.956  72.166  1.00  0.00    -0.136 C  
HETATM   18  C   UNL     1     -10.056   6.118  74.353  1.00  0.00    -0.337 C  
HETATM   19  C   UNL     1      -9.799   6.285  72.851  1.00  0.00    -0.174 C  
ENDROOT
BRANCH  17  20
HETATM   20  O   UNL     1     -10.289   3.948  72.601  1.00  0.00    -0.164 OA 
HETATM   21  C   UNL     1      -9.949   2.650  72.146  1.00  0.00    -0.166 C  
ENDBRANCH  17  20
TORSDOF 1
ENDMDL
MODEL       57
REMARK 921   NORMALIZED FREE ENERGY PREDICTED BY IDOCK:   -4.71 KCAL/MOL
REMARK 922        TOTAL FREE ENERGY PREDICTED BY IDOCK:   -5.02 KCAL/MOL
REMARK 923 INTER-LIGAND FREE ENERGY PREDICTED BY IDOCK:   -4.91 KCAL/MOL
REMARK 924 INTRA-LIGAND FREE ENERGY PREDICTED BY IDOCK:   -0.11 KCAL/MOL
REMARK 927      BINDING AFFINITY PREDICTED BY RF-SCORE:    0.00 PKD
ROOT
HETATM    1  C   UNL     1     -10.556  13.544  66.070  1.00  0.00    -0.285 C  
HETATM    2  C   UNL     1     -10.967  13.279  64.603  1.00  0.00    -0.384 C  
HETATM    3  C   UNL     1     -11.226  11.797  64.312  1.00  0.00    -0.414 C  
HETATM    4  C   UNL     1     -10.036  10.885  64.693  1.00  0.00    -0.369 C  
HETATM    5  C   UNL     1      -8.943  11.688  65.464  1.00  0.00     0.033 C  
HETATM    6  C   UNL     1      -9.497  10.130  63.481  1.00  0.00    -0.310 C  
HETATM    7  C   UNL     1      -7.759  10.836  65.914  1.00  0.00    -0.118 C  
HETATM    8  C   UNL     1      -8.088   9.960  67.109  1.00  0.00    -0.117 C  
HETATM    9  C   UNL     1      -8.520  10.755  68.363  1.00  0.00    -0.137 C  
HETATM   10  C   UNL     1      -8.071   9.931  69.576  1.00  0.00    -0.155 C  
HETATM   11  O   UNL     1      -9.933  10.911  68.496  1.00  0.00    -0.168 OA 
HETATM   12  O   UNL     1     -10.512  11.474  67.277  1.00  0.00    -0.200 OA 
HETATM   13  C   UNL     1      -9.626  12.431  66.648  1.00  0.00    -0.229 C  
HETATM   14  C   UNL     1      -8.597  13.023  67.657  1.00  0.00    -0.190 C  
HETATM   15  O   UNL     1      -9.219  13.992  68.497  1.00  0.00    -0.198 OA 
HETATM   16  O   UNL     1      -7.894  12.036  68.430  1.00  0.00    -0.136 OA 
HETATM   17  C   UNL     1      -9.691  15.147  67.790  1.00  0.00    -0.211 C  
HETATM   18  C   UNL     1     -10.616  16.072  65.579  1.00  0.00    -0.415 C  
HETATM   19  C   UNL     1      -9.876  14.918  66.263  1.00  0.00    -0.315 C  
ENDROOT
BRANCH  17  20
HETATM   20  O   UNL     1     -10.964  15.554  68.307  1.00  0.00    -0.278 OA 
HETATM   21  C   UNL     1     -10.926  15.884  69.685  1.00  0.00    -0.319 C  
ENDBRANCH  17  20
TORSDOF 1
ENDMDL
MODEL       58
REMARK 921   NORMALIZED FREE ENERGY PREDICTED BY IDOCK:   -4.69 KCAL/MOL
REMARK 922        TOTAL FREE ENERGY PREDICTED BY IDOCK:   -5.00 KCAL/MOL
REMARK 923 INTER-LIGAND FREE ENERGY PREDICTED BY IDOCK:   -4.89 KCAL/MOL
REMARK 924 INTRA-LIGAND FREE ENERGY PREDICTED BY IDOCK:   -0.10 KCAL/MOL
REMARK 927      BINDING AFFINITY PREDICTED BY RF-SCORE:    0.00 PKD
ROOT
HETATM    1  C   UNL     1     -11.524  10.186  69.425  1.00  0.00    -0.202 C  
HETATM    2  C   UNL     1     -11.968  11.583  68.931  1.00  0.00    -0.364 C  
HETATM    3  C   UNL     1     -11.542  11.872  67.488  1.00  0.00    -0.374 C  
HETATM    4  C   UNL     1     -10.022  11.695  67.256  1.00  0.00    -0.210 C  
HETATM    5  C   UNL     1      -9.335  11.075  68.511  1.00  0.00    -0.188 C  
HETATM    6  C   UNL     1      -9.372  12.993  66.784  1.00  0.00    -0.244 C  
HETATM    7  C   UNL     1      -7.839  10.828  68.332  1.00  0.00    -0.120 C  
HETATM    8  C   UNL     1      -7.545   9.620  67.461  1.00  0.00    -0.095 C  
HETATM    9  C   UNL     1      -8.113   8.296  68.020  1.00  0.00    -0.127 C  
HETATM   10  C   UNL     1      -7.162   7.185  67.558  1.00  0.00    -0.090 C  
HETATM   11  O   UNL     1      -9.399   7.950  67.504  1.00  0.00    -0.140 OA 
HETATM   12  O   UNL     1     -10.343   9.055  67.674  1.00  0.00    -0.226 OA 
HETATM   13  C   UNL     1     -10.109   9.783  68.903  1.00  0.00    -0.183 C  
HETATM   14  C   UNL     1      -9.344   8.923  69.954  1.00  0.00    -0.166 C  
HETATM   15  O   UNL     1     -10.220   7.974  70.558  1.00  0.00    -0.196 OA 
HETATM   16  O   UNL     1      -8.158   8.288  69.446  1.00  0.00    -0.111 OA 
HETATM   17  C   UNL     1     -11.274   8.572  71.325  1.00  0.00    -0.265 C  
HETATM   18  C   UNL     1     -12.831  10.596  71.607  1.00  0.00    -0.570 C  
HETATM   19  C   UNL     1     -11.547  10.060  70.965  1.00  0.00    -0.476 C  
ENDROOT
BRANCH  17  20
HETATM   20  O   UNL     1     -12.500   7.862  71.114  1.00  0.00    -0.288 OA 
HETATM   21  C   UNL     1     -12.599   6.678  71.888  1.00  0.00    -0.256 C  
ENDBRANCH  17  20
TORSDOF 1
ENDMDL
MODEL       59
REMARK 921   NORMALIZED FREE ENERGY PREDICTED BY IDOCK:   -4.68 KCAL/MOL
REMARK 922        TOTAL FREE ENERGY PREDICTED BY IDOCK:   -4.99 KCAL/MOL
REMARK 923 INTER-LIGAND FREE ENERGY PREDICTED BY IDOCK:   -4.82 KCAL/MOL
REMARK 924 INTRA-LIGAND FREE ENERGY PREDICTED BY IDOCK:   -0.17 KCAL/MOL
REMARK 927      BINDING AFFINITY PREDICTED BY RF-SCORE:    0.00 PKD
ROOT
HETATM    1  C   UNL     1      -9.610   5.244  70.112  1.00  0.00    -0.241 C  
HETATM    2  C   UNL     1      -9.244   4.059  71.034  1.00  0.00    -0.203 C  
HETATM    3  C   UNL     1     -10.265   3.834  72.154  1.00  0.00    -0.179 C  
HETATM    4  C   UNL     1     -10.520   5.099  73.007  1.00  0.00    -0.254 C  
HETATM    5  C   UNL     1      -9.815   6.343  72.385  1.00  0.00    -0.176 C  
HETATM    6  C   UNL     1     -10.166   4.868  74.474  1.00  0.00    -0.302 C  
HETATM    7  C   UNL     1     -10.066   7.639  73.152  1.00  0.00    -0.382 C  
HETATM    8  C   UNL     1     -11.459   8.197  72.918  1.00  0.00    -0.274 C  
HETATM    9  C   UNL     1     -11.753   8.534  71.439  1.00  0.00    -0.294 C  
HETATM   10  C   UNL     1     -12.737   9.711  71.449  1.00  0.00    -0.466 C  
HETATM   11  O   UNL     1     -12.405   7.486  70.721  1.00  0.00    -0.209 OA 
HETATM   12  O   UNL     1     -11.665   6.230  70.849  1.00  0.00    -0.333 OA 
HETATM   13  C   UNL     1     -10.235   6.445  70.890  1.00  0.00    -0.189 C  
HETATM   14  C   UNL     1      -9.831   7.806  70.246  1.00  0.00    -0.184 C  
HETATM   15  O   UNL     1      -9.885   7.723  68.824  1.00  0.00    -0.161 OA 
HETATM   16  O   UNL     1     -10.580   8.933  70.732  1.00  0.00    -0.202 OA 
HETATM   17  C   UNL     1      -8.940   6.800  68.266  1.00  0.00    -0.123 C  
HETATM   18  C   UNL     1      -7.606   4.632  68.612  1.00  0.00    -0.068 C  
HETATM   19  C   UNL     1      -8.408   5.752  69.284  1.00  0.00    -0.108 C  
ENDROOT
BRANCH  17  20
HETATM   20  O   UNL     1      -9.542   6.069  67.192  1.00  0.00    -0.117 OA 
HETATM   21  C   UNL     1     -10.863   6.494  66.900  1.00  0.00    -0.357 C  
ENDBRANCH  17  20
TORSDOF 1
ENDMDL
MODEL       60
REMARK 921   NORMALIZED FREE ENERGY PREDICTED BY IDOCK:   -4.68 KCAL/MOL
REMARK 922        TOTAL FREE ENERGY PREDICTED BY IDOCK:   -4.99 KCAL/MOL
REMARK 923 INTER-LIGAND FREE ENERGY PREDICTED BY IDOCK:   -4.89 KCAL/MOL
REMARK 924 INTRA-LIGAND FREE ENERGY PREDICTED BY IDOCK:   -0.10 KCAL/MOL
REMARK 927      BINDING AFFINITY PREDICTED BY RF-SCORE:    0.00 PKD
ROOT
HETATM    1  C   UNL     1     -11.366  10.551  68.836  1.00  0.00    -0.313 C  
HETATM    2  C   UNL     1     -11.084  11.668  67.804  1.00  0.00    -0.309 C  
HETATM    3  C   UNL     1     -10.640  11.126  66.441  1.00  0.00    -0.315 C  
HETATM    4  C   UNL     1      -9.421  10.179  66.531  1.00  0.00    -0.214 C  
HETATM    5  C   UNL     1      -9.071   9.859  68.017  1.00  0.00    -0.123 C  
HETATM    6  C   UNL     1      -8.237  10.710  65.727  1.00  0.00    -0.161 C  
HETATM    7  C   UNL     1      -7.905   8.888  68.178  1.00  0.00    -0.101 C  
HETATM    8  C   UNL     1      -8.289   7.453  67.864  1.00  0.00    -0.119 C  
HETATM    9  C   UNL     1      -9.412   6.897  68.771  1.00  0.00    -0.135 C  
HETATM   10  C   UNL     1      -9.159   5.390  68.901  1.00  0.00    -0.138 C  
HETATM   11  O   UNL     1     -10.723   7.028  68.221  1.00  0.00    -0.208 OA 
HETATM   12  O   UNL     1     -10.986   8.412  67.827  1.00  0.00    -0.061 OA 
HETATM   13  C   UNL     1     -10.364   9.360  68.726  1.00  0.00    -0.209 C  
HETATM   14  C   UNL     1     -10.076   8.735  70.125  1.00  0.00    -0.187 C  
HETATM   15  O   UNL     1     -11.277   8.638  70.887  1.00  0.00    -0.254 OA 
HETATM   16  O   UNL     1      -9.386   7.474  70.075  1.00  0.00    -0.154 OA 
HETATM   17  C   UNL     1     -11.858   9.909  71.207  1.00  0.00    -0.395 C  
HETATM   18  C   UNL     1     -12.192  12.351  70.484  1.00  0.00    -0.382 C  
HETATM   19  C   UNL     1     -11.375  11.070  70.292  1.00  0.00    -0.291 C  
ENDROOT
BRANCH  17  20
HETATM   20  O   UNL     1     -13.283   9.844  71.079  1.00  0.00    -0.373 OA 
HETATM   21  C   UNL     1     -13.889   8.981  72.027  1.00  0.00    -0.444 C  
ENDBRANCH  17  20
TORSDOF 1
ENDMDL
MODEL       61
REMARK 921   NORMALIZED FREE ENERGY PREDICTED BY IDOCK:   -4.64 KCAL/MOL
REMARK 922        TOTAL FREE ENERGY PREDICTED BY IDOCK:   -4.95 KCAL/MOL
REMARK 923 INTER-LIGAND FREE ENERGY PREDICTED BY IDOCK:   -4.80 KCAL/MOL
REMARK 924 INTRA-LIGAND FREE ENERGY PREDICTED BY IDOCK:   -0.15 KCAL/MOL
REMARK 927      BINDING AFFINITY PREDICTED BY RF-SCORE:    0.00 PKD
ROOT
HETATM    1  C   UNL     1     -10.072  12.974  65.858  1.00  0.00    -0.291 C  
HETATM    2  C   UNL     1      -9.794  14.461  65.538  1.00  0.00    -0.299 C  
HETATM    3  C   UNL     1      -9.387  15.274  66.771  1.00  0.00    -0.265 C  
HETATM    4  C   UNL     1     -10.407  15.171  67.930  1.00  0.00    -0.241 C  
HETATM    5  C   UNL     1     -11.501  14.104  67.618  1.00  0.00    -0.364 C  
HETATM    6  C   UNL     1     -10.977  16.539  68.298  1.00  0.00    -0.346 C  
HETATM    7  C   UNL     1     -12.514  13.917  68.744  1.00  0.00     0.173 C  
HETATM    8  C   UNL     1     -11.951  13.131  69.914  1.00  0.00    -0.387 C  
HETATM    9  C   UNL     1     -11.488  11.704  69.540  1.00  0.00    -0.304 C  
HETATM   10  C   UNL     1     -11.697  10.838  70.788  1.00  0.00    -0.400 C  
HETATM   11  O   UNL     1     -10.099  11.607  69.224  1.00  0.00    -0.002 OA 
HETATM   12  O   UNL     1      -9.729  12.579  68.195  1.00  0.00    -0.212 OA 
HETATM   13  C   UNL     1     -10.789  12.776  67.230  1.00  0.00    -0.251 C  
HETATM   14  C   UNL     1     -11.768  11.564  67.184  1.00  0.00    -0.055 C  
HETATM   15  O   UNL     1     -11.182  10.473  66.478  1.00  0.00    -0.033 OA 
HETATM   16  O   UNL     1     -12.255  11.151  68.472  1.00  0.00    -0.600 OA 
HETATM   17  C   UNL     1     -10.936  10.750  65.093  1.00  0.00     0.136 C  
HETATM   18  C   UNL     1     -10.378  12.540  63.336  1.00  0.00    -0.194 C  
HETATM   19  C   UNL     1     -10.891  12.267  64.754  1.00  0.00    -0.345 C  
ENDROOT
BRANCH  17  20
HETATM   20  O   UNL     1      -9.675  10.199  64.698  1.00  0.00    -0.297 OA 
HETATM   21  C   UNL     1      -9.246   9.134  65.530  1.00  0.00    -0.224 C  
ENDBRANCH  17  20
TORSDOF 1
ENDMDL
MODEL       62
REMARK 921   NORMALIZED FREE ENERGY PREDICTED BY IDOCK:   -4.58 KCAL/MOL
REMARK 922        TOTAL FREE ENERGY PREDICTED BY IDOCK:   -4.89 KCAL/MOL
REMARK 923 INTER-LIGAND FREE ENERGY PREDICTED BY IDOCK:   -4.72 KCAL/MOL
REMARK 924 INTRA-LIGAND FREE ENERGY PREDICTED BY IDOCK:   -0.17 KCAL/MOL
REMARK 927      BINDING AFFINITY PREDICTED BY RF-SCORE:    0.00 PKD
ROOT
HETATM    1  C   UNL     1      -8.747  12.717  66.958  1.00  0.00    -0.197 C  
HETATM    2  C   UNL     1      -9.747  11.935  66.076  1.00  0.00    -0.257 C  
HETATM    3  C   UNL     1     -10.517  12.833  65.102  1.00  0.00    -0.320 C  
HETATM    4  C   UNL     1     -11.245  14.005  65.802  1.00  0.00    -0.303 C  
HETATM    5  C   UNL     1     -10.848  14.089  67.307  1.00  0.00    -0.288 C  
HETATM    6  C   UNL     1     -12.753  13.947  65.571  1.00  0.00    -0.536 C  
HETATM    7  C   UNL     1     -11.494  15.257  68.049  1.00  0.00    -0.351 C  
HETATM    8  C   UNL     1     -10.854  16.591  67.711  1.00  0.00    -0.304 C  
HETATM    9  C   UNL     1      -9.350  16.666  68.062  1.00  0.00    -0.227 C  
HETATM   10  C   UNL     1      -9.058  18.131  68.410  1.00  0.00    -0.318 C  
HETATM   11  O   UNL     1      -8.481  16.341  66.976  1.00  0.00    -0.174 OA 
HETATM   12  O   UNL     1      -8.834  15.045  66.397  1.00  0.00    -0.273 OA 
HETATM   13  C   UNL     1      -9.294  14.110  67.402  1.00  0.00    -0.215 C  
HETATM   14  C   UNL     1      -8.786  14.488  68.826  1.00  0.00    -0.153 C  
HETATM   15  O   UNL     1      -7.413  14.138  68.977  1.00  0.00    -0.124 OA 
HETATM   16  O   UNL     1      -9.019  15.859  69.190  1.00  0.00    -0.229 OA 
HETATM   17  C   UNL     1      -7.168  12.727  68.903  1.00  0.00    -0.039 C  
HETATM   18  C   UNL     1      -7.914  10.475  67.916  1.00  0.00    -0.106 C  
HETATM   19  C   UNL     1      -8.307  11.926  68.211  1.00  0.00    -0.159 C  
ENDROOT
BRANCH  17  20
HETATM   20  O   UNL     1      -5.971  12.474  68.158  1.00  0.00    -0.060 OA 
HETATM   21  C   UNL     1      -5.199  13.642  67.932  1.00  0.00    -0.083 C  
ENDBRANCH  17  20
TORSDOF 1
ENDMDL
MODEL       63
REMARK 921   NORMALIZED FREE ENERGY PREDICTED BY IDOCK:   -4.57 KCAL/MOL
REMARK 922        TOTAL FREE ENERGY PREDICTED BY IDOCK:   -4.87 KCAL/MOL
REMARK 923 INTER-LIGAND FREE ENERGY PREDICTED BY IDOCK:   -4.70 KCAL/MOL
REMARK 924 INTRA-LIGAND FREE ENERGY PREDICTED BY IDOCK:   -0.17 KCAL/MOL
REMARK 927      BINDING AFFINITY PREDICTED BY RF-SCORE:    0.00 PKD
ROOT
HETATM    1  C   UNL     1      -8.656   6.438  71.614  1.00  0.00    -0.129 C  
HETATM    2  C   UNL     1      -7.310   6.978  71.076  1.00  0.00    -0.077 C  
HETATM    3  C   UNL     1      -7.164   8.494  71.240  1.00  0.00    -0.082 C  
HETATM    4  C   UNL     1      -8.333   9.289  70.612  1.00  0.00    -0.245 C  
HETATM    5  C   UNL     1      -9.469   8.331  70.139  1.00  0.00    -0.167 C  
HETATM    6  C   UNL     1      -7.844  10.240  69.522  1.00  0.00    -0.172 C  
HETATM    7  C   UNL     1     -10.678   9.054  69.551  1.00  0.00    -0.215 C  
HETATM    8  C   UNL     1     -11.545   9.705  70.615  1.00  0.00    -0.371 C  
HETATM    9  C   UNL     1     -12.126   8.705  71.641  1.00  0.00    -0.326 C  
HETATM   10  C   UNL     1     -13.473   9.281  72.094  1.00  0.00    -0.539 C  
HETATM   11  O   UNL     1     -11.342   8.565  72.826  1.00  0.00    -0.286 OA 
HETATM   12  O   UNL     1      -9.952   8.250  72.496  1.00  0.00    -0.266 OA 
HETATM   13  C   UNL     1      -9.851   7.402  71.328  1.00  0.00    -0.176 C  
HETATM   14  C   UNL     1     -11.166   6.607  71.068  1.00  0.00    -0.300 C  
HETATM   15  O   UNL     1     -11.282   5.518  71.980  1.00  0.00    -0.235 OA 
HETATM   16  O   UNL     1     -12.354   7.418  71.069  1.00  0.00    -0.318 OA 
HETATM   17  C   UNL     1     -10.260   4.525  71.821  1.00  0.00    -0.156 C  
HETATM   18  C   UNL     1      -7.832   4.045  71.133  1.00  0.00    -0.063 C  
HETATM   19  C   UNL     1      -9.000   5.034  71.066  1.00  0.00    -0.162 C  
ENDROOT
BRANCH  17  20
HETATM   20  O   UNL     1      -9.818   4.064  73.103  1.00  0.00    -0.123 OA 
HETATM   21  C   UNL     1     -10.579   4.592  74.177  1.00  0.00    -0.291 C  
ENDBRANCH  17  20
TORSDOF 1
ENDMDL
MODEL       64
REMARK 921   NORMALIZED FREE ENERGY PREDICTED BY IDOCK:   -4.55 KCAL/MOL
REMARK 922        TOTAL FREE ENERGY PREDICTED BY IDOCK:   -4.85 KCAL/MOL
REMARK 923 INTER-LIGAND FREE ENERGY PREDICTED BY IDOCK:   -4.75 KCAL/MOL
REMARK 924 INTRA-LIGAND FREE ENERGY PREDICTED BY IDOCK:   -0.10 KCAL/MOL
REMARK 927      BINDING AFFINITY PREDICTED BY RF-SCORE:    0.00 PKD
ROOT
HETATM    1  C   UNL     1      -9.553   6.691  69.105  1.00  0.00    -0.136 C  
HETATM    2  C   UNL     1      -8.904   5.339  69.481  1.00  0.00    -0.121 C  
HETATM    3  C   UNL     1      -9.756   4.513  70.450  1.00  0.00    -0.287 C  
HETATM    4  C   UNL     1     -10.134   5.285  71.736  1.00  0.00    -0.257 C  
HETATM    5  C   UNL     1      -9.713   6.783  71.631  1.00  0.00    -0.166 C  
HETATM    6  C   UNL     1      -9.603   4.589  72.986  1.00  0.00    -0.153 C  
HETATM    7  C   UNL     1     -10.102   7.617  72.850  1.00  0.00    -0.343 C  
HETATM    8  C   UNL     1     -11.584   7.941  72.889  1.00  0.00    -0.303 C  
HETATM    9  C   UNL     1     -12.077   8.750  71.667  1.00  0.00    -0.337 C  
HETATM   10  C   UNL     1     -13.238   9.621  72.162  1.00  0.00    -0.535 C  
HETATM   11  O   UNL     1     -12.610   7.948  70.614  1.00  0.00     0.048 OA 
HETATM   12  O   UNL     1     -11.662   6.905  70.222  1.00  0.00    -0.330 OA 
HETATM   13  C   UNL     1     -10.290   7.361  70.306  1.00  0.00    -0.212 C  
HETATM   14  C   UNL     1     -10.187   8.915  70.235  1.00  0.00    -0.201 C  
HETATM   15  O   UNL     1     -10.367   9.368  68.897  1.00  0.00    -0.201 OA 
HETATM   16  O   UNL     1     -11.062   9.605  71.143  1.00  0.00    -0.332 OA 
HETATM   17  C   UNL     1      -9.340   8.928  67.997  1.00  0.00    -0.142 C  
HETATM   18  C   UNL     1      -7.633   7.092  67.434  1.00  0.00    -0.109 C  
HETATM   19  C   UNL     1      -8.541   7.696  68.510  1.00  0.00    -0.129 C  
ENDROOT
BRANCH  17  20
HETATM   20  O   UNL     1      -9.914   8.556  66.739  1.00  0.00    -0.230 OA 
HETATM   21  C   UNL     1      -9.963   9.627  65.811  1.00  0.00    -0.272 C  
ENDBRANCH  17  20
TORSDOF 1
ENDMDL
MODEL       65
REMARK 921   NORMALIZED FREE ENERGY PREDICTED BY IDOCK:   -4.54 KCAL/MOL
REMARK 922        TOTAL FREE ENERGY PREDICTED BY IDOCK:   -4.84 KCAL/MOL
REMARK 923 INTER-LIGAND FREE ENERGY PREDICTED BY IDOCK:   -4.67 KCAL/MOL
REMARK 924 INTRA-LIGAND FREE ENERGY PREDICTED BY IDOCK:   -0.17 KCAL/MOL
REMARK 927      BINDING AFFINITY PREDICTED BY RF-SCORE:    0.00 PKD
ROOT
HETATM    1  C   UNL     1     -10.751  10.766  69.533  1.00  0.00    -0.268 C  
HETATM    2  C   UNL     1     -12.197  11.028  70.015  1.00  0.00    -0.418 C  
HETATM    3  C   UNL     1     -12.493  10.411  71.386  1.00  0.00    -0.521 C  
HETATM    4  C   UNL     1     -12.189   8.895  71.449  1.00  0.00    -0.374 C  
HETATM    5  C   UNL     1     -11.469   8.416  70.151  1.00  0.00     0.012 C  
HETATM    6  C   UNL     1     -13.438   8.086  71.788  1.00  0.00    -0.378 C  
HETATM    7  C   UNL     1     -11.096   6.936  70.166  1.00  0.00    -0.344 C  
HETATM    8  C   UNL     1      -9.895   6.645  71.049  1.00  0.00    -0.196 C  
HETATM    9  C   UNL     1      -8.610   7.386  70.615  1.00  0.00    -0.141 C  
HETATM   10  C   UNL     1      -7.434   6.485  71.011  1.00  0.00    -0.085 C  
HETATM   11  O   UNL     1      -8.397   8.626  71.289  1.00  0.00    -0.139 OA 
HETATM   12  O   UNL     1      -9.575   9.487  71.182  1.00  0.00    -0.213 OA 
HETATM   13  C   UNL     1     -10.240   9.338  69.905  1.00  0.00    -0.214 C  
HETATM   14  C   UNL     1      -9.282   8.779  68.810  1.00  0.00    -0.141 C  
HETATM   15  O   UNL     1      -8.396   9.798  68.352  1.00  0.00    -0.108 OA 
HETATM   16  O   UNL     1      -8.561   7.600  69.205  1.00  0.00    -0.134 OA 
HETATM   17  C   UNL     1      -9.061  10.880  67.687  1.00  0.00    -0.148 C  
HETATM   18  C   UNL     1     -11.206  12.282  67.500  1.00  0.00    -0.354 C  
HETATM   19  C   UNL     1     -10.579  10.981  68.012  1.00  0.00    -0.241 C  
ENDROOT
BRANCH  17  20
HETATM   20  O   UNL     1      -8.471  12.128  68.067  1.00  0.00    -0.153 OA 
HETATM   21  C   UNL     1      -7.248  11.976  68.768  1.00  0.00    -0.108 C  
ENDBRANCH  17  20
TORSDOF 1
ENDMDL
MODEL       66
REMARK 921   NORMALIZED FREE ENERGY PREDICTED BY IDOCK:   -4.51 KCAL/MOL
REMARK 922        TOTAL FREE ENERGY PREDICTED BY IDOCK:   -4.81 KCAL/MOL
REMARK 923 INTER-LIGAND FREE ENERGY PREDICTED BY IDOCK:   -4.68 KCAL/MOL
REMARK 924 INTRA-LIGAND FREE ENERGY PREDICTED BY IDOCK:   -0.14 KCAL/MOL
REMARK 927      BINDING AFFINITY PREDICTED BY RF-SCORE:    0.00 PKD
ROOT
HETATM    1  C   UNL     1     -10.152   6.237  70.872  1.00  0.00    -0.227 C  
HETATM    2  C   UNL     1     -10.290   4.876  70.151  1.00  0.00    -0.253 C  
HETATM    3  C   UNL     1      -9.433   4.779  68.885  1.00  0.00    -0.209 C  
HETATM    4  C   UNL     1      -9.696   5.929  67.884  1.00  0.00    -0.128 C  
HETATM    5  C   UNL     1     -10.632   7.009  68.508  1.00  0.00    -0.235 C  
HETATM    6  C   UNL     1     -10.188   5.399  66.539  1.00  0.00    -0.287 C  
HETATM    7  C   UNL     1     -10.895   8.199  67.588  1.00  0.00    -0.093 C  
HETATM    8  C   UNL     1      -9.711   9.144  67.501  1.00  0.00    -0.204 C  
HETATM    9  C   UNL     1      -9.305   9.759  68.859  1.00  0.00    -0.158 C  
HETATM   10  C   UNL     1      -8.725  11.146  68.553  1.00  0.00    -0.161 C  
HETATM   11  O   UNL     1      -8.271   9.045  69.537  1.00  0.00    -0.106 OA 
HETATM   12  O   UNL     1      -8.618   7.630  69.670  1.00  0.00    -0.133 OA 
HETATM   13  C   UNL     1     -10.037   7.437  69.880  1.00  0.00    -0.195 C  
HETATM   14  C   UNL     1     -10.720   8.714  70.457  1.00  0.00    -0.221 C  
HETATM   15  O   UNL     1     -10.425   8.856  71.844  1.00  0.00    -0.326 OA 
HETATM   16  O   UNL     1     -10.420   9.920  69.734  1.00  0.00    -0.224 OA 
HETATM   17  C   UNL     1     -10.959   7.801  72.656  1.00  0.00    -0.364 C  
HETATM   18  C   UNL     1     -11.632   5.324  72.774  1.00  0.00    -0.270 C  
HETATM   19  C   UNL     1     -11.309   6.511  71.860  1.00  0.00    -0.327 C  
ENDROOT
BRANCH  17  20
HETATM   20  O   UNL     1     -10.010   7.425  73.661  1.00  0.00    -0.305 OA 
HETATM   21  C   UNL     1      -8.780   8.121  73.553  1.00  0.00    -0.249 C  
ENDBRANCH  17  20
TORSDOF 1
ENDMDL
MODEL       67
REMARK 921   NORMALIZED FREE ENERGY PREDICTED BY IDOCK:   -4.46 KCAL/MOL
REMARK 922        TOTAL FREE ENERGY PREDICTED BY IDOCK:   -4.76 KCAL/MOL
REMARK 923 INTER-LIGAND FREE ENERGY PREDICTED BY IDOCK:   -4.73 KCAL/MOL
REMARK 924 INTRA-LIGAND FREE ENERGY PREDICTED BY IDOCK:   -0.03 KCAL/MOL
REMARK 927      BINDING AFFINITY PREDICTED BY RF-SCORE:    0.00 PKD
ROOT
HETATM    1  C   UNL     1     -10.146   8.896  67.407  1.00  0.00    -0.288 C  
HETATM    2  C   UNL     1      -9.530   7.977  66.327  1.00  0.00    -0.241 C  
HETATM    3  C   UNL     1      -9.679   6.487  66.651  1.00  0.00    -0.201 C  
HETATM    4  C   UNL     1      -9.116   6.108  68.041  1.00  0.00    -0.114 C  
HETATM    5  C   UNL     1      -8.713   7.382  68.846  1.00  0.00    -0.132 C  
HETATM    6  C   UNL     1      -7.996   5.077  67.931  1.00  0.00    -0.094 C  
HETATM    7  C   UNL     1      -8.193   7.083  70.250  1.00  0.00    -0.128 C  
HETATM    8  C   UNL     1      -9.302   6.710  71.218  1.00  0.00    -0.159 C  
HETATM    9  C   UNL     1     -10.363   7.818  71.403  1.00  0.00    -0.197 C  
HETATM   10  C   UNL     1     -10.891   7.680  72.837  1.00  0.00    -0.446 C  
HETATM   11  O   UNL     1     -11.502   7.683  70.552  1.00  0.00    -0.274 OA 
HETATM   12  O   UNL     1     -11.094   7.558  69.153  1.00  0.00    -0.069 OA 
HETATM   13  C   UNL     1      -9.925   8.357  68.855  1.00  0.00    -0.187 C  
HETATM   14  C   UNL     1      -9.745   9.527  69.870  1.00  0.00    -0.224 C  
HETATM   15  O   UNL     1     -10.667  10.578  69.593  1.00  0.00    -0.237 OA 
HETATM   16  O   UNL     1      -9.811   9.125  71.249  1.00  0.00    -0.283 OA 
HETATM   17  C   UNL     1     -10.454  11.208  68.322  1.00  0.00    -0.191 C  
HETATM   18  C   UNL     1      -9.629  10.925  65.906  1.00  0.00    -0.257 C  
HETATM   19  C   UNL     1      -9.625  10.349  67.325  1.00  0.00    -0.182 C  
ENDROOT
BRANCH  17  20
HETATM   20  O   UNL     1     -11.710  11.481  67.692  1.00  0.00    -0.538 OA 
HETATM   21  C   UNL     1     -12.014  12.864  67.630  1.00  0.00    -0.289 C  
ENDBRANCH  17  20
TORSDOF 1
ENDMDL
MODEL       68
REMARK 921   NORMALIZED FREE ENERGY PREDICTED BY IDOCK:   -4.46 KCAL/MOL
REMARK 922        TOTAL FREE ENERGY PREDICTED BY IDOCK:   -4.76 KCAL/MOL
REMARK 923 INTER-LIGAND FREE ENERGY PREDICTED BY IDOCK:   -4.65 KCAL/MOL
REMARK 924 INTRA-LIGAND FREE ENERGY PREDICTED BY IDOCK:   -0.10 KCAL/MOL
REMARK 927      BINDING AFFINITY PREDICTED BY RF-SCORE:    0.00 PKD
ROOT
HETATM    1  C   UNL     1      -9.312   8.210  68.887  1.00  0.00    -0.147 C  
HETATM    2  C   UNL     1      -8.228   7.108  68.916  1.00  0.00    -0.125 C  
HETATM    3  C   UNL     1      -8.687   5.834  69.633  1.00  0.00    -0.122 C  
HETATM    4  C   UNL     1      -9.201   6.097  71.068  1.00  0.00    -0.166 C  
HETATM    5  C   UNL     1      -9.306   7.626  71.352  1.00  0.00    -0.157 C  
HETATM    6  C   UNL     1      -8.379   5.338  72.107  1.00  0.00    -0.125 C  
HETATM    7  C   UNL     1      -9.855   7.958  72.737  1.00  0.00    -0.335 C  
HETATM    8  C   UNL     1     -11.355   7.743  72.840  1.00  0.00    -0.406 C  
HETATM    9  C   UNL     1     -12.175   8.610  71.857  1.00  0.00    -0.355 C  
HETATM   10  C   UNL     1     -13.518   8.891  72.542  1.00  0.00    -0.462 C  
HETATM   11  O   UNL     1     -12.491   7.956  70.628  1.00  0.00    -0.007 OA 
HETATM   12  O   UNL     1     -11.284   7.423  69.996  1.00  0.00    -0.251 OA 
HETATM   13  C   UNL     1     -10.137   8.279  70.210  1.00  0.00    -0.192 C  
HETATM   14  C   UNL     1     -10.556   9.745  70.537  1.00  0.00    -0.312 C  
HETATM   15  O   UNL     1     -10.974  10.422  69.355  1.00  0.00    -0.219 OA 
HETATM   16  O   UNL     1     -11.540   9.857  71.579  1.00  0.00    -0.373 OA 
HETATM   17  C   UNL     1      -9.930  10.586  68.387  1.00  0.00    -0.164 C  
HETATM   18  C   UNL     1      -7.760   9.629  67.397  1.00  0.00    -0.095 C  
HETATM   19  C   UNL     1      -8.734   9.610  68.580  1.00  0.00    -0.124 C  
ENDROOT
BRANCH  17  20
HETATM   20  O   UNL     1     -10.441  10.360  67.068  1.00  0.00    -0.231 OA 
HETATM   21  C   UNL     1     -10.916  11.542  66.444  1.00  0.00    -0.284 C  
ENDBRANCH  17  20
TORSDOF 1
ENDMDL
MODEL       69
REMARK 921   NORMALIZED FREE ENERGY PREDICTED BY IDOCK:   -4.43 KCAL/MOL
REMARK 922        TOTAL FREE ENERGY PREDICTED BY IDOCK:   -4.73 KCAL/MOL
REMARK 923 INTER-LIGAND FREE ENERGY PREDICTED BY IDOCK:   -4.62 KCAL/MOL
REMARK 924 INTRA-LIGAND FREE ENERGY PREDICTED BY IDOCK:   -0.10 KCAL/MOL
REMARK 927      BINDING AFFINITY PREDICTED BY RF-SCORE:    0.00 PKD
ROOT
HETATM    1  C   UNL     1     -10.711  11.932  67.615  1.00  0.00    -0.253 C  
HETATM    2  C   UNL     1     -11.355  13.329  67.763  1.00  0.00    -0.327 C  
HETATM    3  C   UNL     1     -11.308  13.862  69.198  1.00  0.00    -0.331 C  
HETATM    4  C   UNL     1     -11.929  12.890  70.229  1.00  0.00    -0.359 C  
HETATM    5  C   UNL     1     -12.272  11.520  69.567  1.00  0.00    -0.287 C  
HETATM    6  C   UNL     1     -13.108  13.525  70.961  1.00  0.00    -0.219 C  
HETATM    7  C   UNL     1     -12.845  10.493  70.541  1.00  0.00    -0.339 C  
HETATM    8  C   UNL     1     -11.786   9.893  71.449  1.00  0.00    -0.476 C  
HETATM    9  C   UNL     1     -10.662   9.153  70.689  1.00  0.00    -0.254 C  
HETATM   10  C   UNL     1     -10.181   8.027  71.614  1.00  0.00    -0.256 C  
HETATM   11  O   UNL     1      -9.513   9.956  70.420  1.00  0.00    -0.205 OA 
HETATM   12  O   UNL     1      -9.892  11.197  69.743  1.00  0.00     0.264 OA 
HETATM   13  C   UNL     1     -11.001  11.000  68.833  1.00  0.00    -0.227 C  
HETATM   14  C   UNL     1     -11.134   9.513  68.387  1.00  0.00     0.017 C  
HETATM   15  O   UNL     1     -10.142   9.191  67.416  1.00  0.00    -0.197 OA 
HETATM   16  O   UNL     1     -11.127   8.570  69.473  1.00  0.00    -0.110 OA 
HETATM   17  C   UNL     1     -10.283   9.917  66.188  1.00  0.00    -0.207 C  
HETATM   18  C   UNL     1     -11.062  12.093  65.067  1.00  0.00    -0.368 C  
HETATM   19  C   UNL     1     -11.138  11.209  66.316  1.00  0.00    -0.176 C  
ENDROOT
BRANCH  17  20
HETATM   20  O   UNL     1      -8.996  10.316  65.702  1.00  0.00    -0.158 OA 
HETATM   21  C   UNL     1      -8.343   9.303  64.955  1.00  0.00    -0.154 C  
ENDBRANCH  17  20
TORSDOF 1
ENDMDL
MODEL       70
REMARK 921   NORMALIZED FREE ENERGY PREDICTED BY IDOCK:   -4.43 KCAL/MOL
REMARK 922        TOTAL FREE ENERGY PREDICTED BY IDOCK:   -4.73 KCAL/MOL
REMARK 923 INTER-LIGAND FREE ENERGY PREDICTED BY IDOCK:   -4.62 KCAL/MOL
REMARK 924 INTRA-LIGAND FREE ENERGY PREDICTED BY IDOCK:   -0.10 KCAL/MOL
REMARK 927      BINDING AFFINITY PREDICTED BY RF-SCORE:    0.00 PKD
ROOT
HETATM    1  C   UNL     1     -10.294  10.068  66.568  1.00  0.00    -0.268 C  
HETATM    2  C   UNL     1      -9.749   8.648  66.286  1.00  0.00    -0.322 C  
HETATM    3  C   UNL     1     -10.414   7.569  67.146  1.00  0.00    -0.407 C  
HETATM    4  C   UNL     1     -10.335   7.866  68.662  1.00  0.00    -0.224 C  
HETATM    5  C   UNL     1      -9.766   9.294  68.922  1.00  0.00    -0.164 C  
HETATM    6  C   UNL     1      -9.586   6.766  69.411  1.00  0.00    -0.146 C  
HETATM    7  C   UNL     1      -9.706   9.672  70.400  1.00  0.00    -0.304 C  
HETATM    8  C   UNL     1     -11.070  10.011  70.974  1.00  0.00    -0.341 C  
HETATM    9  C   UNL     1     -11.759  11.206  70.274  1.00  0.00    -0.341 C  
HETATM   10  C   UNL     1     -12.624  11.892  71.339  1.00  0.00    -0.346 C  
HETATM   11  O   UNL     1     -12.652  10.831  69.226  1.00  0.00    -0.324 OA 
HETATM   12  O   UNL     1     -11.985   9.956  68.261  1.00  0.00     0.333 OA 
HETATM   13  C   UNL     1     -10.593  10.310  68.081  1.00  0.00    -0.221 C  
HETATM   14  C   UNL     1     -10.311  11.789  68.482  1.00  0.00    -0.217 C  
HETATM   15  O   UNL     1     -10.779  12.680  67.473  1.00  0.00    -0.221 OA 
HETATM   16  O   UNL     1     -10.817  12.155  69.777  1.00  0.00     0.100 OA 
HETATM   17  C   UNL     1     -10.093  12.541  66.221  1.00  0.00    -0.250 C  
HETATM   18  C   UNL     1      -8.849  10.955  64.628  1.00  0.00    -0.096 C  
HETATM   19  C   UNL     1      -9.354  11.183  66.057  1.00  0.00    -0.228 C  
ENDROOT
BRANCH  17  20
HETATM   20  O   UNL     1     -11.023  12.642  65.137  1.00  0.00    -0.279 OA 
HETATM   21  C   UNL     1     -11.425  13.975  64.870  1.00  0.00    -0.358 C  
ENDBRANCH  17  20
TORSDOF 1
ENDMDL
MODEL       71
REMARK 921   NORMALIZED FREE ENERGY PREDICTED BY IDOCK:   -4.41 KCAL/MOL
REMARK 922        TOTAL FREE ENERGY PREDICTED BY IDOCK:   -4.71 KCAL/MOL
REMARK 923 INTER-LIGAND FREE ENERGY PREDICTED BY IDOCK:   -4.54 KCAL/MOL
REMARK 924 INTRA-LIGAND FREE ENERGY PREDICTED BY IDOCK:   -0.16 KCAL/MOL
REMARK 927      BINDING AFFINITY PREDICTED BY RF-SCORE:    0.00 PKD
ROOT
HETATM    1  C   UNL     1     -10.049   5.445  70.062  1.00  0.00    -0.324 C  
HETATM    2  C   UNL     1     -10.774   5.620  71.416  1.00  0.00    -0.310 C  
HETATM    3  C   UNL     1     -11.938   6.614  71.349  1.00  0.00    -0.405 C  
HETATM    4  C   UNL     1     -11.523   7.999  70.797  1.00  0.00    -0.273 C  
HETATM    5  C   UNL     1     -10.058   7.970  70.262  1.00  0.00    -0.192 C  
HETATM    6  C   UNL     1     -11.779   9.108  71.813  1.00  0.00    -0.456 C  
HETATM    7  C   UNL     1      -9.599   9.294  69.657  1.00  0.00    -0.192 C  
HETATM    8  C   UNL     1     -10.193   9.547  68.282  1.00  0.00    -0.225 C  
HETATM    9  C   UNL     1      -9.823   8.470  67.237  1.00  0.00    -0.199 C  
HETATM   10  C   UNL     1      -9.784   9.179  65.878  1.00  0.00    -0.336 C  
HETATM   11  O   UNL     1     -10.790   7.427  67.107  1.00  0.00    -0.331 OA 
HETATM   12  O   UNL     1     -11.091   6.831  68.409  1.00  0.00    -0.210 OA 
HETATM   13  C   UNL     1      -9.926   6.782  69.266  1.00  0.00    -0.160 C  
HETATM   14  C   UNL     1      -8.599   6.831  68.449  1.00  0.00    -0.125 C  
HETATM   15  O   UNL     1      -8.338   5.569  67.841  1.00  0.00    -0.100 OA 
HETATM   16  O   UNL     1      -8.540   7.897  67.485  1.00  0.00    -0.122 OA 
HETATM   17  C   UNL     1      -8.105   4.514  68.784  1.00  0.00    -0.081 C  
HETATM   18  C   UNL     1      -8.615   3.587  71.125  1.00  0.00    -0.109 C  
HETATM   19  C   UNL     1      -8.645   4.816  70.211  1.00  0.00    -0.110 C  
ENDROOT
BRANCH  17  20
HETATM   20  O   UNL     1      -8.745   3.311  68.344  1.00  0.00    -0.088 OA 
HETATM   21  C   UNL     1      -9.385   3.448  67.086  1.00  0.00    -0.193 C  
ENDBRANCH  17  20
TORSDOF 1
ENDMDL
MODEL       72
REMARK 921   NORMALIZED FREE ENERGY PREDICTED BY IDOCK:   -4.38 KCAL/MOL
REMARK 922        TOTAL FREE ENERGY PREDICTED BY IDOCK:   -4.67 KCAL/MOL
REMARK 923 INTER-LIGAND FREE ENERGY PREDICTED BY IDOCK:   -4.51 KCAL/MOL
REMARK 924 INTRA-LIGAND FREE ENERGY PREDICTED BY IDOCK:   -0.16 KCAL/MOL
REMARK 927      BINDING AFFINITY PREDICTED BY RF-SCORE:    0.00 PKD
ROOT
HETATM    1  C   UNL     1      -9.785  11.499  66.049  1.00  0.00    -0.253 C  
HETATM    2  C   UNL     1     -10.864  11.267  64.967  1.00  0.00    -0.285 C  
HETATM    3  C   UNL     1     -11.260  12.551  64.230  1.00  0.00    -0.407 C  
HETATM    4  C   UNL     1     -11.712  13.683  65.183  1.00  0.00    -0.346 C  
HETATM    5  C   UNL     1     -11.462  13.293  66.672  1.00  0.00    -0.384 C  
HETATM    6  C   UNL     1     -13.148  14.116  64.899  1.00  0.00     0.170 C  
HETATM    7  C   UNL     1     -11.841  14.388  67.666  1.00  0.00    -0.412 C  
HETATM    8  C   UNL     1     -10.834  15.523  67.699  1.00  0.00    -0.306 C  
HETATM    9  C   UNL     1      -9.409  15.079  68.104  1.00  0.00    -0.187 C  
HETATM   10  C   UNL     1      -8.769  16.273  68.823  1.00  0.00    -0.244 C  
HETATM   11  O   UNL     1      -8.555  14.784  66.999  1.00  0.00    -0.215 OA 
HETATM   12  O   UNL     1      -9.183  13.818  66.098  1.00  0.00    -0.146 OA 
HETATM   13  C   UNL     1      -9.978  12.845  66.816  1.00  0.00    -0.243 C  
HETATM   14  C   UNL     1      -9.535  12.714  68.305  1.00  0.00    -0.203 C  
HETATM   15  O   UNL     1      -8.330  11.960  68.404  1.00  0.00    -0.159 OA 
HETATM   16  O   UNL     1      -9.425  13.968  68.999  1.00  0.00    -0.052 OA 
HETATM   17  C   UNL     1      -8.468  10.597  67.980  1.00  0.00    -0.119 C  
HETATM   18  C   UNL     1      -9.689   8.953  66.430  1.00  0.00    -0.332 C  
HETATM   19  C   UNL     1      -9.705  10.344  67.072  1.00  0.00    -0.216 C  
ENDROOT
BRANCH  17  20
HETATM   20  O   UNL     1      -7.314  10.195  67.233  1.00  0.00    -0.089 OA 
HETATM   21  C   UNL     1      -6.325  11.207  67.147  1.00  0.00    -0.083 C  
ENDBRANCH  17  20
TORSDOF 1
ENDMDL
MODEL       73
REMARK 921   NORMALIZED FREE ENERGY PREDICTED BY IDOCK:   -4.38 KCAL/MOL
REMARK 922        TOTAL FREE ENERGY PREDICTED BY IDOCK:   -4.67 KCAL/MOL
REMARK 923 INTER-LIGAND FREE ENERGY PREDICTED BY IDOCK:   -4.50 KCAL/MOL
REMARK 924 INTRA-LIGAND FREE ENERGY PREDICTED BY IDOCK:   -0.17 KCAL/MOL
REMARK 927      BINDING AFFINITY PREDICTED BY RF-SCORE:    0.00 PKD
ROOT
HETATM    1  C   UNL     1      -8.946   9.825  69.274  1.00  0.00    -0.177 C  
HETATM    2  C   UNL     1      -9.562   9.573  70.670  1.00  0.00    -0.292 C  
HETATM    3  C   UNL     1     -11.092   9.489  70.643  1.00  0.00    -0.364 C  
HETATM    4  C   UNL     1     -11.758  10.725  69.995  1.00  0.00    -0.417 C  
HETATM    5  C   UNL     1     -10.690  11.661  69.352  1.00  0.00    -0.080 C  
HETATM    6  C   UNL     1     -12.687  11.440  70.973  1.00  0.00    -0.447 C  
HETATM    7  C   UNL     1     -11.284  12.879  68.649  1.00  0.00    -0.321 C  
HETATM    8  C   UNL     1     -11.919  12.534  67.314  1.00  0.00    -0.286 C  
HETATM    9  C   UNL     1     -10.931  11.918  66.297  1.00  0.00    -0.302 C  
HETATM   10  C   UNL     1     -11.421  12.338  64.906  1.00  0.00    -0.382 C  
HETATM   11  O   UNL     1     -10.914  10.491  66.292  1.00  0.00    -0.063 OA 
HETATM   12  O   UNL     1     -10.693   9.967  67.641  1.00  0.00    -0.249 OA 
HETATM   13  C   UNL     1      -9.797  10.806  68.407  1.00  0.00    -0.169 C  
HETATM   14  C   UNL     1      -8.888  11.680  67.489  1.00  0.00    -0.158 C  
HETATM   15  O   UNL     1      -7.842  10.893  66.925  1.00  0.00    -0.122 OA 
HETATM   16  O   UNL     1      -9.601  12.406  66.474  1.00  0.00    -0.229 OA 
HETATM   17  C   UNL     1      -6.926  10.373  67.898  1.00  0.00    -0.082 C  
HETATM   18  C   UNL     1      -6.604   9.559  70.314  1.00  0.00    -0.077 C  
HETATM   19  C   UNL     1      -7.493  10.347  69.346  1.00  0.00    -0.135 C  
ENDROOT
BRANCH  17  20
HETATM   20  O   UNL     1      -6.568   9.027  67.567  1.00  0.00    -0.063 OA 
HETATM   21  C   UNL     1      -7.105   8.597  66.327  1.00  0.00    -0.078 C  
ENDBRANCH  17  20
TORSDOF 1
ENDMDL
MODEL       74
REMARK 921   NORMALIZED FREE ENERGY PREDICTED BY IDOCK:   -4.37 KCAL/MOL
REMARK 922        TOTAL FREE ENERGY PREDICTED BY IDOCK:   -4.66 KCAL/MOL
REMARK 923 INTER-LIGAND FREE ENERGY PREDICTED BY IDOCK:   -4.52 KCAL/MOL
REMARK 924 INTRA-LIGAND FREE ENERGY PREDICTED BY IDOCK:   -0.14 KCAL/MOL
REMARK 927      BINDING AFFINITY PREDICTED BY RF-SCORE:    0.00 PKD
ROOT
HETATM    1  C   UNL     1      -9.397   8.507  68.155  1.00  0.00    -0.145 C  
HETATM    2  C   UNL     1      -9.939   9.885  68.600  1.00  0.00    -0.177 C  
HETATM    3  C   UNL     1      -9.946  10.063  70.122  1.00  0.00    -0.239 C  
HETATM    4  C   UNL     1     -10.708   8.939  70.862  1.00  0.00    -0.292 C  
HETATM    5  C   UNL     1     -11.112   7.798  69.879  1.00  0.00    -0.142 C  
HETATM    6  C   UNL     1     -11.881   9.493  71.668  1.00  0.00    -0.468 C  
HETATM    7  C   UNL     1     -11.827   6.630  70.555  1.00  0.00    -0.430 C  
HETATM    8  C   UNL     1     -10.882   5.741  71.343  1.00  0.00    -0.316 C  
HETATM    9  C   UNL     1      -9.770   5.097  70.483  1.00  0.00    -0.193 C  
HETATM   10  C   UNL     1      -9.441   3.749  71.136  1.00  0.00    -0.236 C  
HETATM   11  O   UNL     1      -8.547   5.833  70.465  1.00  0.00    -0.133 OA 
HETATM   12  O   UNL     1      -8.782   7.226  70.085  1.00  0.00    -0.139 OA 
HETATM   13  C   UNL     1      -9.840   7.349  69.104  1.00  0.00    -0.168 C  
HETATM   14  C   UNL     1     -10.057   6.024  68.312  1.00  0.00    -0.164 C  
HETATM   15  O   UNL     1      -9.031   5.846  67.340  1.00  0.00    -0.111 OA 
HETATM   16  O   UNL     1     -10.197   4.858  69.142  1.00  0.00    -0.195 OA 
HETATM   17  C   UNL     1      -9.032   6.848  66.314  1.00  0.00    -0.151 C  
HETATM   18  C   UNL     1      -9.563   9.287  65.705  1.00  0.00    -0.341 C  
HETATM   19  C   UNL     1      -9.791   8.148  66.705  1.00  0.00    -0.331 C  
ENDROOT
BRANCH  17  20
HETATM   20  O   UNL     1      -7.689   7.230  65.997  1.00  0.00    -0.089 OA 
HETATM   21  C   UNL     1      -6.720   6.577  66.800  1.00  0.00    -0.060 C  
ENDBRANCH  17  20
TORSDOF 1
ENDMDL
MODEL       75
REMARK 921   NORMALIZED FREE ENERGY PREDICTED BY IDOCK:   -4.34 KCAL/MOL
REMARK 922        TOTAL FREE ENERGY PREDICTED BY IDOCK:   -4.63 KCAL/MOL
REMARK 923 INTER-LIGAND FREE ENERGY PREDICTED BY IDOCK:   -4.47 KCAL/MOL
REMARK 924 INTRA-LIGAND FREE ENERGY PREDICTED BY IDOCK:   -0.16 KCAL/MOL
REMARK 927      BINDING AFFINITY PREDICTED BY RF-SCORE:    0.00 PKD
ROOT
HETATM    1  C   UNL     1      -8.935   7.285  68.869  1.00  0.00    -0.133 C  
HETATM    2  C   UNL     1      -9.418   6.045  69.656  1.00  0.00    -0.167 C  
HETATM    3  C   UNL     1     -10.944   5.955  69.757  1.00  0.00    -0.452 C  
HETATM    4  C   UNL     1     -11.590   7.231  70.347  1.00  0.00    -0.253 C  
HETATM    5  C   UNL     1     -10.535   8.367  70.509  1.00  0.00    -0.227 C  
HETATM    6  C   UNL     1     -12.361   6.928  71.629  1.00  0.00    -0.413 C  
HETATM    7  C   UNL     1     -11.116   9.674  71.042  1.00  0.00    -0.438 C  
HETATM    8  C   UNL     1     -11.908  10.434  69.993  1.00  0.00    -0.351 C  
HETATM    9  C   UNL     1     -11.075  10.833  68.753  1.00  0.00    -0.259 C  
HETATM   10  C   UNL     1     -11.679  12.141  68.227  1.00  0.00    -0.401 C  
HETATM   11  O   UNL     1     -11.155   9.903  67.673  1.00  0.00    -0.267 OA 
HETATM   12  O   UNL     1     -10.830   8.550  68.126  1.00  0.00    -0.089 OA 
HETATM   13  C   UNL     1      -9.804   8.552  69.147  1.00  0.00    -0.186 C  
HETATM   14  C   UNL     1      -8.940   9.849  69.103  1.00  0.00    -0.169 C  
HETATM   15  O   UNL     1      -8.013   9.797  68.021  1.00  0.00    -0.096 OA 
HETATM   16  O   UNL     1      -9.705  11.066  69.077  1.00  0.00    -0.196 OA 
HETATM   17  C   UNL     1      -7.037   8.754  68.150  1.00  0.00    -0.078 C  
HETATM   18  C   UNL     1      -6.520   6.409  69.063  1.00  0.00    -0.043 C  
HETATM   19  C   UNL     1      -7.451   7.624  69.135  1.00  0.00    -0.095 C  
ENDROOT
BRANCH  17  20
HETATM   20  O   UNL     1      -6.807   8.135  66.880  1.00  0.00    -0.066 OA 
HETATM   21  C   UNL     1      -7.578   8.705  65.835  1.00  0.00    -0.089 C  
ENDBRANCH  17  20
TORSDOF 1
ENDMDL
MODEL       76
REMARK 921   NORMALIZED FREE ENERGY PREDICTED BY IDOCK:   -4.33 KCAL/MOL
REMARK 922        TOTAL FREE ENERGY PREDICTED BY IDOCK:   -4.62 KCAL/MOL
REMARK 923 INTER-LIGAND FREE ENERGY PREDICTED BY IDOCK:   -4.52 KCAL/MOL
REMARK 924 INTRA-LIGAND FREE ENERGY PREDICTED BY IDOCK:   -0.10 KCAL/MOL
REMARK 927      BINDING AFFINITY PREDICTED BY RF-SCORE:    0.00 PKD
ROOT
HETATM    1  C   UNL     1     -10.518   8.300  69.098  1.00  0.00    -0.217 C  
HETATM    2  C   UNL     1     -10.511   9.781  68.654  1.00  0.00    -0.233 C  
HETATM    3  C   UNL     1     -10.785   9.961  67.158  1.00  0.00    -0.276 C  
HETATM    4  C   UNL     1      -9.825   9.144  66.261  1.00  0.00    -0.359 C  
HETATM    5  C   UNL     1      -8.941   8.187  67.118  1.00  0.00    -0.154 C  
HETATM    6  C   UNL     1      -9.021  10.048  65.331  1.00  0.00    -0.213 C  
HETATM    7  C   UNL     1      -8.002   7.313  66.291  1.00  0.00    -0.110 C  
HETATM    8  C   UNL     1      -8.723   6.172  65.595  1.00  0.00    -0.133 C  
HETATM    9  C   UNL     1      -9.434   5.202  66.567  1.00  0.00    -0.148 C  
HETATM   10  C   UNL     1      -9.413   3.823  65.896  1.00  0.00    -0.174 C  
HETATM   11  O   UNL     1     -10.810   5.507  66.792  1.00  0.00    -0.281 OA 
HETATM   12  O   UNL     1     -10.974   6.900  67.208  1.00  0.00    -0.335 OA 
HETATM   13  C   UNL     1      -9.877   7.350  68.038  1.00  0.00    -0.148 C  
HETATM   14  C   UNL     1      -9.137   6.160  68.721  1.00  0.00    -0.126 C  
HETATM   15  O   UNL     1      -9.899   5.658  69.816  1.00  0.00    -0.162 OA 
HETATM   16  O   UNL     1      -8.760   5.105  67.821  1.00  0.00    -0.104 OA 
HETATM   17  C   UNL     1     -10.063   6.602  70.883  1.00  0.00    -0.187 C  
HETATM   18  C   UNL     1     -10.246   9.080  71.538  1.00  0.00    -0.414 C  
HETATM   19  C   UNL     1      -9.820   8.079  70.459  1.00  0.00    -0.184 C  
ENDROOT
BRANCH  17  20
HETATM   20  O   UNL     1     -11.395   6.532  71.402  1.00  0.00    -0.268 OA 
HETATM   21  C   UNL     1     -11.499   5.727  72.565  1.00  0.00    -0.296 C  
ENDBRANCH  17  20
TORSDOF 1
ENDMDL
MODEL       77
REMARK 921   NORMALIZED FREE ENERGY PREDICTED BY IDOCK:   -4.31 KCAL/MOL
REMARK 922        TOTAL FREE ENERGY PREDICTED BY IDOCK:   -4.60 KCAL/MOL
REMARK 923 INTER-LIGAND FREE ENERGY PREDICTED BY IDOCK:   -4.50 KCAL/MOL
REMARK 924 INTRA-LIGAND FREE ENERGY PREDICTED BY IDOCK:   -0.11 KCAL/MOL
REMARK 927      BINDING AFFINITY PREDICTED BY RF-SCORE:    0.00 PKD
ROOT
HETATM    1  C   UNL     1      -9.462   9.029  69.002  1.00  0.00    -0.155 C  
HETATM    2  C   UNL     1      -9.463   9.675  70.407  1.00  0.00    -0.280 C  
HETATM    3  C   UNL     1      -8.827   8.782  71.478  1.00  0.00    -0.295 C  
HETATM    4  C   UNL     1      -9.463   7.374  71.551  1.00  0.00    -0.162 C  
HETATM    5  C   UNL     1     -10.466   7.153  70.377  1.00  0.00    -0.234 C  
HETATM    6  C   UNL     1     -10.066   7.101  72.927  1.00  0.00    -0.247 C  
HETATM    7  C   UNL     1     -11.096   5.762  70.360  1.00  0.00    -0.287 C  
HETATM    8  C   UNL     1     -10.139   4.692  69.866  1.00  0.00    -0.257 C  
HETATM    9  C   UNL     1      -9.633   4.929  68.424  1.00  0.00    -0.146 C  
HETATM   10  C   UNL     1      -9.381   3.542  67.819  1.00  0.00    -0.246 C  
HETATM   11  O   UNL     1      -8.386   5.620  68.351  1.00  0.00    -0.105 OA 
HETATM   12  O   UNL     1      -8.436   6.867  69.114  1.00  0.00    -0.127 OA 
HETATM   13  C   UNL     1      -9.739   7.493  69.044  1.00  0.00    -0.162 C  
HETATM   14  C   UNL     1     -10.541   7.031  67.790  1.00  0.00    -0.233 C  
HETATM   15  O   UNL     1     -10.051   7.674  66.616  1.00  0.00    -0.244 OA 
HETATM   16  O   UNL     1     -10.597   5.605  67.619  1.00  0.00    -0.226 OA 
HETATM   17  C   UNL     1     -10.236   9.096  66.620  1.00  0.00    -0.258 C  
HETATM   18  C   UNL     1     -10.407  11.227  68.046  1.00  0.00    -0.204 C  
HETATM   19  C   UNL     1     -10.467   9.696  68.036  1.00  0.00    -0.276 C  
ENDROOT
BRANCH  17  20
HETATM   20  O   UNL     1      -9.079   9.744  66.079  1.00  0.00    -0.147 OA 
HETATM   21  C   UNL     1      -8.820   9.387  64.731  1.00  0.00    -0.204 C  
ENDBRANCH  17  20
TORSDOF 1
ENDMDL
MODEL       78
REMARK 921   NORMALIZED FREE ENERGY PREDICTED BY IDOCK:   -4.31 KCAL/MOL
REMARK 922        TOTAL FREE ENERGY PREDICTED BY IDOCK:   -4.59 KCAL/MOL
REMARK 923 INTER-LIGAND FREE ENERGY PREDICTED BY IDOCK:   -4.42 KCAL/MOL
REMARK 924 INTRA-LIGAND FREE ENERGY PREDICTED BY IDOCK:   -0.17 KCAL/MOL
REMARK 927      BINDING AFFINITY PREDICTED BY RF-SCORE:    0.00 PKD
ROOT
HETATM    1  C   UNL     1      -9.304  13.097  67.994  1.00  0.00    -0.219 C  
HETATM    2  C   UNL     1      -8.023  13.765  68.545  1.00  0.00    -0.131 C  
HETATM    3  C   UNL     1      -6.758  12.942  68.285  1.00  0.00    -0.093 C  
HETATM    4  C   UNL     1      -6.857  11.491  68.812  1.00  0.00    -0.084 C  
HETATM    5  C   UNL     1      -8.302  11.174  69.304  1.00  0.00     0.099 C  
HETATM    6  C   UNL     1      -5.780  11.197  69.853  1.00  0.00    -0.083 C  
HETATM    7  C   UNL     1      -8.483   9.739  69.793  1.00  0.00    -0.206 C  
HETATM    8  C   UNL     1      -8.552   8.736  68.655  1.00  0.00    -0.134 C  
HETATM    9  C   UNL     1      -9.723   8.985  67.677  1.00  0.00    -0.156 C  
HETATM   10  C   UNL     1     -10.135   7.611  67.134  1.00  0.00    -0.323 C  
HETATM   11  O   UNL     1      -9.373   9.769  66.536  1.00  0.00    -0.151 OA 
HETATM   12  O   UNL     1      -8.735  11.022  66.940  1.00  0.00    -0.141 OA 
HETATM   13  C   UNL     1      -9.297  11.545  68.167  1.00  0.00    -0.185 C  
HETATM   14  C   UNL     1     -10.735  11.001  68.428  1.00  0.00    -0.203 C  
HETATM   15  O   UNL     1     -11.680  11.659  67.588  1.00  0.00    -0.513 OA 
HETATM   16  O   UNL     1     -10.851   9.572  68.325  1.00  0.00    -0.213 OA 
HETATM   17  C   UNL     1     -11.805  13.062  67.853  1.00  0.00    -0.343 C  
HETATM   18  C   UNL     1     -10.633  15.199  68.667  1.00  0.00    -0.234 C  
HETATM   19  C   UNL     1     -10.596  13.668  68.621  1.00  0.00    -0.260 C  
ENDROOT
BRANCH  17  20
HETATM   20  O   UNL     1     -11.922  13.787  66.624  1.00  0.00    -0.388 OA 
HETATM   21  C   UNL     1     -12.077  12.946  65.493  1.00  0.00    -0.458 C  
ENDBRANCH  17  20
TORSDOF 1
ENDMDL
MODEL       79
REMARK 921   NORMALIZED FREE ENERGY PREDICTED BY IDOCK:   -4.30 KCAL/MOL
REMARK 922        TOTAL FREE ENERGY PREDICTED BY IDOCK:   -4.59 KCAL/MOL
REMARK 923 INTER-LIGAND FREE ENERGY PREDICTED BY IDOCK:   -4.49 KCAL/MOL
REMARK 924 INTRA-LIGAND FREE ENERGY PREDICTED BY IDOCK:   -0.10 KCAL/MOL
REMARK 927      BINDING AFFINITY PREDICTED BY RF-SCORE:    0.00 PKD
ROOT
HETATM    1  C   UNL     1      -8.611  10.610  66.902  1.00  0.00    -0.126 C  
HETATM    2  C   UNL     1      -7.580  11.683  66.480  1.00  0.00     0.016 C  
HETATM    3  C   UNL     1      -7.228  12.654  67.612  1.00  0.00    -0.142 C  
HETATM    4  C   UNL     1      -8.469  13.338  68.233  1.00  0.00    -0.160 C  
HETATM    5  C   UNL     1      -9.786  12.716  67.677  1.00  0.00    -0.210 C  
HETATM    6  C   UNL     1      -8.403  14.857  68.089  1.00  0.00    -0.144 C  
HETATM    7  C   UNL     1     -11.052  13.314  68.286  1.00  0.00    -0.294 C  
HETATM    8  C   UNL     1     -11.310  12.824  69.700  1.00  0.00    -0.170 C  
HETATM    9  C   UNL     1     -11.490  11.292  69.804  1.00  0.00    -0.310 C  
HETATM   10  C   UNL     1     -12.448  11.046  70.976  1.00  0.00    -0.512 C  
HETATM   11  O   UNL     1     -10.291  10.585  70.123  1.00  0.00    -0.160 OA 
HETATM   12  O   UNL     1      -9.216  10.938  69.196  1.00  0.00    -0.157 OA 
HETATM   13  C   UNL     1      -9.710  11.172  67.857  1.00  0.00    -0.174 C  
HETATM   14  C   UNL     1     -11.082  10.473  67.611  1.00  0.00    -0.309 C  
HETATM   15  O   UNL     1     -10.902   9.073  67.414  1.00  0.00    -0.230 OA 
HETATM   16  O   UNL     1     -12.067  10.736  68.624  1.00  0.00    -0.480 OA 
HETATM   17  C   UNL     1     -10.151   8.750  66.236  1.00  0.00    -0.184 C  
HETATM   18  C   UNL     1      -8.314   9.491  64.600  1.00  0.00    -0.161 C  
HETATM   19  C   UNL     1      -9.293   9.929  65.694  1.00  0.00    -0.269 C  
ENDROOT
BRANCH  17  20
HETATM   20  O   UNL     1      -9.250   7.671  66.508  1.00  0.00    -0.160 OA 
HETATM   21  C   UNL     1      -9.895   6.410  66.580  1.00  0.00    -0.152 C  
ENDBRANCH  17  20
TORSDOF 1
ENDMDL
MODEL       80
REMARK 921   NORMALIZED FREE ENERGY PREDICTED BY IDOCK:   -4.29 KCAL/MOL
REMARK 922        TOTAL FREE ENERGY PREDICTED BY IDOCK:   -4.58 KCAL/MOL
REMARK 923 INTER-LIGAND FREE ENERGY PREDICTED BY IDOCK:   -4.99 KCAL/MOL
REMARK 924 INTRA-LIGAND FREE ENERGY PREDICTED BY IDOCK:    0.41 KCAL/MOL
REMARK 927      BINDING AFFINITY PREDICTED BY RF-SCORE:    0.00 PKD
ROOT
HETATM    1  C   UNL     1     -11.244  12.888  67.242  1.00  0.00    -0.329 C  
HETATM    2  C   UNL     1     -12.244  12.950  68.421  1.00  0.00     0.003 C  
HETATM    3  C   UNL     1     -11.652  12.435  69.737  1.00  0.00    -0.302 C  
HETATM    4  C   UNL     1     -11.068  11.007  69.623  1.00  0.00    -0.320 C  
HETATM    5  C   UNL     1     -11.055  10.526  68.139  1.00  0.00    -0.346 C  
HETATM    6  C   UNL     1     -11.768  10.038  70.572  1.00  0.00    -0.400 C  
HETATM    7  C   UNL     1     -10.445   9.140  67.949  1.00  0.00    -0.293 C  
HETATM    8  C   UNL     1      -8.931   9.146  68.056  1.00  0.00    -0.129 C  
HETATM    9  C   UNL     1      -8.237  10.046  67.008  1.00  0.00    -0.117 C  
HETATM   10  C   UNL     1      -6.876   9.401  66.714  1.00  0.00    -0.080 C  
HETATM   11  O   UNL     1      -7.952  11.367  67.470  1.00  0.00    -0.117 OA 
HETATM   12  O   UNL     1      -9.156  12.000  68.009  1.00  0.00    -0.175 OA 
HETATM   13  C   UNL     1     -10.345  11.613  67.281  1.00  0.00    -0.204 C  
HETATM   14  C   UNL     1     -10.011  11.115  65.842  1.00  0.00    -0.239 C  
HETATM   15  O   UNL     1      -9.716  12.216  64.986  1.00  0.00    -0.204 OA 
HETATM   16  O   UNL     1      -8.974  10.120  65.789  1.00  0.00    -0.149 OA 
HETATM   17  C   UNL     1     -10.829  13.097  64.781  1.00  0.00    -0.352 C  
HETATM   18  C   UNL     1     -12.982  14.091  65.769  1.00  0.00    -0.297 C  
HETATM   19  C   UNL     1     -11.938  12.974  65.864  1.00  0.00    -0.491 C  
ENDROOT
BRANCH  17  20
HETATM   20  O   UNL     1     -10.386  14.459  64.793  1.00  0.00    -0.431 OA 
HETATM   21  C   UNL     1      -9.375  14.708  65.756  1.00  0.00    -0.023 C  
ENDBRANCH  17  20
TORSDOF 1
ENDMDL
MODEL       81
REMARK 921   NORMALIZED FREE ENERGY PREDICTED BY IDOCK:   -4.28 KCAL/MOL
REMARK 922        TOTAL FREE ENERGY PREDICTED BY IDOCK:   -4.56 KCAL/MOL
REMARK 923 INTER-LIGAND FREE ENERGY PREDICTED BY IDOCK:   -4.39 KCAL/MOL
REMARK 924 INTRA-LIGAND FREE ENERGY PREDICTED BY IDOCK:   -0.17 KCAL/MOL
REMARK 927      BINDING AFFINITY PREDICTED BY RF-SCORE:    0.00 PKD
ROOT
HETATM    1  C   UNL     1      -9.030  13.688  67.918  1.00  0.00    -0.195 C  
HETATM    2  C   UNL     1     -10.197  14.695  67.795  1.00  0.00    -0.229 C  
HETATM    3  C   UNL     1     -11.555  14.017  67.586  1.00  0.00    -0.385 C  
HETATM    4  C   UNL     1     -11.572  13.049  66.380  1.00  0.00    -0.413 C  
HETATM    5  C   UNL     1     -10.138  12.860  65.796  1.00  0.00    -0.294 C  
HETATM    6  C   UNL     1     -12.604  13.470  65.337  1.00  0.00    -0.531 C  
HETATM    7  C   UNL     1     -10.075  11.877  64.630  1.00  0.00    -0.301 C  
HETATM    8  C   UNL     1     -10.183  10.430  65.077  1.00  0.00    -0.334 C  
HETATM    9  C   UNL     1      -9.058   9.992  66.043  1.00  0.00    -0.155 C  
HETATM   10  C   UNL     1      -8.825   8.497  65.790  1.00  0.00    -0.229 C  
HETATM   11  O   UNL     1      -9.398  10.106  67.425  1.00  0.00    -0.146 OA 
HETATM   12  O   UNL     1      -9.877  11.454  67.733  1.00  0.00    -0.170 OA 
HETATM   13  C   UNL     1      -9.185  12.464  66.961  1.00  0.00    -0.208 C  
HETATM   14  C   UNL     1      -7.798  11.964  66.456  1.00  0.00     0.077 C  
HETATM   15  O   UNL     1      -6.846  11.971  67.517  1.00  0.00    -0.102 OA 
HETATM   16  O   UNL     1      -7.836  10.687  65.798  1.00  0.00    -0.156 OA 
HETATM   17  C   UNL     1      -6.560  13.282  68.023  1.00  0.00    -0.129 C  
HETATM   18  C   UNL     1      -7.451  15.655  68.443  1.00  0.00    -0.120 C  
HETATM   19  C   UNL     1      -7.649  14.339  67.683  1.00  0.00    -0.191 C  
ENDROOT
BRANCH  17  20
HETATM   20  O   UNL     1      -6.449  13.245  69.451  1.00  0.00    -0.107 OA 
HETATM   21  C   UNL     1      -6.390  11.927  69.971  1.00  0.00    -0.072 C  
ENDBRANCH  17  20
TORSDOF 1
ENDMDL
MODEL       82
REMARK 921   NORMALIZED FREE ENERGY PREDICTED BY IDOCK:   -4.22 KCAL/MOL
REMARK 922        TOTAL FREE ENERGY PREDICTED BY IDOCK:   -4.50 KCAL/MOL
REMARK 923 INTER-LIGAND FREE ENERGY PREDICTED BY IDOCK:   -4.39 KCAL/MOL
REMARK 924 INTRA-LIGAND FREE ENERGY PREDICTED BY IDOCK:   -0.11 KCAL/MOL
REMARK 927      BINDING AFFINITY PREDICTED BY RF-SCORE:    0.00 PKD
ROOT
HETATM    1  C   UNL     1      -9.020   6.205  71.055  1.00  0.00    -0.144 C  
HETATM    2  C   UNL     1      -7.787   5.891  70.176  1.00  0.00    -0.100 C  
HETATM    3  C   UNL     1      -7.091   7.150  69.649  1.00  0.00    -0.074 C  
HETATM    4  C   UNL     1      -8.046   8.100  68.889  1.00  0.00    -0.116 C  
HETATM    5  C   UNL     1      -9.526   7.627  69.021  1.00  0.00    -0.150 C  
HETATM    6  C   UNL     1      -7.599   8.308  67.445  1.00  0.00    -0.098 C  
HETATM    7  C   UNL     1     -10.529   8.548  68.333  1.00  0.00    -0.215 C  
HETATM    8  C   UNL     1     -10.775   9.830  69.109  1.00  0.00    -0.242 C  
HETATM    9  C   UNL     1     -11.339   9.599  70.530  1.00  0.00    -0.296 C  
HETATM   10  C   UNL     1     -12.216  10.815  70.852  1.00  0.00    -0.487 C  
HETATM   11  O   UNL     1     -10.344   9.552  71.552  1.00  0.00    -0.278 OA 
HETATM   12  O   UNL     1      -9.303   8.577  71.222  1.00  0.00    -0.167 OA 
HETATM   13  C   UNL     1      -9.841   7.424  70.532  1.00  0.00    -0.180 C  
HETATM   14  C   UNL     1     -11.364   7.238  70.806  1.00  0.00    -0.285 C  
HETATM   15  O   UNL     1     -11.576   6.693  72.105  1.00  0.00    -0.274 OA 
HETATM   16  O   UNL     1     -12.148   8.426  70.604  1.00  0.00    -0.140 OA 
HETATM   17  C   UNL     1     -11.048   5.369  72.266  1.00  0.00    -0.196 C  
HETATM   18  C   UNL     1      -9.239   3.687  71.558  1.00  0.00    -0.191 C  
HETATM   19  C   UNL     1      -9.965   4.992  71.215  1.00  0.00    -0.264 C  
ENDROOT
BRANCH  17  20
HETATM   20  O   UNL     1     -10.440   5.236  73.556  1.00  0.00    -0.199 OA 
HETATM   21  C   UNL     1     -10.376   6.458  74.271  1.00  0.00    -0.291 C  
ENDBRANCH  17  20
TORSDOF 1
ENDMDL
MODEL       83
REMARK 921   NORMALIZED FREE ENERGY PREDICTED BY IDOCK:   -4.21 KCAL/MOL
REMARK 922        TOTAL FREE ENERGY PREDICTED BY IDOCK:   -4.50 KCAL/MOL
REMARK 923 INTER-LIGAND FREE ENERGY PREDICTED BY IDOCK:   -4.40 KCAL/MOL
REMARK 924 INTRA-LIGAND FREE ENERGY PREDICTED BY IDOCK:   -0.09 KCAL/MOL
REMARK 927      BINDING AFFINITY PREDICTED BY RF-SCORE:    0.00 PKD
ROOT
HETATM    1  C   UNL     1     -10.562   8.298  72.300  1.00  0.00    -0.393 C  
HETATM    2  C   UNL     1     -10.946   7.191  73.310  1.00  0.00    -0.325 C  
HETATM    3  C   UNL     1      -9.766   6.728  74.170  1.00  0.00    -0.325 C  
HETATM    4  C   UNL     1      -8.547   6.272  73.334  1.00  0.00    -0.122 C  
HETATM    5  C   UNL     1      -8.759   6.584  71.821  1.00  0.00    -0.131 C  
HETATM    6  C   UNL     1      -8.190   4.813  73.611  1.00  0.00    -0.106 C  
HETATM    7  C   UNL     1      -7.570   6.203  70.942  1.00  0.00    -0.097 C  
HETATM    8  C   UNL     1      -6.410   7.172  71.074  1.00  0.00    -0.036 C  
HETATM    9  C   UNL     1      -6.763   8.623  70.675  1.00  0.00    -0.043 C  
HETATM   10  C   UNL     1      -5.477   9.247  70.118  1.00  0.00    -0.027 C  
HETATM   11  O   UNL     1      -7.156   9.450  71.770  1.00  0.00    -0.319 OA 
HETATM   12  O   UNL     1      -8.236   8.824  72.534  1.00  0.00    -0.387 OA 
HETATM   13  C   UNL     1      -9.144   8.086  71.682  1.00  0.00    -0.150 C  
HETATM   14  C   UNL     1      -9.093   8.583  70.206  1.00  0.00    -0.154 C  
HETATM   15  O   UNL     1      -9.796   9.815  70.067  1.00  0.00    -0.227 OA 
HETATM   16  O   UNL     1      -7.766   8.674  69.661  1.00  0.00    -0.084 OA 
HETATM   17  C   UNL     1     -11.201   9.708  70.331  1.00  0.00    -0.283 C  
HETATM   18  C   UNL     1     -13.045   8.490  71.641  1.00  0.00    -0.368 C  
HETATM   19  C   UNL     1     -11.592   8.450  71.158  1.00  0.00    -0.317 C  
ENDROOT
BRANCH  17  20
HETATM   20  O   UNL     1     -11.651  10.849  71.070  1.00  0.00    -0.211 OA 
HETATM   21  C   UNL     1     -12.266  11.833  70.256  1.00  0.00    -0.299 C  
ENDBRANCH  17  20
TORSDOF 1
ENDMDL
MODEL       84
REMARK 921   NORMALIZED FREE ENERGY PREDICTED BY IDOCK:   -4.21 KCAL/MOL
REMARK 922        TOTAL FREE ENERGY PREDICTED BY IDOCK:   -4.50 KCAL/MOL
REMARK 923 INTER-LIGAND FREE ENERGY PREDICTED BY IDOCK:   -4.32 KCAL/MOL
REMARK 924 INTRA-LIGAND FREE ENERGY PREDICTED BY IDOCK:   -0.17 KCAL/MOL
REMARK 927      BINDING AFFINITY PREDICTED BY RF-SCORE:    0.00 PKD
ROOT
HETATM    1  C   UNL     1     -10.465   7.437  70.030  1.00  0.00    -0.233 C  
HETATM    2  C   UNL     1     -11.733   6.582  70.262  1.00  0.00    -0.430 C  
HETATM    3  C   UNL     1     -12.147   6.512  71.735  1.00  0.00    -0.393 C  
HETATM    4  C   UNL     1     -11.011   6.024  72.664  1.00  0.00    -0.301 C  
HETATM    5  C   UNL     1      -9.664   5.911  71.886  1.00  0.00    -0.173 C  
HETATM    6  C   UNL     1     -11.399   4.743  73.400  1.00  0.00    -0.397 C  
HETATM    7  C   UNL     1      -8.486   5.479  72.756  1.00  0.00    -0.120 C  
HETATM    8  C   UNL     1      -7.981   6.595  73.654  1.00  0.00    -0.104 C  
HETATM    9  C   UNL     1      -7.483   7.838  72.880  1.00  0.00    -0.104 C  
HETATM   10  C   UNL     1      -6.372   8.463  73.732  1.00  0.00    -0.134 C  
HETATM   11  O   UNL     1      -8.470   8.856  72.716  1.00  0.00    -0.380 OA 
HETATM   12  O   UNL     1      -9.691   8.307  72.123  1.00  0.00    -0.218 OA 
HETATM   13  C   UNL     1      -9.404   7.264  71.162  1.00  0.00    -0.156 C  
HETATM   14  C   UNL     1      -7.955   7.372  70.598  1.00  0.00    -0.098 C  
HETATM   15  O   UNL     1      -7.868   8.425  69.641  1.00  0.00    -0.096 OA 
HETATM   16  O   UNL     1      -6.938   7.497  71.606  1.00  0.00    -0.059 OA 
HETATM   17  C   UNL     1      -8.663   8.204  68.468  1.00  0.00    -0.134 C  
HETATM   18  C   UNL     1     -10.781   7.127  67.492  1.00  0.00    -0.344 C  
HETATM   19  C   UNL     1      -9.796   7.158  68.665  1.00  0.00    -0.154 C  
ENDROOT
BRANCH  17  20
HETATM   20  O   UNL     1      -9.290   9.425  68.062  1.00  0.00    -0.130 OA 
HETATM   21  C   UNL     1      -8.888  10.543  68.836  1.00  0.00    -0.165 C  
ENDBRANCH  17  20
TORSDOF 1
ENDMDL
MODEL       85
REMARK 921   NORMALIZED FREE ENERGY PREDICTED BY IDOCK:   -4.18 KCAL/MOL
REMARK 922        TOTAL FREE ENERGY PREDICTED BY IDOCK:   -4.46 KCAL/MOL
REMARK 923 INTER-LIGAND FREE ENERGY PREDICTED BY IDOCK:   -4.33 KCAL/MOL
REMARK 924 INTRA-LIGAND FREE ENERGY PREDICTED BY IDOCK:   -0.13 KCAL/MOL
REMARK 927      BINDING AFFINITY PREDICTED BY RF-SCORE:    0.00 PKD
ROOT
HETATM    1  C   UNL     1      -9.529   5.251  71.640  1.00  0.00    -0.187 C  
HETATM    2  C   UNL     1      -8.596   4.072  72.004  1.00  0.00    -0.116 C  
HETATM    3  C   UNL     1      -7.365   3.981  71.096  1.00  0.00    -0.040 C  
HETATM    4  C   UNL     1      -7.722   3.919  69.592  1.00  0.00    -0.052 C  
HETATM    5  C   UNL     1      -9.246   4.164  69.370  1.00  0.00    -0.210 C  
HETATM    6  C   UNL     1      -7.210   2.634  68.946  1.00  0.00    -0.044 C  
HETATM    7  C   UNL     1      -9.660   4.165  67.900  1.00  0.00    -0.203 C  
HETATM    8  C   UNL     1      -9.256   5.438  67.179  1.00  0.00    -0.111 C  
HETATM    9  C   UNL     1      -9.881   6.718  67.780  1.00  0.00    -0.126 C  
HETATM   10  C   UNL     1     -10.054   7.704  66.618  1.00  0.00    -0.278 C  
HETATM   11  O   UNL     1      -9.050   7.379  68.734  1.00  0.00    -0.133 OA 
HETATM   12  O   UNL     1      -8.617   6.451  69.779  1.00  0.00    -0.135 OA 
HETATM   13  C   UNL     1      -9.640   5.480  70.100  1.00  0.00    -0.170 C  
HETATM   14  C   UNL     1     -11.063   5.980  69.706  1.00  0.00    -0.406 C  
HETATM   15  O   UNL     1     -11.533   6.945  70.644  1.00  0.00    -0.297 OA 
HETATM   16  O   UNL     1     -11.162   6.472  68.358  1.00  0.00    -0.283 OA 
HETATM   17  C   UNL     1     -11.723   6.417  71.964  1.00  0.00    -0.329 C  
HETATM   18  C   UNL     1     -10.961   4.690  73.708  1.00  0.00    -0.368 C  
HETATM   19  C   UNL     1     -10.950   5.094  72.230  1.00  0.00    -0.209 C  
ENDROOT
BRANCH  17  20
HETATM   20  O   UNL     1     -11.276   7.363  72.941  1.00  0.00    -0.327 OA 
HETATM   21  C   UNL     1     -10.685   8.518  72.369  1.00  0.00    -0.306 C  
ENDBRANCH  17  20
TORSDOF 1
ENDMDL
MODEL       86
REMARK 921   NORMALIZED FREE ENERGY PREDICTED BY IDOCK:   -4.17 KCAL/MOL
REMARK 922        TOTAL FREE ENERGY PREDICTED BY IDOCK:   -4.45 KCAL/MOL
REMARK 923 INTER-LIGAND FREE ENERGY PREDICTED BY IDOCK:   -4.43 KCAL/MOL
REMARK 924 INTRA-LIGAND FREE ENERGY PREDICTED BY IDOCK:   -0.03 KCAL/MOL
REMARK 927      BINDING AFFINITY PREDICTED BY RF-SCORE:    0.00 PKD
ROOT
HETATM    1  C   UNL     1     -10.071   5.899  70.387  1.00  0.00    -0.259 C  
HETATM    2  C   UNL     1     -10.044   4.409  70.802  1.00  0.00    -0.199 C  
HETATM    3  C   UNL     1      -8.966   3.603  70.071  1.00  0.00    -0.168 C  
HETATM    4  C   UNL     1      -9.063   3.713  68.531  1.00  0.00    -0.201 C  
HETATM    5  C   UNL     1     -10.121   4.781  68.114  1.00  0.00    -0.105 C  
HETATM    6  C   UNL     1      -9.285   2.349  67.884  1.00  0.00    -0.248 C  
HETATM    7  C   UNL     1     -10.234   4.976  66.605  1.00  0.00    -0.299 C  
HETATM    8  C   UNL     1      -9.073   5.768  66.028  1.00  0.00    -0.163 C  
HETATM    9  C   UNL     1      -8.939   7.191  66.616  1.00  0.00    -0.146 C  
HETATM   10  C   UNL     1      -8.341   8.065  65.505  1.00  0.00    -0.153 C  
HETATM   11  O   UNL     1      -8.034   7.284  67.716  1.00  0.00    -0.111 OA 
HETATM   12  O   UNL     1      -8.369   6.306  68.751  1.00  0.00    -0.118 OA 
HETATM   13  C   UNL     1      -9.798   6.106  68.864  1.00  0.00    -0.140 C  
HETATM   14  C   UNL     1     -10.603   7.319  68.308  1.00  0.00    -0.172 C  
HETATM   15  O   UNL     1     -10.574   8.405  69.230  1.00  0.00    -0.223 OA 
HETATM   16  O   UNL     1     -10.200   7.740  66.993  1.00  0.00    -0.247 OA 
HETATM   17  C   UNL     1     -11.226   8.120  70.475  1.00  0.00    -0.247 C  
HETATM   18  C   UNL     1     -11.857   6.319  72.196  1.00  0.00    -0.365 C  
HETATM   19  C   UNL     1     -11.396   6.601  70.762  1.00  0.00    -0.389 C  
ENDROOT
BRANCH  17  20
HETATM   20  O   UNL     1     -10.472   8.667  71.562  1.00  0.00    -0.227 OA 
HETATM   21  C   UNL     1      -9.150   9.026  71.199  1.00  0.00    -0.246 C  
ENDBRANCH  17  20
TORSDOF 1
ENDMDL
MODEL       87
REMARK 921   NORMALIZED FREE ENERGY PREDICTED BY IDOCK:   -4.08 KCAL/MOL
REMARK 922        TOTAL FREE ENERGY PREDICTED BY IDOCK:   -4.35 KCAL/MOL
REMARK 923 INTER-LIGAND FREE ENERGY PREDICTED BY IDOCK:   -4.18 KCAL/MOL
REMARK 924 INTRA-LIGAND FREE ENERGY PREDICTED BY IDOCK:   -0.17 KCAL/MOL
REMARK 927      BINDING AFFINITY PREDICTED BY RF-SCORE:    0.00 PKD
ROOT
HETATM    1  C   UNL     1      -8.471   7.809  69.365  1.00  0.00    -0.134 C  
HETATM    2  C   UNL     1      -7.522   8.680  68.509  1.00  0.00    -0.093 C  
HETATM    3  C   UNL     1      -7.470  10.140  68.971  1.00  0.00    -0.091 C  
HETATM    4  C   UNL     1      -8.864  10.805  69.045  1.00  0.00    -0.135 C  
HETATM    5  C   UNL     1      -9.996   9.756  68.816  1.00  0.00    -0.179 C  
HETATM    6  C   UNL     1      -8.959  12.015  68.119  1.00  0.00    -0.190 C  
HETATM    7  C   UNL     1     -11.403  10.337  68.924  1.00  0.00    -0.230 C  
HETATM    8  C   UNL     1     -11.817  10.606  70.360  1.00  0.00    -0.441 C  
HETATM    9  C   UNL     1     -11.827   9.343  71.251  1.00  0.00    -0.360 C  
HETATM   10  C   UNL     1     -12.920   9.563  72.305  1.00  0.00    -0.466 C  
HETATM   11  O   UNL     1     -10.617   9.135  71.980  1.00  0.00    -0.333 OA 
HETATM   12  O   UNL     1      -9.460   9.151  71.084  1.00  0.00    -0.261 OA 
HETATM   13  C   UNL     1      -9.765   8.568  69.795  1.00  0.00    -0.179 C  
HETATM   14  C   UNL     1     -10.988   7.604  69.865  1.00  0.00    -0.200 C  
HETATM   15  O   UNL     1     -10.614   6.363  70.457  1.00  0.00    -0.216 OA 
HETATM   16  O   UNL     1     -12.143   8.164  70.512  1.00  0.00    -0.058 OA 
HETATM   17  C   UNL     1      -9.655   5.625  69.688  1.00  0.00    -0.151 C  
HETATM   18  C   UNL     1      -7.687   5.742  68.040  1.00  0.00    -0.096 C  
HETATM   19  C   UNL     1      -8.870   6.491  68.662  1.00  0.00    -0.121 C  
ENDROOT
BRANCH  17  20
HETATM   20  O   UNL     1      -8.685   5.025  70.554  1.00  0.00    -0.109 OA 
HETATM   21  C   UNL     1      -9.002   5.168  71.928  1.00  0.00    -0.134 C  
ENDBRANCH  17  20
TORSDOF 1
ENDMDL
MODEL       88
REMARK 921   NORMALIZED FREE ENERGY PREDICTED BY IDOCK:   -4.07 KCAL/MOL
REMARK 922        TOTAL FREE ENERGY PREDICTED BY IDOCK:   -4.34 KCAL/MOL
REMARK 923 INTER-LIGAND FREE ENERGY PREDICTED BY IDOCK:   -4.17 KCAL/MOL
REMARK 924 INTRA-LIGAND FREE ENERGY PREDICTED BY IDOCK:   -0.17 KCAL/MOL
REMARK 927      BINDING AFFINITY PREDICTED BY RF-SCORE:    0.00 PKD
ROOT
HETATM    1  C   UNL     1      -8.077  14.638  67.395  1.00  0.00    -0.216 C  
HETATM    2  C   UNL     1      -8.748  13.308  66.978  1.00  0.00    -0.192 C  
HETATM    3  C   UNL     1      -9.835  13.493  65.915  1.00  0.00    -0.255 C  
HETATM    4  C   UNL     1     -10.919  14.518  66.326  1.00  0.00    -0.323 C  
HETATM    5  C   UNL     1     -10.522  15.251  67.644  1.00  0.00    -0.263 C  
HETATM    6  C   UNL     1     -12.305  13.878  66.378  1.00  0.00    -0.468 C  
HETATM    7  C   UNL     1     -11.527  16.314  68.082  1.00  0.00    -0.173 C  
HETATM    8  C   UNL     1     -11.446  17.578  67.245  1.00  0.00     0.898 C  
HETATM    9  C   UNL     1     -10.066  18.273  67.302  1.00  0.00    -0.355 C  
HETATM   10  C   UNL     1     -10.328  19.774  67.124  1.00  0.00    -0.589 C  
HETATM   11  O   UNL     1      -9.183  17.902  66.243  1.00  0.00    -0.395 OA 
HETATM   12  O   UNL     1      -9.049  16.447  66.162  1.00  0.00    -0.298 OA 
HETATM   13  C   UNL     1      -9.087  15.826  67.469  1.00  0.00    -0.195 C  
HETATM   14  C   UNL     1      -8.700  16.825  68.601  1.00  0.00    -0.255 C  
HETATM   15  O   UNL     1      -7.291  17.035  68.624  1.00  0.00    -0.205 OA 
HETATM   16  O   UNL     1      -9.413  18.073  68.554  1.00  0.00    -0.300 OA 
HETATM   17  C   UNL     1      -6.540  15.858  68.952  1.00  0.00    -0.126 C  
HETATM   18  C   UNL     1      -6.430  13.293  68.851  1.00  0.00    -0.100 C  
HETATM   19  C   UNL     1      -7.325  14.533  68.741  1.00  0.00    -0.129 C  
ENDROOT
BRANCH  17  20
HETATM   20  O   UNL     1      -5.366  15.781  68.136  1.00  0.00    -0.099 OA 
HETATM   21  C   UNL     1      -5.130  16.960  67.385  1.00  0.00    -0.129 C  
ENDBRANCH  17  20
TORSDOF 1
ENDMDL
MODEL       89
REMARK 921   NORMALIZED FREE ENERGY PREDICTED BY IDOCK:   -4.05 KCAL/MOL
REMARK 922        TOTAL FREE ENERGY PREDICTED BY IDOCK:   -4.32 KCAL/MOL
REMARK 923 INTER-LIGAND FREE ENERGY PREDICTED BY IDOCK:   -4.15 KCAL/MOL
REMARK 924 INTRA-LIGAND FREE ENERGY PREDICTED BY IDOCK:   -0.17 KCAL/MOL
REMARK 927      BINDING AFFINITY PREDICTED BY RF-SCORE:    0.00 PKD
ROOT
HETATM    1  C   UNL     1     -10.108  11.052  66.486  1.00  0.00    -0.270 C  
HETATM    2  C   UNL     1     -10.141  10.019  65.335  1.00  0.00    -0.317 C  
HETATM    3  C   UNL     1      -9.250   8.801  65.597  1.00  0.00    -0.244 C  
HETATM    4  C   UNL     1      -7.785   9.177  65.920  1.00  0.00    -0.095 C  
HETATM    5  C   UNL     1      -7.629  10.719  66.088  1.00  0.00    -0.139 C  
HETATM    6  C   UNL     1      -6.815   8.573  64.907  1.00  0.00    -0.072 C  
HETATM    7  C   UNL     1      -6.213  11.156  66.457  1.00  0.00    -0.139 C  
HETATM    8  C   UNL     1      -5.871  10.871  67.908  1.00  0.00    -0.046 C  
HETATM    9  C   UNL     1      -6.796  11.588  68.918  1.00  0.00    -0.095 C  
HETATM   10  C   UNL     1      -5.947  11.861  70.166  1.00  0.00    -0.159 C  
HETATM   11  O   UNL     1      -7.899  10.798  69.360  1.00  0.00    -0.144 OA 
HETATM   12  O   UNL     1      -8.653  10.272  68.221  1.00  0.00    -0.117 OA 
HETATM   13  C   UNL     1      -8.689  11.207  67.117  1.00  0.00    -0.141 C  
HETATM   14  C   UNL     1      -8.439  12.673  67.586  1.00  0.00    -0.173 C  
HETATM   15  O   UNL     1      -9.602  13.204  68.214  1.00  0.00    -0.222 OA 
HETATM   16  O   UNL     1      -7.277  12.834  68.417  1.00  0.00    -0.100 OA 
HETATM   17  C   UNL     1     -10.726  13.327  67.332  1.00  0.00    -0.258 C  
HETATM   18  C   UNL     1     -11.935  12.398  65.264  1.00  0.00    -0.461 C  
HETATM   19  C   UNL     1     -10.624  12.444  66.056  1.00  0.00    -0.286 C  
ENDROOT
BRANCH  17  20
HETATM   20  O   UNL     1     -11.928  12.943  68.009  1.00  0.00    -0.346 OA 
HETATM   21  C   UNL     1     -11.729  12.670  69.386  1.00  0.00    -0.325 C  
ENDBRANCH  17  20
TORSDOF 1
ENDMDL
MODEL       90
REMARK 921   NORMALIZED FREE ENERGY PREDICTED BY IDOCK:   -4.04 KCAL/MOL
REMARK 922        TOTAL FREE ENERGY PREDICTED BY IDOCK:   -4.31 KCAL/MOL
REMARK 923 INTER-LIGAND FREE ENERGY PREDICTED BY IDOCK:   -4.21 KCAL/MOL
REMARK 924 INTRA-LIGAND FREE ENERGY PREDICTED BY IDOCK:   -0.10 KCAL/MOL
REMARK 927      BINDING AFFINITY PREDICTED BY RF-SCORE:    0.00 PKD
ROOT
HETATM    1  C   UNL     1      -9.620  11.177  66.175  1.00  0.00    -0.239 C  
HETATM    2  C   UNL     1     -10.730  12.199  66.514  1.00  0.00    -0.290 C  
HETATM    3  C   UNL     1     -10.685  12.672  67.970  1.00  0.00    -0.243 C  
HETATM    4  C   UNL     1     -10.719  11.508  68.989  1.00  0.00    -0.233 C  
HETATM    5  C   UNL     1     -10.593  10.131  68.267  1.00  0.00    -0.262 C  
HETATM    6  C   UNL     1     -11.932  11.604  69.911  1.00  0.00    -0.414 C  
HETATM    7  C   UNL     1     -10.571   8.938  69.219  1.00  0.00    -0.219 C  
HETATM    8  C   UNL     1      -9.242   8.786  69.937  1.00  0.00    -0.160 C  
HETATM    9  C   UNL     1      -8.042   8.572  68.986  1.00  0.00    -0.115 C  
HETATM   10  C   UNL     1      -7.031   7.709  69.751  1.00  0.00    -0.051 C  
HETATM   11  O   UNL     1      -7.351   9.773  68.641  1.00  0.00    -0.072 OA 
HETATM   12  O   UNL     1      -8.279  10.776  68.119  1.00  0.00    -0.111 OA 
HETATM   13  C   UNL     1      -9.343  10.178  67.342  1.00  0.00    -0.148 C  
HETATM   14  C   UNL     1      -8.948   8.771  66.798  1.00  0.00    -0.135 C  
HETATM   15  O   UNL     1      -8.062   8.894  65.688  1.00  0.00    -0.104 OA 
HETATM   16  O   UNL     1      -8.416   7.882  67.795  1.00  0.00    -0.124 OA 
HETATM   17  C   UNL     1      -8.653   9.534  64.549  1.00  0.00    -0.187 C  
HETATM   18  C   UNL     1     -10.375  11.248  63.712  1.00  0.00    -0.453 C  
HETATM   19  C   UNL     1      -9.916  10.376  64.886  1.00  0.00    -0.409 C  
ENDROOT
BRANCH  17  20
HETATM   20  O   UNL     1      -7.711  10.424  63.940  1.00  0.00    -0.129 OA 
HETATM   21  C   UNL     1      -6.799   9.765  63.078  1.00  0.00    -0.113 C  
ENDBRANCH  17  20
TORSDOF 1
ENDMDL
MODEL       91
REMARK 921   NORMALIZED FREE ENERGY PREDICTED BY IDOCK:   -4.03 KCAL/MOL
REMARK 922        TOTAL FREE ENERGY PREDICTED BY IDOCK:   -4.30 KCAL/MOL
REMARK 923 INTER-LIGAND FREE ENERGY PREDICTED BY IDOCK:   -4.13 KCAL/MOL
REMARK 924 INTRA-LIGAND FREE ENERGY PREDICTED BY IDOCK:   -0.17 KCAL/MOL
REMARK 927      BINDING AFFINITY PREDICTED BY RF-SCORE:    0.00 PKD
ROOT
HETATM    1  C   UNL     1      -9.290   8.843  71.552  1.00  0.00    -0.335 C  
HETATM    2  C   UNL     1     -10.598   9.553  71.129  1.00  0.00    -0.388 C  
HETATM    3  C   UNL     1     -11.807   9.130  71.969  1.00  0.00    -0.407 C  
HETATM    4  C   UNL     1     -12.028   7.599  71.990  1.00  0.00    -0.341 C  
HETATM    5  C   UNL     1     -10.841   6.855  71.307  1.00  0.00    -0.263 C  
HETATM    6  C   UNL     1     -13.393   7.221  71.422  1.00  0.00    -0.399 C  
HETATM    7  C   UNL     1     -10.971   5.334  71.336  1.00  0.00    -0.076 C  
HETATM    8  C   UNL     1     -10.671   4.747  72.704  1.00  0.00    -0.263 C  
HETATM    9  C   UNL     1      -9.241   5.044  73.208  1.00  0.00    -0.128 C  
HETATM   10  C   UNL     1      -8.835   3.856  74.089  1.00  0.00    -0.091 C  
HETATM   11  O   UNL     1      -9.145   6.200  74.041  1.00  0.00    -0.126 OA 
HETATM   12  O   UNL     1      -9.737   7.366  73.384  1.00  0.00    -0.216 OA 
HETATM   13  C   UNL     1      -9.516   7.352  71.954  1.00  0.00    -0.144 C  
HETATM   14  C   UNL     1      -8.291   6.471  71.562  1.00  0.00    -0.121 C  
HETATM   15  O   UNL     1      -7.072   7.150  71.851  1.00  0.00    -0.070 OA 
HETATM   16  O   UNL     1      -8.304   5.154  72.138  1.00  0.00    -0.121 OA 
HETATM   17  C   UNL     1      -6.882   8.343  71.078  1.00  0.00    -0.050 C  
HETATM   18  C   UNL     1      -8.007  10.310  69.866  1.00  0.00    -0.092 C  
HETATM   19  C   UNL     1      -8.193   8.912  70.466  1.00  0.00    -0.160 C  
ENDROOT
BRANCH  17  20
HETATM   20  O   UNL     1      -6.323   9.377  71.897  1.00  0.00    -0.273 OA 
HETATM   21  C   UNL     1      -5.818   8.897  73.132  1.00  0.00    -0.066 C  
ENDBRANCH  17  20
TORSDOF 1
ENDMDL
MODEL       92
REMARK 921   NORMALIZED FREE ENERGY PREDICTED BY IDOCK:   -4.02 KCAL/MOL
REMARK 922        TOTAL FREE ENERGY PREDICTED BY IDOCK:   -4.29 KCAL/MOL
REMARK 923 INTER-LIGAND FREE ENERGY PREDICTED BY IDOCK:   -4.18 KCAL/MOL
REMARK 924 INTRA-LIGAND FREE ENERGY PREDICTED BY IDOCK:   -0.11 KCAL/MOL
REMARK 927      BINDING AFFINITY PREDICTED BY RF-SCORE:    0.00 PKD
ROOT
HETATM    1  C   UNL     1      -9.632  13.415  67.129  1.00  0.00    -0.241 C  
HETATM    2  C   UNL     1      -8.261  13.931  66.635  1.00  0.00     0.349 C  
HETATM    3  C   UNL     1      -7.494  14.715  67.704  1.00  0.00    -0.205 C  
HETATM    4  C   UNL     1      -8.309  15.888  68.299  1.00  0.00    -0.165 C  
HETATM    5  C   UNL     1      -9.785  15.855  67.794  1.00  0.00    -0.220 C  
HETATM    6  C   UNL     1      -7.616  17.228  68.066  1.00  0.00    -0.197 C  
HETATM    7  C   UNL     1     -10.660  16.959  68.382  1.00  0.00    -0.365 C  
HETATM    8  C   UNL     1     -11.050  16.692  69.824  1.00  0.00    -0.137 C  
HETATM    9  C   UNL     1     -11.854  15.387  70.019  1.00  0.00    -0.343 C  
HETATM   10  C   UNL     1     -12.786  15.625  71.215  1.00  0.00    -0.550 C  
HETATM   11  O   UNL     1     -11.055  14.256  70.366  1.00  0.00    -0.039 OA 
HETATM   12  O   UNL     1      -9.963  14.077  69.408  1.00  0.00     0.097 OA 
HETATM   13  C   UNL     1     -10.360  14.434  68.062  1.00  0.00    -0.227 C  
HETATM   14  C   UNL     1     -11.905  14.368  67.873  1.00  0.00    -0.349 C  
HETATM   15  O   UNL     1     -12.339  13.015  67.756  1.00  0.00    -0.144 OA 
HETATM   16  O   UNL     1     -12.653  15.070  68.880  1.00  0.00     0.073 OA 
HETATM   17  C   UNL     1     -11.835  12.349  66.590  1.00  0.00    -0.325 C  
HETATM   18  C   UNL     1      -9.914  12.166  64.893  1.00  0.00    -0.235 C  
HETATM   19  C   UNL     1     -10.580  13.028  65.971  1.00  0.00    -0.292 C  
ENDROOT
BRANCH  17  20
HETATM   20  O   UNL     1     -11.463  11.005  66.914  1.00  0.00    -0.384 OA 
HETATM   21  C   UNL     1     -11.519  10.730  68.303  1.00  0.00    -0.280 C  
ENDBRANCH  17  20
TORSDOF 1
ENDMDL
MODEL       93
REMARK 921   NORMALIZED FREE ENERGY PREDICTED BY IDOCK:   -4.01 KCAL/MOL
REMARK 922        TOTAL FREE ENERGY PREDICTED BY IDOCK:   -4.28 KCAL/MOL
REMARK 923 INTER-LIGAND FREE ENERGY PREDICTED BY IDOCK:   -4.14 KCAL/MOL
REMARK 924 INTRA-LIGAND FREE ENERGY PREDICTED BY IDOCK:   -0.14 KCAL/MOL
REMARK 927      BINDING AFFINITY PREDICTED BY RF-SCORE:    0.00 PKD
ROOT
HETATM    1  C   UNL     1      -9.577   6.145  71.644  1.00  0.00    -0.166 C  
HETATM    2  C   UNL     1     -10.298   5.008  70.885  1.00  0.00    -0.260 C  
HETATM    3  C   UNL     1      -9.838   4.873  69.430  1.00  0.00    -0.281 C  
HETATM    4  C   UNL     1      -9.956   6.192  68.630  1.00  0.00    -0.176 C  
HETATM    5  C   UNL     1     -10.333   7.381  69.566  1.00  0.00    -0.218 C  
HETATM    6  C   UNL     1     -10.890   6.040  67.432  1.00  0.00    -0.394 C  
HETATM    7  C   UNL     1     -10.419   8.725  68.848  1.00  0.00    -0.217 C  
HETATM    8  C   UNL     1      -9.053   9.300  68.516  1.00  0.00    -0.132 C  
HETATM    9  C   UNL     1      -8.168   9.555  69.757  1.00  0.00    -0.151 C  
HETATM   10  C   UNL     1      -7.273  10.753  69.413  1.00  0.00    -0.132 C  
HETATM   11  O   UNL     1      -7.281   8.482  70.071  1.00  0.00    -0.049 OA 
HETATM   12  O   UNL     1      -8.011   7.219  70.183  1.00  0.00    -0.108 OA 
HETATM   13  C   UNL     1      -9.328   7.404  70.754  1.00  0.00    -0.159 C  
HETATM   14  C   UNL     1      -9.422   8.715  71.592  1.00  0.00    -0.269 C  
HETATM   15  O   UNL     1      -8.781   8.549  72.854  1.00  0.00    -0.337 OA 
HETATM   16  O   UNL     1      -8.939   9.885  70.911  1.00  0.00    -0.004 OA 
HETATM   17  C   UNL     1      -9.411   7.574  73.696  1.00  0.00    -0.277 C  
HETATM   18  C   UNL     1     -10.777   5.401  73.799  1.00  0.00    -0.324 C  
HETATM   19  C   UNL     1     -10.323   6.576  72.928  1.00  0.00    -0.232 C  
ENDROOT
BRANCH  17  20
HETATM   20  O   UNL     1      -8.419   6.794  74.373  1.00  0.00    -0.136 OA 
HETATM   21  C   UNL     1      -7.190   7.480  74.542  1.00  0.00    -0.120 C  
ENDBRANCH  17  20
TORSDOF 1
ENDMDL
MODEL       94
REMARK 921   NORMALIZED FREE ENERGY PREDICTED BY IDOCK:   -4.01 KCAL/MOL
REMARK 922        TOTAL FREE ENERGY PREDICTED BY IDOCK:   -4.28 KCAL/MOL
REMARK 923 INTER-LIGAND FREE ENERGY PREDICTED BY IDOCK:   -4.14 KCAL/MOL
REMARK 924 INTRA-LIGAND FREE ENERGY PREDICTED BY IDOCK:   -0.13 KCAL/MOL
REMARK 927      BINDING AFFINITY PREDICTED BY RF-SCORE:    0.00 PKD
ROOT
HETATM    1  C   UNL     1      -9.406   4.190  71.931  1.00  0.00    -0.190 C  
HETATM    2  C   UNL     1      -8.565   3.018  71.373  1.00  0.00    -0.101 C  
HETATM    3  C   UNL     1      -7.548   3.459  70.316  1.00  0.00    -0.044 C  
HETATM    4  C   UNL     1      -8.189   4.244  69.147  1.00  0.00    -0.077 C  
HETATM    5  C   UNL     1      -9.688   4.558  69.440  1.00  0.00    -0.272 C  
HETATM    6  C   UNL     1      -7.963   3.543  67.809  1.00  0.00    -0.080 C  
HETATM    7  C   UNL     1     -10.370   5.375  68.346  1.00  0.00    -0.216 C  
HETATM    8  C   UNL     1      -9.965   6.838  68.369  1.00  0.00    -0.153 C  
HETATM    9  C   UNL     1     -10.310   7.559  69.692  1.00  0.00    -0.225 C  
HETATM   10  C   UNL     1     -10.584   9.024  69.331  1.00  0.00    -0.231 C  
HETATM   11  O   UNL     1      -9.241   7.582  70.639  1.00  0.00    -0.158 OA 
HETATM   12  O   UNL     1      -8.729   6.233  70.879  1.00  0.00    -0.134 OA 
HETATM   13  C   UNL     1      -9.779   5.239  70.837  1.00  0.00    -0.184 C  
HETATM   14  C   UNL     1     -11.183   5.861  71.108  1.00  0.00    -0.211 C  
HETATM   15  O   UNL     1     -11.350   6.133  72.497  1.00  0.00    -0.270 OA 
HETATM   16  O   UNL     1     -11.477   7.020  70.310  1.00  0.00    -0.300 OA 
HETATM   17  C   UNL     1     -11.346   4.956  73.318  1.00  0.00    -0.327 C  
HETATM   18  C   UNL     1     -10.474   2.558  73.614  1.00  0.00    -0.225 C  
HETATM   19  C   UNL     1     -10.696   3.718  72.638  1.00  0.00    -0.096 C  
ENDROOT
BRANCH  17  20
HETATM   20  O   UNL     1     -10.614   5.200  74.524  1.00  0.00    -0.315 OA 
HETATM   21  C   UNL     1     -10.008   6.481  74.559  1.00  0.00    -0.334 C  
ENDBRANCH  17  20
TORSDOF 1
ENDMDL
MODEL       95
REMARK 921   NORMALIZED FREE ENERGY PREDICTED BY IDOCK:   -4.00 KCAL/MOL
REMARK 922        TOTAL FREE ENERGY PREDICTED BY IDOCK:   -4.27 KCAL/MOL
REMARK 923 INTER-LIGAND FREE ENERGY PREDICTED BY IDOCK:   -4.17 KCAL/MOL
REMARK 924 INTRA-LIGAND FREE ENERGY PREDICTED BY IDOCK:   -0.10 KCAL/MOL
REMARK 927      BINDING AFFINITY PREDICTED BY RF-SCORE:    0.00 PKD
ROOT
HETATM    1  C   UNL     1     -10.484   9.900  70.831  1.00  0.00    -0.192 C  
HETATM    2  C   UNL     1     -10.804   8.784  71.852  1.00  0.00    -0.431 C  
HETATM    3  C   UNL     1      -9.549   8.104  72.409  1.00  0.00    -0.335 C  
HETATM    4  C   UNL     1      -8.618   7.549  71.305  1.00  0.00    -0.122 C  
HETATM    5  C   UNL     1      -9.099   7.999  69.891  1.00  0.00    -0.145 C  
HETATM    6  C   UNL     1      -8.431   6.040  71.434  1.00  0.00    -0.128 C  
HETATM    7  C   UNL     1      -8.195   7.526  68.756  1.00  0.00    -0.129 C  
HETATM    8  C   UNL     1      -6.903   8.317  68.667  1.00  0.00    -0.063 C  
HETATM    9  C   UNL     1      -7.114   9.828  68.419  1.00  0.00    -0.073 C  
HETATM   10  C   UNL     1      -5.899  10.312  67.618  1.00  0.00    -0.045 C  
HETATM   11  O   UNL     1      -7.138  10.617  69.609  1.00  0.00    -0.119 OA 
HETATM   12  O   UNL     1      -8.111  10.088  70.565  1.00  0.00    -0.194 OA 
HETATM   13  C   UNL     1      -9.278   9.545  69.905  1.00  0.00    -0.220 C  
HETATM   14  C   UNL     1      -9.470  10.138  68.477  1.00  0.00    -0.158 C  
HETATM   15  O   UNL     1      -9.995  11.461  68.550  1.00  0.00    -0.190 OA 
HETATM   16  O   UNL     1      -8.291  10.089  67.656  1.00  0.00    -0.114 OA 
HETATM   17  C   UNL     1     -11.313  11.526  69.114  1.00  0.00    -0.286 C  
HETATM   18  C   UNL     1     -12.994  10.475  70.748  1.00  0.00    -0.413 C  
HETATM   19  C   UNL     1     -11.700  10.275  69.953  1.00  0.00    -0.298 C  
ENDROOT
BRANCH  17  20
HETATM   20  O   UNL     1     -11.421  12.659  69.983  1.00  0.00    -0.169 OA 
HETATM   21  C   UNL     1     -11.945  13.807  69.338  1.00  0.00    -0.347 C  
ENDBRANCH  17  20
TORSDOF 1
ENDMDL
MODEL       96
REMARK 921   NORMALIZED FREE ENERGY PREDICTED BY IDOCK:   -3.84 KCAL/MOL
REMARK 922        TOTAL FREE ENERGY PREDICTED BY IDOCK:   -4.10 KCAL/MOL
REMARK 923 INTER-LIGAND FREE ENERGY PREDICTED BY IDOCK:   -3.93 KCAL/MOL
REMARK 924 INTRA-LIGAND FREE ENERGY PREDICTED BY IDOCK:   -0.17 KCAL/MOL
REMARK 927      BINDING AFFINITY PREDICTED BY RF-SCORE:    0.00 PKD
ROOT
HETATM    1  C   UNL     1     -10.153   7.615  69.606  1.00  0.00    -0.194 C  
HETATM    2  C   UNL     1     -11.345   7.092  70.442  1.00  0.00    -0.325 C  
HETATM    3  C   UNL     1     -11.432   7.736  71.829  1.00  0.00    -0.307 C  
HETATM    4  C   UNL     1     -10.124   7.601  72.645  1.00  0.00    -0.298 C  
HETATM    5  C   UNL     1      -8.977   7.012  71.767  1.00  0.00    -0.135 C  
HETATM    6  C   UNL     1     -10.350   6.837  73.946  1.00  0.00    -0.397 C  
HETATM    7  C   UNL     1      -7.642   6.897  72.497  1.00  0.00    -0.091 C  
HETATM    8  C   UNL     1      -6.949   8.237  72.665  1.00  0.00    -0.115 C  
HETATM    9  C   UNL     1      -6.624   8.940  71.327  1.00  0.00    -0.080 C  
HETATM   10  C   UNL     1      -5.351   9.762  71.566  1.00  0.00    -0.077 C  
HETATM   11  O   UNL     1      -7.618   9.872  70.902  1.00  0.00    -0.293 OA 
HETATM   12  O   UNL     1      -8.940   9.246  70.872  1.00  0.00    -0.235 OA 
HETATM   13  C   UNL     1      -8.874   7.859  70.466  1.00  0.00    -0.141 C  
HETATM   14  C   UNL     1      -7.580   7.551  69.652  1.00  0.00    -0.094 C  
HETATM   15  O   UNL     1      -7.696   8.046  68.321  1.00  0.00    -0.112 OA 
HETATM   16  O   UNL     1      -6.369   8.009  70.276  1.00  0.00    -0.036 OA 
HETATM   17  C   UNL     1      -8.727   7.405  67.557  1.00  0.00    -0.124 C  
HETATM   18  C   UNL     1     -11.011   6.231  67.609  1.00  0.00    -0.438 C  
HETATM   19  C   UNL     1      -9.796   6.684  68.425  1.00  0.00    -0.138 C  
ENDROOT
BRANCH  17  20
HETATM   20  O   UNL     1      -9.421   8.372  66.760  1.00  0.00    -0.167 OA 
HETATM   21  C   UNL     1      -8.741   9.613  66.671  1.00  0.00    -0.134 C  
ENDBRANCH  17  20
TORSDOF 1
ENDMDL
MODEL       97
REMARK 921   NORMALIZED FREE ENERGY PREDICTED BY IDOCK:   -3.79 KCAL/MOL
REMARK 922        TOTAL FREE ENERGY PREDICTED BY IDOCK:   -4.04 KCAL/MOL
REMARK 923 INTER-LIGAND FREE ENERGY PREDICTED BY IDOCK:   -3.94 KCAL/MOL
REMARK 924 INTRA-LIGAND FREE ENERGY PREDICTED BY IDOCK:   -0.10 KCAL/MOL
REMARK 927      BINDING AFFINITY PREDICTED BY RF-SCORE:    0.00 PKD
ROOT
HETATM    1  C   UNL     1     -10.655  14.161  68.653  1.00  0.00    -0.253 C  
HETATM    2  C   UNL     1     -11.847  14.073  69.633  1.00  0.00    -0.386 C  
HETATM    3  C   UNL     1     -11.840  12.792  70.472  1.00  0.00    -0.142 C  
HETATM    4  C   UNL     1     -11.773  11.505  69.617  1.00  0.00    -0.419 C  
HETATM    5  C   UNL     1     -11.531  11.846  68.114  1.00  0.00    -0.384 C  
HETATM    6  C   UNL     1     -12.987  10.611  69.851  1.00  0.00     0.175 C  
HETATM    7  C   UNL     1     -11.405  10.617  67.218  1.00  0.00    -0.122 C  
HETATM    8  C   UNL     1     -10.066   9.916  67.369  1.00  0.00    -0.254 C  
HETATM    9  C   UNL     1      -8.854  10.807  67.013  1.00  0.00    -0.135 C  
HETATM   10  C   UNL     1      -7.771   9.869  66.466  1.00  0.00    -0.107 C  
HETATM   11  O   UNL     1      -8.269  11.470  68.134  1.00  0.00    -0.134 OA 
HETATM   12  O   UNL     1      -9.280  12.213  68.886  1.00  0.00     0.034 OA 
HETATM   13  C   UNL     1     -10.291  12.781  68.020  1.00  0.00    -0.229 C  
HETATM   14  C   UNL     1      -9.778  12.950  66.557  1.00  0.00    -0.257 C  
HETATM   15  O   UNL     1      -8.908  14.074  66.458  1.00  0.00    -0.159 OA 
HETATM   16  O   UNL     1      -9.170  11.769  66.007  1.00  0.00    -0.223 OA 
HETATM   17  C   UNL     1      -9.554  15.326  66.727  1.00  0.00    -0.241 C  
HETATM   18  C   UNL     1     -11.418  16.538  68.015  1.00  0.00     0.016 C  
HETATM   19  C   UNL     1     -10.884  15.189  67.521  1.00  0.00    -0.301 C  
ENDROOT
BRANCH  17  20
HETATM   20  O   UNL     1      -8.692  16.168  67.501  1.00  0.00    -0.181 OA 
HETATM   21  C   UNL     1      -7.867  17.002  66.705  1.00  0.00    -0.239 C  
ENDBRANCH  17  20
TORSDOF 1
ENDMDL
MODEL       98
REMARK 921   NORMALIZED FREE ENERGY PREDICTED BY IDOCK:   -3.76 KCAL/MOL
REMARK 922        TOTAL FREE ENERGY PREDICTED BY IDOCK:   -4.01 KCAL/MOL
REMARK 923 INTER-LIGAND FREE ENERGY PREDICTED BY IDOCK:   -3.84 KCAL/MOL
REMARK 924 INTRA-LIGAND FREE ENERGY PREDICTED BY IDOCK:   -0.17 KCAL/MOL
REMARK 927      BINDING AFFINITY PREDICTED BY RF-SCORE:    0.00 PKD
ROOT
HETATM    1  C   UNL     1      -9.039   5.999  70.673  1.00  0.00    -0.157 C  
HETATM    2  C   UNL     1      -7.841   5.030  70.809  1.00  0.00    -0.083 C  
HETATM    3  C   UNL     1      -6.613   5.480  70.012  1.00  0.00    -0.043 C  
HETATM    4  C   UNL     1      -6.916   5.727  68.515  1.00  0.00    -0.068 C  
HETATM    5  C   UNL     1      -8.448   5.643  68.235  1.00  0.00    -0.105 C  
HETATM    6  C   UNL     1      -6.082   4.818  67.616  1.00  0.00    -0.031 C  
HETATM    7  C   UNL     1      -8.824   5.925  66.783  1.00  0.00    -0.118 C  
HETATM    8  C   UNL     1      -8.748   7.401  66.435  1.00  0.00    -0.154 C  
HETATM    9  C   UNL     1      -9.690   8.288  67.280  1.00  0.00    -0.177 C  
HETATM   10  C   UNL     1     -10.091   9.470  66.388  1.00  0.00    -0.328 C  
HETATM   11  O   UNL     1      -9.073   8.860  68.433  1.00  0.00    -0.137 OA 
HETATM   12  O   UNL     1      -8.433   7.827  69.248  1.00  0.00    -0.134 OA 
HETATM   13  C   UNL     1      -9.179   6.587  69.234  1.00  0.00    -0.139 C  
HETATM   14  C   UNL     1     -10.676   6.810  68.860  1.00  0.00    -0.240 C  
HETATM   15  O   UNL     1     -11.393   7.353  69.966  1.00  0.00    -0.227 OA 
HETATM   16  O   UNL     1     -10.875   7.596  67.672  1.00  0.00    -0.197 OA 
HETATM   17  C   UNL     1     -11.463   6.470  71.094  1.00  0.00    -0.326 C  
HETATM   18  C   UNL     1     -10.313   4.589  72.413  1.00  0.00    -0.256 C  
HETATM   19  C   UNL     1     -10.381   5.354  71.087  1.00  0.00    -0.304 C  
ENDROOT
BRANCH  17  20
HETATM   20  O   UNL     1     -11.290   7.210  72.308  1.00  0.00    -0.249 OA 
HETATM   21  C   UNL     1     -11.282   8.613  72.110  1.00  0.00    -0.367 C  
ENDBRANCH  17  20
TORSDOF 1
ENDMDL
MODEL       99
REMARK 921   NORMALIZED FREE ENERGY PREDICTED BY IDOCK:   -3.68 KCAL/MOL
REMARK 922        TOTAL FREE ENERGY PREDICTED BY IDOCK:   -3.93 KCAL/MOL
REMARK 923 INTER-LIGAND FREE ENERGY PREDICTED BY IDOCK:   -3.77 KCAL/MOL
REMARK 924 INTRA-LIGAND FREE ENERGY PREDICTED BY IDOCK:   -0.16 KCAL/MOL
REMARK 927      BINDING AFFINITY PREDICTED BY RF-SCORE:    0.00 PKD
ROOT
HETATM    1  C   UNL     1      -9.610   4.510  68.046  1.00  0.00    -0.209 C  
HETATM    2  C   UNL     1      -9.609   4.074  69.530  1.00  0.00    -0.265 C  
HETATM    3  C   UNL     1     -10.338   5.063  70.445  1.00  0.00    -0.297 C  
HETATM    4  C   UNL     1      -9.802   6.509  70.327  1.00  0.00    -0.185 C  
HETATM    5  C   UNL     1      -8.780   6.631  69.155  1.00  0.00    -0.130 C  
HETATM    6  C   UNL     1      -9.263   7.019  71.661  1.00  0.00    -0.144 C  
HETATM    7  C   UNL     1      -8.246   8.046  68.950  1.00  0.00    -0.125 C  
HETATM    8  C   UNL     1      -9.258   8.963  68.285  1.00  0.00    -0.143 C  
HETATM    9  C   UNL     1      -9.701   8.487  66.883  1.00  0.00    -0.221 C  
HETATM   10  C   UNL     1     -10.028   9.751  66.078  1.00  0.00    -0.342 C  
HETATM   11  O   UNL     1     -10.895   7.704  66.884  1.00  0.00    -0.328 OA 
HETATM   12  O   UNL     1     -10.784   6.586  67.821  1.00  0.00    -0.227 OA 
HETATM   13  C   UNL     1      -9.440   6.051  67.870  1.00  0.00    -0.112 C  
HETATM   14  C   UNL     1      -8.632   6.386  66.579  1.00  0.00    -0.125 C  
HETATM   15  O   UNL     1      -9.041   5.547  65.501  1.00  0.00    -0.155 OA 
HETATM   16  O   UNL     1      -8.669   7.773  66.204  1.00  0.00    -0.142 OA 
HETATM   17  C   UNL     1      -8.759   4.158  65.716  1.00  0.00    -0.119 C  
HETATM   18  C   UNL     1      -8.488   2.271  67.439  1.00  0.00    -0.106 C  
HETATM   19  C   UNL     1      -8.532   3.785  67.209  1.00  0.00    -0.103 C  
ENDROOT
BRANCH  17  20
HETATM   20  O   UNL     1      -9.851   3.357  65.250  1.00  0.00    -0.121 OA 
HETATM   21  C   UNL     1     -10.731   4.061  64.389  1.00  0.00    -0.168 C  
ENDBRANCH  17  20
TORSDOF 1
ENDMDL
MODEL      100
REMARK 921   NORMALIZED FREE ENERGY PREDICTED BY IDOCK:   -3.64 KCAL/MOL
REMARK 922        TOTAL FREE ENERGY PREDICTED BY IDOCK:   -3.88 KCAL/MOL
REMARK 923 INTER-LIGAND FREE ENERGY PREDICTED BY IDOCK:   -3.85 KCAL/MOL
REMARK 924 INTRA-LIGAND FREE ENERGY PREDICTED BY IDOCK:   -0.03 KCAL/MOL
REMARK 927      BINDING AFFINITY PREDICTED BY RF-SCORE:    0.00 PKD
ROOT
HETATM    1  C   UNL     1      -9.542  12.540  66.487  1.00  0.00    -0.242 C  
HETATM    2  C   UNL     1      -9.071  13.187  67.810  1.00  0.00    -0.200 C  
HETATM    3  C   UNL     1      -7.623  12.835  68.167  1.00  0.00    -0.134 C  
HETATM    4  C   UNL     1      -7.361  11.311  68.210  1.00  0.00    -0.095 C  
HETATM    5  C   UNL     1      -8.596  10.517  67.684  1.00  0.00    -0.118 C  
HETATM    6  C   UNL     1      -6.890  10.861  69.590  1.00  0.00    -0.137 C  
HETATM    7  C   UNL     1      -8.387   9.005  67.653  1.00  0.00    -0.117 C  
HETATM    8  C   UNL     1      -7.498   8.560  66.505  1.00  0.00    -0.088 C  
HETATM    9  C   UNL     1      -8.054   8.925  65.110  1.00  0.00    -0.133 C  
HETATM   10  C   UNL     1      -7.563   7.835  64.148  1.00  0.00    -0.113 C  
HETATM   11  O   UNL     1      -7.559  10.158  64.589  1.00  0.00    -0.141 OA 
HETATM   12  O   UNL     1      -7.758  11.246  65.547  1.00  0.00     0.164 OA 
HETATM   13  C   UNL     1      -8.990  11.093  66.292  1.00  0.00    -0.193 C  
HETATM   14  C   UNL     1     -10.018  10.193  65.541  1.00  0.00    -0.293 C  
HETATM   15  O   UNL     1     -10.628  10.913  64.474  1.00  0.00    -0.343 OA 
HETATM   16  O   UNL     1      -9.481   8.940  65.085  1.00  0.00    -0.075 OA 
HETATM   17  C   UNL     1     -11.420  12.026  64.910  1.00  0.00    -0.294 C  
HETATM   18  C   UNL     1     -11.753  13.848  66.691  1.00  0.00    -0.417 C  
HETATM   19  C   UNL     1     -11.081  12.514  66.348  1.00  0.00    -0.332 C  
ENDROOT
BRANCH  17  20
HETATM   20  O   UNL     1     -11.225  13.142  64.035  1.00  0.00    -0.382 OA 
HETATM   21  C   UNL     1     -12.362  13.431  63.239  1.00  0.00    -0.169 C  
ENDBRANCH  17  20
TORSDOF 1
ENDMDL
MODEL      101
REMARK 921   NORMALIZED FREE ENERGY PREDICTED BY IDOCK:   -3.61 KCAL/MOL
REMARK 922        TOTAL FREE ENERGY PREDICTED BY IDOCK:   -3.86 KCAL/MOL
REMARK 923 INTER-LIGAND FREE ENERGY PREDICTED BY IDOCK:   -3.75 KCAL/MOL
REMARK 924 INTRA-LIGAND FREE ENERGY PREDICTED BY IDOCK:   -0.10 KCAL/MOL
REMARK 927      BINDING AFFINITY PREDICTED BY RF-SCORE:    0.00 PKD
ROOT
HETATM    1  C   UNL     1      -9.593   7.781  68.314  1.00  0.00    -0.162 C  
HETATM    2  C   UNL     1     -10.468   7.918  67.047  1.00  0.00    -0.419 C  
HETATM    3  C   UNL     1      -9.781   8.706  65.927  1.00  0.00    -0.154 C  
HETATM    4  C   UNL     1      -9.294  10.103  66.378  1.00  0.00    -0.209 C  
HETATM    5  C   UNL     1      -9.452  10.279  67.919  1.00  0.00    -0.154 C  
HETATM    6  C   UNL     1      -9.952  11.216  65.567  1.00  0.00    -0.298 C  
HETATM    7  C   UNL     1      -8.943  11.621  68.440  1.00  0.00    -0.176 C  
HETATM    8  C   UNL     1      -7.428  11.691  68.495  1.00  0.00    -0.113 C  
HETATM    9  C   UNL     1      -6.789  10.626  69.417  1.00  0.00    -0.095 C  
HETATM   10  C   UNL     1      -5.502  11.249  69.973  1.00  0.00    -0.080 C  
HETATM   11  O   UNL     1      -6.386   9.436  68.739  1.00  0.00    -0.047 OA 
HETATM   12  O   UNL     1      -7.494   8.879  67.962  1.00  0.00    -0.090 OA 
HETATM   13  C   UNL     1      -8.768   9.070  68.621  1.00  0.00    -0.133 C  
HETATM   14  C   UNL     1      -8.604   9.283  70.156  1.00  0.00    -0.198 C  
HETATM   15  O   UNL     1      -8.332   8.045  70.808  1.00  0.00    -0.110 OA 
HETATM   16  O   UNL     1      -7.636  10.284  70.512  1.00  0.00    -0.212 OA 
HETATM   17  C   UNL     1      -9.407   7.100  70.718  1.00  0.00    -0.160 C  
HETATM   18  C   UNL     1     -11.395   6.246  69.332  1.00  0.00    -0.448 C  
HETATM   19  C   UNL     1     -10.411   7.396  69.568  1.00  0.00    -0.236 C  
ENDROOT
BRANCH  17  20
HETATM   20  O   UNL     1      -8.889   5.785  70.489  1.00  0.00    -0.135 OA 
HETATM   21  C   UNL     1      -8.460   5.139  71.676  1.00  0.00    -0.125 C  
ENDBRANCH  17  20
TORSDOF 1
ENDMDL
MODEL      102
REMARK 921   NORMALIZED FREE ENERGY PREDICTED BY IDOCK:   -3.58 KCAL/MOL
REMARK 922        TOTAL FREE ENERGY PREDICTED BY IDOCK:   -3.82 KCAL/MOL
REMARK 923 INTER-LIGAND FREE ENERGY PREDICTED BY IDOCK:   -3.68 KCAL/MOL
REMARK 924 INTRA-LIGAND FREE ENERGY PREDICTED BY IDOCK:   -0.14 KCAL/MOL
REMARK 927      BINDING AFFINITY PREDICTED BY RF-SCORE:    0.00 PKD
ROOT
HETATM    1  C   UNL     1     -10.588  17.089  67.498  1.00  0.00    -0.310 C  
HETATM    2  C   UNL     1     -11.509  18.322  67.646  1.00  0.00     0.891 C  
HETATM    3  C   UNL     1     -11.031  19.529  66.833  1.00  0.00    -0.422 C  
HETATM    4  C   UNL     1      -9.570  19.931  67.143  1.00  0.00    -0.508 C  
HETATM    5  C   UNL     1      -8.886  18.877  68.068  1.00  0.00    -0.337 C  
HETATM    6  C   UNL     1      -9.481  21.359  67.675  1.00  0.00     0.253 C  
HETATM    7  C   UNL     1      -7.423  19.187  68.374  1.00  0.00    -0.342 C  
HETATM    8  C   UNL     1      -6.503  18.891  67.203  1.00  0.00    -0.195 C  
HETATM    9  C   UNL     1      -6.523  17.411  66.756  1.00  0.00    -0.204 C  
HETATM   10  C   UNL     1      -5.125  17.107  66.202  1.00  0.00     0.015 C  
HETATM   11  O   UNL     1      -7.434  17.136  65.693  1.00  0.00    -0.237 OA 
HETATM   12  O   UNL     1      -8.777  17.616  66.020  1.00  0.00    -0.499 OA 
HETATM   13  C   UNL     1      -9.075  17.471  67.429  1.00  0.00    -0.237 C  
HETATM   14  C   UNL     1      -8.188  16.382  68.104  1.00  0.00    -0.170 C  
HETATM   15  O   UNL     1      -8.649  15.077  67.763  1.00  0.00    -0.152 OA 
HETATM   16  O   UNL     1      -6.781  16.524  67.842  1.00  0.00    -0.129 OA 
HETATM   17  C   UNL     1      -9.963  14.785  68.258  1.00  0.00    -0.222 C  
HETATM   18  C   UNL     1     -12.265  15.727  68.901  1.00  0.00     0.009 C  
HETATM   19  C   UNL     1     -10.793  16.049  68.622  1.00  0.00    -0.301 C  
ENDROOT
BRANCH  17  20
HETATM   20  O   UNL     1     -10.711  14.066  67.271  1.00  0.00    -0.274 OA 
HETATM   21  C   UNL     1     -10.003  13.886  66.056  1.00  0.00    -0.310 C  
ENDBRANCH  17  20
TORSDOF 1
ENDMDL
MODEL      103
REMARK 921   NORMALIZED FREE ENERGY PREDICTED BY IDOCK:   -3.56 KCAL/MOL
REMARK 922        TOTAL FREE ENERGY PREDICTED BY IDOCK:   -3.80 KCAL/MOL
REMARK 923 INTER-LIGAND FREE ENERGY PREDICTED BY IDOCK:   -3.69 KCAL/MOL
REMARK 924 INTRA-LIGAND FREE ENERGY PREDICTED BY IDOCK:   -0.11 KCAL/MOL
REMARK 927      BINDING AFFINITY PREDICTED BY RF-SCORE:    0.00 PKD
ROOT
HETATM    1  C   UNL     1      -8.583   4.550  69.405  1.00  0.00    -0.105 C  
HETATM    2  C   UNL     1      -7.828   4.018  68.165  1.00  0.00    -0.073 C  
HETATM    3  C   UNL     1      -7.240   5.135  67.296  1.00  0.00    -0.081 C  
HETATM    4  C   UNL     1      -8.292   6.181  66.857  1.00  0.00    -0.106 C  
HETATM    5  C   UNL     1      -9.654   5.939  67.577  1.00  0.00    -0.114 C  
HETATM    6  C   UNL     1      -8.410   6.255  65.337  1.00  0.00    -0.148 C  
HETATM    7  C   UNL     1     -10.726   6.967  67.225  1.00  0.00    -0.412 C  
HETATM    8  C   UNL     1     -10.499   8.305  67.907  1.00  0.00    -0.259 C  
HETATM    9  C   UNL     1     -10.501   8.224  69.451  1.00  0.00    -0.220 C  
HETATM   10  C   UNL     1     -11.035   9.570  69.956  1.00  0.00    -0.284 C  
HETATM   11  O   UNL     1      -9.204   8.076  70.028  1.00  0.00    -0.154 OA 
HETATM   12  O   UNL     1      -8.494   6.944  69.432  1.00  0.00    -0.131 OA 
HETATM   13  C   UNL     1      -9.389   5.854  69.108  1.00  0.00    -0.120 C  
HETATM   14  C   UNL     1     -10.702   5.908  69.946  1.00  0.00    -0.336 C  
HETATM   15  O   UNL     1     -10.465   5.459  71.278  1.00  0.00    -0.226 OA 
HETATM   16  O   UNL     1     -11.355   7.189  69.936  1.00  0.00    -0.239 OA 
HETATM   17  C   UNL     1     -10.078   4.080  71.360  1.00  0.00    -0.077 C  
HETATM   18  C   UNL     1      -8.895   2.118  70.197  1.00  0.00    -0.135 C  
HETATM   19  C   UNL     1      -9.534   3.500  70.023  1.00  0.00    -0.253 C  
ENDROOT
BRANCH  17  20
HETATM   20  O   UNL     1      -9.044   3.917  72.336  1.00  0.00    -0.107 OA 
HETATM   21  C   UNL     1      -9.381   4.460  73.601  1.00  0.00    -0.113 C  
ENDBRANCH  17  20
TORSDOF 1
ENDMDL
MODEL      104
REMARK 921   NORMALIZED FREE ENERGY PREDICTED BY IDOCK:   -3.54 KCAL/MOL
REMARK 922        TOTAL FREE ENERGY PREDICTED BY IDOCK:   -3.78 KCAL/MOL
REMARK 923 INTER-LIGAND FREE ENERGY PREDICTED BY IDOCK:   -3.68 KCAL/MOL
REMARK 924 INTRA-LIGAND FREE ENERGY PREDICTED BY IDOCK:   -0.10 KCAL/MOL
REMARK 927      BINDING AFFINITY PREDICTED BY RF-SCORE:    0.00 PKD
ROOT
HETATM    1  C   UNL     1      -8.736   6.100  69.009  1.00  0.00    -0.124 C  
HETATM    2  C   UNL     1      -7.893   5.424  67.904  1.00  0.00    -0.092 C  
HETATM    3  C   UNL     1      -7.018   6.413  67.127  1.00  0.00    -0.071 C  
HETATM    4  C   UNL     1      -7.820   7.591  66.525  1.00  0.00    -0.102 C  
HETATM    5  C   UNL     1      -9.296   7.576  67.028  1.00  0.00    -0.186 C  
HETATM    6  C   UNL     1      -7.695   7.635  65.004  1.00  0.00    -0.109 C  
HETATM    7  C   UNL     1     -10.134   8.742  66.509  1.00  0.00    -0.349 C  
HETATM    8  C   UNL     1      -9.812  10.051  67.207  1.00  0.00    -0.225 C  
HETATM    9  C   UNL     1     -10.059  10.018  68.733  1.00  0.00    -0.185 C  
HETATM   10  C   UNL     1     -10.452  11.444  69.141  1.00  0.00    -0.159 C  
HETATM   11  O   UNL     1      -8.901   9.696  69.504  1.00  0.00    -0.160 OA 
HETATM   12  O   UNL     1      -8.290   8.453  69.032  1.00  0.00    -0.117 OA 
HETATM   13  C   UNL     1      -9.281   7.499  68.582  1.00  0.00    -0.144 C  
HETATM   14  C   UNL     1     -10.682   7.774  69.209  1.00  0.00    -0.147 C  
HETATM   15  O   UNL     1     -10.719   7.336  70.565  1.00  0.00    -0.223 OA 
HETATM   16  O   UNL     1     -11.123   9.137  69.089  1.00  0.00    -0.098 OA 
HETATM   17  C   UNL     1     -10.563   5.918  70.715  1.00  0.00    -0.265 C  
HETATM   18  C   UNL     1      -9.530   3.767  69.763  1.00  0.00    -0.256 C  
HETATM   19  C   UNL     1      -9.918   5.223  69.482  1.00  0.00    -0.297 C  
ENDROOT
BRANCH  17  20
HETATM   20  O   UNL     1      -9.724   5.632  71.840  1.00  0.00    -0.158 OA 
HETATM   21  C   UNL     1     -10.330   5.950  73.081  1.00  0.00    -0.211 C  
ENDBRANCH  17  20
TORSDOF 1
ENDMDL
MODEL      105
REMARK 921   NORMALIZED FREE ENERGY PREDICTED BY IDOCK:   -3.53 KCAL/MOL
REMARK 922        TOTAL FREE ENERGY PREDICTED BY IDOCK:   -3.78 KCAL/MOL
REMARK 923 INTER-LIGAND FREE ENERGY PREDICTED BY IDOCK:   -3.62 KCAL/MOL
REMARK 924 INTRA-LIGAND FREE ENERGY PREDICTED BY IDOCK:   -0.15 KCAL/MOL
REMARK 927      BINDING AFFINITY PREDICTED BY RF-SCORE:    0.00 PKD
ROOT
HETATM    1  C   UNL     1      -9.562   5.495  69.078  1.00  0.00    -0.180 C  
HETATM    2  C   UNL     1      -9.300   4.927  70.491  1.00  0.00    -0.216 C  
HETATM    3  C   UNL     1      -8.034   4.067  70.566  1.00  0.00    -0.055 C  
HETATM    4  C   UNL     1      -8.018   2.918  69.530  1.00  0.00    -0.055 C  
HETATM    5  C   UNL     1      -9.213   3.045  68.536  1.00  0.00    -0.233 C  
HETATM    6  C   UNL     1      -7.932   1.552  70.208  1.00  0.00    -0.050 C  
HETATM    7  C   UNL     1      -9.230   1.968  67.455  1.00  0.00    -0.166 C  
HETATM    8  C   UNL     1      -8.188   2.205  66.376  1.00  0.00    -0.088 C  
HETATM    9  C   UNL     1      -8.366   3.543  65.623  1.00  0.00    -0.106 C  
HETATM   10  C   UNL     1      -7.846   3.313  64.199  1.00  0.00    -0.081 C  
HETATM   11  O   UNL     1      -7.591   4.618  66.154  1.00  0.00    -0.088 OA 
HETATM   12  O   UNL     1      -7.830   4.774  67.589  1.00  0.00    -0.089 OA 
HETATM   13  C   UNL     1      -9.203   4.484  67.944  1.00  0.00    -0.131 C  
HETATM   14  C   UNL     1     -10.164   4.637  66.727  1.00  0.00    -0.185 C  
HETATM   15  O   UNL     1     -10.413   6.014  66.454  1.00  0.00    -0.167 OA 
HETATM   16  O   UNL     1      -9.734   3.940  65.545  1.00  0.00    -0.175 OA 
HETATM   17  C   UNL     1     -11.106   6.693  67.510  1.00  0.00    -0.292 C  
HETATM   18  C   UNL     1     -11.543   6.834  70.038  1.00  0.00    -0.367 C  
HETATM   19  C   UNL     1     -11.020   5.971  68.885  1.00  0.00    -0.395 C  
ENDROOT
BRANCH  17  20
HETATM   20  O   UNL     1     -10.561   8.004  67.693  1.00  0.00    -0.235 OA 
HETATM   21  C   UNL     1      -9.811   8.457  66.578  1.00  0.00    -0.268 C  
ENDBRANCH  17  20
TORSDOF 1
ENDMDL
MODEL      106
REMARK 921   NORMALIZED FREE ENERGY PREDICTED BY IDOCK:   -3.50 KCAL/MOL
REMARK 922        TOTAL FREE ENERGY PREDICTED BY IDOCK:   -3.74 KCAL/MOL
REMARK 923 INTER-LIGAND FREE ENERGY PREDICTED BY IDOCK:   -3.60 KCAL/MOL
REMARK 924 INTRA-LIGAND FREE ENERGY PREDICTED BY IDOCK:   -0.14 KCAL/MOL
REMARK 927      BINDING AFFINITY PREDICTED BY RF-SCORE:    0.00 PKD
ROOT
HETATM    1  C   UNL     1      -8.688   7.096  70.395  1.00  0.00    -0.150 C  
HETATM    2  C   UNL     1      -7.175   6.880  70.630  1.00  0.00    -0.069 C  
HETATM    3  C   UNL     1      -6.348   8.154  70.423  1.00  0.00    -0.036 C  
HETATM    4  C   UNL     1      -6.574   8.807  69.039  1.00  0.00    -0.048 C  
HETATM    5  C   UNL     1      -7.739   8.107  68.275  1.00  0.00    -0.114 C  
HETATM    6  C   UNL     1      -5.277   8.883  68.237  1.00  0.00    -0.034 C  
HETATM    7  C   UNL     1      -8.048   8.735  66.918  1.00  0.00    -0.101 C  
HETATM    8  C   UNL     1      -8.795  10.052  67.038  1.00  0.00    -0.147 C  
HETATM    9  C   UNL     1     -10.161   9.929  67.752  1.00  0.00    -0.180 C  
HETATM   10  C   UNL     1     -11.067  11.008  67.146  1.00  0.00    -0.333 C  
HETATM   11  O   UNL     1     -10.113  10.200  69.153  1.00  0.00    -0.189 OA 
HETATM   12  O   UNL     1      -9.089   9.383  69.807  1.00  0.00    -0.163 OA 
HETATM   13  C   UNL     1      -8.982   8.069  69.210  1.00  0.00    -0.148 C  
HETATM   14  C   UNL     1     -10.286   7.662  68.458  1.00  0.00    -0.199 C  
HETATM   15  O   UNL     1     -11.299   7.277  69.383  1.00  0.00    -0.061 OA 
HETATM   16  O   UNL     1     -10.769   8.656  67.538  1.00  0.00    -0.249 OA 
HETATM   17  C   UNL     1     -10.973   6.102  70.136  1.00  0.00    -0.358 C  
HETATM   18  C   UNL     1      -9.104   4.675  71.173  1.00  0.00    -0.180 C  
HETATM   19  C   UNL     1      -9.453   5.774  70.163  1.00  0.00    -0.195 C  
ENDROOT
BRANCH  17  20
HETATM   20  O   UNL     1     -11.388   6.259  71.498  1.00  0.00    -0.278 OA 
HETATM   21  C   UNL     1     -12.495   7.132  71.646  1.00  0.00    -0.370 C  
ENDBRANCH  17  20
TORSDOF 1
ENDMDL
MODEL      107
REMARK 921   NORMALIZED FREE ENERGY PREDICTED BY IDOCK:   -3.47 KCAL/MOL
REMARK 922        TOTAL FREE ENERGY PREDICTED BY IDOCK:   -3.71 KCAL/MOL
REMARK 923 INTER-LIGAND FREE ENERGY PREDICTED BY IDOCK:   -3.61 KCAL/MOL
REMARK 924 INTRA-LIGAND FREE ENERGY PREDICTED BY IDOCK:   -0.09 KCAL/MOL
REMARK 927      BINDING AFFINITY PREDICTED BY RF-SCORE:    0.00 PKD
ROOT
HETATM    1  C   UNL     1     -10.814   8.952  69.959  1.00  0.00    -0.239 C  
HETATM    2  C   UNL     1     -10.908   9.515  68.522  1.00  0.00    -0.175 C  
HETATM    3  C   UNL     1      -9.824   8.965  67.590  1.00  0.00    -0.229 C  
HETATM    4  C   UNL     1      -8.391   9.169  68.138  1.00  0.00    -0.120 C  
HETATM    5  C   UNL     1      -8.424   9.712  69.599  1.00  0.00    -0.181 C  
HETATM    6  C   UNL     1      -7.544  10.016  67.191  1.00  0.00    -0.092 C  
HETATM    7  C   UNL     1      -7.041   9.891  70.219  1.00  0.00    -0.155 C  
HETATM    8  C   UNL     1      -6.407   8.573  70.626  1.00  0.00    -0.037 C  
HETATM    9  C   UNL     1      -7.226   7.786  71.675  1.00  0.00    -0.065 C  
HETATM   10  C   UNL     1      -6.214   6.996  72.514  1.00  0.00    -0.052 C  
HETATM   11  O   UNL     1      -8.111   6.816  71.114  1.00  0.00    -0.109 OA 
HETATM   12  O   UNL     1      -8.976   7.423  70.102  1.00  0.00    -0.147 OA 
HETATM   13  C   UNL     1      -9.341   8.781  70.445  1.00  0.00    -0.180 C  
HETATM   14  C   UNL     1      -9.217   9.049  71.975  1.00  0.00     0.057 C  
HETATM   15  O   UNL     1     -10.312   8.464  72.676  1.00  0.00    -0.310 OA 
HETATM   16  O   UNL     1      -7.959   8.648  72.544  1.00  0.00    -0.339 OA 
HETATM   17  C   UNL     1     -11.582   9.040  72.342  1.00  0.00    -0.054 C  
HETATM   18  C   UNL     1     -13.000  10.189  70.534  1.00  0.00    -0.214 C  
HETATM   19  C   UNL     1     -11.588   9.806  70.989  1.00  0.00    -0.455 C  
ENDROOT
BRANCH  17  20
HETATM   20  O   UNL     1     -12.576   8.015  72.244  1.00  0.00    -0.296 OA 
HETATM   21  C   UNL     1     -12.034   6.706  72.287  1.00  0.00    -0.222 C  
ENDBRANCH  17  20
TORSDOF 1
ENDMDL
MODEL      108
REMARK 921   NORMALIZED FREE ENERGY PREDICTED BY IDOCK:   -3.43 KCAL/MOL
REMARK 922        TOTAL FREE ENERGY PREDICTED BY IDOCK:   -3.66 KCAL/MOL
REMARK 923 INTER-LIGAND FREE ENERGY PREDICTED BY IDOCK:   -3.50 KCAL/MOL
REMARK 924 INTRA-LIGAND FREE ENERGY PREDICTED BY IDOCK:   -0.16 KCAL/MOL
REMARK 927      BINDING AFFINITY PREDICTED BY RF-SCORE:    0.00 PKD
ROOT
HETATM    1  C   UNL     1     -10.146  15.847  68.040  1.00  0.00    -0.230 C  
HETATM    2  C   UNL     1     -10.292  17.377  68.205  1.00  0.00    -0.374 C  
HETATM    3  C   UNL     1      -9.100  18.157  67.640  1.00  0.00    -0.260 C  
HETATM    4  C   UNL     1      -7.742  17.696  68.220  1.00  0.00    -0.253 C  
HETATM    5  C   UNL     1      -7.914  16.416  69.093  1.00  0.00    -0.204 C  
HETATM    6  C   UNL     1      -7.025  18.835  68.942  1.00  0.00    -0.335 C  
HETATM    7  C   UNL     1      -6.602  15.878  69.659  1.00  0.00    -0.180 C  
HETATM    8  C   UNL     1      -5.762  15.164  68.615  1.00  0.00    -0.090 C  
HETATM    9  C   UNL     1      -6.466  13.942  67.981  1.00  0.00    -0.145 C  
HETATM   10  C   UNL     1      -5.359  12.946  67.613  1.00  0.00    -0.099 C  
HETATM   11  O   UNL     1      -7.152  14.232  66.763  1.00  0.00     0.315 OA 
HETATM   12  O   UNL     1      -8.077  15.352  66.940  1.00  0.00    -0.218 OA 
HETATM   13  C   UNL     1      -8.681  15.353  68.255  1.00  0.00    -0.164 C  
HETATM   14  C   UNL     1      -8.653  13.939  68.911  1.00  0.00     0.098 C  
HETATM   15  O   UNL     1      -9.651  13.100  68.336  1.00  0.00    -0.225 OA 
HETATM   16  O   UNL     1      -7.363  13.305  68.889  1.00  0.00    -0.094 OA 
HETATM   17  C   UNL     1     -10.991  13.550  68.580  1.00  0.00    -0.263 C  
HETATM   18  C   UNL     1     -12.530  15.569  68.979  1.00  0.00     0.147 C  
HETATM   19  C   UNL     1     -11.087  15.052  68.974  1.00  0.00    -0.270 C  
ENDROOT
BRANCH  17  20
HETATM   20  O   UNL     1     -11.790  13.377  67.405  1.00  0.00    -0.353 OA 
HETATM   21  C   UNL     1     -11.209  12.492  66.462  1.00  0.00    -0.307 C  
ENDBRANCH  17  20
TORSDOF 1
ENDMDL
MODEL      109
REMARK 921   NORMALIZED FREE ENERGY PREDICTED BY IDOCK:   -3.43 KCAL/MOL
REMARK 922        TOTAL FREE ENERGY PREDICTED BY IDOCK:   -3.66 KCAL/MOL
REMARK 923 INTER-LIGAND FREE ENERGY PREDICTED BY IDOCK:   -3.63 KCAL/MOL
REMARK 924 INTRA-LIGAND FREE ENERGY PREDICTED BY IDOCK:   -0.03 KCAL/MOL
REMARK 927      BINDING AFFINITY PREDICTED BY RF-SCORE:    0.00 PKD
ROOT
HETATM    1  C   UNL     1      -8.465   9.847  68.052  1.00  0.00    -0.117 C  
HETATM    2  C   UNL     1      -7.017  10.079  68.541  1.00  0.00    -0.066 C  
HETATM    3  C   UNL     1      -6.864  11.354  69.378  1.00  0.00    -0.112 C  
HETATM    4  C   UNL     1      -7.381  12.620  68.656  1.00  0.00    -0.101 C  
HETATM    5  C   UNL     1      -8.109  12.248  67.328  1.00  0.00    -0.182 C  
HETATM    6  C   UNL     1      -6.272  13.654  68.474  1.00  0.00    -0.091 C  
HETATM    7  C   UNL     1      -8.688  13.451  66.587  1.00  0.00    -0.014 C  
HETATM    8  C   UNL     1      -9.951  13.987  67.237  1.00  0.00    -0.242 C  
HETATM    9  C   UNL     1     -11.101  12.956  67.304  1.00  0.00    -0.274 C  
HETATM   10  C   UNL     1     -12.407  13.756  67.221  1.00  0.00    -0.203 C  
HETATM   11  O   UNL     1     -11.163  12.232  68.533  1.00  0.00    -0.231 OA 
HETATM   12  O   UNL     1      -9.872  11.617  68.842  1.00  0.00    -0.154 OA 
HETATM   13  C   UNL     1      -9.186  11.171  67.648  1.00  0.00    -0.151 C  
HETATM   14  C   UNL     1     -10.170  10.938  66.462  1.00  0.00    -0.232 C  
HETATM   15  O   UNL     1     -10.885   9.717  66.636  1.00  0.00    -0.090 OA 
HETATM   16  O   UNL     1     -11.065  12.036  66.215  1.00  0.00    -0.289 OA 
HETATM   17  C   UNL     1     -10.049   8.553  66.605  1.00  0.00    -0.294 C  
HETATM   18  C   UNL     1      -7.722   7.576  67.088  1.00  0.00    -0.112 C  
HETATM   19  C   UNL     1      -8.546   8.850  66.874  1.00  0.00    -0.121 C  
ENDROOT
BRANCH  17  20
HETATM   20  O   UNL     1     -10.472   7.616  67.602  1.00  0.00    -0.225 OA 
HETATM   21  C   UNL     1     -11.072   6.453  67.056  1.00  0.00    -0.329 C  
ENDBRANCH  17  20
TORSDOF 1
ENDMDL
MODEL      110
REMARK 921   NORMALIZED FREE ENERGY PREDICTED BY IDOCK:   -3.41 KCAL/MOL
REMARK 922        TOTAL FREE ENERGY PREDICTED BY IDOCK:   -3.65 KCAL/MOL
REMARK 923 INTER-LIGAND FREE ENERGY PREDICTED BY IDOCK:   -3.64 KCAL/MOL
REMARK 924 INTRA-LIGAND FREE ENERGY PREDICTED BY IDOCK:   -0.00 KCAL/MOL
REMARK 927      BINDING AFFINITY PREDICTED BY RF-SCORE:    0.00 PKD
ROOT
HETATM    1  C   UNL     1     -10.535   7.140  71.382  1.00  0.00    -0.220 C  
HETATM    2  C   UNL     1     -10.879   5.915  72.261  1.00  0.00    -0.292 C  
HETATM    3  C   UNL     1      -9.665   5.026  72.551  1.00  0.00    -0.190 C  
HETATM    4  C   UNL     1      -8.933   4.560  71.271  1.00  0.00    -0.167 C  
HETATM    5  C   UNL     1      -9.504   5.277  70.009  1.00  0.00    -0.216 C  
HETATM    6  C   UNL     1      -8.921   3.038  71.154  1.00  0.00    -0.165 C  
HETATM    7  C   UNL     1      -8.792   4.899  68.713  1.00  0.00    -0.114 C  
HETATM    8  C   UNL     1      -7.428   5.554  68.581  1.00  0.00    -0.076 C  
HETATM    9  C   UNL     1      -7.478   7.099  68.584  1.00  0.00    -0.102 C  
HETATM   10  C   UNL     1      -6.305   7.573  67.717  1.00  0.00    -0.053 C  
HETATM   11  O   UNL     1      -7.276   7.686  69.870  1.00  0.00    -0.068 OA 
HETATM   12  O   UNL     1      -8.199   7.117  70.853  1.00  0.00    -0.113 OA 
HETATM   13  C   UNL     1      -9.489   6.811  70.271  1.00  0.00    -0.162 C  
HETATM   14  C   UNL     1      -9.758   7.642  68.980  1.00  0.00    -0.160 C  
HETATM   15  O   UNL     1     -10.105   8.984  69.311  1.00  0.00    -0.184 OA 
HETATM   16  O   UNL     1      -8.688   7.601  68.020  1.00  0.00    -0.125 OA 
HETATM   17  C   UNL     1     -11.336   9.096  70.037  1.00  0.00    -0.090 C  
HETATM   18  C   UNL     1     -12.950   7.982  71.697  1.00  0.00    -0.351 C  
HETATM   19  C   UNL     1     -11.782   7.776  70.727  1.00  0.00    -0.242 C  
ENDROOT
BRANCH  17  20
HETATM   20  O   UNL     1     -11.210  10.082  71.069  1.00  0.00    -0.341 OA 
HETATM   21  C   UNL     1     -12.025  11.222  70.853  1.00  0.00    -0.214 C  
ENDBRANCH  17  20
TORSDOF 1
ENDMDL
MODEL      111
REMARK 921   NORMALIZED FREE ENERGY PREDICTED BY IDOCK:   -3.39 KCAL/MOL
REMARK 922        TOTAL FREE ENERGY PREDICTED BY IDOCK:   -3.62 KCAL/MOL
REMARK 923 INTER-LIGAND FREE ENERGY PREDICTED BY IDOCK:   -3.52 KCAL/MOL
REMARK 924 INTRA-LIGAND FREE ENERGY PREDICTED BY IDOCK:   -0.10 KCAL/MOL
REMARK 927      BINDING AFFINITY PREDICTED BY RF-SCORE:    0.00 PKD
ROOT
HETATM    1  C   UNL     1      -8.292   6.407  69.074  1.00  0.00    -0.118 C  
HETATM    2  C   UNL     1      -8.393   7.804  68.419  1.00  0.00    -0.125 C  
HETATM    3  C   UNL     1      -8.723   8.914  69.423  1.00  0.00    -0.142 C  
HETATM    4  C   UNL     1     -10.003   8.630  70.244  1.00  0.00    -0.204 C  
HETATM    5  C   UNL     1     -10.527   7.185  69.978  1.00  0.00    -0.235 C  
HETATM    6  C   UNL     1     -11.059   9.711  70.030  1.00  0.00    -0.293 C  
HETATM    7  C   UNL     1     -11.763   6.821  70.796  1.00  0.00    -0.439 C  
HETATM    8  C   UNL     1     -11.439   6.533  72.251  1.00  0.00    -0.326 C  
HETATM    9  C   UNL     1     -10.457   5.356  72.449  1.00  0.00    -0.217 C  
HETATM   10  C   UNL     1     -10.817   4.711  73.793  1.00  0.00    -0.378 C  
HETATM   11  O   UNL     1      -9.089   5.751  72.558  1.00  0.00    -0.137 OA 
HETATM   12  O   UNL     1      -8.698   6.593  71.428  1.00  0.00    -0.128 OA 
HETATM   13  C   UNL     1      -9.351   6.191  70.201  1.00  0.00    -0.155 C  
HETATM   14  C   UNL     1      -9.825   4.706  70.252  1.00  0.00    -0.243 C  
HETATM   15  O   UNL     1      -8.720   3.822  70.080  1.00  0.00    -0.063 OA 
HETATM   16  O   UNL     1     -10.584   4.370  71.426  1.00  0.00     0.013 OA 
HETATM   17  C   UNL     1      -8.097   3.925  68.792  1.00  0.00    -0.070 C  
HETATM   18  C   UNL     1      -7.534   5.452  66.804  1.00  0.00    -0.088 C  
HETATM   19  C   UNL     1      -8.406   5.256  68.049  1.00  0.00    -0.098 C  
ENDROOT
BRANCH  17  20
HETATM   20  O   UNL     1      -6.673   3.845  68.927  1.00  0.00    -0.043 OA 
HETATM   21  C   UNL     1      -6.173   2.526  68.784  1.00  0.00    -0.028 C  
ENDBRANCH  17  20
TORSDOF 1
ENDMDL
MODEL      112
REMARK 921   NORMALIZED FREE ENERGY PREDICTED BY IDOCK:   -3.33 KCAL/MOL
REMARK 922        TOTAL FREE ENERGY PREDICTED BY IDOCK:   -3.56 KCAL/MOL
REMARK 923 INTER-LIGAND FREE ENERGY PREDICTED BY IDOCK:   -3.45 KCAL/MOL
REMARK 924 INTRA-LIGAND FREE ENERGY PREDICTED BY IDOCK:   -0.10 KCAL/MOL
REMARK 927      BINDING AFFINITY PREDICTED BY RF-SCORE:    0.00 PKD
ROOT
HETATM    1  C   UNL     1      -9.737   9.661  67.460  1.00  0.00    -0.195 C  
HETATM    2  C   UNL     1      -9.319  10.388  66.161  1.00  0.00    -0.210 C  
HETATM    3  C   UNL     1      -9.430   9.502  64.916  1.00  0.00    -0.230 C  
HETATM    4  C   UNL     1      -8.649   8.172  65.045  1.00  0.00    -0.076 C  
HETATM    5  C   UNL     1      -8.104   7.984  66.493  1.00  0.00    -0.103 C  
HETATM    6  C   UNL     1      -7.575   8.046  63.967  1.00  0.00    -0.124 C  
HETATM    7  C   UNL     1      -7.363   6.666  66.703  1.00  0.00    -0.078 C  
HETATM    8  C   UNL     1      -8.300   5.476  66.803  1.00  0.00    -0.108 C  
HETATM    9  C   UNL     1      -9.304   5.572  67.975  1.00  0.00    -0.110 C  
HETATM   10  C   UNL     1      -9.589   4.132  68.422  1.00  0.00    -0.190 C  
HETATM   11  O   UNL     1     -10.569   6.127  67.616  1.00  0.00    -0.206 OA 
HETATM   12  O   UNL     1     -10.400   7.417  66.946  1.00  0.00    -0.273 OA 
HETATM   13  C   UNL     1      -9.286   8.167  67.488  1.00  0.00    -0.140 C  
HETATM   14  C   UNL     1      -8.927   7.713  68.935  1.00  0.00    -0.137 C  
HETATM   15  O   UNL     1      -9.869   8.231  69.871  1.00  0.00    -0.182 OA 
HETATM   16  O   UNL     1      -8.769   6.292  69.085  1.00  0.00    -0.122 OA 
HETATM   17  C   UNL     1      -9.861   9.662  69.962  1.00  0.00    -0.246 C  
HETATM   18  C   UNL     1      -9.451  11.882  68.736  1.00  0.00    -0.002 C  
HETATM   19  C   UNL     1      -9.219  10.367  68.734  1.00  0.00    -0.172 C  
ENDROOT
BRANCH  17  20
HETATM   20  O   UNL     1     -11.201  10.155  70.071  1.00  0.00    -0.259 OA 
HETATM   21  C   UNL     1     -11.674  10.194  71.407  1.00  0.00    -0.290 C  
ENDBRANCH  17  20
TORSDOF 1
ENDMDL
MODEL      113
REMARK 921   NORMALIZED FREE ENERGY PREDICTED BY IDOCK:   -3.32 KCAL/MOL
REMARK 922        TOTAL FREE ENERGY PREDICTED BY IDOCK:   -3.55 KCAL/MOL
REMARK 923 INTER-LIGAND FREE ENERGY PREDICTED BY IDOCK:   -3.40 KCAL/MOL
REMARK 924 INTRA-LIGAND FREE ENERGY PREDICTED BY IDOCK:   -0.15 KCAL/MOL
REMARK 927      BINDING AFFINITY PREDICTED BY RF-SCORE:    0.00 PKD
ROOT
HETATM    1  C   UNL     1      -9.145   8.270  71.008  1.00  0.00    -0.189 C  
HETATM    2  C   UNL     1      -7.938   7.511  71.607  1.00  0.00    -0.092 C  
HETATM    3  C   UNL     1      -6.617   7.837  70.904  1.00  0.00    -0.038 C  
HETATM    4  C   UNL     1      -6.669   7.610  69.374  1.00  0.00    -0.040 C  
HETATM    5  C   UNL     1      -8.123   7.291  68.907  1.00  0.00    -0.128 C  
HETATM    6  C   UNL     1      -5.643   6.573  68.925  1.00  0.00    -0.016 C  
HETATM    7  C   UNL     1      -8.256   7.103  67.398  1.00  0.00    -0.116 C  
HETATM    8  C   UNL     1      -8.201   8.416  66.637  1.00  0.00    -0.105 C  
HETATM    9  C   UNL     1      -9.323   9.406  67.026  1.00  0.00    -0.148 C  
HETATM   10  C   UNL     1      -9.627  10.233  65.771  1.00  0.00    -0.279 C  
HETATM   11  O   UNL     1      -8.947  10.347  68.033  1.00  0.00    -0.127 OA 
HETATM   12  O   UNL     1      -8.403   9.664  69.206  1.00  0.00    -0.118 OA 
HETATM   13  C   UNL     1      -9.066   8.401  69.455  1.00  0.00    -0.154 C  
HETATM   14  C   UNL     1     -10.485   8.352  68.811  1.00  0.00    -0.178 C  
HETATM   15  O   UNL     1     -11.411   9.112  69.582  1.00  0.00    -0.005 OA 
HETATM   16  O   UNL     1     -10.518   8.738  67.427  1.00  0.00    -0.261 OA 
HETATM   17  C   UNL     1     -11.628   8.589  70.900  1.00  0.00    -0.263 C  
HETATM   18  C   UNL     1     -10.624   7.296  72.880  1.00  0.00    -0.344 C  
HETATM   19  C   UNL     1     -10.502   7.636  71.391  1.00  0.00    -0.230 C  
ENDROOT
BRANCH  17  20
HETATM   20  O   UNL     1     -11.709   9.660  71.847  1.00  0.00    -0.357 OA 
HETATM   21  C   UNL     1     -12.080  10.896  71.261  1.00  0.00    -0.217 C  
ENDBRANCH  17  20
TORSDOF 1
ENDMDL
MODEL      114
REMARK 921   NORMALIZED FREE ENERGY PREDICTED BY IDOCK:   -3.25 KCAL/MOL
REMARK 922        TOTAL FREE ENERGY PREDICTED BY IDOCK:   -3.48 KCAL/MOL
REMARK 923 INTER-LIGAND FREE ENERGY PREDICTED BY IDOCK:   -3.37 KCAL/MOL
REMARK 924 INTRA-LIGAND FREE ENERGY PREDICTED BY IDOCK:   -0.10 KCAL/MOL
REMARK 927      BINDING AFFINITY PREDICTED BY RF-SCORE:    0.00 PKD
ROOT
HETATM    1  C   UNL     1     -10.770  12.991  67.753  1.00  0.00    -0.242 C  
HETATM    2  C   UNL     1     -11.881  12.018  68.210  1.00  0.00    -0.351 C  
HETATM    3  C   UNL     1     -11.464  11.150  69.401  1.00  0.00    -0.368 C  
HETATM    4  C   UNL     1     -10.154  10.366  69.153  1.00  0.00    -0.236 C  
HETATM    5  C   UNL     1      -9.481  10.812  67.819  1.00  0.00    -0.165 C  
HETATM    6  C   UNL     1     -10.374   8.859  69.251  1.00  0.00    -0.221 C  
HETATM    7  C   UNL     1      -8.155  10.111  67.536  1.00  0.00    -0.113 C  
HETATM    8  C   UNL     1      -7.018  10.640  68.392  1.00  0.00    -0.066 C  
HETATM    9  C   UNL     1      -6.736  12.147  68.189  1.00  0.00    -0.070 C  
HETATM   10  C   UNL     1      -5.236  12.346  68.439  1.00  0.00    -0.055 C  
HETATM   11  O   UNL     1      -7.404  12.996  69.122  1.00  0.00    -0.002 OA 
HETATM   12  O   UNL     1      -8.840  12.716  69.145  1.00  0.00     0.413 OA 
HETATM   13  C   UNL     1      -9.344  12.362  67.835  1.00  0.00    -0.195 C  
HETATM   14  C   UNL     1      -8.426  12.894  66.694  1.00  0.00     0.081 C  
HETATM   15  O   UNL     1      -8.619  14.293  66.507  1.00  0.00    -0.083 OA 
HETATM   16  O   UNL     1      -7.034  12.577  66.862  1.00  0.00    -0.027 OA 
HETATM   17  C   UNL     1      -9.937  14.637  66.057  1.00  0.00    -0.316 C  
HETATM   18  C   UNL     1     -12.430  14.019  66.071  1.00  0.00    -0.489 C  
HETATM   19  C   UNL     1     -10.999  13.533  66.323  1.00  0.00    -0.293 C  
ENDROOT
BRANCH  17  20
HETATM   20  O   UNL     1     -10.391  15.820  66.723  1.00  0.00    -0.280 OA 
HETATM   21  C   UNL     1      -9.925  17.014  66.117  1.00  0.00    -0.298 C  
ENDBRANCH  17  20
TORSDOF 1
ENDMDL
MODEL      115
REMARK 921   NORMALIZED FREE ENERGY PREDICTED BY IDOCK:   -3.15 KCAL/MOL
REMARK 922        TOTAL FREE ENERGY PREDICTED BY IDOCK:   -3.37 KCAL/MOL
REMARK 923 INTER-LIGAND FREE ENERGY PREDICTED BY IDOCK:   -3.28 KCAL/MOL
REMARK 924 INTRA-LIGAND FREE ENERGY PREDICTED BY IDOCK:   -0.10 KCAL/MOL
REMARK 927      BINDING AFFINITY PREDICTED BY RF-SCORE:    0.00 PKD
ROOT
HETATM    1  C   UNL     1     -11.876  14.044  68.757  1.00  0.00    -0.396 C  
HETATM    2  C   UNL     1     -11.561  15.531  69.043  1.00  0.00    -0.377 C  
HETATM    3  C   UNL     1     -11.712  16.424  67.808  1.00  0.00     0.360 C  
HETATM    4  C   UNL     1     -10.878  15.937  66.599  1.00  0.00    -0.213 C  
HETATM    5  C   UNL     1     -10.243  14.542  66.886  1.00  0.00    -0.264 C  
HETATM    6  C   UNL     1      -9.865  16.989  66.157  1.00  0.00    -0.297 C  
HETATM    7  C   UNL     1      -9.444  13.979  65.714  1.00  0.00    -0.043 C  
HETATM    8  C   UNL     1     -10.330  13.448  64.601  1.00  0.00    -0.400 C  
HETATM    9  C   UNL     1     -11.267  12.301  65.046  1.00  0.00    -0.321 C  
HETATM   10  C   UNL     1     -11.473  11.407  63.817  1.00  0.00    -0.246 C  
HETATM   11  O   UNL     1     -12.570  12.733  65.440  1.00  0.00    -0.607 OA 
HETATM   12  O   UNL     1     -12.486  13.783  66.455  1.00  0.00    -0.404 OA 
HETATM   13  C   UNL     1     -11.371  13.579  67.355  1.00  0.00    -0.311 C  
HETATM   14  C   UNL     1     -10.912  12.090  67.387  1.00  0.00    -0.261 C  
HETATM   15  O   UNL     1     -11.817  11.303  68.158  1.00  0.00    -0.553 OA 
HETATM   16  O   UNL     1     -10.695  11.512  66.088  1.00  0.00    -0.259 OA 
HETATM   17  C   UNL     1     -11.855  11.666  69.545  1.00  0.00    -0.348 C  
HETATM   18  C   UNL     1     -11.597  13.552  71.271  1.00  0.00     1.002 C  
HETATM   19  C   UNL     1     -11.311  13.094  69.837  1.00  0.00    -0.055 C  
ENDROOT
BRANCH  17  20
HETATM   20  O   UNL     1     -13.204  11.629  70.026  1.00  0.00     0.542 OA 
HETATM   21  C   UNL     1     -13.529  10.413  70.679  1.00  0.00     0.176 C  
ENDBRANCH  17  20
TORSDOF 1
ENDMDL
MODEL      116
REMARK 921   NORMALIZED FREE ENERGY PREDICTED BY IDOCK:   -2.95 KCAL/MOL
REMARK 922        TOTAL FREE ENERGY PREDICTED BY IDOCK:   -3.16 KCAL/MOL
REMARK 923 INTER-LIGAND FREE ENERGY PREDICTED BY IDOCK:   -3.05 KCAL/MOL
REMARK 924 INTRA-LIGAND FREE ENERGY PREDICTED BY IDOCK:   -0.10 KCAL/MOL
REMARK 927      BINDING AFFINITY PREDICTED BY RF-SCORE:    0.00 PKD
ROOT
HETATM    1  C   UNL     1      -9.768  10.387  66.522  1.00  0.00    -0.241 C  
HETATM    2  C   UNL     1     -10.263   8.991  66.079  1.00  0.00    -0.013 C  
HETATM    3  C   UNL     1      -9.977   7.898  67.113  1.00  0.00    -0.298 C  
HETATM    4  C   UNL     1      -8.486   7.818  67.517  1.00  0.00    -0.120 C  
HETATM    5  C   UNL     1      -7.679   9.007  66.911  1.00  0.00    -0.098 C  
HETATM    6  C   UNL     1      -7.890   6.450  67.195  1.00  0.00    -0.108 C  
HETATM    7  C   UNL     1      -6.206   9.016  67.311  1.00  0.00    -0.059 C  
HETATM    8  C   UNL     1      -5.990   9.479  68.741  1.00  0.00    -0.043 C  
HETATM    9  C   UNL     1      -6.497  10.914  69.014  1.00  0.00    -0.057 C  
HETATM   10  C   UNL     1      -5.589  11.495  70.104  1.00  0.00    -0.123 C  
HETATM   11  O   UNL     1      -7.824  10.973  69.537  1.00  0.00    -0.057 OA 
HETATM   12  O   UNL     1      -8.753  10.228  68.687  1.00  0.00    -0.120 OA 
HETATM   13  C   UNL     1      -8.407  10.331  67.285  1.00  0.00    -0.121 C  
HETATM   14  C   UNL     1      -7.542  11.593  66.990  1.00  0.00    -0.154 C  
HETATM   15  O   UNL     1      -8.352  12.766  66.986  1.00  0.00    -0.178 OA 
HETATM   16  O   UNL     1      -6.406  11.746  67.859  1.00  0.00    -0.050 OA 
HETATM   17  C   UNL     1      -9.331  12.784  65.938  1.00  0.00     0.017 C  
HETATM   18  C   UNL     1     -10.863  11.391  64.417  1.00  0.00    -0.397 C  
HETATM   19  C   UNL     1      -9.643  11.381  65.345  1.00  0.00    -0.255 C  
ENDROOT
BRANCH  17  20
HETATM   20  O   UNL     1     -10.567  13.313  66.430  1.00  0.00    -0.279 OA 
HETATM   21  C   UNL     1     -10.645  14.726  66.339  1.00  0.00    -0.300 C  
ENDBRANCH  17  20
TORSDOF 1
ENDMDL
MODEL      117
REMARK 921   NORMALIZED FREE ENERGY PREDICTED BY IDOCK:   -2.94 KCAL/MOL
REMARK 922        TOTAL FREE ENERGY PREDICTED BY IDOCK:   -3.15 KCAL/MOL
REMARK 923 INTER-LIGAND FREE ENERGY PREDICTED BY IDOCK:   -2.98 KCAL/MOL
REMARK 924 INTRA-LIGAND FREE ENERGY PREDICTED BY IDOCK:   -0.17 KCAL/MOL
REMARK 927      BINDING AFFINITY PREDICTED BY RF-SCORE:    0.00 PKD
ROOT
HETATM    1  C   UNL     1      -9.430   9.092  67.145  1.00  0.00    -0.197 C  
HETATM    2  C   UNL     1     -10.411   7.921  66.905  1.00  0.00    -0.400 C  
HETATM    3  C   UNL     1     -10.726   7.133  68.180  1.00  0.00    -0.214 C  
HETATM    4  C   UNL     1      -9.460   6.613  68.902  1.00  0.00    -0.130 C  
HETATM    5  C   UNL     1      -8.168   7.194  68.250  1.00  0.00    -0.124 C  
HETATM    6  C   UNL     1      -9.458   5.090  69.007  1.00  0.00    -0.194 C  
HETATM    7  C   UNL     1      -6.880   6.760  68.945  1.00  0.00    -0.065 C  
HETATM    8  C   UNL     1      -6.652   7.483  70.261  1.00  0.00    -0.039 C  
HETATM    9  C   UNL     1      -6.539   9.018  70.114  1.00  0.00    -0.045 C  
HETATM   10  C   UNL     1      -5.599   9.493  71.229  1.00  0.00    -0.071 C  
HETATM   11  O   UNL     1      -7.769   9.714  70.316  1.00  0.00    -0.145 OA 
HETATM   12  O   UNL     1      -8.823   9.169  69.461  1.00  0.00    -0.137 OA 
HETATM   13  C   UNL     1      -8.312   8.742  68.176  1.00  0.00    -0.122 C  
HETATM   14  C   UNL     1      -6.971   9.451  67.817  1.00  0.00    -0.080 C  
HETATM   15  O   UNL     1      -7.211  10.792  67.396  1.00  0.00    -0.088 OA 
HETATM   16  O   UNL     1      -5.981   9.400  68.858  1.00  0.00    -0.042 OA 
HETATM   17  C   UNL     1      -7.969  10.886  66.183  1.00  0.00    -0.155 C  
HETATM   18  C   UNL     1      -9.763   9.809  64.692  1.00  0.00    -0.166 C  
HETATM   19  C   UNL     1      -8.771   9.598  65.841  1.00  0.00    -0.163 C  
ENDROOT
BRANCH  17  20
HETATM   20  O   UNL     1      -8.918  11.954  66.277  1.00  0.00    -0.207 OA 
HETATM   21  C   UNL     1      -8.684  12.811  67.382  1.00  0.00    -0.196 C  
ENDBRANCH  17  20
TORSDOF 1
ENDMDL
MODEL      118
REMARK 921   NORMALIZED FREE ENERGY PREDICTED BY IDOCK:   -2.93 KCAL/MOL
REMARK 922        TOTAL FREE ENERGY PREDICTED BY IDOCK:   -3.13 KCAL/MOL
REMARK 923 INTER-LIGAND FREE ENERGY PREDICTED BY IDOCK:   -3.01 KCAL/MOL
REMARK 924 INTRA-LIGAND FREE ENERGY PREDICTED BY IDOCK:   -0.12 KCAL/MOL
REMARK 927      BINDING AFFINITY PREDICTED BY RF-SCORE:    0.00 PKD
ROOT
HETATM    1  C   UNL     1      -8.969   7.574  69.633  1.00  0.00    -0.141 C  
HETATM    2  C   UNL     1     -10.182   6.616  69.689  1.00  0.00    -0.213 C  
HETATM    3  C   UNL     1     -10.000   5.367  68.819  1.00  0.00    -0.235 C  
HETATM    4  C   UNL     1      -9.664   5.697  67.346  1.00  0.00    -0.138 C  
HETATM    5  C   UNL     1      -9.400   7.223  67.161  1.00  0.00    -0.170 C  
HETATM    6  C   UNL     1     -10.717   5.140  66.391  1.00  0.00    -0.275 C  
HETATM    7  C   UNL     1      -9.014   7.611  65.736  1.00  0.00    -0.095 C  
HETATM    8  C   UNL     1      -7.585   7.230  65.392  1.00  0.00    -0.100 C  
HETATM    9  C   UNL     1      -6.527   7.899  66.300  1.00  0.00    -0.047 C  
HETATM   10  C   UNL     1      -5.269   8.079  65.441  1.00  0.00    -0.028 C  
HETATM   11  O   UNL     1      -6.129   7.103  67.416  1.00  0.00    -0.034 OA 
HETATM   12  O   UNL     1      -7.294   6.662  68.183  1.00  0.00    -0.085 OA 
HETATM   13  C   UNL     1      -8.337   7.665  68.208  1.00  0.00    -0.125 C  
HETATM   14  C   UNL     1      -7.780   9.093  67.929  1.00  0.00    -0.093 C  
HETATM   15  O   UNL     1      -7.113   9.605  69.080  1.00  0.00    -0.059 OA 
HETATM   16  O   UNL     1      -6.947   9.182  66.761  1.00  0.00    -0.079 OA 
HETATM   17  C   UNL     1      -7.980   9.803  70.205  1.00  0.00    -0.162 C  
HETATM   18  C   UNL     1     -10.095   9.025  71.440  1.00  0.00    -0.399 C  
HETATM   19  C   UNL     1      -9.309   8.999  70.125  1.00  0.00    -0.213 C  
ENDROOT
BRANCH  17  20
HETATM   20  O   UNL     1      -7.322   9.398  71.411  1.00  0.00    -0.325 OA 
HETATM   21  C   UNL     1      -5.947   9.745  71.438  1.00  0.00     0.005 C  
ENDBRANCH  17  20
TORSDOF 1
ENDMDL
MODEL      119
REMARK 921   NORMALIZED FREE ENERGY PREDICTED BY IDOCK:   -2.92 KCAL/MOL
REMARK 922        TOTAL FREE ENERGY PREDICTED BY IDOCK:   -3.13 KCAL/MOL
REMARK 923 INTER-LIGAND FREE ENERGY PREDICTED BY IDOCK:   -2.96 KCAL/MOL
REMARK 924 INTRA-LIGAND FREE ENERGY PREDICTED BY IDOCK:   -0.17 KCAL/MOL
REMARK 927      BINDING AFFINITY PREDICTED BY RF-SCORE:    0.00 PKD
ROOT
HETATM    1  C   UNL     1      -9.050   6.322  67.924  1.00  0.00    -0.111 C  
HETATM    2  C   UNL     1      -8.994   4.781  68.033  1.00  0.00    -0.126 C  
HETATM    3  C   UNL     1      -7.695   4.188  67.479  1.00  0.00    -0.080 C  
HETATM    4  C   UNL     1      -7.403   4.618  66.022  1.00  0.00    -0.077 C  
HETATM    5  C   UNL     1      -8.412   5.710  65.550  1.00  0.00    -0.146 C  
HETATM    6  C   UNL     1      -7.326   3.414  65.086  1.00  0.00    -0.072 C  
HETATM    7  C   UNL     1      -8.151   6.216  64.134  1.00  0.00    -0.081 C  
HETATM    8  C   UNL     1      -6.959   7.154  64.057  1.00  0.00    -0.057 C  
HETATM    9  C   UNL     1      -7.112   8.425  64.924  1.00  0.00    -0.079 C  
HETATM   10  C   UNL     1      -6.332   9.535  64.208  1.00  0.00    -0.098 C  
HETATM   11  O   UNL     1      -6.532   8.316  66.224  1.00  0.00    -0.046 OA 
HETATM   12  O   UNL     1      -7.031   7.129  66.919  1.00  0.00    -0.072 OA 
HETATM   13  C   UNL     1      -8.416   6.857  66.601  1.00  0.00    -0.121 C  
HETATM   14  C   UNL     1      -9.159   8.130  66.095  1.00  0.00    -0.183 C  
HETATM   15  O   UNL     1      -9.468   8.997  67.183  1.00  0.00    -0.142 OA 
HETATM   16  O   UNL     1      -8.473   8.834  65.046  1.00  0.00    -0.161 OA 
HETATM   17  C   UNL     1     -10.389   8.431  68.125  1.00  0.00    -0.204 C  
HETATM   18  C   UNL     1     -11.272   6.285  69.228  1.00  0.00    -0.458 C  
HETATM   19  C   UNL     1     -10.486   6.880  68.055  1.00  0.00    -0.255 C  
ENDROOT
BRANCH  17  20
HETATM   20  O   UNL     1      -9.993   8.763  69.461  1.00  0.00    -0.186 OA 
HETATM   21  C   UNL     1      -8.999   9.772  69.513  1.00  0.00    -0.204 C  
ENDBRANCH  17  20
TORSDOF 1
ENDMDL
MODEL      120
REMARK 921   NORMALIZED FREE ENERGY PREDICTED BY IDOCK:   -2.92 KCAL/MOL
REMARK 922        TOTAL FREE ENERGY PREDICTED BY IDOCK:   -3.12 KCAL/MOL
REMARK 923 INTER-LIGAND FREE ENERGY PREDICTED BY IDOCK:   -3.07 KCAL/MOL
REMARK 924 INTRA-LIGAND FREE ENERGY PREDICTED BY IDOCK:   -0.06 KCAL/MOL
REMARK 927      BINDING AFFINITY PREDICTED BY RF-SCORE:    0.00 PKD
ROOT
HETATM    1  C   UNL     1      -8.489  10.028  65.104  1.00  0.00    -0.160 C  
HETATM    2  C   UNL     1      -9.889  10.572  64.736  1.00  0.00    -0.387 C  
HETATM    3  C   UNL     1     -10.390  11.645  65.709  1.00  0.00    -0.292 C  
HETATM    4  C   UNL     1     -10.382  11.179  67.184  1.00  0.00    -0.249 C  
HETATM    5  C   UNL     1      -9.678   9.795  67.328  1.00  0.00    -0.213 C  
HETATM    6  C   UNL     1     -11.782  11.217  67.792  1.00  0.00    -0.254 C  
HETATM    7  C   UNL     1      -9.592   9.297  68.769  1.00  0.00    -0.157 C  
HETATM    8  C   UNL     1      -8.532  10.023  69.577  1.00  0.00    -0.186 C  
HETATM    9  C   UNL     1      -7.103   9.872  69.006  1.00  0.00    -0.068 C  
HETATM   10  C   UNL     1      -6.148   9.930  70.205  1.00  0.00    -0.074 C  
HETATM   11  O   UNL     1      -6.707  10.934  68.138  1.00  0.00    -0.062 OA 
HETATM   12  O   UNL     1      -7.692  11.132  67.075  1.00  0.00    -0.124 OA 
HETATM   13  C   UNL     1      -8.283   9.883  66.644  1.00  0.00    -0.121 C  
HETATM   14  C   UNL     1      -7.374   8.661  66.979  1.00  0.00    -0.080 C  
HETATM   15  O   UNL     1      -6.283   8.583  66.065  1.00  0.00    -0.051 OA 
HETATM   16  O   UNL     1      -6.917   8.623  68.342  1.00  0.00    -0.064 OA 
HETATM   17  C   UNL     1      -6.684   8.335  64.711  1.00  0.00    -0.067 C  
HETATM   18  C   UNL     1      -8.509   8.646  62.929  1.00  0.00    -0.128 C  
HETATM   19  C   UNL     1      -8.174   8.676  64.424  1.00  0.00    -0.163 C  
ENDROOT
BRANCH  17  20
HETATM   20  O   UNL     1      -5.897   9.123  63.812  1.00  0.00    -0.074 OA 
HETATM   21  C   UNL     1      -5.149  10.134  64.466  1.00  0.00    -0.092 C  
ENDBRANCH  17  20
TORSDOF 1
ENDMDL
MODEL      121
REMARK 921   NORMALIZED FREE ENERGY PREDICTED BY IDOCK:   -2.84 KCAL/MOL
REMARK 922        TOTAL FREE ENERGY PREDICTED BY IDOCK:   -3.05 KCAL/MOL
REMARK 923 INTER-LIGAND FREE ENERGY PREDICTED BY IDOCK:   -3.25 KCAL/MOL
REMARK 924 INTRA-LIGAND FREE ENERGY PREDICTED BY IDOCK:    0.20 KCAL/MOL
REMARK 927      BINDING AFFINITY PREDICTED BY RF-SCORE:    0.00 PKD
ROOT
HETATM    1  C   UNL     1      -7.861   8.637  64.197  1.00  0.00    -0.141 C  
HETATM    2  C   UNL     1      -8.466   8.948  62.808  1.00  0.00    -0.191 C  
HETATM    3  C   UNL     1      -8.642  10.449  62.554  1.00  0.00    -0.232 C  
HETATM    4  C   UNL     1      -9.468  11.158  63.653  1.00  0.00    -0.278 C  
HETATM    5  C   UNL     1      -9.747  10.197  64.849  1.00  0.00    -0.392 C  
HETATM    6  C   UNL     1     -10.728  11.802  63.081  1.00  0.00    -0.319 C  
HETATM    7  C   UNL     1     -10.517  10.850  65.994  1.00  0.00    -0.287 C  
HETATM    8  C   UNL     1      -9.654  11.782  66.825  1.00  0.00    -0.212 C  
HETATM    9  C   UNL     1      -8.447  11.082  67.492  1.00  0.00    -0.127 C  
HETATM   10  C   UNL     1      -8.175  11.836  68.799  1.00  0.00    -0.027 C  
HETATM   11  O   UNL     1      -7.238  11.161  66.736  1.00  0.00    -0.131 OA 
HETATM   12  O   UNL     1      -7.447  10.685  65.368  1.00  0.00    -0.121 OA 
HETATM   13  C   UNL     1      -8.391   9.590  65.314  1.00  0.00    -0.139 C  
HETATM   14  C   UNL     1      -8.504   8.849  66.680  1.00  0.00    -0.119 C  
HETATM   15  O   UNL     1      -7.375   8.005  66.888  1.00  0.00    -0.086 OA 
HETATM   16  O   UNL     1      -8.720   9.718  67.805  1.00  0.00    -0.128 OA 
HETATM   17  C   UNL     1      -7.275   6.934  65.939  1.00  0.00    -0.074 C  
HETATM   18  C   UNL     1      -7.766   6.146  63.543  1.00  0.00    -0.105 C  
HETATM   19  C   UNL     1      -8.088   7.172  64.635  1.00  0.00    -0.083 C  
ENDROOT
BRANCH  17  20
HETATM   20  O   UNL     1      -5.910   6.747  65.549  1.00  0.00    -0.032 OA 
HETATM   21  C   UNL     1      -5.146   7.939  65.607  1.00  0.00    -0.025 C  
ENDBRANCH  17  20
TORSDOF 1
ENDMDL
MODEL      122
REMARK 921   NORMALIZED FREE ENERGY PREDICTED BY IDOCK:   -2.84 KCAL/MOL
REMARK 922        TOTAL FREE ENERGY PREDICTED BY IDOCK:   -3.04 KCAL/MOL
REMARK 923 INTER-LIGAND FREE ENERGY PREDICTED BY IDOCK:   -2.88 KCAL/MOL
REMARK 924 INTRA-LIGAND FREE ENERGY PREDICTED BY IDOCK:   -0.15 KCAL/MOL
REMARK 927      BINDING AFFINITY PREDICTED BY RF-SCORE:    0.00 PKD
ROOT
HETATM    1  C   UNL     1      -9.773   7.062  69.985  1.00  0.00    -0.171 C  
HETATM    2  C   UNL     1     -10.241   6.888  68.521  1.00  0.00    -0.187 C  
HETATM    3  C   UNL     1      -9.846   5.535  67.922  1.00  0.00    -0.169 C  
HETATM    4  C   UNL     1      -8.330   5.245  68.022  1.00  0.00    -0.098 C  
HETATM    5  C   UNL     1      -7.611   6.325  68.888  1.00  0.00    -0.092 C  
HETATM    6  C   UNL     1      -7.703   5.053  66.643  1.00  0.00    -0.092 C  
HETATM    7  C   UNL     1      -6.117   6.072  69.069  1.00  0.00    -0.032 C  
HETATM    8  C   UNL     1      -5.826   4.956  70.055  1.00  0.00    -0.017 C  
HETATM    9  C   UNL     1      -6.370   5.225  71.477  1.00  0.00    -0.034 C  
HETATM   10  C   UNL     1      -5.416   4.519  72.449  1.00  0.00    -0.004 C  
HETATM   11  O   UNL     1      -7.662   4.669  71.723  1.00  0.00    -0.090 OA 
HETATM   12  O   UNL     1      -8.614   5.089  70.695  1.00  0.00    -0.109 OA 
HETATM   13  C   UNL     1      -8.364   6.442  70.245  1.00  0.00    -0.126 C  
HETATM   14  C   UNL     1      -7.570   7.270  71.300  1.00  0.00    -0.083 C  
HETATM   15  O   UNL     1      -8.424   7.669  72.370  1.00  0.00    -0.106 OA 
HETATM   16  O   UNL     1      -6.387   6.617  71.793  1.00  0.00    -0.041 OA 
HETATM   17  C   UNL     1      -9.469   8.564  71.966  1.00  0.00    -0.294 C  
HETATM   18  C   UNL     1     -11.042   9.302  70.074  1.00  0.00    -0.228 C  
HETATM   19  C   UNL     1      -9.765   8.539  70.440  1.00  0.00    -0.193 C  
ENDROOT
BRANCH  17  20
HETATM   20  O   UNL     1     -10.691   8.225  72.632  1.00  0.00    -0.343 OA 
HETATM   21  C   UNL     1     -10.562   7.111  73.500  1.00  0.00    -0.374 C  
ENDBRANCH  17  20
TORSDOF 1
ENDMDL
MODEL      123
REMARK 921   NORMALIZED FREE ENERGY PREDICTED BY IDOCK:   -2.81 KCAL/MOL
REMARK 922        TOTAL FREE ENERGY PREDICTED BY IDOCK:   -3.01 KCAL/MOL
REMARK 923 INTER-LIGAND FREE ENERGY PREDICTED BY IDOCK:   -2.84 KCAL/MOL
REMARK 924 INTRA-LIGAND FREE ENERGY PREDICTED BY IDOCK:   -0.17 KCAL/MOL
REMARK 927      BINDING AFFINITY PREDICTED BY RF-SCORE:    0.00 PKD
ROOT
HETATM    1  C   UNL     1      -8.569   9.084  68.593  1.00  0.00    -0.129 C  
HETATM    2  C   UNL     1      -8.106  10.266  69.476  1.00  0.00    -0.170 C  
HETATM    3  C   UNL     1      -8.153  11.613  68.747  1.00  0.00    -0.072 C  
HETATM    4  C   UNL     1      -7.361  11.613  67.419  1.00  0.00    -0.128 C  
HETATM    5  C   UNL     1      -6.874  10.175  67.059  1.00  0.00    -0.083 C  
HETATM    6  C   UNL     1      -6.241  12.650  67.433  1.00  0.00    -0.149 C  
HETATM    7  C   UNL     1      -6.125  10.095  65.732  1.00  0.00    -0.098 C  
HETATM    8  C   UNL     1      -7.050  10.181  64.531  1.00  0.00    -0.119 C  
HETATM    9  C   UNL     1      -8.103   9.050  64.475  1.00  0.00    -0.143 C  
HETATM   10  C   UNL     1      -8.387   8.794  62.990  1.00  0.00    -0.175 C  
HETATM   11  O   UNL     1      -9.359   9.394  65.060  1.00  0.00    -0.251 OA 
HETATM   12  O   UNL     1      -9.179   9.894  66.423  1.00  0.00    -0.149 OA 
HETATM   13  C   UNL     1      -8.100   9.218  67.110  1.00  0.00    -0.109 C  
HETATM   14  C   UNL     1      -7.795   7.822  66.487  1.00  0.00    -0.101 C  
HETATM   15  O   UNL     1      -8.783   6.872  66.878  1.00  0.00    -0.113 OA 
HETATM   16  O   UNL     1      -7.625   7.839  65.059  1.00  0.00    -0.083 OA 
HETATM   17  C   UNL     1      -8.798   6.608  68.288  1.00  0.00    -0.124 C  
HETATM   18  C   UNL     1      -8.366   7.537  70.644  1.00  0.00    -0.126 C  
HETATM   19  C   UNL     1      -8.115   7.712  69.143  1.00  0.00    -0.125 C  
ENDROOT
BRANCH  17  20
HETATM   20  O   UNL     1     -10.148   6.498  68.753  1.00  0.00    -0.149 OA 
HETATM   21  C   UNL     1     -11.106   6.605  67.713  1.00  0.00    -0.242 C  
ENDBRANCH  17  20
TORSDOF 1
ENDMDL
MODEL      124
REMARK 921   NORMALIZED FREE ENERGY PREDICTED BY IDOCK:   -2.80 KCAL/MOL
REMARK 922        TOTAL FREE ENERGY PREDICTED BY IDOCK:   -3.00 KCAL/MOL
REMARK 923 INTER-LIGAND FREE ENERGY PREDICTED BY IDOCK:   -2.87 KCAL/MOL
REMARK 924 INTRA-LIGAND FREE ENERGY PREDICTED BY IDOCK:   -0.13 KCAL/MOL
REMARK 927      BINDING AFFINITY PREDICTED BY RF-SCORE:    0.00 PKD
ROOT
HETATM    1  C   UNL     1      -9.042   6.019  68.857  1.00  0.00    -0.121 C  
HETATM    2  C   UNL     1     -10.076   5.551  69.907  1.00  0.00    -0.305 C  
HETATM    3  C   UNL     1     -11.000   6.677  70.381  1.00  0.00    -0.341 C  
HETATM    4  C   UNL     1     -10.233   7.909  70.917  1.00  0.00    -0.213 C  
HETATM    5  C   UNL     1      -8.702   7.769  70.656  1.00  0.00    -0.139 C  
HETATM    6  C   UNL     1     -10.580   8.195  72.375  1.00  0.00    -0.393 C  
HETATM    7  C   UNL     1      -7.888   8.976  71.118  1.00  0.00    -0.154 C  
HETATM    8  C   UNL     1      -8.030  10.168  70.189  1.00  0.00    -0.029 C  
HETATM    9  C   UNL     1      -7.562   9.889  68.743  1.00  0.00    -0.081 C  
HETATM   10  C   UNL     1      -7.036  11.220  68.192  1.00  0.00    -0.069 C  
HETATM   11  O   UNL     1      -8.609   9.486  67.859  1.00  0.00    -0.119 OA 
HETATM   12  O   UNL     1      -9.350   8.353  68.412  1.00  0.00    -0.136 OA 
HETATM   13  C   UNL     1      -8.491   7.450  69.148  1.00  0.00    -0.133 C  
HETATM   14  C   UNL     1      -7.000   7.580  68.712  1.00  0.00    -0.078 C  
HETATM   15  O   UNL     1      -6.786   6.933  67.460  1.00  0.00    -0.062 OA 
HETATM   16  O   UNL     1      -6.507   8.930  68.693  1.00  0.00    -0.052 OA 
HETATM   17  C   UNL     1      -6.995   5.515  67.503  1.00  0.00    -0.066 C  
HETATM   18  C   UNL     1      -8.274   3.573  68.595  1.00  0.00    -0.081 C  
HETATM   19  C   UNL     1      -7.853   5.042  68.710  1.00  0.00    -0.078 C  
ENDROOT
BRANCH  17  20
HETATM   20  O   UNL     1      -7.671   5.082  66.317  1.00  0.00    -0.090 OA 
HETATM   21  C   UNL     1      -8.056   6.153  65.472  1.00  0.00    -0.131 C  
ENDBRANCH  17  20
TORSDOF 1
ENDMDL
MODEL      125
REMARK 921   NORMALIZED FREE ENERGY PREDICTED BY IDOCK:   -2.69 KCAL/MOL
REMARK 922        TOTAL FREE ENERGY PREDICTED BY IDOCK:   -2.89 KCAL/MOL
REMARK 923 INTER-LIGAND FREE ENERGY PREDICTED BY IDOCK:   -2.78 KCAL/MOL
REMARK 924 INTRA-LIGAND FREE ENERGY PREDICTED BY IDOCK:   -0.10 KCAL/MOL
REMARK 927      BINDING AFFINITY PREDICTED BY RF-SCORE:    0.00 PKD
ROOT
HETATM    1  C   UNL     1      -9.511  11.488  65.634  1.00  0.00    -0.244 C  
HETATM    2  C   UNL     1      -9.451  12.249  64.289  1.00  0.00     0.229 C  
HETATM    3  C   UNL     1      -9.548  13.769  64.455  1.00  0.00     0.995 C  
HETATM    4  C   UNL     1     -10.797  14.215  65.252  1.00  0.00    -0.356 C  
HETATM    5  C   UNL     1     -11.543  12.985  65.855  1.00  0.00    -0.405 C  
HETATM    6  C   UNL     1     -11.697  15.126  64.421  1.00  0.00    -0.301 C  
HETATM    7  C   UNL     1     -12.761  13.357  66.697  1.00  0.00     0.218 C  
HETATM    8  C   UNL     1     -12.384  13.913  68.059  1.00  0.00     0.004 C  
HETATM    9  C   UNL     1     -11.572  12.927  68.929  1.00  0.00    -0.315 C  
HETATM   10  C   UNL     1     -11.930  13.239  70.388  1.00  0.00    -0.350 C  
HETATM   11  O   UNL     1     -10.157  13.092  68.830  1.00  0.00    -0.109 OA 
HETATM   12  O   UNL     1      -9.725  13.056  67.433  1.00  0.00    -0.205 OA 
HETATM   13  C   UNL     1     -10.511  12.129  66.647  1.00  0.00    -0.220 C  
HETATM   14  C   UNL     1     -11.191  11.042  67.533  1.00  0.00    -0.302 C  
HETATM   15  O   UNL     1     -10.241  10.059  67.937  1.00  0.00    -0.168 OA 
HETATM   16  O   UNL     1     -11.910  11.567  68.662  1.00  0.00    -0.337 OA 
HETATM   17  C   UNL     1      -9.697   9.303  66.846  1.00  0.00    -0.190 C  
HETATM   18  C   UNL     1      -9.054   9.296  64.359  1.00  0.00    -0.111 C  
HETATM   19  C   UNL     1      -9.859   9.992  65.461  1.00  0.00    -0.373 C  
ENDROOT
BRANCH  17  20
HETATM   20  O   UNL     1      -8.295   9.093  67.044  1.00  0.00    -0.118 OA 
HETATM   21  C   UNL     1      -8.012   8.121  68.037  1.00  0.00    -0.127 C  
ENDBRANCH  17  20
TORSDOF 1
ENDMDL
MODEL      126
REMARK 921   NORMALIZED FREE ENERGY PREDICTED BY IDOCK:   -2.65 KCAL/MOL
REMARK 922        TOTAL FREE ENERGY PREDICTED BY IDOCK:   -2.84 KCAL/MOL
REMARK 923 INTER-LIGAND FREE ENERGY PREDICTED BY IDOCK:   -2.71 KCAL/MOL
REMARK 924 INTRA-LIGAND FREE ENERGY PREDICTED BY IDOCK:   -0.13 KCAL/MOL
REMARK 927      BINDING AFFINITY PREDICTED BY RF-SCORE:    0.00 PKD
ROOT
HETATM    1  C   UNL     1      -8.185   5.894  65.671  1.00  0.00    -0.134 C  
HETATM    2  C   UNL     1      -7.378   5.624  64.380  1.00  0.00    -0.065 C  
HETATM    3  C   UNL     1      -6.160   6.541  64.232  1.00  0.00    -0.034 C  
HETATM    4  C   UNL     1      -6.516   8.044  64.320  1.00  0.00    -0.061 C  
HETATM    5  C   UNL     1      -8.006   8.241  64.735  1.00  0.00    -0.146 C  
HETATM    6  C   UNL     1      -6.136   8.787  63.042  1.00  0.00    -0.090 C  
HETATM    7  C   UNL     1      -8.413   9.704  64.889  1.00  0.00    -0.161 C  
HETATM    8  C   UNL     1      -7.879  10.330  66.165  1.00  0.00    -0.129 C  
HETATM    9  C   UNL     1      -8.373   9.631  67.453  1.00  0.00    -0.114 C  
HETATM   10  C   UNL     1      -8.440  10.715  68.537  1.00  0.00    -0.136 C  
HETATM   11  O   UNL     1      -7.482   8.634  67.953  1.00  0.00    -0.094 OA 
HETATM   12  O   UNL     1      -7.148   7.664  66.909  1.00  0.00    -0.079 OA 
HETATM   13  C   UNL     1      -8.267   7.412  66.026  1.00  0.00    -0.130 C  
HETATM   14  C   UNL     1      -9.630   7.761  66.697  1.00  0.00    -0.220 C  
HETATM   15  O   UNL     1     -10.003   6.751  67.631  1.00  0.00    -0.126 OA 
HETATM   16  O   UNL     1      -9.674   9.068  67.296  1.00  0.00    -0.160 OA 
HETATM   17  C   UNL     1     -10.250   5.474  67.027  1.00  0.00    -0.224 C  
HETATM   18  C   UNL     1      -9.674   3.868  65.106  1.00  0.00    -0.191 C  
HETATM   19  C   UNL     1      -9.616   5.312  65.616  1.00  0.00    -0.064 C  
ENDROOT
BRANCH  17  20
HETATM   20  O   UNL     1      -9.712   4.430  67.847  1.00  0.00    -0.163 OA 
HETATM   21  C   UNL     1      -9.816   4.702  69.235  1.00  0.00    -0.190 C  
ENDBRANCH  17  20
TORSDOF 1
ENDMDL
MODEL      127
REMARK 921   NORMALIZED FREE ENERGY PREDICTED BY IDOCK:   -2.49 KCAL/MOL
REMARK 922        TOTAL FREE ENERGY PREDICTED BY IDOCK:   -2.68 KCAL/MOL
REMARK 923 INTER-LIGAND FREE ENERGY PREDICTED BY IDOCK:   -2.54 KCAL/MOL
REMARK 924 INTRA-LIGAND FREE ENERGY PREDICTED BY IDOCK:   -0.14 KCAL/MOL
REMARK 927      BINDING AFFINITY PREDICTED BY RF-SCORE:    0.00 PKD
ROOT
HETATM    1  C   UNL     1      -9.625  13.658  67.428  1.00  0.00    -0.226 C  
HETATM    2  C   UNL     1      -9.276  15.087  67.906  1.00  0.00    -0.182 C  
HETATM    3  C   UNL     1      -7.770  15.366  67.911  1.00  0.00    -0.144 C  
HETATM    4  C   UNL     1      -6.962  14.330  68.728  1.00  0.00    -0.102 C  
HETATM    5  C   UNL     1      -7.870  13.147  69.182  1.00  0.00     0.362 C  
HETATM    6  C   UNL     1      -6.202  14.991  69.876  1.00  0.00    -0.155 C  
HETATM    7  C   UNL     1      -7.125  12.061  69.954  1.00  0.00     0.575 C  
HETATM    8  C   UNL     1      -6.273  11.183  69.055  1.00  0.00    -0.047 C  
HETATM    9  C   UNL     1      -7.081  10.432  67.973  1.00  0.00    -0.082 C  
HETATM   10  C   UNL     1      -6.338   9.116  67.710  1.00  0.00    -0.055 C  
HETATM   11  O   UNL     1      -7.138  11.106  66.716  1.00  0.00    -0.124 OA 
HETATM   12  O   UNL     1      -7.612  12.481  66.883  1.00  0.00    -0.063 OA 
HETATM   13  C   UNL     1      -8.605  12.588  67.929  1.00  0.00    -0.179 C  
HETATM   14  C   UNL     1      -9.309  11.225  68.207  1.00  0.00    -0.180 C  
HETATM   15  O   UNL     1     -10.261  10.935  67.186  1.00  0.00    -0.194 OA 
HETATM   16  O   UNL     1      -8.405  10.125  68.405  1.00  0.00    -0.108 OA 
HETATM   17  C   UNL     1     -11.351  11.866  67.136  1.00  0.00    -0.331 C  
HETATM   18  C   UNL     1     -12.123  14.281  67.548  1.00  0.00    -0.347 C  
HETATM   19  C   UNL     1     -11.052  13.223  67.834  1.00  0.00    -0.287 C  
ENDROOT
BRANCH  17  20
HETATM   20  O   UNL     1     -11.683  12.162  65.775  1.00  0.00    -0.385 OA 
HETATM   21  C   UNL     1     -10.813  11.543  64.842  1.00  0.00    -0.283 C  
ENDBRANCH  17  20
TORSDOF 1
ENDMDL
MODEL      128
REMARK 921   NORMALIZED FREE ENERGY PREDICTED BY IDOCK:   -1.66 KCAL/MOL
REMARK 922        TOTAL FREE ENERGY PREDICTED BY IDOCK:   -1.79 KCAL/MOL
REMARK 923 INTER-LIGAND FREE ENERGY PREDICTED BY IDOCK:   -2.33 KCAL/MOL
REMARK 924 INTRA-LIGAND FREE ENERGY PREDICTED BY IDOCK:    0.53 KCAL/MOL
REMARK 927      BINDING AFFINITY PREDICTED BY RF-SCORE:    0.00 PKD
ROOT
HETATM    1  C   UNL     1      -9.107  16.782  66.823  1.00  0.00    -0.263 C  
HETATM    2  C   UNL     1      -7.973  15.844  66.350  1.00  0.00    -0.125 C  
HETATM    3  C   UNL     1      -8.310  14.360  66.526  1.00  0.00     0.307 C  
HETATM    4  C   UNL     1      -8.717  13.997  67.973  1.00  0.00    -0.180 C  
HETATM    5  C   UNL     1      -8.872  15.278  68.848  1.00  0.00    -0.209 C  
HETATM    6  C   UNL     1      -7.777  12.956  68.577  1.00  0.00    -0.109 C  
HETATM    7  C   UNL     1      -9.321  14.995  70.279  1.00  0.00     0.645 C  
HETATM    8  C   UNL     1     -10.795  14.644  70.372  1.00  0.00     0.056 C  
HETATM    9  C   UNL     1     -11.734  15.762  69.863  1.00  0.00    -0.357 C  
HETATM   10  C   UNL     1     -13.028  15.646  70.677  1.00  0.00    -0.342 C  
HETATM   11  O   UNL     1     -12.118  15.622  68.495  1.00  0.00    -0.242 OA 
HETATM   12  O   UNL     1     -10.943  15.474  67.636  1.00  0.00    -0.303 OA 
HETATM   13  C   UNL     1      -9.824  16.262  68.109  1.00  0.00    -0.229 C  
HETATM   14  C   UNL     1     -10.285  17.444  69.014  1.00  0.00    -0.317 C  
HETATM   15  O   UNL     1     -10.831  18.497  68.225  1.00  0.00    -0.173 OA 
HETATM   16  O   UNL     1     -11.185  17.062  70.069  1.00  0.00     0.114 OA 
HETATM   17  C   UNL     1      -9.878  19.108  67.344  1.00  0.00    -0.329 C  
HETATM   18  C   UNL     1      -7.753  18.786  65.936  1.00  0.00    -0.150 C  
HETATM   19  C   UNL     1      -8.625  18.230  67.066  1.00  0.00    -0.259 C  
ENDROOT
BRANCH  17  20
HETATM   20  O   UNL     1     -10.484  19.381  66.076  1.00  0.00    -0.473 OA 
HETATM   21  C   UNL     1     -10.036  20.593  65.493  1.00  0.00     0.607 C  
ENDBRANCH  17  20
TORSDOF 1
ENDMDL
MODEL      129
REMARK 921   NORMALIZED FREE ENERGY PREDICTED BY IDOCK:   -1.05 KCAL/MOL
REMARK 922        TOTAL FREE ENERGY PREDICTED BY IDOCK:   -1.14 KCAL/MOL
REMARK 923 INTER-LIGAND FREE ENERGY PREDICTED BY IDOCK:   -1.68 KCAL/MOL
REMARK 924 INTRA-LIGAND FREE ENERGY PREDICTED BY IDOCK:    0.53 KCAL/MOL
REMARK 927      BINDING AFFINITY PREDICTED BY RF-SCORE:    0.00 PKD
ROOT
HETATM    1  C   UNL     1      -8.624  14.656  67.883  1.00  0.00    -0.165 C  
HETATM    2  C   UNL     1      -9.975  14.653  67.129  1.00  0.00    -0.240 C  
HETATM    3  C   UNL     1     -10.065  15.744  66.057  1.00  0.00    -0.359 C  
HETATM    4  C   UNL     1      -9.777  17.161  66.607  1.00  0.00    -0.285 C  
HETATM    5  C   UNL     1      -9.273  17.097  68.081  1.00  0.00    -0.261 C  
HETATM    6  C   UNL     1     -10.971  18.092  66.411  1.00  0.00     0.228 C  
HETATM    7  C   UNL     1      -8.923  18.460  68.671  1.00  0.00    -0.308 C  
HETATM    8  C   UNL     1      -7.606  19.004  68.148  1.00  0.00    -0.311 C  
HETATM    9  C   UNL     1      -6.392  18.099  68.461  1.00  0.00    -0.206 C  
HETATM   10  C   UNL     1      -5.182  19.031  68.607  1.00  0.00    -0.192 C  
HETATM   11  O   UNL     1      -6.059  17.187  67.415  1.00  0.00    -0.127 OA 
HETATM   12  O   UNL     1      -7.228  16.400  67.019  1.00  0.00    -0.179 OA 
HETATM   13  C   UNL     1      -8.083  16.096  68.146  1.00  0.00    -0.149 C  
HETATM   14  C   UNL     1      -7.313  16.170  69.499  1.00  0.00    -0.112 C  
HETATM   15  O   UNL     1      -6.494  15.017  69.673  1.00  0.00    -0.130 OA 
HETATM   16  O   UNL     1      -6.557  17.379  69.682  1.00  0.00    -0.221 OA 
HETATM   17  C   UNL     1      -7.237  13.795  69.783  1.00  0.00     0.381 C  
HETATM   18  C   UNL     1      -9.365  12.519  69.117  1.00  0.00     0.626 C  
HETATM   19  C   UNL     1      -8.685  13.888  69.222  1.00  0.00     0.507 C  
ENDROOT
BRANCH  17  20
HETATM   20  O   UNL     1      -6.577  12.751  69.059  1.00  0.00    -0.091 OA 
HETATM   21  C   UNL     1      -6.667  11.488  69.697  1.00  0.00    -0.083 C  
ENDBRANCH  17  20
TORSDOF 1
ENDMDL
MODEL      130
REMARK 921   NORMALIZED FREE ENERGY PREDICTED BY IDOCK:    0.14 KCAL/MOL
REMARK 922        TOTAL FREE ENERGY PREDICTED BY IDOCK:    0.11 KCAL/MOL
REMARK 923 INTER-LIGAND FREE ENERGY PREDICTED BY IDOCK:    0.18 KCAL/MOL
REMARK 924 INTRA-LIGAND FREE ENERGY PREDICTED BY IDOCK:   -0.06 KCAL/MOL
REMARK 927      BINDING AFFINITY PREDICTED BY RF-SCORE:    0.00 PKD
ROOT
HETATM    1  C   UNL     1      -9.695  16.623  68.263  1.00  0.00    -0.244 C  
HETATM    2  C   UNL     1      -8.940  17.867  67.738  1.00  0.00    -0.254 C  
HETATM    3  C   UNL     1      -8.043  17.559  66.534  1.00  0.00    -0.305 C  
HETATM    4  C   UNL     1      -7.039  16.414  66.801  1.00  0.00    -0.233 C  
HETATM    5  C   UNL     1      -7.327  15.727  68.171  1.00  0.00    -0.130 C  
HETATM    6  C   UNL     1      -5.595  16.886  66.648  1.00  0.00    -0.115 C  
HETATM    7  C   UNL     1      -6.401  14.552  68.476  1.00  0.00    -0.088 C  
HETATM    8  C   UNL     1      -6.747  13.309  67.676  1.00  0.00    -0.171 C  
HETATM    9  C   UNL     1      -8.176  12.781  67.937  1.00  0.00    -0.168 C  
HETATM   10  C   UNL     1      -8.119  11.260  67.744  1.00  0.00    -0.119 C  
HETATM   11  O   UNL     1      -9.152  13.256  67.009  1.00  0.00    -0.218 OA 
HETATM   12  O   UNL     1      -9.126  14.717  66.929  1.00  0.00    -0.227 OA 
HETATM   13  C   UNL     1      -8.830  15.325  68.208  1.00  0.00    -0.171 C  
HETATM   14  C   UNL     1      -9.166  14.374  69.397  1.00  0.00     0.305 C  
HETATM   15  O   UNL     1     -10.573  14.330  69.622  1.00  0.00    -0.098 OA 
HETATM   16  O   UNL     1      -8.617  13.051  69.266  1.00  0.00     0.556 OA 
HETATM   17  C   UNL     1     -11.127  15.586  70.037  1.00  0.00    -0.315 C  
HETATM   18  C   UNL     1     -10.950  18.146  69.919  1.00  0.00     1.907 C  
HETATM   19  C   UNL     1     -10.231  16.811  69.700  1.00  0.00    -0.093 C  
ENDROOT
BRANCH  17  20
HETATM   20  O   UNL     1     -12.388  15.804  69.394  1.00  0.00    -0.248 OA 
HETATM   21  C   UNL     1     -13.495  15.620  70.261  1.00  0.00     0.602 C  
ENDBRANCH  17  20
TORSDOF 1
ENDMDL
MODEL      131
REMARK 921   NORMALIZED FREE ENERGY PREDICTED BY IDOCK:    5.34 KCAL/MOL
REMARK 922        TOTAL FREE ENERGY PREDICTED BY IDOCK:    5.62 KCAL/MOL
REMARK 923 INTER-LIGAND FREE ENERGY PREDICTED BY IDOCK:    4.94 KCAL/MOL
REMARK 924 INTRA-LIGAND FREE ENERGY PREDICTED BY IDOCK:    0.68 KCAL/MOL
REMARK 927      BINDING AFFINITY PREDICTED BY RF-SCORE:    0.00 PKD
ROOT
HETATM    1  C   UNL     1     -11.830  16.635  71.931  1.00  0.00    -0.062 C  
HETATM    2  C   UNL     1     -11.204  18.046  71.839  1.00  0.00     2.949 C  
HETATM    3  C   UNL     1     -11.156  18.589  70.408  1.00  0.00     3.323 C  
HETATM    4  C   UNL     1     -10.442  17.637  69.420  1.00  0.00     0.078 C  
HETATM    5  C   UNL     1     -10.121  16.268  70.096  1.00  0.00     0.268 C  
HETATM    6  C   UNL     1      -9.225  18.301  68.780  1.00  0.00    -0.252 C  
HETATM    7  C   UNL     1      -9.458  15.261  69.161  1.00  0.00    -0.236 C  
HETATM    8  C   UNL     1     -10.435  14.648  68.173  1.00  0.00    -0.237 C  
HETATM    9  C   UNL     1     -11.597  13.879  68.843  1.00  0.00    -0.316 C  
HETATM   10  C   UNL     1     -11.986  12.752  67.878  1.00  0.00    -0.320 C  
HETATM   11  O   UNL     1     -12.778  14.658  69.032  1.00  0.00     0.105 OA 
HETATM   12  O   UNL     1     -12.475  15.901  69.743  1.00  0.00    -0.220 OA 
HETATM   13  C   UNL     1     -11.432  15.719  70.731  1.00  0.00    -0.393 C  
HETATM   14  C   UNL     1     -11.303  14.231  71.176  1.00  0.00     0.408 C  
HETATM   15  O   UNL     1     -12.357  13.882  72.069  1.00  0.00    -0.177 OA 
HETATM   16  O   UNL     1     -11.211  13.296  70.087  1.00  0.00     0.071 OA 
HETATM   17  C   UNL     1     -12.322  14.601  73.309  1.00  0.00    -0.259 C  
HETATM   18  C   UNL     1     -11.670  16.783  74.498  1.00  0.00     0.347 C  
HETATM   19  C   UNL     1     -11.485  15.911  73.252  1.00  0.00     0.165 C  
ENDROOT
BRANCH  17  20
HETATM   20  O   UNL     1     -13.648  14.972  73.701  1.00  0.00    -0.172 OA 
HETATM   21  C   UNL     1     -14.396  15.561  72.651  1.00  0.00    -0.127 C  
ENDBRANCH  17  20
TORSDOF 1
ENDMDL
MODEL      132
REMARK 921   NORMALIZED FREE ENERGY PREDICTED BY IDOCK:    6.00 KCAL/MOL
REMARK 922        TOTAL FREE ENERGY PREDICTED BY IDOCK:    6.31 KCAL/MOL
REMARK 923 INTER-LIGAND FREE ENERGY PREDICTED BY IDOCK:    6.44 KCAL/MOL
REMARK 924 INTRA-LIGAND FREE ENERGY PREDICTED BY IDOCK:   -0.13 KCAL/MOL
REMARK 927      BINDING AFFINITY PREDICTED BY RF-SCORE:    0.00 PKD
ROOT
HETATM    1  C   UNL     1      -8.704  13.404  67.945  1.00  0.00    -0.187 C  
HETATM    2  C   UNL     1      -9.603  14.588  67.520  1.00  0.00    -0.210 C  
HETATM    3  C   UNL     1     -10.895  14.683  68.338  1.00  0.00    -0.250 C  
HETATM    4  C   UNL     1     -11.718  13.373  68.329  1.00  0.00    -0.391 C  
HETATM    5  C   UNL     1     -10.923  12.219  67.645  1.00  0.00    -0.287 C  
HETATM    6  C   UNL     1     -13.109  13.589  67.738  1.00  0.00     2.781 C  
HETATM    7  C   UNL     1     -11.659  10.882  67.645  1.00  0.00    -0.171 C  
HETATM    8  C   UNL     1     -11.649  10.207  69.005  1.00  0.00    -0.076 C  
HETATM    9  C   UNL     1     -10.229   9.892  69.532  1.00  0.00    -0.225 C  
HETATM   10  C   UNL     1     -10.357   8.631  70.395  1.00  0.00    -0.225 C  
HETATM   11  O   UNL     1      -9.688  10.899  70.387  1.00  0.00     1.013 OA 
HETATM   12  O   UNL     1      -9.744  12.213  69.745  1.00  0.00     1.246 OA 
HETATM   13  C   UNL     1      -9.522  12.128  68.317  1.00  0.00    -0.204 C  
HETATM   14  C   UNL     1      -8.753  10.830  67.922  1.00  0.00    -0.129 C  
HETATM   15  O   UNL     1      -7.369  10.953  68.238  1.00  0.00    -0.081 OA 
HETATM   16  O   UNL     1      -9.309   9.625  68.474  1.00  0.00    -0.136 OA 
HETATM   17  C   UNL     1      -6.697  11.975  67.489  1.00  0.00    -0.120 C  
HETATM   18  C   UNL     1      -6.906  14.244  66.301  1.00  0.00     3.961 C  
HETATM   19  C   UNL     1      -7.654  13.034  66.872  1.00  0.00     0.248 C  
ENDROOT
BRANCH  17  20
HETATM   20  O   UNL     1      -5.782  12.683  68.334  1.00  0.00    -0.055 OA 
HETATM   21  C   UNL     1      -5.226  11.873  69.356  1.00  0.00    -0.057 C  
ENDBRANCH  17  20
TORSDOF 1
ENDMDL
MODEL      133
REMARK 921   NORMALIZED FREE ENERGY PREDICTED BY IDOCK:    9.06 KCAL/MOL
REMARK 922        TOTAL FREE ENERGY PREDICTED BY IDOCK:    9.55 KCAL/MOL
REMARK 923 INTER-LIGAND FREE ENERGY PREDICTED BY IDOCK:    9.66 KCAL/MOL
REMARK 924 INTRA-LIGAND FREE ENERGY PREDICTED BY IDOCK:   -0.11 KCAL/MOL
REMARK 927      BINDING AFFINITY PREDICTED BY RF-SCORE:    0.00 PKD
ROOT
HETATM    1  C   UNL     1      -9.877   7.889  65.592  1.00  0.00     0.721 C  
HETATM    2  C   UNL     1     -10.617   8.735  64.530  1.00  0.00     5.678 C  
HETATM    3  C   UNL     1     -10.410  10.242  64.713  1.00  0.00    -0.101 C  
HETATM    4  C   UNL     1     -10.785  10.740  66.129  1.00  0.00    -0.187 C  
HETATM    5  C   UNL     1     -11.095   9.541  67.078  1.00  0.00     0.219 C  
HETATM    6  C   UNL     1     -11.898  11.783  66.081  1.00  0.00     0.033 C  
HETATM    7  C   UNL     1     -11.425   9.960  68.508  1.00  0.00     0.057 C  
HETATM    8  C   UNL     1     -10.196  10.382  69.294  1.00  0.00    -0.248 C  
HETATM    9  C   UNL     1      -9.132   9.269  69.429  1.00  0.00    -0.152 C  
HETATM   10  C   UNL     1      -8.422   9.508  70.767  1.00  0.00    -0.085 C  
HETATM   11  O   UNL     1      -8.112   9.314  68.431  1.00  0.00    -0.104 OA 
HETATM   12  O   UNL     1      -8.696   9.339  67.090  1.00  0.00    -0.126 OA 
HETATM   13  C   UNL     1      -9.902   8.544  67.010  1.00  0.00    -0.224 C  
HETATM   14  C   UNL     1      -9.963   7.461  68.129  1.00  0.00    -0.166 C  
HETATM   15  O   UNL     1      -9.097   6.372  67.821  1.00  0.00    -0.114 OA 
HETATM   16  O   UNL     1      -9.714   7.967  69.452  1.00  0.00    -0.167 OA 
HETATM   17  C   UNL     1      -9.480   5.650  66.642  1.00  0.00    -0.147 C  
HETATM   18  C   UNL     1     -10.608   5.762  64.336  1.00  0.00     3.494 C  
HETATM   19  C   UNL     1     -10.421   6.446  65.694  1.00  0.00     1.473 C  
ENDROOT
BRANCH  17  20
HETATM   20  O   UNL     1      -8.319   5.302  65.879  1.00  0.00    -0.114 OA 
HETATM   21  C   UNL     1      -7.431   4.444  66.576  1.00  0.00    -0.082 C  
ENDBRANCH  17  20
TORSDOF 1
ENDMDL
MODEL      134
REMARK 921   NORMALIZED FREE ENERGY PREDICTED BY IDOCK:   14.23 KCAL/MOL
REMARK 922        TOTAL FREE ENERGY PREDICTED BY IDOCK:   15.03 KCAL/MOL
REMARK 923 INTER-LIGAND FREE ENERGY PREDICTED BY IDOCK:   15.14 KCAL/MOL
REMARK 924 INTRA-LIGAND FREE ENERGY PREDICTED BY IDOCK:   -0.10 KCAL/MOL
REMARK 927      BINDING AFFINITY PREDICTED BY RF-SCORE:    0.00 PKD
ROOT
HETATM    1  C   UNL     1     -10.632  12.095  66.577  1.00  0.00    -0.269 C  
HETATM    2  C   UNL     1     -10.083  11.348  65.339  1.00  0.00    -0.308 C  
HETATM    3  C   UNL     1      -9.821   9.862  65.604  1.00  0.00    -0.368 C  
HETATM    4  C   UNL     1      -8.893   9.615  66.817  1.00  0.00    -0.148 C  
HETATM    5  C   UNL     1      -8.615  10.943  67.586  1.00  0.00    -0.124 C  
HETATM    6  C   UNL     1      -7.625   8.869  66.410  1.00  0.00    -0.092 C  
HETATM    7  C   UNL     1      -7.742  10.763  68.825  1.00  0.00    -0.121 C  
HETATM    8  C   UNL     1      -8.496  10.141  69.987  1.00  0.00    -0.036 C  
HETATM    9  C   UNL     1      -9.709  10.975  70.459  1.00  0.00     2.459 C  
HETATM   10  C   UNL     1      -9.860  10.711  71.962  1.00  0.00     7.543 C  
HETATM   11  O   UNL     1     -10.949  10.586  69.867  1.00  0.00    -0.270 OA 
HETATM   12  O   UNL     1     -10.846  10.565  68.408  1.00  0.00    -0.206 OA 
HETATM   13  C   UNL     1      -9.981  11.613  67.911  1.00  0.00    -0.182 C  
HETATM   14  C   UNL     1      -9.844  12.787  68.927  1.00  0.00     0.156 C  
HETATM   15  O   UNL     1     -11.015  13.600  68.914  1.00  0.00    -0.245 OA 
HETATM   16  O   UNL     1      -9.511  12.374  70.263  1.00  0.00     3.456 OA 
HETATM   17  C   UNL     1     -11.236  14.269  67.665  1.00  0.00    -0.304 C  
HETATM   18  C   UNL     1     -10.928  14.197  65.115  1.00  0.00    -0.361 C  
HETATM   19  C   UNL     1     -10.480  13.629  66.466  1.00  0.00    -0.281 C  
ENDROOT
BRANCH  17  20
HETATM   20  O   UNL     1     -12.629  14.250  67.336  1.00  0.00    -0.054 OA 
HETATM   21  C   UNL     1     -13.415  15.067  68.188  1.00  0.00     4.889 C  
ENDBRANCH  17  20
TORSDOF 1
ENDMDL
MODEL      135
REMARK 921   NORMALIZED FREE ENERGY PREDICTED BY IDOCK:   23.78 KCAL/MOL
REMARK 922        TOTAL FREE ENERGY PREDICTED BY IDOCK:   25.14 KCAL/MOL
REMARK 923 INTER-LIGAND FREE ENERGY PREDICTED BY IDOCK:   25.24 KCAL/MOL
REMARK 924 INTRA-LIGAND FREE ENERGY PREDICTED BY IDOCK:   -0.10 KCAL/MOL
REMARK 927      BINDING AFFINITY PREDICTED BY RF-SCORE:    0.00 PKD
ROOT
HETATM    1  C   UNL     1      -8.854  15.601  67.939  1.00  0.00    -0.171 C  
HETATM    2  C   UNL     1      -9.732  16.874  67.927  1.00  0.00    -0.254 C  
HETATM    3  C   UNL     1      -9.173  17.996  68.808  1.00  0.00    -0.229 C  
HETATM    4  C   UNL     1      -8.917  17.552  70.268  1.00  0.00     2.949 C  
HETATM    5  C   UNL     1      -9.111  16.013  70.425  1.00  0.00     1.496 C  
HETATM    6  C   UNL     1      -9.740  18.374  71.256  1.00  0.00     5.005 C  
HETATM    7  C   UNL     1      -8.827  15.499  71.834  1.00  0.00     6.141 C  
HETATM    8  C   UNL     1      -7.342  15.436  72.146  1.00  0.00     4.813 C  
HETATM    9  C   UNL     1      -6.547  14.504  71.203  1.00  0.00     0.519 C  
HETATM   10  C   UNL     1      -5.381  13.945  72.027  1.00  0.00    -0.217 C  
HETATM   11  O   UNL     1      -5.955  15.170  70.088  1.00  0.00    -0.133 OA 
HETATM   12  O   UNL     1      -6.955  15.950  69.356  1.00  0.00    -0.191 OA 
HETATM   13  C   UNL     1      -8.247  15.299  69.345  1.00  0.00    -0.233 C  
HETATM   14  C   UNL     1      -8.130  13.764  69.591  1.00  0.00     0.965 C  
HETATM   15  O   UNL     1      -7.667  13.103  68.416  1.00  0.00    -0.129 OA 
HETATM   16  O   UNL     1      -7.336  13.410  70.736  1.00  0.00     1.752 OA 
HETATM   17  C   UNL     1      -8.577  13.191  67.311  1.00  0.00    -0.210 C  
HETATM   18  C   UNL     1     -10.394  14.582  66.142  1.00  0.00    -0.305 C  
HETATM   19  C   UNL     1      -9.608  14.349  67.437  1.00  0.00    -0.216 C  
ENDROOT
BRANCH  17  20
HETATM   20  O   UNL     1      -7.854  13.409  66.095  1.00  0.00     1.300 OA 
HETATM   21  C   UNL     1      -6.990  12.336  65.760  1.00  0.00     2.590 C  
ENDBRANCH  17  20
TORSDOF 1
ENDMDL
MODEL      136
REMARK 921   NORMALIZED FREE ENERGY PREDICTED BY IDOCK:   32.18 KCAL/MOL
REMARK 922        TOTAL FREE ENERGY PREDICTED BY IDOCK:   34.02 KCAL/MOL
REMARK 923 INTER-LIGAND FREE ENERGY PREDICTED BY IDOCK:   33.65 KCAL/MOL
REMARK 924 INTRA-LIGAND FREE ENERGY PREDICTED BY IDOCK:    0.38 KCAL/MOL
REMARK 927      BINDING AFFINITY PREDICTED BY RF-SCORE:    0.00 PKD
ROOT
HETATM    1  C   UNL     1      -8.420  13.226  70.485  1.00  0.00     5.313 C  
HETATM    2  C   UNL     1      -9.953  13.074  70.609  1.00  0.00     5.353 C  
HETATM    3  C   UNL     1     -10.583  12.351  69.415  1.00  0.00     0.200 C  
HETATM    4  C   UNL     1     -10.232  13.002  68.056  1.00  0.00    -0.233 C  
HETATM    5  C   UNL     1      -9.161  14.121  68.234  1.00  0.00    -0.190 C  
HETATM    6  C   UNL     1     -11.484  13.468  67.317  1.00  0.00    -0.369 C  
HETATM    7  C   UNL     1      -8.732  14.774  66.922  1.00  0.00    -0.264 C  
HETATM    8  C   UNL     1      -7.807  13.891  66.103  1.00  0.00     2.251 C  
HETATM    9  C   UNL     1      -6.491  13.528  66.829  1.00  0.00     1.683 C  
HETATM   10  C   UNL     1      -5.425  13.363  65.738  1.00  0.00     6.808 C  
HETATM   11  O   UNL     1      -6.534  12.282  67.525  1.00  0.00    -0.105 OA 
HETATM   12  O   UNL     1      -7.680  12.233  68.434  1.00  0.00    -0.130 OA 
HETATM   13  C   UNL     1      -7.959  13.525  69.023  1.00  0.00     0.199 C  
HETATM   14  C   UNL     1      -6.710  14.457  69.005  1.00  0.00    -0.107 C  
HETATM   15  O   UNL     1      -5.785  14.075  70.020  1.00  0.00    -0.107 OA 
HETATM   16  O   UNL     1      -6.067  14.555  67.723  1.00  0.00    -0.178 OA 
HETATM   17  C   UNL     1      -6.295  14.232  71.351  1.00  0.00     0.356 C  
HETATM   18  C   UNL     1      -8.374  14.221  72.861  1.00  0.00     9.016 C  
HETATM   19  C   UNL     1      -7.847  14.311  71.425  1.00  0.00     4.247 C  
ENDROOT
BRANCH  17  20
HETATM   20  O   UNL     1      -5.895  13.124  72.166  1.00  0.00    -0.227 OA 
HETATM   21  C   UNL     1      -5.454  13.512  73.456  1.00  0.00     0.130 C  
ENDBRANCH  17  20
TORSDOF 1
ENDMDL
