MODEL        1
REMARK 921   NORMALIZED FREE ENERGY PREDICTED BY IDOCK:   -5.73 KCAL/MOL
REMARK 922        TOTAL FREE ENERGY PREDICTED BY IDOCK:   -9.12 KCAL/MOL
REMARK 923 INTER-LIGAND FREE ENERGY PREDICTED BY IDOCK:   -8.41 KCAL/MOL
REMARK 924 INTRA-LIGAND FREE ENERGY PREDICTED BY IDOCK:   -0.71 KCAL/MOL
REMARK 927      BINDING AFFINITY PREDICTED BY RF-SCORE:    0.00 PKD
ROOT
HETATM    1  C   UNL     1     -13.847  13.872  72.120  1.00  0.00    -0.636 C  
HETATM    2  C   UNL     1     -13.713  15.390  72.135  1.00  0.00    -0.618 C  
ENDROOT
BRANCH   2   3
HETATM    3  C   UNL     1     -12.614  15.838  71.169  1.00  0.00    -0.431 C  
BRANCH   3   4
HETATM    4  N   UNL     1     -12.685  15.097  69.901  1.00  0.00    -0.612 NA 
HETATM    5  H   UNL     1     -13.623  15.129  69.501  1.00  0.00     0.000 HD 
BRANCH   4   6
HETATM    6  C   UNL     1     -11.661  15.582  68.932  1.00  0.00    -0.373 C  
HETATM    7  C   UNL     1     -10.721  16.633  69.532  1.00  0.00    -0.306 C  
BRANCH   6   8
HETATM    8  C   UNL     1     -10.772  14.393  68.558  1.00  0.00    -0.253 C  
HETATM    9  O   UNL     1     -10.729  13.475  69.553  1.00  0.00    -0.444 OA 
HETATM   10  H   UNL     1     -10.177  12.737  69.322  1.00  0.00     0.000 HD 
BRANCH   8  11
HETATM   11  N   UNL     1     -10.141  14.332  67.432  1.00  0.00    -0.245 NA 
HETATM   12  H   UNL     1      -9.166  14.625  67.362  1.00  0.00     0.000 HD 
BRANCH  11  13
HETATM   13  C   UNL     1     -10.834  13.850  66.305  1.00  0.00    -0.290 A  
HETATM   14  C   UNL     1     -11.181  14.691  65.254  1.00  0.00    -0.358 A  
HETATM   15  C   UNL     1     -11.341  11.415  67.169  1.00  0.00    -0.327 C  
HETATM   16  S   UNL     1     -12.150  13.868  64.100  1.00  0.00    -0.361 SA 
HETATM   17  C   UNL     1     -12.124  12.426  65.000  1.00  0.00    -0.407 A  
HETATM   18  C   UNL     1     -11.425  12.539  66.187  1.00  0.00    -0.426 A  
BRANCH  14  19
HETATM   19  C   UNL     1     -10.898  16.090  64.996  1.00  0.00    -0.404 C  
HETATM   20  O   UNL     1     -11.514  16.817  64.219  1.00  0.00    -1.125 OA 
BRANCH  19  21
HETATM   21  O   UNL     1      -9.799  16.511  65.697  1.00  0.00    -0.511 OA 
HETATM   22  C   UNL     1      -9.912  17.844  66.197  1.00  0.00    -0.283 C  
ENDBRANCH  19  21
ENDBRANCH  14  19
ENDBRANCH  11  13
ENDBRANCH   8  11
ENDBRANCH   6   8
ENDBRANCH   4   6
ENDBRANCH   3   4
ENDBRANCH   2   3
TORSDOF 8
ENDMDL
MODEL        2
REMARK 921   NORMALIZED FREE ENERGY PREDICTED BY IDOCK:   -5.69 KCAL/MOL
REMARK 922        TOTAL FREE ENERGY PREDICTED BY IDOCK:   -9.06 KCAL/MOL
REMARK 923 INTER-LIGAND FREE ENERGY PREDICTED BY IDOCK:   -7.87 KCAL/MOL
REMARK 924 INTRA-LIGAND FREE ENERGY PREDICTED BY IDOCK:   -1.19 KCAL/MOL
REMARK 927      BINDING AFFINITY PREDICTED BY RF-SCORE:    0.00 PKD
ROOT
HETATM    1  C   UNL     1      -9.798  11.109  65.941  1.00  0.00    -0.275 C  
HETATM    2  C   UNL     1     -10.184  10.727  64.517  1.00  0.00    -0.428 C  
ENDROOT
BRANCH   2   3
HETATM    3  C   UNL     1     -10.423  11.982  63.675  1.00  0.00    -0.454 C  
BRANCH   3   4
HETATM    4  N   UNL     1     -10.243  13.203  64.474  1.00  0.00    -0.572 NA 
HETATM    5  H   UNL     1      -9.394  13.702  64.208  1.00  0.00     0.000 HD 
BRANCH   4   6
HETATM    6  C   UNL     1     -11.443  14.085  64.396  1.00  0.00    -0.344 C  
HETATM    7  C   UNL     1     -12.449  13.825  65.523  1.00  0.00    -0.548 C  
BRANCH   6   8
HETATM    8  C   UNL     1     -10.973  15.529  64.582  1.00  0.00    -0.322 C  
HETATM    9  O   UNL     1     -11.806  16.404  63.968  1.00  0.00    -1.288 OA 
HETATM   10  H   UNL     1     -11.514  17.301  64.084  1.00  0.00     0.000 HD 
BRANCH   8  11
HETATM   11  N   UNL     1      -9.895  15.825  65.230  1.00  0.00    -0.382 NA 
HETATM   12  H   UNL     1      -8.979  15.739  64.789  1.00  0.00     0.000 HD 
BRANCH  11  13
HETATM   13  C   UNL     1     -10.018  16.270  66.561  1.00  0.00    -0.277 A  
HETATM   14  C   UNL     1     -10.158  17.620  66.863  1.00  0.00    -0.331 A  
HETATM   15  C   UNL     1      -9.549  13.985  67.782  1.00  0.00    -0.216 C  
HETATM   16  S   UNL     1     -10.127  17.878  68.560  1.00  0.00    -0.397 SA 
HETATM   17  C   UNL     1      -9.907  16.223  68.880  1.00  0.00    -0.246 A  
HETATM   18  C   UNL     1      -9.820  15.454  67.734  1.00  0.00    -0.220 A  
BRANCH  14  19
HETATM   19  C   UNL     1     -10.292  18.794  66.022  1.00  0.00    -0.422 C  
HETATM   20  O   UNL     1     -10.947  18.864  64.983  1.00  0.00    -0.479 OA 
BRANCH  19  21
HETATM   21  O   UNL     1      -9.540  19.835  66.499  1.00  0.00    -0.353 OA 
HETATM   22  C   UNL     1      -8.181  19.810  66.062  1.00  0.00    -0.311 C  
ENDBRANCH  19  21
ENDBRANCH  14  19
ENDBRANCH  11  13
ENDBRANCH   8  11
ENDBRANCH   6   8
ENDBRANCH   4   6
ENDBRANCH   3   4
ENDBRANCH   2   3
TORSDOF 8
ENDMDL
MODEL        3
REMARK 921   NORMALIZED FREE ENERGY PREDICTED BY IDOCK:   -5.58 KCAL/MOL
REMARK 922        TOTAL FREE ENERGY PREDICTED BY IDOCK:   -8.90 KCAL/MOL
REMARK 923 INTER-LIGAND FREE ENERGY PREDICTED BY IDOCK:   -7.68 KCAL/MOL
REMARK 924 INTRA-LIGAND FREE ENERGY PREDICTED BY IDOCK:   -1.22 KCAL/MOL
REMARK 927      BINDING AFFINITY PREDICTED BY RF-SCORE:    0.00 PKD
ROOT
HETATM    1  C   UNL     1     -12.584  12.098  63.412  1.00  0.00    -0.584 C  
HETATM    2  C   UNL     1     -11.101  12.394  63.599  1.00  0.00    -0.535 C  
ENDROOT
BRANCH   2   3
HETATM    3  C   UNL     1     -10.702  12.212  65.065  1.00  0.00    -0.297 C  
BRANCH   3   4
HETATM    4  N   UNL     1     -11.881  12.221  65.943  1.00  0.00    -0.546 NA 
HETATM    5  H   UNL     1     -12.622  11.622  65.580  1.00  0.00     0.000 HD 
BRANCH   4   6
HETATM    6  C   UNL     1     -11.518  11.855  67.342  1.00  0.00    -0.323 C  
HETATM    7  C   UNL     1     -10.042  11.474  67.496  1.00  0.00    -0.203 C  
BRANCH   6   8
HETATM    8  C   UNL     1     -11.721  13.095  68.217  1.00  0.00    -0.349 C  
HETATM    9  O   UNL     1     -12.400  14.062  67.555  1.00  0.00    -0.529 OA 
HETATM   10  H   UNL     1     -12.526  14.832  68.097  1.00  0.00     0.000 HD 
BRANCH   8  11
HETATM   11  N   UNL     1     -11.260  13.171  69.421  1.00  0.00    -0.427 NA 
HETATM   12  H   UNL     1     -10.256  13.220  69.595  1.00  0.00     0.000 HD 
BRANCH  11  13
HETATM   13  C   UNL     1     -12.181  13.185  70.488  1.00  0.00    -0.328 A  
HETATM   14  C   UNL     1     -12.446  14.350  71.199  1.00  0.00    -0.359 A  
HETATM   15  C   UNL     1     -12.639  10.597  70.644  1.00  0.00    -0.454 C  
HETATM   16  S   UNL     1     -13.481  14.035  72.532  1.00  0.00    -0.567 SA 
HETATM   17  C   UNL     1     -13.552  12.374  72.177  1.00  0.00    -0.306 A  
HETATM   18  C   UNL     1     -12.783  12.018  71.084  1.00  0.00    -0.365 A  
BRANCH  14  19
HETATM   19  C   UNL     1     -11.993  15.717  71.027  1.00  0.00    -0.419 C  
HETATM   20  O   UNL     1     -11.706  16.499  71.933  1.00  0.00    -0.458 OA 
BRANCH  19  21
HETATM   21  O   UNL     1     -11.969  16.069  69.704  1.00  0.00    -0.299 OA 
HETATM   22  C   UNL     1     -10.736  16.657  69.287  1.00  0.00    -0.337 C  
ENDBRANCH  19  21
ENDBRANCH  14  19
ENDBRANCH  11  13
ENDBRANCH   8  11
ENDBRANCH   6   8
ENDBRANCH   4   6
ENDBRANCH   3   4
ENDBRANCH   2   3
TORSDOF 8
ENDMDL
MODEL        4
REMARK 921   NORMALIZED FREE ENERGY PREDICTED BY IDOCK:   -5.55 KCAL/MOL
REMARK 922        TOTAL FREE ENERGY PREDICTED BY IDOCK:   -8.85 KCAL/MOL
REMARK 923 INTER-LIGAND FREE ENERGY PREDICTED BY IDOCK:   -7.94 KCAL/MOL
REMARK 924 INTRA-LIGAND FREE ENERGY PREDICTED BY IDOCK:   -0.91 KCAL/MOL
REMARK 927      BINDING AFFINITY PREDICTED BY RF-SCORE:    0.00 PKD
ROOT
HETATM    1  C   UNL     1     -11.712  12.286  63.507  1.00  0.00    -0.584 C  
HETATM    2  C   UNL     1     -12.514  12.373  64.800  1.00  0.00    -0.480 C  
ENDROOT
BRANCH   2   3
HETATM    3  C   UNL     1     -12.326  13.745  65.451  1.00  0.00    -0.475 C  
BRANCH   3   4
HETATM    4  N   UNL     1     -12.211  13.631  66.912  1.00  0.00    -0.384 NA 
HETATM    5  H   UNL     1     -13.110  13.408  67.341  1.00  0.00     0.000 HD 
BRANCH   4   6
HETATM    6  C   UNL     1     -11.160  12.647  67.299  1.00  0.00    -0.278 C  
HETATM    7  C   UNL     1      -9.797  13.300  67.553  1.00  0.00    -0.220 C  
BRANCH   6   8
HETATM    8  C   UNL     1     -11.577  12.019  68.631  1.00  0.00    -0.319 C  
HETATM    9  O   UNL     1     -12.380  10.944  68.442  1.00  0.00    -0.803 OA 
HETATM   10  H   UNL     1     -12.638  10.554  69.269  1.00  0.00     0.000 HD 
BRANCH   8  11
HETATM   11  N   UNL     1     -11.204  12.506  69.768  1.00  0.00    -0.487 NA 
HETATM   12  H   UNL     1     -10.215  12.590  70.003  1.00  0.00     0.000 HD 
BRANCH  11  13
HETATM   13  C   UNL     1     -12.200  12.917  70.676  1.00  0.00    -0.302 A  
HETATM   14  C   UNL     1     -12.419  14.263  70.949  1.00  0.00    -0.354 A  
HETATM   15  C   UNL     1     -12.890  10.550  71.599  1.00  0.00    -0.581 C  
HETATM   16  S   UNL     1     -13.578  14.456  72.201  1.00  0.00    -0.484 SA 
HETATM   17  C   UNL     1     -13.763  12.777  72.387  1.00  0.00    -0.360 A  
HETATM   18  C   UNL     1     -12.945  12.043  71.548  1.00  0.00    -0.407 A  
BRANCH  14  19
HETATM   19  C   UNL     1     -11.838  15.472  70.398  1.00  0.00    -0.351 C  
HETATM   20  O   UNL     1     -11.370  16.406  71.048  1.00  0.00    -0.364 OA 
BRANCH  19  21
HETATM   21  O   UNL     1     -11.918  15.483  69.031  1.00  0.00    -0.354 OA 
HETATM   22  C   UNL     1     -11.003  16.385  68.409  1.00  0.00    -0.353 C  
ENDBRANCH  19  21
ENDBRANCH  14  19
ENDBRANCH  11  13
ENDBRANCH   8  11
ENDBRANCH   6   8
ENDBRANCH   4   6
ENDBRANCH   3   4
ENDBRANCH   2   3
TORSDOF 8
ENDMDL
MODEL        5
REMARK 921   NORMALIZED FREE ENERGY PREDICTED BY IDOCK:   -5.54 KCAL/MOL
REMARK 922        TOTAL FREE ENERGY PREDICTED BY IDOCK:   -8.83 KCAL/MOL
REMARK 923 INTER-LIGAND FREE ENERGY PREDICTED BY IDOCK:   -7.55 KCAL/MOL
REMARK 924 INTRA-LIGAND FREE ENERGY PREDICTED BY IDOCK:   -1.28 KCAL/MOL
REMARK 927      BINDING AFFINITY PREDICTED BY RF-SCORE:    0.00 PKD
ROOT
HETATM    1  C   UNL     1      -9.929   9.225  66.205  1.00  0.00    -0.348 C  
HETATM    2  C   UNL     1      -9.192  10.049  65.156  1.00  0.00    -0.273 C  
ENDROOT
BRANCH   2   3
HETATM    3  C   UNL     1     -10.185  10.667  64.170  1.00  0.00    -0.295 C  
BRANCH   3   4
HETATM    4  N   UNL     1      -9.877  12.082  63.918  1.00  0.00    -0.520 NA 
HETATM    5  H   UNL     1      -9.110  12.185  63.252  1.00  0.00     0.000 HD 
BRANCH   4   6
HETATM    6  C   UNL     1     -11.088  12.832  63.478  1.00  0.00    -0.325 C  
HETATM    7  C   UNL     1     -12.387  12.050  63.703  1.00  0.00    -0.648 C  
BRANCH   6   8
HETATM    8  C   UNL     1     -11.201  14.087  64.347  1.00  0.00    -0.306 C  
HETATM    9  O   UNL     1     -12.219  14.883  63.937  1.00  0.00    -0.901 OA 
HETATM   10  H   UNL     1     -12.289  15.662  64.476  1.00  0.00     0.000 HD 
BRANCH   8  11
HETATM   11  N   UNL     1     -10.387  14.326  65.321  1.00  0.00    -0.371 NA 
HETATM   12  H   UNL     1      -9.377  14.291  65.180  1.00  0.00     0.000 HD 
BRANCH  11  13
HETATM   13  C   UNL     1     -10.931  14.636  66.583  1.00  0.00    -0.323 A  
HETATM   14  C   UNL     1     -10.845  15.919  67.112  1.00  0.00    -0.267 A  
HETATM   15  C   UNL     1     -11.582  12.200  67.339  1.00  0.00    -0.410 C  
HETATM   16  S   UNL     1     -11.450  15.964  68.719  1.00  0.00    -0.381 SA 
HETATM   17  C   UNL     1     -11.795  14.300  68.712  1.00  0.00    -0.341 A  
HETATM   18  C   UNL     1     -11.438  13.675  67.531  1.00  0.00    -0.360 A  
BRANCH  14  19
HETATM   19  C   UNL     1     -10.329  17.161  66.569  1.00  0.00    -0.306 C  
HETATM   20  O   UNL     1     -10.770  18.286  66.801  1.00  0.00    -0.342 OA 
BRANCH  19  21
HETATM   21  O   UNL     1      -9.297  16.931  65.698  1.00  0.00    -0.519 OA 
HETATM   22  C   UNL     1      -8.011  16.928  66.320  1.00  0.00    -0.315 C  
ENDBRANCH  19  21
ENDBRANCH  14  19
ENDBRANCH  11  13
ENDBRANCH   8  11
ENDBRANCH   6   8
ENDBRANCH   4   6
ENDBRANCH   3   4
ENDBRANCH   2   3
TORSDOF 8
ENDMDL
MODEL        6
REMARK 921   NORMALIZED FREE ENERGY PREDICTED BY IDOCK:   -5.52 KCAL/MOL
REMARK 922        TOTAL FREE ENERGY PREDICTED BY IDOCK:   -8.80 KCAL/MOL
REMARK 923 INTER-LIGAND FREE ENERGY PREDICTED BY IDOCK:   -7.86 KCAL/MOL
REMARK 924 INTRA-LIGAND FREE ENERGY PREDICTED BY IDOCK:   -0.94 KCAL/MOL
REMARK 927      BINDING AFFINITY PREDICTED BY RF-SCORE:    0.00 PKD
ROOT
HETATM    1  C   UNL     1     -12.368  12.135  63.456  1.00  0.00    -0.682 C  
HETATM    2  C   UNL     1     -10.867  12.371  63.576  1.00  0.00    -0.487 C  
ENDROOT
BRANCH   2   3
HETATM    3  C   UNL     1     -10.581  13.472  64.599  1.00  0.00    -0.427 C  
BRANCH   3   4
HETATM    4  N   UNL     1     -10.241  12.905  65.912  1.00  0.00    -0.286 NA 
HETATM    5  H   UNL     1      -9.231  12.885  66.061  1.00  0.00     0.000 HD 
BRANCH   4   6
HETATM    6  C   UNL     1     -10.941  13.626  67.013  1.00  0.00    -0.289 C  
HETATM    7  C   UNL     1     -12.265  14.255  66.566  1.00  0.00    -0.419 C  
BRANCH   6   8
HETATM    8  C   UNL     1     -11.310  12.597  68.085  1.00  0.00    -0.290 C  
HETATM    9  O   UNL     1     -12.017  11.567  67.561  1.00  0.00    -0.629 OA 
HETATM   10  H   UNL     1     -12.246  10.929  68.226  1.00  0.00     0.000 HD 
BRANCH   8  11
HETATM   11  N   UNL     1     -10.986  12.750  69.326  1.00  0.00    -0.443 NA 
HETATM   12  H   UNL     1     -10.035  13.007  69.592  1.00  0.00     0.000 HD 
BRANCH  11  13
HETATM   13  C   UNL     1     -11.982  12.553  70.304  1.00  0.00    -0.283 A  
HETATM   14  C   UNL     1     -12.618  13.627  70.915  1.00  0.00    -0.346 A  
HETATM   15  C   UNL     1     -11.749   9.944  70.578  1.00  0.00    -0.373 C  
HETATM   16  S   UNL     1     -13.663  13.091  72.168  1.00  0.00    -0.352 SA 
HETATM   17  C   UNL     1     -13.254  11.462  71.911  1.00  0.00    -0.380 A  
HETATM   18  C   UNL     1     -12.310  11.288  70.915  1.00  0.00    -0.490 A  
BRANCH  14  19
HETATM   19  C   UNL     1     -12.529  15.058  70.700  1.00  0.00    -0.365 C  
HETATM   20  O   UNL     1     -12.115  15.608  69.681  1.00  0.00    -0.364 OA 
BRANCH  19  21
HETATM   21  O   UNL     1     -12.919  15.753  71.814  1.00  0.00    -0.448 OA 
HETATM   22  C   UNL     1     -11.832  16.303  72.558  1.00  0.00    -0.510 C  
ENDBRANCH  19  21
ENDBRANCH  14  19
ENDBRANCH  11  13
ENDBRANCH   8  11
ENDBRANCH   6   8
ENDBRANCH   4   6
ENDBRANCH   3   4
ENDBRANCH   2   3
TORSDOF 8
ENDMDL
MODEL        7
REMARK 921   NORMALIZED FREE ENERGY PREDICTED BY IDOCK:   -5.48 KCAL/MOL
REMARK 922        TOTAL FREE ENERGY PREDICTED BY IDOCK:   -8.75 KCAL/MOL
REMARK 923 INTER-LIGAND FREE ENERGY PREDICTED BY IDOCK:   -7.56 KCAL/MOL
REMARK 924 INTRA-LIGAND FREE ENERGY PREDICTED BY IDOCK:   -1.19 KCAL/MOL
REMARK 927      BINDING AFFINITY PREDICTED BY RF-SCORE:    0.00 PKD
ROOT
HETATM    1  C   UNL     1     -12.427  11.863  63.410  1.00  0.00    -0.582 C  
HETATM    2  C   UNL     1     -10.914  11.854  63.589  1.00  0.00    -0.511 C  
ENDROOT
BRANCH   2   3
HETATM    3  C   UNL     1     -10.475  13.029  64.466  1.00  0.00    -0.392 C  
BRANCH   3   4
HETATM    4  N   UNL     1     -10.249  12.603  65.854  1.00  0.00    -0.269 NA 
HETATM    5  H   UNL     1      -9.253  12.548  66.071  1.00  0.00     0.000 HD 
BRANCH   4   6
HETATM    6  C   UNL     1     -10.971  13.484  66.817  1.00  0.00    -0.292 C  
HETATM    7  C   UNL     1     -12.274  14.051  66.244  1.00  0.00    -0.493 C  
BRANCH   6   8
HETATM    8  C   UNL     1     -11.380  12.627  68.017  1.00  0.00    -0.290 C  
HETATM    9  O   UNL     1     -12.270  11.670  67.662  1.00  0.00    -0.544 OA 
HETATM   10  H   UNL     1     -12.525  11.138  68.407  1.00  0.00     0.000 HD 
BRANCH   8  11
HETATM   11  N   UNL     1     -10.927  12.847  69.207  1.00  0.00    -0.436 NA 
HETATM   12  H   UNL     1      -9.952  12.651  69.440  1.00  0.00     0.000 HD 
BRANCH  11  13
HETATM   13  C   UNL     1     -11.812  13.362  70.174  1.00  0.00    -0.272 A  
HETATM   14  C   UNL     1     -12.538  12.523  71.011  1.00  0.00    -0.256 A  
HETATM   15  C   UNL     1     -11.719  15.899  69.476  1.00  0.00    -0.331 C  
HETATM   16  S   UNL     1     -13.644  13.418  71.972  1.00  0.00    -0.465 SA 
HETATM   17  C   UNL     1     -13.177  14.892  71.265  1.00  0.00    -0.408 A  
HETATM   18  C   UNL     1     -12.217  14.743  70.281  1.00  0.00    -0.394 A  
BRANCH  14  19
HETATM   19  C   UNL     1     -12.537  11.082  71.180  1.00  0.00    -0.418 C  
HETATM   20  O   UNL     1     -11.897  10.280  70.503  1.00  0.00    -0.281 OA 
BRANCH  19  21
HETATM   21  O   UNL     1     -13.397  10.698  72.174  1.00  0.00    -0.444 OA 
HETATM   22  C   UNL     1     -13.561   9.284  72.277  1.00  0.00    -0.480 C  
ENDBRANCH  19  21
ENDBRANCH  14  19
ENDBRANCH  11  13
ENDBRANCH   8  11
ENDBRANCH   6   8
ENDBRANCH   4   6
ENDBRANCH   3   4
ENDBRANCH   2   3
TORSDOF 8
ENDMDL
MODEL        8
REMARK 921   NORMALIZED FREE ENERGY PREDICTED BY IDOCK:   -5.47 KCAL/MOL
REMARK 922        TOTAL FREE ENERGY PREDICTED BY IDOCK:   -8.74 KCAL/MOL
REMARK 923 INTER-LIGAND FREE ENERGY PREDICTED BY IDOCK:   -7.76 KCAL/MOL
REMARK 924 INTRA-LIGAND FREE ENERGY PREDICTED BY IDOCK:   -0.98 KCAL/MOL
REMARK 927      BINDING AFFINITY PREDICTED BY RF-SCORE:    0.00 PKD
ROOT
HETATM    1  C   UNL     1     -11.021  11.463  63.613  1.00  0.00    -0.443 C  
HETATM    2  C   UNL     1     -12.318  12.253  63.742  1.00  0.00    -0.637 C  
ENDROOT
BRANCH   2   3
HETATM    3  C   UNL     1     -12.263  13.170  64.966  1.00  0.00    -0.440 C  
BRANCH   3   4
HETATM    4  N   UNL     1     -12.104  12.397  66.205  1.00  0.00    -0.630 NA 
HETATM    5  H   UNL     1     -12.012  11.398  66.014  1.00  0.00     0.000 HD 
BRANCH   4   6
HETATM    6  C   UNL     1     -10.962  12.905  67.019  1.00  0.00    -0.262 C  
HETATM    7  C   UNL     1     -10.275  14.121  66.389  1.00  0.00    -0.292 C  
BRANCH   6   8
HETATM    8  C   UNL     1     -11.523  13.391  68.358  1.00  0.00    -0.316 C  
HETATM    9  O   UNL     1     -12.523  14.288  68.180  1.00  0.00    -0.560 OA 
HETATM   10  H   UNL     1     -12.871  14.589  69.011  1.00  0.00     0.000 HD 
BRANCH   8  11
HETATM   11  N   UNL     1     -11.050  12.986  69.490  1.00  0.00    -0.456 NA 
HETATM   12  H   UNL     1     -10.250  13.452  69.919  1.00  0.00     0.000 HD 
BRANCH  11  13
HETATM   13  C   UNL     1     -11.669  11.886  70.116  1.00  0.00    -0.253 A  
HETATM   14  C   UNL     1     -12.598  12.062  71.136  1.00  0.00    -0.271 A  
HETATM   15  C   UNL     1     -10.263   9.960  69.001  1.00  0.00    -0.213 C  
HETATM   16  S   UNL     1     -13.063  10.554  71.812  1.00  0.00    -0.427 SA 
HETATM   17  C   UNL     1     -12.026   9.690  70.779  1.00  0.00    -0.277 A  
HETATM   18  C   UNL     1     -11.292  10.506  69.937  1.00  0.00    -0.380 A  
BRANCH  14  19
HETATM   19  C   UNL     1     -13.190  13.253  71.714  1.00  0.00    -0.405 C  
HETATM   20  O   UNL     1     -14.138  13.277  72.498  1.00  0.00    -0.709 OA 
BRANCH  19  21
HETATM   21  O   UNL     1     -12.593  14.388  71.234  1.00  0.00    -0.309 OA 
HETATM   22  C   UNL     1     -13.440  15.537  71.257  1.00  0.00    -0.480 C  
ENDBRANCH  19  21
ENDBRANCH  14  19
ENDBRANCH  11  13
ENDBRANCH   8  11
ENDBRANCH   6   8
ENDBRANCH   4   6
ENDBRANCH   3   4
ENDBRANCH   2   3
TORSDOF 8
ENDMDL
MODEL        9
REMARK 921   NORMALIZED FREE ENERGY PREDICTED BY IDOCK:   -5.44 KCAL/MOL
REMARK 922        TOTAL FREE ENERGY PREDICTED BY IDOCK:   -8.70 KCAL/MOL
REMARK 923 INTER-LIGAND FREE ENERGY PREDICTED BY IDOCK:   -7.46 KCAL/MOL
REMARK 924 INTRA-LIGAND FREE ENERGY PREDICTED BY IDOCK:   -1.24 KCAL/MOL
REMARK 927      BINDING AFFINITY PREDICTED BY RF-SCORE:    0.00 PKD
ROOT
HETATM    1  C   UNL     1      -8.879  10.344  64.630  1.00  0.00    -0.216 C  
HETATM    2  C   UNL     1     -10.303  10.885  64.611  1.00  0.00    -0.407 C  
ENDROOT
BRANCH   2   3
HETATM    3  C   UNL     1     -10.391  12.124  63.718  1.00  0.00    -0.437 C  
BRANCH   3   4
HETATM    4  N   UNL     1     -10.193  13.357  64.494  1.00  0.00    -0.600 NA 
HETATM    5  H   UNL     1      -9.349  13.850  64.203  1.00  0.00     0.000 HD 
BRANCH   4   6
HETATM    6  C   UNL     1     -11.393  14.239  64.427  1.00  0.00    -0.273 C  
HETATM    7  C   UNL     1     -12.400  13.963  65.549  1.00  0.00    -0.506 C  
BRANCH   6   8
HETATM    8  C   UNL     1     -10.924  15.681  64.634  1.00  0.00    -0.325 C  
HETATM    9  O   UNL     1     -11.758  16.564  64.033  1.00  0.00    -1.405 OA 
HETATM   10  H   UNL     1     -11.467  17.459  64.161  1.00  0.00     0.000 HD 
BRANCH   8  11
HETATM   11  N   UNL     1      -9.846  15.968  65.286  1.00  0.00    -0.414 NA 
HETATM   12  H   UNL     1      -8.927  15.805  64.874  1.00  0.00     0.000 HD 
BRANCH  11  13
HETATM   13  C   UNL     1      -9.974  16.512  66.579  1.00  0.00    -0.285 A  
HETATM   14  C   UNL     1      -9.991  15.700  67.707  1.00  0.00    -0.223 A  
HETATM   15  C   UNL     1     -10.449  19.013  65.906  1.00  0.00    -0.468 C  
HETATM   16  S   UNL     1     -10.314  16.618  69.122  1.00  0.00    -0.330 SA 
HETATM   17  C   UNL     1     -10.450  18.064  68.239  1.00  0.00    -0.343 A  
HETATM   18  C   UNL     1     -10.291  17.887  66.877  1.00  0.00    -0.358 A  
BRANCH  14  19
HETATM   19  C   UNL     1      -9.818  14.270  67.877  1.00  0.00    -0.226 C  
HETATM   20  O   UNL     1     -10.431  13.561  68.673  1.00  0.00    -0.243 OA 
BRANCH  19  21
HETATM   21  O   UNL     1      -8.826  13.790  67.063  1.00  0.00    -0.223 OA 
HETATM   22  C   UNL     1      -7.529  13.826  67.657  1.00  0.00    -0.178 C  
ENDBRANCH  19  21
ENDBRANCH  14  19
ENDBRANCH  11  13
ENDBRANCH   8  11
ENDBRANCH   6   8
ENDBRANCH   4   6
ENDBRANCH   3   4
ENDBRANCH   2   3
TORSDOF 8
ENDMDL
MODEL       10
REMARK 921   NORMALIZED FREE ENERGY PREDICTED BY IDOCK:   -5.43 KCAL/MOL
REMARK 922        TOTAL FREE ENERGY PREDICTED BY IDOCK:   -8.69 KCAL/MOL
REMARK 923 INTER-LIGAND FREE ENERGY PREDICTED BY IDOCK:   -7.52 KCAL/MOL
REMARK 924 INTRA-LIGAND FREE ENERGY PREDICTED BY IDOCK:   -1.17 KCAL/MOL
REMARK 927      BINDING AFFINITY PREDICTED BY RF-SCORE:    0.00 PKD
ROOT
HETATM    1  C   UNL     1     -12.270   8.944  71.801  1.00  0.00    -0.429 C  
HETATM    2  C   UNL     1     -12.920  10.312  71.633  1.00  0.00    -0.570 C  
ENDROOT
BRANCH   2   3
HETATM    3  C   UNL     1     -12.177  11.128  70.573  1.00  0.00    -0.384 C  
BRANCH   3   4
HETATM    4  N   UNL     1     -12.278  10.500  69.248  1.00  0.00    -0.669 NA 
HETATM    5  H   UNL     1     -12.926  11.006  68.643  1.00  0.00     0.000 HD 
BRANCH   4   6
HETATM    6  C   UNL     1     -10.937  10.355  68.613  1.00  0.00    -0.243 C  
HETATM    7  C   UNL     1     -10.635   8.916  68.179  1.00  0.00    -0.211 C  
BRANCH   6   8
HETATM    8  C   UNL     1     -10.936  11.186  67.328  1.00  0.00    -0.296 C  
HETATM    9  O   UNL     1      -9.794  11.007  66.622  1.00  0.00    -0.191 OA 
HETATM   10  H   UNL     1      -9.793  11.523  65.825  1.00  0.00     0.000 HD 
BRANCH   8  11
HETATM   11  N   UNL     1     -11.916  11.968  67.013  1.00  0.00    -0.606 NA 
HETATM   12  H   UNL     1     -12.878  11.630  67.020  1.00  0.00     0.000 HD 
BRANCH  11  13
HETATM   13  C   UNL     1     -11.619  13.299  66.660  1.00  0.00    -0.365 A  
HETATM   14  C   UNL     1     -11.561  13.699  65.330  1.00  0.00    -0.320 A  
HETATM   15  C   UNL     1     -11.006  14.211  69.053  1.00  0.00    -0.286 C  
HETATM   16  S   UNL     1     -11.028  15.326  65.200  1.00  0.00    -0.428 SA 
HETATM   17  C   UNL     1     -10.858  15.482  66.884  1.00  0.00    -0.301 A  
HETATM   18  C   UNL     1     -11.162  14.320  67.570  1.00  0.00    -0.322 A  
BRANCH  14  19
HETATM   19  C   UNL     1     -11.834  12.996  64.092  1.00  0.00    -0.416 C  
HETATM   20  O   UNL     1     -12.550  13.401  63.177  1.00  0.00    -0.710 OA 
BRANCH  19  21
HETATM   21  O   UNL     1     -11.230  11.767  64.075  1.00  0.00    -0.347 OA 
HETATM   22  C   UNL     1     -10.076  11.705  63.237  1.00  0.00    -0.423 C  
ENDBRANCH  19  21
ENDBRANCH  14  19
ENDBRANCH  11  13
ENDBRANCH   8  11
ENDBRANCH   6   8
ENDBRANCH   4   6
ENDBRANCH   3   4
ENDBRANCH   2   3
TORSDOF 8
ENDMDL
MODEL       11
REMARK 921   NORMALIZED FREE ENERGY PREDICTED BY IDOCK:   -5.43 KCAL/MOL
REMARK 922        TOTAL FREE ENERGY PREDICTED BY IDOCK:   -8.68 KCAL/MOL
REMARK 923 INTER-LIGAND FREE ENERGY PREDICTED BY IDOCK:   -7.99 KCAL/MOL
REMARK 924 INTRA-LIGAND FREE ENERGY PREDICTED BY IDOCK:   -0.68 KCAL/MOL
REMARK 927      BINDING AFFINITY PREDICTED BY RF-SCORE:    0.00 PKD
ROOT
HETATM    1  C   UNL     1     -14.027   8.887  72.091  1.00  0.00    -0.520 C  
HETATM    2  C   UNL     1     -12.785   9.679  71.700  1.00  0.00    -0.499 C  
ENDROOT
BRANCH   2   3
HETATM    3  C   UNL     1     -13.084  11.180  71.715  1.00  0.00    -0.431 C  
BRANCH   3   4
HETATM    4  N   UNL     1     -12.071  11.933  70.963  1.00  0.00    -0.338 NA 
HETATM    5  H   UNL     1     -11.717  11.395  70.171  1.00  0.00     0.000 HD 
BRANCH   4   6
HETATM    6  C   UNL     1     -12.591  13.262  70.531  1.00  0.00    -0.189 C  
HETATM    7  C   UNL     1     -12.291  14.376  71.540  1.00  0.00    -0.427 C  
BRANCH   6   8
HETATM    8  C   UNL     1     -11.859  13.656  69.246  1.00  0.00    -0.346 C  
HETATM    9  O   UNL     1     -10.666  13.022  69.142  1.00  0.00    -0.413 OA 
HETATM   10  H   UNL     1     -10.212  13.266  68.344  1.00  0.00     0.000 HD 
BRANCH   8  11
HETATM   11  N   UNL     1     -12.347  14.511  68.410  1.00  0.00    -0.605 NA 
HETATM   12  H   UNL     1     -13.298  14.866  68.519  1.00  0.00     0.000 HD 
BRANCH  11  13
HETATM   13  C   UNL     1     -11.533  14.940  67.343  1.00  0.00    -0.343 A  
HETATM   14  C   UNL     1     -11.401  14.184  66.184  1.00  0.00    -0.337 A  
HETATM   15  C   UNL     1     -10.422  17.021  68.512  1.00  0.00    -0.373 C  
HETATM   16  S   UNL     1     -10.231  14.870  65.131  1.00  0.00    -0.331 SA 
HETATM   17  C   UNL     1      -9.894  16.136  66.214  1.00  0.00    -0.307 A  
HETATM   18  C   UNL     1     -10.618  16.054  67.389  1.00  0.00    -0.316 A  
BRANCH  14  19
HETATM   19  C   UNL     1     -12.036  12.954  65.749  1.00  0.00    -0.443 C  
HETATM   20  O   UNL     1     -11.964  11.867  66.320  1.00  0.00    -0.554 OA 
BRANCH  19  21
HETATM   21  O   UNL     1     -12.702  13.131  64.566  1.00  0.00    -0.647 OA 
HETATM   22  C   UNL     1     -12.389  12.150  63.578  1.00  0.00    -0.574 C  
ENDBRANCH  19  21
ENDBRANCH  14  19
ENDBRANCH  11  13
ENDBRANCH   8  11
ENDBRANCH   6   8
ENDBRANCH   4   6
ENDBRANCH   3   4
ENDBRANCH   2   3
TORSDOF 8
ENDMDL
MODEL       12
REMARK 921   NORMALIZED FREE ENERGY PREDICTED BY IDOCK:   -5.38 KCAL/MOL
REMARK 922        TOTAL FREE ENERGY PREDICTED BY IDOCK:   -8.61 KCAL/MOL
REMARK 923 INTER-LIGAND FREE ENERGY PREDICTED BY IDOCK:   -7.48 KCAL/MOL
REMARK 924 INTRA-LIGAND FREE ENERGY PREDICTED BY IDOCK:   -1.13 KCAL/MOL
REMARK 927      BINDING AFFINITY PREDICTED BY RF-SCORE:    0.00 PKD
ROOT
HETATM    1  C   UNL     1     -10.330  19.814  66.585  1.00  0.00    -0.614 C  
HETATM    2  C   UNL     1      -9.398  19.632  67.777  1.00  0.00    -0.427 C  
ENDROOT
BRANCH   2   3
HETATM    3  C   UNL     1     -10.101  18.849  68.888  1.00  0.00    -0.311 C  
BRANCH   3   4
HETATM    4  N   UNL     1      -9.794  17.414  68.806  1.00  0.00    -0.306 NA 
HETATM    5  H   UNL     1      -9.488  17.046  69.708  1.00  0.00     0.000 HD 
BRANCH   4   6
HETATM    6  C   UNL     1     -10.947  16.641  68.262  1.00  0.00    -0.341 C  
HETATM    7  C   UNL     1     -10.647  15.998  66.904  1.00  0.00    -0.300 C  
BRANCH   6   8
HETATM    8  C   UNL     1     -11.225  15.481  69.220  1.00  0.00    -0.310 C  
HETATM    9  O   UNL     1     -10.185  15.275  70.064  1.00  0.00    -0.410 OA 
HETATM   10  H   UNL     1     -10.358  14.555  70.659  1.00  0.00     0.000 HD 
BRANCH   8  11
HETATM   11  N   UNL     1     -12.319  14.795  69.173  1.00  0.00    -0.577 NA 
HETATM   12  H   UNL     1     -13.194  15.226  68.872  1.00  0.00     0.000 HD 
BRANCH  11  13
HETATM   13  C   UNL     1     -12.273  13.438  69.549  1.00  0.00    -0.205 A  
HETATM   14  C   UNL     1     -12.602  13.033  70.837  1.00  0.00    -0.280 A  
HETATM   15  C   UNL     1     -11.170  12.466  67.365  1.00  0.00    -0.351 C  
HETATM   16  S   UNL     1     -12.304  11.355  71.049  1.00  0.00    -0.292 SA 
HETATM   17  C   UNL     1     -11.726  11.183  69.460  1.00  0.00    -0.335 A  
HETATM   18  C   UNL     1     -11.712  12.373  68.755  1.00  0.00    -0.379 A  
BRANCH  14  19
HETATM   19  C   UNL     1     -13.105  13.761  71.986  1.00  0.00    -0.396 C  
HETATM   20  O   UNL     1     -14.156  13.529  72.581  1.00  0.00    -0.762 OA 
BRANCH  19  21
HETATM   21  O   UNL     1     -12.280  14.805  72.312  1.00  0.00    -0.337 OA 
HETATM   22  C   UNL     1     -12.913  15.815  73.097  1.00  0.00    -0.544 C  
ENDBRANCH  19  21
ENDBRANCH  14  19
ENDBRANCH  11  13
ENDBRANCH   8  11
ENDBRANCH   6   8
ENDBRANCH   4   6
ENDBRANCH   3   4
ENDBRANCH   2   3
TORSDOF 8
ENDMDL
MODEL       13
REMARK 921   NORMALIZED FREE ENERGY PREDICTED BY IDOCK:   -5.36 KCAL/MOL
REMARK 922        TOTAL FREE ENERGY PREDICTED BY IDOCK:   -8.57 KCAL/MOL
REMARK 923 INTER-LIGAND FREE ENERGY PREDICTED BY IDOCK:   -7.11 KCAL/MOL
REMARK 924 INTRA-LIGAND FREE ENERGY PREDICTED BY IDOCK:   -1.46 KCAL/MOL
REMARK 927      BINDING AFFINITY PREDICTED BY RF-SCORE:    0.00 PKD
ROOT
HETATM    1  C   UNL     1     -10.956   6.198  68.451  1.00  0.00    -0.391 C  
HETATM    2  C   UNL     1     -11.445   6.583  69.842  1.00  0.00    -0.467 C  
ENDROOT
BRANCH   2   3
HETATM    3  C   UNL     1     -10.762   7.870  70.310  1.00  0.00    -0.236 C  
BRANCH   3   4
HETATM    4  N   UNL     1     -11.311   9.046  69.620  1.00  0.00    -0.438 NA 
HETATM    5  H   UNL     1     -12.291   9.197  69.862  1.00  0.00     0.000 HD 
BRANCH   4   6
HETATM    6  C   UNL     1     -10.489  10.262  69.883  1.00  0.00    -0.256 C  
HETATM    7  C   UNL     1      -8.987  10.017  69.705  1.00  0.00    -0.221 C  
BRANCH   6   8
HETATM    8  C   UNL     1     -10.866  11.315  68.837  1.00  0.00    -0.208 C  
HETATM    9  O   UNL     1     -10.375  12.535  69.163  1.00  0.00    -0.426 OA 
HETATM   10  H   UNL     1     -10.609  13.188  68.514  1.00  0.00     0.000 HD 
BRANCH   8  11
HETATM   11  N   UNL     1     -11.587  11.031  67.803  1.00  0.00    -0.564 NA 
HETATM   12  H   UNL     1     -12.531  10.661  67.909  1.00  0.00     0.000 HD 
BRANCH  11  13
HETATM   13  C   UNL     1     -11.034  11.247  66.525  1.00  0.00    -0.245 A  
HETATM   14  C   UNL     1     -11.401  12.344  65.754  1.00  0.00    -0.352 A  
HETATM   15  C   UNL     1      -9.712   8.983  66.283  1.00  0.00    -0.345 C  
HETATM   16  S   UNL     1     -10.691  12.265  64.193  1.00  0.00    -0.411 SA 
HETATM   17  C   UNL     1      -9.930  10.784  64.536  1.00  0.00    -0.333 A  
HETATM   18  C   UNL     1     -10.214  10.306  65.802  1.00  0.00    -0.289 A  
BRANCH  14  19
HETATM   19  C   UNL     1     -12.266  13.476  66.026  1.00  0.00    -0.445 C  
HETATM   20  O   UNL     1     -13.181  13.871  65.306  1.00  0.00    -0.774 OA 
BRANCH  19  21
HETATM   21  O   UNL     1     -11.905  14.110  67.186  1.00  0.00    -0.383 OA 
HETATM   22  C   UNL     1     -11.028  15.218  66.985  1.00  0.00    -0.324 C  
ENDBRANCH  19  21
ENDBRANCH  14  19
ENDBRANCH  11  13
ENDBRANCH   8  11
ENDBRANCH   6   8
ENDBRANCH   4   6
ENDBRANCH   3   4
ENDBRANCH   2   3
TORSDOF 8
ENDMDL
MODEL       14
REMARK 921   NORMALIZED FREE ENERGY PREDICTED BY IDOCK:   -5.35 KCAL/MOL
REMARK 922        TOTAL FREE ENERGY PREDICTED BY IDOCK:   -8.56 KCAL/MOL
REMARK 923 INTER-LIGAND FREE ENERGY PREDICTED BY IDOCK:   -7.54 KCAL/MOL
REMARK 924 INTRA-LIGAND FREE ENERGY PREDICTED BY IDOCK:   -1.02 KCAL/MOL
REMARK 927      BINDING AFFINITY PREDICTED BY RF-SCORE:    0.00 PKD
ROOT
HETATM    1  C   UNL     1     -12.060  15.956  72.035  1.00  0.00    -0.591 C  
HETATM    2  C   UNL     1     -13.270  15.441  71.265  1.00  0.00    -0.585 C  
ENDROOT
BRANCH   2   3
HETATM    3  C   UNL     1     -12.899  14.192  70.463  1.00  0.00    -0.247 C  
BRANCH   3   4
HETATM    4  N   UNL     1     -11.448  14.112  70.241  1.00  0.00    -0.476 NA 
HETATM    5  H   UNL     1     -11.015  13.412  70.844  1.00  0.00     0.000 HD 
BRANCH   4   6
HETATM    6  C   UNL     1     -11.131  13.867  68.804  1.00  0.00    -0.265 C  
HETATM    7  C   UNL     1      -9.678  14.200  68.448  1.00  0.00    -0.226 C  
BRANCH   6   8
HETATM    8  C   UNL     1     -11.292  12.369  68.540  1.00  0.00    -0.293 C  
HETATM    9  O   UNL     1     -10.666  11.629  69.486  1.00  0.00    -0.436 OA 
HETATM   10  H   UNL     1     -10.766  10.698  69.322  1.00  0.00     0.000 HD 
BRANCH   8  11
HETATM   11  N   UNL     1     -11.933  11.915  67.513  1.00  0.00    -0.588 NA 
HETATM   12  H   UNL     1     -12.913  11.640  67.587  1.00  0.00     0.000 HD 
BRANCH  11  13
HETATM   13  C   UNL     1     -11.243  11.810  66.290  1.00  0.00    -0.312 A  
HETATM   14  C   UNL     1     -11.505  12.676  65.234  1.00  0.00    -0.331 A  
HETATM   15  C   UNL     1      -9.944   9.569  66.764  1.00  0.00    -0.297 C  
HETATM   16  S   UNL     1     -10.634  12.216  63.828  1.00  0.00    -0.476 SA 
HETATM   17  C   UNL     1      -9.941  10.875  64.610  1.00  0.00    -0.310 A  
HETATM   18  C   UNL     1     -10.368  10.726  65.916  1.00  0.00    -0.302 A  
BRANCH  14  19
HETATM   19  C   UNL     1     -12.374  13.833  65.121  1.00  0.00    -0.448 C  
HETATM   20  O   UNL     1     -13.479  13.956  65.645  1.00  0.00    -0.590 OA 
BRANCH  19  21
HETATM   21  O   UNL     1     -11.832  14.781  64.294  1.00  0.00    -0.397 OA 
HETATM   22  C   UNL     1     -11.147  15.824  64.987  1.00  0.00    -0.370 C  
ENDBRANCH  19  21
ENDBRANCH  14  19
ENDBRANCH  11  13
ENDBRANCH   8  11
ENDBRANCH   6   8
ENDBRANCH   4   6
ENDBRANCH   3   4
ENDBRANCH   2   3
TORSDOF 8
ENDMDL
MODEL       15
REMARK 921   NORMALIZED FREE ENERGY PREDICTED BY IDOCK:   -5.33 KCAL/MOL
REMARK 922        TOTAL FREE ENERGY PREDICTED BY IDOCK:   -8.53 KCAL/MOL
REMARK 923 INTER-LIGAND FREE ENERGY PREDICTED BY IDOCK:   -7.53 KCAL/MOL
REMARK 924 INTRA-LIGAND FREE ENERGY PREDICTED BY IDOCK:   -1.00 KCAL/MOL
REMARK 927      BINDING AFFINITY PREDICTED BY RF-SCORE:    0.00 PKD
ROOT
HETATM    1  C   UNL     1      -8.680  17.184  66.207  1.00  0.00    -0.268 C  
HETATM    2  C   UNL     1      -9.037  15.703  66.170  1.00  0.00    -0.378 C  
ENDROOT
BRANCH   2   3
HETATM    3  C   UNL     1     -10.551  15.523  66.042  1.00  0.00    -0.325 C  
BRANCH   3   4
HETATM    4  N   UNL     1     -11.146  15.079  67.311  1.00  0.00    -0.327 NA 
HETATM    5  H   UNL     1     -11.564  15.858  67.820  1.00  0.00     0.000 HD 
BRANCH   4   6
HETATM    6  C   UNL     1     -12.127  13.978  67.094  1.00  0.00    -0.401 C  
HETATM    7  C   UNL     1     -12.112  13.439  65.660  1.00  0.00    -0.476 C  
BRANCH   6   8
HETATM    8  C   UNL     1     -11.713  12.803  67.984  1.00  0.00    -0.356 C  
HETATM    9  O   UNL     1     -11.887  11.617  67.352  1.00  0.00    -0.603 OA 
HETATM   10  H   UNL     1     -11.631  10.888  67.905  1.00  0.00     0.000 HD 
BRANCH   8  11
HETATM   11  N   UNL     1     -11.283  12.971  69.191  1.00  0.00    -0.346 NA 
HETATM   12  H   UNL     1     -10.326  13.277  69.368  1.00  0.00     0.000 HD 
BRANCH  11  13
HETATM   13  C   UNL     1     -12.171  12.721  70.256  1.00  0.00    -0.277 A  
HETATM   14  C   UNL     1     -12.746  13.761  70.979  1.00  0.00    -0.343 A  
HETATM   15  C   UNL     1     -11.899  10.105  70.385  1.00  0.00    -0.373 C  
HETATM   16  S   UNL     1     -13.653  13.159  72.307  1.00  0.00    -0.508 SA 
HETATM   17  C   UNL     1     -13.264  11.547  71.935  1.00  0.00    -0.374 A  
HETATM   18  C   UNL     1     -12.428  11.427  70.840  1.00  0.00    -0.478 A  
BRANCH  14  19
HETATM   19  C   UNL     1     -12.686  15.201  70.821  1.00  0.00    -0.405 C  
HETATM   20  O   UNL     1     -12.271  15.800  69.830  1.00  0.00    -0.352 OA 
BRANCH  19  21
HETATM   21  O   UNL     1     -13.108  15.842  71.956  1.00  0.00    -0.457 OA 
HETATM   22  C   UNL     1     -12.043  16.376  72.743  1.00  0.00    -0.478 C  
ENDBRANCH  19  21
ENDBRANCH  14  19
ENDBRANCH  11  13
ENDBRANCH   8  11
ENDBRANCH   6   8
ENDBRANCH   4   6
ENDBRANCH   3   4
ENDBRANCH   2   3
TORSDOF 8
ENDMDL
MODEL       16
REMARK 921   NORMALIZED FREE ENERGY PREDICTED BY IDOCK:   -5.30 KCAL/MOL
REMARK 922        TOTAL FREE ENERGY PREDICTED BY IDOCK:   -8.49 KCAL/MOL
REMARK 923 INTER-LIGAND FREE ENERGY PREDICTED BY IDOCK:   -7.53 KCAL/MOL
REMARK 924 INTRA-LIGAND FREE ENERGY PREDICTED BY IDOCK:   -0.97 KCAL/MOL
REMARK 927      BINDING AFFINITY PREDICTED BY RF-SCORE:    0.00 PKD
ROOT
HETATM    1  C   UNL     1     -13.206   9.852  72.060  1.00  0.00    -0.555 C  
HETATM    2  C   UNL     1     -12.873  10.955  71.063  1.00  0.00    -0.472 C  
ENDROOT
BRANCH   2   3
HETATM    3  C   UNL     1     -13.039  12.330  71.715  1.00  0.00    -0.344 C  
BRANCH   3   4
HETATM    4  N   UNL     1     -12.258  13.354  71.006  1.00  0.00    -0.437 NA 
HETATM    5  H   UNL     1     -11.983  13.037  70.076  1.00  0.00     0.000 HD 
BRANCH   4   6
HETATM    6  C   UNL     1     -12.991  14.651  70.948  1.00  0.00    -0.365 C  
HETATM    7  C   UNL     1     -13.056  15.362  72.304  1.00  0.00    -0.496 C  
BRANCH   6   8
HETATM    8  C   UNL     1     -12.209  15.588  70.024  1.00  0.00    -0.355 C  
HETATM    9  O   UNL     1     -11.440  16.452  70.730  1.00  0.00    -0.537 OA 
HETATM   10  H   UNL     1     -10.955  17.033  70.156  1.00  0.00     0.000 HD 
BRANCH   8  11
HETATM   11  N   UNL     1     -12.322  15.539  68.738  1.00  0.00    -0.556 NA 
HETATM   12  H   UNL     1     -13.202  15.779  68.280  1.00  0.00     0.000 HD 
BRANCH  11  13
HETATM   13  C   UNL     1     -11.198  15.146  67.984  1.00  0.00    -0.323 A  
HETATM   14  C   UNL     1     -10.349  16.085  67.408  1.00  0.00    -0.294 A  
HETATM   15  C   UNL     1     -11.665  12.556  67.906  1.00  0.00    -0.416 C  
HETATM   16  S   UNL     1      -9.166  15.323  66.425  1.00  0.00    -0.317 SA 
HETATM   17  C   UNL     1      -9.792  13.776  66.745  1.00  0.00    -0.275 A  
HETATM   18  C   UNL     1     -10.909  13.798  67.560  1.00  0.00    -0.274 A  
BRANCH  14  19
HETATM   19  C   UNL     1     -10.317  17.533  67.474  1.00  0.00    -0.356 C  
HETATM   20  O   UNL     1     -10.495  18.301  66.529  1.00  0.00    -0.372 OA 
BRANCH  19  21
HETATM   21  O   UNL     1     -10.002  17.966  68.735  1.00  0.00    -0.359 OA 
HETATM   22  C   UNL     1      -9.617  19.340  68.792  1.00  0.00    -0.425 C  
ENDBRANCH  19  21
ENDBRANCH  14  19
ENDBRANCH  11  13
ENDBRANCH   8  11
ENDBRANCH   6   8
ENDBRANCH   4   6
ENDBRANCH   3   4
ENDBRANCH   2   3
TORSDOF 8
ENDMDL
MODEL       17
REMARK 921   NORMALIZED FREE ENERGY PREDICTED BY IDOCK:   -5.29 KCAL/MOL
REMARK 922        TOTAL FREE ENERGY PREDICTED BY IDOCK:   -8.47 KCAL/MOL
REMARK 923 INTER-LIGAND FREE ENERGY PREDICTED BY IDOCK:   -7.52 KCAL/MOL
REMARK 924 INTRA-LIGAND FREE ENERGY PREDICTED BY IDOCK:   -0.95 KCAL/MOL
REMARK 927      BINDING AFFINITY PREDICTED BY RF-SCORE:    0.00 PKD
ROOT
HETATM    1  C   UNL     1      -8.256  20.269  66.884  1.00  0.00    -0.345 C  
HETATM    2  C   UNL     1      -9.722  20.413  67.277  1.00  0.00    -0.602 C  
ENDROOT
BRANCH   2   3
HETATM    3  C   UNL     1     -10.526  19.208  66.783  1.00  0.00    -0.436 C  
BRANCH   3   4
HETATM    4  N   UNL     1      -9.679  18.276  66.024  1.00  0.00    -0.525 NA 
HETATM    5  H   UNL     1      -8.715  18.606  65.972  1.00  0.00     0.000 HD 
BRANCH   4   6
HETATM    6  C   UNL     1      -9.756  16.896  66.583  1.00  0.00    -0.271 C  
HETATM    7  C   UNL     1     -10.886  16.728  67.605  1.00  0.00    -0.252 C  
BRANCH   6   8
HETATM    8  C   UNL     1     -10.092  15.944  65.432  1.00  0.00    -0.261 C  
HETATM    9  O   UNL     1     -10.973  16.503  64.568  1.00  0.00    -0.941 OA 
HETATM   10  H   UNL     1     -11.181  15.913  63.853  1.00  0.00     0.000 HD 
BRANCH   8  11
HETATM   11  N   UNL     1      -9.591  14.756  65.352  1.00  0.00    -0.477 NA 
HETATM   12  H   UNL     1      -8.900  14.526  64.637  1.00  0.00     0.000 HD 
BRANCH  11  13
HETATM   13  C   UNL     1     -10.024  13.786  66.278  1.00  0.00    -0.305 A  
HETATM   14  C   UNL     1     -11.326  13.299  66.259  1.00  0.00    -0.309 A  
HETATM   15  C   UNL     1      -7.892  13.739  67.822  1.00  0.00    -0.174 C  
HETATM   16  S   UNL     1     -11.612  12.254  67.591  1.00  0.00    -0.344 SA 
HETATM   17  C   UNL     1     -10.036  12.469  68.190  1.00  0.00    -0.224 A  
HETATM   18  C   UNL     1      -9.280  13.345  67.432  1.00  0.00    -0.213 A  
BRANCH  14  19
HETATM   19  C   UNL     1     -12.439  13.537  65.360  1.00  0.00    -0.497 C  
HETATM   20  O   UNL     1     -13.606  13.729  65.696  1.00  0.00    -0.406 OA 
BRANCH  19  21
HETATM   21  O   UNL     1     -12.043  13.469  64.050  1.00  0.00    -0.439 OA 
HETATM   22  C   UNL     1     -11.890  12.136  63.565  1.00  0.00    -0.505 C  
ENDBRANCH  19  21
ENDBRANCH  14  19
ENDBRANCH  11  13
ENDBRANCH   8  11
ENDBRANCH   6   8
ENDBRANCH   4   6
ENDBRANCH   3   4
ENDBRANCH   2   3
TORSDOF 8
ENDMDL
MODEL       18
REMARK 921   NORMALIZED FREE ENERGY PREDICTED BY IDOCK:   -5.29 KCAL/MOL
REMARK 922        TOTAL FREE ENERGY PREDICTED BY IDOCK:   -8.47 KCAL/MOL
REMARK 923 INTER-LIGAND FREE ENERGY PREDICTED BY IDOCK:   -7.40 KCAL/MOL
REMARK 924 INTRA-LIGAND FREE ENERGY PREDICTED BY IDOCK:   -1.08 KCAL/MOL
REMARK 927      BINDING AFFINITY PREDICTED BY RF-SCORE:    0.00 PKD
ROOT
HETATM    1  C   UNL     1     -12.887  15.366  73.415  1.00  0.00    -0.662 C  
HETATM    2  C   UNL     1     -13.483  14.324  72.476  1.00  0.00    -0.613 C  
ENDROOT
BRANCH   2   3
HETATM    3  C   UNL     1     -13.700  14.923  71.085  1.00  0.00    -0.386 C  
BRANCH   3   4
HETATM    4  N   UNL     1     -12.807  14.305  70.093  1.00  0.00    -0.451 NA 
HETATM    5  H   UNL     1     -13.333  13.776  69.397  1.00  0.00     0.000 HD 
BRANCH   4   6
HETATM    6  C   UNL     1     -11.921  15.320  69.455  1.00  0.00    -0.315 C  
HETATM    7  C   UNL     1     -10.580  15.482  70.179  1.00  0.00    -0.336 C  
BRANCH   6   8
HETATM    8  C   UNL     1     -11.577  14.821  68.049  1.00  0.00    -0.343 C  
HETATM    9  O   UNL     1     -10.347  15.238  67.662  1.00  0.00    -0.244 OA 
HETATM   10  H   UNL     1     -10.134  14.929  66.790  1.00  0.00     0.000 HD 
BRANCH   8  11
HETATM   11  N   UNL     1     -12.401  14.115  67.348  1.00  0.00    -0.562 NA 
HETATM   12  H   UNL     1     -13.400  14.115  67.557  1.00  0.00     0.000 HD 
BRANCH  11  13
HETATM   13  C   UNL     1     -11.884  13.344  66.288  1.00  0.00    -0.394 A  
HETATM   14  C   UNL     1     -11.309  12.099  66.512  1.00  0.00    -0.350 A  
HETATM   15  C   UNL     1     -12.113  15.126  64.363  1.00  0.00    -0.313 C  
HETATM   16  S   UNL     1     -10.629  11.466  65.067  1.00  0.00    -0.287 SA 
HETATM   17  C   UNL     1     -11.075  12.840  64.171  1.00  0.00    -0.389 A  
HETATM   18  C   UNL     1     -11.706  13.806  64.933  1.00  0.00    -0.378 A  
BRANCH  14  19
HETATM   19  C   UNL     1     -11.169  11.295  67.711  1.00  0.00    -0.291 C  
HETATM   20  O   UNL     1     -10.246  10.520  67.953  1.00  0.00    -0.170 OA 
BRANCH  19  21
HETATM   21  O   UNL     1     -12.241  11.461  68.547  1.00  0.00    -0.557 OA 
HETATM   22  C   UNL     1     -12.048  10.903  69.847  1.00  0.00    -0.354 C  
ENDBRANCH  19  21
ENDBRANCH  14  19
ENDBRANCH  11  13
ENDBRANCH   8  11
ENDBRANCH   6   8
ENDBRANCH   4   6
ENDBRANCH   3   4
ENDBRANCH   2   3
TORSDOF 8
ENDMDL
MODEL       19
REMARK 921   NORMALIZED FREE ENERGY PREDICTED BY IDOCK:   -5.27 KCAL/MOL
REMARK 922        TOTAL FREE ENERGY PREDICTED BY IDOCK:   -8.45 KCAL/MOL
REMARK 923 INTER-LIGAND FREE ENERGY PREDICTED BY IDOCK:   -7.41 KCAL/MOL
REMARK 924 INTRA-LIGAND FREE ENERGY PREDICTED BY IDOCK:   -1.04 KCAL/MOL
REMARK 927      BINDING AFFINITY PREDICTED BY RF-SCORE:    0.00 PKD
ROOT
HETATM    1  C   UNL     1     -12.728  11.721  63.382  1.00  0.00    -0.395 C  
HETATM    2  C   UNL     1     -11.920  13.013  63.353  1.00  0.00    -0.592 C  
ENDROOT
BRANCH   2   3
HETATM    3  C   UNL     1     -10.531  12.786  63.955  1.00  0.00    -0.406 C  
BRANCH   3   4
HETATM    4  N   UNL     1     -10.150  13.889  64.848  1.00  0.00    -0.606 NA 
HETATM    5  H   UNL     1      -9.462  14.503  64.411  1.00  0.00     0.000 HD 
BRANCH   4   6
HETATM    6  C   UNL     1     -11.346  14.650  65.312  1.00  0.00    -0.354 C  
HETATM    7  C   UNL     1     -11.789  14.262  66.727  1.00  0.00    -0.449 C  
BRANCH   6   8
HETATM    8  C   UNL     1     -10.957  16.129  65.387  1.00  0.00    -0.227 C  
HETATM    9  O   UNL     1     -11.163  16.756  64.204  1.00  0.00    -1.415 OA 
HETATM   10  H   UNL     1     -10.921  17.674  64.251  1.00  0.00     0.000 HD 
BRANCH   8  11
HETATM   11  N   UNL     1     -10.473  16.660  66.461  1.00  0.00    -0.290 NA 
HETATM   12  H   UNL     1     -10.892  16.472  67.373  1.00  0.00     0.000 HD 
BRANCH  11  13
HETATM   13  C   UNL     1      -9.352  17.504  66.341  1.00  0.00    -0.246 A  
HETATM   14  C   UNL     1      -8.069  17.047  66.621  1.00  0.00    -0.262 A  
HETATM   15  C   UNL     1     -10.615  19.769  65.883  1.00  0.00    -0.557 C  
HETATM   16  S   UNL     1      -6.929  18.328  66.541  1.00  0.00    -0.233 SA 
HETATM   17  C   UNL     1      -8.129  19.470  66.163  1.00  0.00    -0.333 A  
HETATM   18  C   UNL     1      -9.401  18.929  66.121  1.00  0.00    -0.201 A  
BRANCH  14  19
HETATM   19  C   UNL     1      -7.562  15.737  66.981  1.00  0.00    -0.222 C  
HETATM   20  O   UNL     1      -6.381  15.394  66.967  1.00  0.00    -0.267 OA 
BRANCH  19  21
HETATM   21  O   UNL     1      -8.583  14.880  67.298  1.00  0.00    -0.185 OA 
HETATM   22  C   UNL     1      -8.139  13.615  67.788  1.00  0.00    -0.173 C  
ENDBRANCH  19  21
ENDBRANCH  14  19
ENDBRANCH  11  13
ENDBRANCH   8  11
ENDBRANCH   6   8
ENDBRANCH   4   6
ENDBRANCH   3   4
ENDBRANCH   2   3
TORSDOF 8
ENDMDL
MODEL       20
REMARK 921   NORMALIZED FREE ENERGY PREDICTED BY IDOCK:   -5.27 KCAL/MOL
REMARK 922        TOTAL FREE ENERGY PREDICTED BY IDOCK:   -8.45 KCAL/MOL
REMARK 923 INTER-LIGAND FREE ENERGY PREDICTED BY IDOCK:   -7.41 KCAL/MOL
REMARK 924 INTRA-LIGAND FREE ENERGY PREDICTED BY IDOCK:   -1.04 KCAL/MOL
REMARK 927      BINDING AFFINITY PREDICTED BY RF-SCORE:    0.00 PKD
ROOT
HETATM    1  C   UNL     1     -10.709  11.863  63.494  1.00  0.00    -0.504 C  
HETATM    2  C   UNL     1     -12.175  12.277  63.450  1.00  0.00    -0.630 C  
ENDROOT
BRANCH   2   3
HETATM    3  C   UNL     1     -12.618  12.811  64.814  1.00  0.00    -0.446 C  
BRANCH   3   4
HETATM    4  N   UNL     1     -12.012  12.043  65.911  1.00  0.00    -0.519 NA 
HETATM    5  H   UNL     1     -11.355  11.345  65.560  1.00  0.00     0.000 HD 
BRANCH   4   6
HETATM    6  C   UNL     1     -11.371  12.941  66.913  1.00  0.00    -0.312 C  
HETATM    7  C   UNL     1     -12.027  14.325  66.979  1.00  0.00    -0.463 C  
BRANCH   6   8
HETATM    8  C   UNL     1     -11.574  12.318  68.296  1.00  0.00    -0.331 C  
HETATM    9  O   UNL     1     -11.031  13.087  69.271  1.00  0.00    -0.400 OA 
HETATM   10  H   UNL     1     -11.157  12.699  70.129  1.00  0.00     0.000 HD 
BRANCH   8  11
HETATM   11  N   UNL     1     -12.172  11.184  68.460  1.00  0.00    -0.722 NA 
HETATM   12  H   UNL     1     -13.086  11.009  68.040  1.00  0.00     0.000 HD 
BRANCH  11  13
HETATM   13  C   UNL     1     -11.530  10.197  69.232  1.00  0.00    -0.108 A  
HETATM   14  C   UNL     1     -11.808  10.043  70.586  1.00  0.00    -0.325 A  
HETATM   15  C   UNL     1      -9.784   9.373  67.442  1.00  0.00    -0.205 C  
HETATM   16  S   UNL     1     -10.770   8.876  71.299  1.00  0.00    -0.316 SA 
HETATM   17  C   UNL     1      -9.952   8.603  69.834  1.00  0.00    -0.186 A  
HETATM   18  C   UNL     1     -10.413   9.395  68.798  1.00  0.00    -0.236 A  
BRANCH  14  19
HETATM   19  C   UNL     1     -12.765  10.693  71.460  1.00  0.00    -0.444 C  
HETATM   20  O   UNL     1     -13.519  10.126  72.249  1.00  0.00    -0.398 OA 
BRANCH  19  21
HETATM   21  O   UNL     1     -12.775  12.049  71.265  1.00  0.00    -0.375 OA 
HETATM   22  C   UNL     1     -13.443  12.773  72.297  1.00  0.00    -0.490 C  
ENDBRANCH  19  21
ENDBRANCH  14  19
ENDBRANCH  11  13
ENDBRANCH   8  11
ENDBRANCH   6   8
ENDBRANCH   4   6
ENDBRANCH   3   4
ENDBRANCH   2   3
TORSDOF 8
ENDMDL
MODEL       21
REMARK 921   NORMALIZED FREE ENERGY PREDICTED BY IDOCK:   -5.26 KCAL/MOL
REMARK 922        TOTAL FREE ENERGY PREDICTED BY IDOCK:   -8.43 KCAL/MOL
REMARK 923 INTER-LIGAND FREE ENERGY PREDICTED BY IDOCK:   -7.39 KCAL/MOL
REMARK 924 INTRA-LIGAND FREE ENERGY PREDICTED BY IDOCK:   -1.04 KCAL/MOL
REMARK 927      BINDING AFFINITY PREDICTED BY RF-SCORE:    0.00 PKD
ROOT
HETATM    1  C   UNL     1     -12.483  12.009  63.392  1.00  0.00    -0.625 C  
HETATM    2  C   UNL     1     -11.998  13.334  63.969  1.00  0.00    -0.525 C  
ENDROOT
BRANCH   2   3
HETATM    3  C   UNL     1     -10.684  13.136  64.726  1.00  0.00    -0.364 C  
BRANCH   3   4
HETATM    4  N   UNL     1     -10.822  13.509  66.141  1.00  0.00    -0.281 NA 
HETATM    5  H   UNL     1     -11.272  14.419  66.246  1.00  0.00     0.000 HD 
BRANCH   4   6
HETATM    6  C   UNL     1     -11.538  12.452  66.913  1.00  0.00    -0.370 C  
HETATM    7  C   UNL     1     -10.806  11.106  66.902  1.00  0.00    -0.333 C  
BRANCH   6   8
HETATM    8  C   UNL     1     -11.579  12.892  68.378  1.00  0.00    -0.333 C  
HETATM    9  O   UNL     1     -10.618  12.276  69.108  1.00  0.00    -0.409 OA 
HETATM   10  H   UNL     1     -10.644  12.549  70.018  1.00  0.00     0.000 HD 
BRANCH   8  11
HETATM   11  N   UNL     1     -12.458  13.730  68.822  1.00  0.00    -0.296 NA 
HETATM   12  H   UNL     1     -13.370  13.818  68.374  1.00  0.00     0.000 HD 
BRANCH  11  13
HETATM   13  C   UNL     1     -12.122  14.518  69.940  1.00  0.00    -0.336 A  
HETATM   14  C   UNL     1     -12.539  14.172  71.220  1.00  0.00    -0.363 A  
HETATM   15  C   UNL     1     -11.028  16.550  68.672  1.00  0.00    -0.344 C  
HETATM   16  S   UNL     1     -12.120  15.391  72.355  1.00  0.00    -0.463 SA 
HETATM   17  C   UNL     1     -11.418  16.368  71.154  1.00  0.00    -0.204 A  
HETATM   18  C   UNL     1     -11.511  15.824  69.886  1.00  0.00    -0.347 A  
BRANCH  14  19
HETATM   19  C   UNL     1     -13.261  13.021  71.729  1.00  0.00    -0.392 C  
HETATM   20  O   UNL     1     -14.210  13.055  72.510  1.00  0.00    -0.597 OA 
BRANCH  19  21
HETATM   21  O   UNL     1     -12.716  11.852  71.269  1.00  0.00    -0.382 OA 
HETATM   22  C   UNL     1     -13.258  10.684  71.886  1.00  0.00    -0.423 C  
ENDBRANCH  19  21
ENDBRANCH  14  19
ENDBRANCH  11  13
ENDBRANCH   8  11
ENDBRANCH   6   8
ENDBRANCH   4   6
ENDBRANCH   3   4
ENDBRANCH   2   3
TORSDOF 8
ENDMDL
MODEL       22
REMARK 921   NORMALIZED FREE ENERGY PREDICTED BY IDOCK:   -5.24 KCAL/MOL
REMARK 922        TOTAL FREE ENERGY PREDICTED BY IDOCK:   -8.40 KCAL/MOL
REMARK 923 INTER-LIGAND FREE ENERGY PREDICTED BY IDOCK:   -7.39 KCAL/MOL
REMARK 924 INTRA-LIGAND FREE ENERGY PREDICTED BY IDOCK:   -1.01 KCAL/MOL
REMARK 927      BINDING AFFINITY PREDICTED BY RF-SCORE:    0.00 PKD
ROOT
HETATM    1  C   UNL     1     -12.275  12.152  63.381  1.00  0.00    -0.635 C  
HETATM    2  C   UNL     1     -11.021  11.378  63.772  1.00  0.00    -0.448 C  
ENDROOT
BRANCH   2   3
HETATM    3  C   UNL     1     -10.284  12.096  64.904  1.00  0.00    -0.280 C  
BRANCH   3   4
HETATM    4  N   UNL     1     -10.626  11.522  66.213  1.00  0.00    -0.255 NA 
HETATM    5  H   UNL     1      -9.890  10.902  66.553  1.00  0.00     0.000 HD 
BRANCH   4   6
HETATM    6  C   UNL     1     -10.946  12.587  67.206  1.00  0.00    -0.261 C  
HETATM    7  C   UNL     1     -12.099  13.492  66.760  1.00  0.00    -0.425 C  
BRANCH   6   8
HETATM    8  C   UNL     1     -11.427  11.901  68.487  1.00  0.00    -0.295 C  
HETATM    9  O   UNL     1     -12.285  10.889  68.215  1.00  0.00    -0.804 OA 
HETATM   10  H   UNL     1     -12.584  10.463  69.010  1.00  0.00     0.000 HD 
BRANCH   8  11
HETATM   11  N   UNL     1     -11.053  12.292  69.660  1.00  0.00    -0.474 NA 
HETATM   12  H   UNL     1     -10.151  12.009  70.044  1.00  0.00     0.000 HD 
BRANCH  11  13
HETATM   13  C   UNL     1     -11.923  13.121  70.395  1.00  0.00    -0.266 A  
HETATM   14  C   UNL     1     -11.791  14.505  70.377  1.00  0.00    -0.311 A  
HETATM   15  C   UNL     1     -13.214  11.251  71.725  1.00  0.00    -0.480 C  
HETATM   16  S   UNL     1     -12.880  15.242  71.481  1.00  0.00    -0.437 SA 
HETATM   17  C   UNL     1     -13.496  13.741  71.987  1.00  0.00    -0.470 A  
HETATM   18  C   UNL     1     -12.882  12.665  71.371  1.00  0.00    -0.358 A  
BRANCH  14  19
HETATM   19  C   UNL     1     -10.909  15.387  69.636  1.00  0.00    -0.283 C  
HETATM   20  O   UNL     1      -9.680  15.358  69.657  1.00  0.00    -0.266 OA 
BRANCH  19  21
HETATM   21  O   UNL     1     -11.620  16.321  68.930  1.00  0.00    -0.330 OA 
HETATM   22  C   UNL     1     -10.809  17.152  68.099  1.00  0.00    -0.316 C  
ENDBRANCH  19  21
ENDBRANCH  14  19
ENDBRANCH  11  13
ENDBRANCH   8  11
ENDBRANCH   6   8
ENDBRANCH   4   6
ENDBRANCH   3   4
ENDBRANCH   2   3
TORSDOF 8
ENDMDL
MODEL       23
REMARK 921   NORMALIZED FREE ENERGY PREDICTED BY IDOCK:   -5.22 KCAL/MOL
REMARK 922        TOTAL FREE ENERGY PREDICTED BY IDOCK:   -8.36 KCAL/MOL
REMARK 923 INTER-LIGAND FREE ENERGY PREDICTED BY IDOCK:   -7.41 KCAL/MOL
REMARK 924 INTRA-LIGAND FREE ENERGY PREDICTED BY IDOCK:   -0.95 KCAL/MOL
REMARK 927      BINDING AFFINITY PREDICTED BY RF-SCORE:    0.00 PKD
ROOT
HETATM    1  C   UNL     1     -12.734  12.060  63.547  1.00  0.00    -0.567 C  
HETATM    2  C   UNL     1     -11.215  12.154  63.637  1.00  0.00    -0.540 C  
ENDROOT
BRANCH   2   3
HETATM    3  C   UNL     1     -10.752  11.928  65.077  1.00  0.00    -0.292 C  
BRANCH   3   4
HETATM    4  N   UNL     1     -11.834  12.198  66.035  1.00  0.00    -0.561 NA 
HETATM    5  H   UNL     1     -12.709  11.760  65.743  1.00  0.00     0.000 HD 
BRANCH   4   6
HETATM    6  C   UNL     1     -11.452  11.787  67.416  1.00  0.00    -0.305 C  
HETATM    7  C   UNL     1      -9.967  11.430  67.543  1.00  0.00    -0.201 C  
BRANCH   6   8
HETATM    8  C   UNL     1     -11.671  12.990  68.337  1.00  0.00    -0.351 C  
HETATM    9  O   UNL     1     -11.313  12.708  69.613  1.00  0.00    -0.439 OA 
HETATM   10  H   UNL     1     -11.449  13.454  70.185  1.00  0.00     0.000 HD 
BRANCH   8  11
HETATM   11  N   UNL     1     -12.163  14.105  67.909  1.00  0.00    -0.563 NA 
HETATM   12  H   UNL     1     -13.118  14.152  67.551  1.00  0.00     0.000 HD 
BRANCH  11  13
HETATM   13  C   UNL     1     -11.349  15.253  67.951  1.00  0.00    -0.334 A  
HETATM   14  C   UNL     1     -11.212  16.002  69.114  1.00  0.00    -0.342 A  
HETATM   15  C   UNL     1     -10.772  15.416  65.387  1.00  0.00    -0.416 C  
HETATM   16  S   UNL     1     -10.291  17.423  68.827  1.00  0.00    -0.337 SA 
HETATM   17  C   UNL     1     -10.100  17.053  67.179  1.00  0.00    -0.292 A  
HETATM   18  C   UNL     1     -10.744  15.888  66.805  1.00  0.00    -0.281 A  
BRANCH  14  19
HETATM   19  C   UNL     1     -11.718  15.808  70.459  1.00  0.00    -0.377 C  
HETATM   20  O   UNL     1     -11.047  15.502  71.443  1.00  0.00    -0.357 OA 
BRANCH  19  21
HETATM   21  O   UNL     1     -13.080  15.953  70.503  1.00  0.00    -0.421 OA 
HETATM   22  C   UNL     1     -13.738  14.961  71.290  1.00  0.00    -0.435 C  
ENDBRANCH  19  21
ENDBRANCH  14  19
ENDBRANCH  11  13
ENDBRANCH   8  11
ENDBRANCH   6   8
ENDBRANCH   4   6
ENDBRANCH   3   4
ENDBRANCH   2   3
TORSDOF 8
ENDMDL
MODEL       24
REMARK 921   NORMALIZED FREE ENERGY PREDICTED BY IDOCK:   -5.21 KCAL/MOL
REMARK 922        TOTAL FREE ENERGY PREDICTED BY IDOCK:   -8.35 KCAL/MOL
REMARK 923 INTER-LIGAND FREE ENERGY PREDICTED BY IDOCK:   -7.22 KCAL/MOL
REMARK 924 INTRA-LIGAND FREE ENERGY PREDICTED BY IDOCK:   -1.14 KCAL/MOL
REMARK 927      BINDING AFFINITY PREDICTED BY RF-SCORE:    0.00 PKD
ROOT
HETATM    1  C   UNL     1     -14.182   7.260  71.481  1.00  0.00    -0.540 C  
HETATM    2  C   UNL     1     -14.327   8.662  72.060  1.00  0.00    -0.512 C  
ENDROOT
BRANCH   2   3
HETATM    3  C   UNL     1     -13.013   9.433  71.925  1.00  0.00    -0.417 C  
BRANCH   3   4
HETATM    4  N   UNL     1     -12.756   9.810  70.528  1.00  0.00    -0.530 NA 
HETATM    5  H   UNL     1     -13.265  10.657  70.271  1.00  0.00     0.000 HD 
BRANCH   4   6
HETATM    6  C   UNL     1     -11.296   9.947  70.262  1.00  0.00    -0.291 C  
HETATM    7  C   UNL     1     -10.549   8.610  70.335  1.00  0.00    -0.244 C  
BRANCH   6   8
HETATM    8  C   UNL     1     -11.128  10.439  68.823  1.00  0.00    -0.250 C  
HETATM    9  O   UNL     1      -9.892  10.157  68.344  1.00  0.00    -0.146 OA 
HETATM   10  H   UNL     1      -9.788  10.463  67.450  1.00  0.00     0.000 HD 
BRANCH   8  11
HETATM   11  N   UNL     1     -12.068  11.065  68.194  1.00  0.00    -0.780 NA 
HETATM   12  H   UNL     1     -12.944  10.596  67.963  1.00  0.00     0.000 HD 
BRANCH  11  13
HETATM   13  C   UNL     1     -11.851  12.411  67.838  1.00  0.00    -0.308 A  
HETATM   14  C   UNL     1     -11.389  12.759  66.574  1.00  0.00    -0.322 A  
HETATM   15  C   UNL     1     -12.236  13.507  70.201  1.00  0.00    -0.400 C  
HETATM   16  S   UNL     1     -11.069  14.443  66.478  1.00  0.00    -0.338 SA 
HETATM   17  C   UNL     1     -11.518  14.694  68.099  1.00  0.00    -0.323 A  
HETATM   18  C   UNL     1     -11.880  13.529  68.749  1.00  0.00    -0.390 A  
BRANCH  14  19
HETATM   19  C   UNL     1     -11.117  11.970  65.388  1.00  0.00    -0.320 C  
HETATM   20  O   UNL     1     -10.606  10.851  65.370  1.00  0.00    -0.246 OA 
BRANCH  19  21
HETATM   21  O   UNL     1     -11.454  12.653  64.250  1.00  0.00    -0.321 OA 
HETATM   22  C   UNL     1     -12.443  11.996  63.458  1.00  0.00    -0.540 C  
ENDBRANCH  19  21
ENDBRANCH  14  19
ENDBRANCH  11  13
ENDBRANCH   8  11
ENDBRANCH   6   8
ENDBRANCH   4   6
ENDBRANCH   3   4
ENDBRANCH   2   3
TORSDOF 8
ENDMDL
MODEL       25
REMARK 921   NORMALIZED FREE ENERGY PREDICTED BY IDOCK:   -5.19 KCAL/MOL
REMARK 922        TOTAL FREE ENERGY PREDICTED BY IDOCK:   -8.33 KCAL/MOL
REMARK 923 INTER-LIGAND FREE ENERGY PREDICTED BY IDOCK:   -7.06 KCAL/MOL
REMARK 924 INTRA-LIGAND FREE ENERGY PREDICTED BY IDOCK:   -1.27 KCAL/MOL
REMARK 927      BINDING AFFINITY PREDICTED BY RF-SCORE:    0.00 PKD
ROOT
HETATM    1  C   UNL     1     -10.687  11.831  63.611  1.00  0.00    -0.503 C  
HETATM    2  C   UNL     1     -12.116  12.356  63.673  1.00  0.00    -0.648 C  
ENDROOT
BRANCH   2   3
HETATM    3  C   UNL     1     -12.358  13.088  64.995  1.00  0.00    -0.473 C  
BRANCH   3   4
HETATM    4  N   UNL     1     -12.028  12.235  66.145  1.00  0.00    -0.618 NA 
HETATM    5  H   UNL     1     -11.461  11.433  65.865  1.00  0.00     0.000 HD 
BRANCH   4   6
HETATM    6  C   UNL     1     -11.371  13.017  67.231  1.00  0.00    -0.306 C  
HETATM    7  C   UNL     1     -11.894  14.454  67.330  1.00  0.00    -0.430 C  
BRANCH   6   8
HETATM    8  C   UNL     1     -11.724  12.353  68.564  1.00  0.00    -0.326 C  
HETATM    9  O   UNL     1     -11.478  13.179  69.609  1.00  0.00    -0.396 OA 
HETATM   10  H   UNL     1     -11.697  12.766  70.437  1.00  0.00     0.000 HD 
BRANCH   8  11
HETATM   11  N   UNL     1     -12.171  11.142  68.633  1.00  0.00    -0.705 NA 
HETATM   12  H   UNL     1     -12.982  10.852  68.087  1.00  0.00     0.000 HD 
BRANCH  11  13
HETATM   13  C   UNL     1     -11.508  10.234  69.483  1.00  0.00    -0.210 A  
HETATM   14  C   UNL     1     -10.553   9.351  68.993  1.00  0.00    -0.213 A  
HETATM   15  C   UNL     1     -12.903  10.661  71.675  1.00  0.00    -0.570 C  
HETATM   16  S   UNL     1     -10.033   8.266  70.218  1.00  0.00    -0.188 SA 
HETATM   17  C   UNL     1     -11.081   8.949  71.369  1.00  0.00    -0.306 A  
HETATM   18  C   UNL     1     -11.858   9.972  70.857  1.00  0.00    -0.459 A  
BRANCH  14  19
HETATM   19  C   UNL     1      -9.971   9.183  67.676  1.00  0.00    -0.195 C  
HETATM   20  O   UNL     1     -10.409   9.659  66.630  1.00  0.00    -0.239 OA 
BRANCH  19  21
HETATM   21  O   UNL     1      -8.873   8.365  67.719  1.00  0.00    -0.136 OA 
HETATM   22  C   UNL     1      -8.793   7.453  66.623  1.00  0.00    -0.143 C  
ENDBRANCH  19  21
ENDBRANCH  14  19
ENDBRANCH  11  13
ENDBRANCH   8  11
ENDBRANCH   6   8
ENDBRANCH   4   6
ENDBRANCH   3   4
ENDBRANCH   2   3
TORSDOF 8
ENDMDL
MODEL       26
REMARK 921   NORMALIZED FREE ENERGY PREDICTED BY IDOCK:   -5.19 KCAL/MOL
REMARK 922        TOTAL FREE ENERGY PREDICTED BY IDOCK:   -8.33 KCAL/MOL
REMARK 923 INTER-LIGAND FREE ENERGY PREDICTED BY IDOCK:   -7.27 KCAL/MOL
REMARK 924 INTRA-LIGAND FREE ENERGY PREDICTED BY IDOCK:   -1.06 KCAL/MOL
REMARK 927      BINDING AFFINITY PREDICTED BY RF-SCORE:    0.00 PKD
ROOT
HETATM    1  C   UNL     1     -11.922  15.946  72.054  1.00  0.00    -0.602 C  
HETATM    2  C   UNL     1     -12.736  15.533  70.833  1.00  0.00    -0.525 C  
ENDROOT
BRANCH   2   3
HETATM    3  C   UNL     1     -11.808  15.131  69.686  1.00  0.00    -0.334 C  
BRANCH   3   4
HETATM    4  N   UNL     1     -12.400  14.061  68.870  1.00  0.00    -0.508 NA 
HETATM    5  H   UNL     1     -13.057  14.434  68.185  1.00  0.00     0.000 HD 
BRANCH   4   6
HETATM    6  C   UNL     1     -11.347  13.226  68.222  1.00  0.00    -0.300 C  
HETATM    7  C   UNL     1      -9.926  13.680  68.573  1.00  0.00    -0.208 C  
BRANCH   6   8
HETATM    8  C   UNL     1     -11.477  11.803  68.770  1.00  0.00    -0.291 C  
HETATM    9  O   UNL     1     -12.256  11.034  67.972  1.00  0.00    -0.703 OA 
HETATM   10  H   UNL     1     -12.337  10.151  68.312  1.00  0.00     0.000 HD 
BRANCH   8  11
HETATM   11  N   UNL     1     -10.916  11.437  69.875  1.00  0.00    -0.471 NA 
HETATM   12  H   UNL     1     -10.003  11.804  70.145  1.00  0.00     0.000 HD 
BRANCH  11  13
HETATM   13  C   UNL     1     -11.598  10.517  70.696  1.00  0.00    -0.352 A  
HETATM   14  C   UNL     1     -11.375   9.148  70.590  1.00  0.00    -0.273 A  
HETATM   15  C   UNL     1     -13.279  12.187  71.842  1.00  0.00    -0.474 C  
HETATM   16  S   UNL     1     -12.452   8.269  71.597  1.00  0.00    -0.329 SA 
HETATM   17  C   UNL     1     -13.213   9.688  72.143  1.00  0.00    -0.444 A  
HETATM   18  C   UNL     1     -12.705  10.836  71.564  1.00  0.00    -0.536 A  
BRANCH  14  19
HETATM   19  C   UNL     1     -10.447   8.376  69.787  1.00  0.00    -0.220 C  
HETATM   20  O   UNL     1      -9.597   8.836  69.026  1.00  0.00    -0.159 OA 
BRANCH  19  21
HETATM   21  O   UNL     1     -10.665   7.031  69.933  1.00  0.00    -0.224 OA 
HETATM   22  C   UNL     1     -10.910   6.352  68.701  1.00  0.00    -0.314 C  
ENDBRANCH  19  21
ENDBRANCH  14  19
ENDBRANCH  11  13
ENDBRANCH   8  11
ENDBRANCH   6   8
ENDBRANCH   4   6
ENDBRANCH   3   4
ENDBRANCH   2   3
TORSDOF 8
ENDMDL
MODEL       27
REMARK 921   NORMALIZED FREE ENERGY PREDICTED BY IDOCK:   -5.18 KCAL/MOL
REMARK 922        TOTAL FREE ENERGY PREDICTED BY IDOCK:   -8.31 KCAL/MOL
REMARK 923 INTER-LIGAND FREE ENERGY PREDICTED BY IDOCK:   -7.33 KCAL/MOL
REMARK 924 INTRA-LIGAND FREE ENERGY PREDICTED BY IDOCK:   -0.98 KCAL/MOL
REMARK 927      BINDING AFFINITY PREDICTED BY RF-SCORE:    0.00 PKD
ROOT
HETATM    1  C   UNL     1     -12.106   9.845  71.650  1.00  0.00    -0.457 C  
HETATM    2  C   UNL     1     -12.693  10.640  70.489  1.00  0.00    -0.395 C  
ENDROOT
BRANCH   2   3
HETATM    3  C   UNL     1     -11.679  10.741  69.347  1.00  0.00    -0.306 C  
BRANCH   3   4
HETATM    4  N   UNL     1     -10.994  12.042  69.355  1.00  0.00    -0.438 NA 
HETATM    5  H   UNL     1     -10.220  12.052  70.020  1.00  0.00     0.000 HD 
BRANCH   4   6
HETATM    6  C   UNL     1     -10.545  12.428  67.987  1.00  0.00    -0.221 C  
HETATM    7  C   UNL     1     -10.078  11.230  67.152  1.00  0.00    -0.223 C  
BRANCH   6   8
HETATM    8  C   UNL     1     -11.753  13.006  67.245  1.00  0.00    -0.375 C  
HETATM    9  O   UNL     1     -12.148  12.195  66.234  1.00  0.00    -0.626 OA 
HETATM   10  H   UNL     1     -12.897  12.554  65.773  1.00  0.00     0.000 HD 
BRANCH   8  11
HETATM   11  N   UNL     1     -12.279  14.142  67.565  1.00  0.00    -0.578 NA 
HETATM   12  H   UNL     1     -13.288  14.238  67.678  1.00  0.00     0.000 HD 
BRANCH  11  13
HETATM   13  C   UNL     1     -11.422  15.243  67.754  1.00  0.00    -0.303 A  
HETATM   14  C   UNL     1     -11.348  15.902  68.977  1.00  0.00    -0.371 A  
HETATM   15  C   UNL     1     -10.631  15.556  65.262  1.00  0.00    -0.446 C  
HETATM   16  S   UNL     1     -10.347  17.292  68.868  1.00  0.00    -0.327 SA 
HETATM   17  C   UNL     1     -10.039  17.030  67.217  1.00  0.00    -0.295 A  
HETATM   18  C   UNL     1     -10.699  15.926  66.709  1.00  0.00    -0.281 A  
BRANCH  14  19
HETATM   19  C   UNL     1     -11.971  15.639  70.260  1.00  0.00    -0.374 C  
HETATM   20  O   UNL     1     -12.880  14.837  70.467  1.00  0.00    -0.354 OA 
BRANCH  19  21
HETATM   21  O   UNL     1     -11.453  16.446  71.238  1.00  0.00    -0.396 OA 
HETATM   22  C   UNL     1     -11.923  16.134  72.549  1.00  0.00    -0.561 C  
ENDBRANCH  19  21
ENDBRANCH  14  19
ENDBRANCH  11  13
ENDBRANCH   8  11
ENDBRANCH   6   8
ENDBRANCH   4   6
ENDBRANCH   3   4
ENDBRANCH   2   3
TORSDOF 8
ENDMDL
MODEL       28
REMARK 921   NORMALIZED FREE ENERGY PREDICTED BY IDOCK:   -5.16 KCAL/MOL
REMARK 922        TOTAL FREE ENERGY PREDICTED BY IDOCK:   -8.28 KCAL/MOL
REMARK 923 INTER-LIGAND FREE ENERGY PREDICTED BY IDOCK:   -6.93 KCAL/MOL
REMARK 924 INTRA-LIGAND FREE ENERGY PREDICTED BY IDOCK:   -1.35 KCAL/MOL
REMARK 927      BINDING AFFINITY PREDICTED BY RF-SCORE:    0.00 PKD
ROOT
HETATM    1  C   UNL     1     -13.435   9.428  72.017  1.00  0.00    -0.522 C  
HETATM    2  C   UNL     1     -12.279   8.496  72.359  1.00  0.00    -0.432 C  
ENDROOT
BRANCH   2   3
HETATM    3  C   UNL     1     -10.963   9.059  71.819  1.00  0.00    -0.372 C  
BRANCH   3   4
HETATM    4  N   UNL     1     -11.185  10.297  71.057  1.00  0.00    -0.316 NA 
HETATM    5  H   UNL     1     -10.991  11.124  71.623  1.00  0.00     0.000 HD 
BRANCH   4   6
HETATM    6  C   UNL     1     -10.397  10.303  69.791  1.00  0.00    -0.246 C  
HETATM    7  C   UNL     1      -9.521   9.057  69.627  1.00  0.00    -0.174 C  
BRANCH   6   8
HETATM    8  C   UNL     1     -11.388  10.272  68.625  1.00  0.00    -0.166 C  
HETATM    9  O   UNL     1     -11.208   9.175  67.851  1.00  0.00    -0.494 OA 
HETATM   10  H   UNL     1     -11.823   9.156  67.127  1.00  0.00     0.000 HD 
BRANCH   8  11
HETATM   11  N   UNL     1     -12.253  11.212  68.431  1.00  0.00    -0.726 NA 
HETATM   12  H   UNL     1     -13.250  11.043  68.568  1.00  0.00     0.000 HD 
BRANCH  11  13
HETATM   13  C   UNL     1     -11.783  12.477  68.025  1.00  0.00    -0.355 A  
HETATM   14  C   UNL     1     -11.838  13.576  68.875  1.00  0.00    -0.345 A  
HETATM   15  C   UNL     1     -11.316  11.926  65.493  1.00  0.00    -0.334 C  
HETATM   16  S   UNL     1     -11.346  15.006  68.063  1.00  0.00    -0.335 SA 
HETATM   17  C   UNL     1     -11.089  14.176  66.602  1.00  0.00    -0.312 A  
HETATM   18  C   UNL     1     -11.395  12.829  66.681  1.00  0.00    -0.364 A  
BRANCH  14  19
HETATM   19  C   UNL     1     -12.249  13.713  70.259  1.00  0.00    -0.353 C  
HETATM   20  O   UNL     1     -12.589  12.795  71.002  1.00  0.00    -0.363 OA 
BRANCH  19  21
HETATM   21  O   UNL     1     -12.269  15.028  70.642  1.00  0.00    -0.280 OA 
HETATM   22  C   UNL     1     -11.599  15.276  71.879  1.00  0.00    -0.437 C  
ENDBRANCH  19  21
ENDBRANCH  14  19
ENDBRANCH  11  13
ENDBRANCH   8  11
ENDBRANCH   6   8
ENDBRANCH   4   6
ENDBRANCH   3   4
ENDBRANCH   2   3
TORSDOF 8
ENDMDL
MODEL       29
REMARK 921   NORMALIZED FREE ENERGY PREDICTED BY IDOCK:   -5.16 KCAL/MOL
REMARK 922        TOTAL FREE ENERGY PREDICTED BY IDOCK:   -8.28 KCAL/MOL
REMARK 923 INTER-LIGAND FREE ENERGY PREDICTED BY IDOCK:   -6.93 KCAL/MOL
REMARK 924 INTRA-LIGAND FREE ENERGY PREDICTED BY IDOCK:   -1.35 KCAL/MOL
REMARK 927      BINDING AFFINITY PREDICTED BY RF-SCORE:    0.00 PKD
ROOT
HETATM    1  C   UNL     1     -11.106   5.954  71.636  1.00  0.00    -0.319 C  
HETATM    2  C   UNL     1     -12.276   6.721  71.031  1.00  0.00    -0.405 C  
ENDROOT
BRANCH   2   3
HETATM    3  C   UNL     1     -12.470   8.055  71.755  1.00  0.00    -0.324 C  
BRANCH   3   4
HETATM    4  N   UNL     1     -12.653   9.158  70.800  1.00  0.00    -0.501 NA 
HETATM    5  H   UNL     1     -13.581   9.574  70.884  1.00  0.00     0.000 HD 
BRANCH   4   6
HETATM    6  C   UNL     1     -11.580  10.183  70.942  1.00  0.00    -0.372 C  
HETATM    7  C   UNL     1     -10.181   9.568  71.066  1.00  0.00    -0.332 C  
BRANCH   6   8
HETATM    8  C   UNL     1     -11.557  11.015  69.658  1.00  0.00    -0.318 C  
HETATM    9  O   UNL     1     -11.066  12.258  69.882  1.00  0.00    -0.479 OA 
HETATM   10  H   UNL     1     -11.051  12.775  69.085  1.00  0.00     0.000 HD 
BRANCH   8  11
HETATM   11  N   UNL     1     -11.988  10.554  68.531  1.00  0.00    -0.786 NA 
HETATM   12  H   UNL     1     -12.971  10.309  68.407  1.00  0.00     0.000 HD 
BRANCH  11  13
HETATM   13  C   UNL     1     -11.066  10.400  67.477  1.00  0.00    -0.267 A  
HETATM   14  C   UNL     1     -10.889  11.393  66.519  1.00  0.00    -0.283 A  
HETATM   15  C   UNL     1     -10.405   7.887  67.900  1.00  0.00    -0.281 C  
HETATM   16  S   UNL     1      -9.825  10.868  65.278  1.00  0.00    -0.286 SA 
HETATM   17  C   UNL     1      -9.626   9.340  65.995  1.00  0.00    -0.270 A  
HETATM   18  C   UNL     1     -10.371   9.180  67.150  1.00  0.00    -0.337 A  
BRANCH  14  19
HETATM   19  C   UNL     1     -11.449  12.724  66.386  1.00  0.00    -0.357 C  
HETATM   20  O   UNL     1     -12.291  13.228  67.128  1.00  0.00    -0.280 OA 
BRANCH  19  21
HETATM   21  O   UNL     1     -10.961  13.359  65.275  1.00  0.00    -0.285 OA 
HETATM   22  C   UNL     1     -11.968  13.994  64.487  1.00  0.00    -0.448 C  
ENDBRANCH  19  21
ENDBRANCH  14  19
ENDBRANCH  11  13
ENDBRANCH   8  11
ENDBRANCH   6   8
ENDBRANCH   4   6
ENDBRANCH   3   4
ENDBRANCH   2   3
TORSDOF 8
ENDMDL
MODEL       30
REMARK 921   NORMALIZED FREE ENERGY PREDICTED BY IDOCK:   -5.13 KCAL/MOL
REMARK 922        TOTAL FREE ENERGY PREDICTED BY IDOCK:   -8.23 KCAL/MOL
REMARK 923 INTER-LIGAND FREE ENERGY PREDICTED BY IDOCK:   -7.36 KCAL/MOL
REMARK 924 INTRA-LIGAND FREE ENERGY PREDICTED BY IDOCK:   -0.87 KCAL/MOL
REMARK 927      BINDING AFFINITY PREDICTED BY RF-SCORE:    0.00 PKD
ROOT
HETATM    1  C   UNL     1      -9.548   8.202  70.573  1.00  0.00    -0.177 C  
HETATM    2  C   UNL     1      -9.380   9.597  69.983  1.00  0.00    -0.276 C  
ENDROOT
BRANCH   2   3
HETATM    3  C   UNL     1     -10.730  10.142  69.513  1.00  0.00    -0.249 C  
BRANCH   3   4
HETATM    4  N   UNL     1     -10.670  11.594  69.288  1.00  0.00    -0.409 NA 
HETATM    5  H   UNL     1     -10.325  11.813  68.353  1.00  0.00     0.000 HD 
BRANCH   4   6
HETATM    6  C   UNL     1     -11.989  12.238  69.550  1.00  0.00    -0.270 C  
HETATM    7  C   UNL     1     -12.475  12.040  70.989  1.00  0.00    -0.376 C  
BRANCH   6   8
HETATM    8  C   UNL     1     -11.814  13.748  69.373  1.00  0.00    -0.341 C  
HETATM    9  O   UNL     1     -10.981  14.263  70.310  1.00  0.00    -0.470 OA 
HETATM   10  H   UNL     1     -10.872  15.200  70.201  1.00  0.00     0.000 HD 
BRANCH   8  11
HETATM   11  N   UNL     1     -12.426  14.410  68.447  1.00  0.00    -0.538 NA 
HETATM   12  H   UNL     1     -13.426  14.601  68.515  1.00  0.00     0.000 HD 
BRANCH  11  13
HETATM   13  C   UNL     1     -11.677  14.859  67.342  1.00  0.00    -0.293 A  
HETATM   14  C   UNL     1     -11.549  14.087  66.193  1.00  0.00    -0.367 A  
HETATM   15  C   UNL     1     -10.633  17.018  68.429  1.00  0.00    -0.375 C  
HETATM   16  S   UNL     1     -10.458  14.812  65.083  1.00  0.00    -0.417 SA 
HETATM   17  C   UNL     1     -10.147  16.116  66.128  1.00  0.00    -0.338 A  
HETATM   18  C   UNL     1     -10.821  16.020  67.332  1.00  0.00    -0.277 A  
BRANCH  14  19
HETATM   19  C   UNL     1     -12.135  12.818  65.806  1.00  0.00    -0.448 C  
HETATM   20  O   UNL     1     -11.937  11.737  66.358  1.00  0.00    -0.515 OA 
BRANCH  19  21
HETATM   21  O   UNL     1     -12.915  12.952  64.688  1.00  0.00    -0.734 OA 
HETATM   22  C   UNL     1     -12.604  12.017  63.655  1.00  0.00    -0.490 C  
ENDBRANCH  19  21
ENDBRANCH  14  19
ENDBRANCH  11  13
ENDBRANCH   8  11
ENDBRANCH   6   8
ENDBRANCH   4   6
ENDBRANCH   3   4
ENDBRANCH   2   3
TORSDOF 8
ENDMDL
MODEL       31
REMARK 921   NORMALIZED FREE ENERGY PREDICTED BY IDOCK:   -5.12 KCAL/MOL
REMARK 922        TOTAL FREE ENERGY PREDICTED BY IDOCK:   -8.23 KCAL/MOL
REMARK 923 INTER-LIGAND FREE ENERGY PREDICTED BY IDOCK:   -7.36 KCAL/MOL
REMARK 924 INTRA-LIGAND FREE ENERGY PREDICTED BY IDOCK:   -0.87 KCAL/MOL
REMARK 927      BINDING AFFINITY PREDICTED BY RF-SCORE:    0.00 PKD
ROOT
HETATM    1  C   UNL     1     -11.318  11.718  63.778  1.00  0.00    -0.524 C  
HETATM    2  C   UNL     1     -11.886  13.131  63.834  1.00  0.00    -0.533 C  
ENDROOT
BRANCH   2   3
HETATM    3  C   UNL     1     -12.472  13.415  65.218  1.00  0.00    -0.483 C  
BRANCH   3   4
HETATM    4  N   UNL     1     -12.130  12.350  66.172  1.00  0.00    -0.641 NA 
HETATM    5  H   UNL     1     -11.652  11.575  65.710  1.00  0.00     0.000 HD 
BRANCH   4   6
HETATM    6  C   UNL     1     -11.334  12.880  67.315  1.00  0.00    -0.310 C  
HETATM    7  C   UNL     1     -11.437  14.403  67.459  1.00  0.00    -0.370 C  
BRANCH   6   8
HETATM    8  C   UNL     1     -11.923  12.300  68.603  1.00  0.00    -0.227 C  
HETATM    9  O   UNL     1     -11.986  13.233  69.583  1.00  0.00    -0.308 OA 
HETATM   10  H   UNL     1     -12.352  12.873  70.383  1.00  0.00     0.000 HD 
BRANCH   8  11
HETATM   11  N   UNL     1     -12.277  11.061  68.702  1.00  0.00    -0.771 NA 
HETATM   12  H   UNL     1     -13.110  10.715  68.224  1.00  0.00     0.000 HD 
BRANCH  11  13
HETATM   13  C   UNL     1     -11.483  10.202  69.486  1.00  0.00    -0.168 A  
HETATM   14  C   UNL     1     -11.759   9.988  70.832  1.00  0.00    -0.374 A  
HETATM   15  C   UNL     1      -9.576   9.725  67.734  1.00  0.00    -0.157 C  
HETATM   16  S   UNL     1     -10.541   9.025  71.565  1.00  0.00    -0.363 SA 
HETATM   17  C   UNL     1      -9.655   8.917  70.118  1.00  0.00    -0.180 A  
HETATM   18  C   UNL     1     -10.228   9.621  69.075  1.00  0.00    -0.209 A  
BRANCH  14  19
HETATM   19  C   UNL     1     -12.838  10.446  71.686  1.00  0.00    -0.474 C  
HETATM   20  O   UNL     1     -13.172  11.617  71.857  1.00  0.00    -0.485 OA 
BRANCH  19  21
HETATM   21  O   UNL     1     -13.429   9.399  72.343  1.00  0.00    -0.457 OA 
HETATM   22  C   UNL     1     -13.857   8.347  71.479  1.00  0.00    -0.327 C  
ENDBRANCH  19  21
ENDBRANCH  14  19
ENDBRANCH  11  13
ENDBRANCH   8  11
ENDBRANCH   6   8
ENDBRANCH   4   6
ENDBRANCH   3   4
ENDBRANCH   2   3
TORSDOF 8
ENDMDL
MODEL       32
REMARK 921   NORMALIZED FREE ENERGY PREDICTED BY IDOCK:   -5.12 KCAL/MOL
REMARK 922        TOTAL FREE ENERGY PREDICTED BY IDOCK:   -8.22 KCAL/MOL
REMARK 923 INTER-LIGAND FREE ENERGY PREDICTED BY IDOCK:   -7.29 KCAL/MOL
REMARK 924 INTRA-LIGAND FREE ENERGY PREDICTED BY IDOCK:   -0.93 KCAL/MOL
REMARK 927      BINDING AFFINITY PREDICTED BY RF-SCORE:    0.00 PKD
ROOT
HETATM    1  C   UNL     1     -12.020  13.254  64.333  1.00  0.00    -0.459 C  
HETATM    2  C   UNL     1     -12.653  13.835  65.592  1.00  0.00    -0.551 C  
ENDROOT
BRANCH   2   3
HETATM    3  C   UNL     1     -11.578  14.125  66.642  1.00  0.00    -0.384 C  
BRANCH   3   4
HETATM    4  N   UNL     1     -10.964  12.883  67.133  1.00  0.00    -0.256 NA 
HETATM    5  H   UNL     1     -10.043  12.732  66.719  1.00  0.00     0.000 HD 
BRANCH   4   6
HETATM    6  C   UNL     1     -10.904  12.859  68.623  1.00  0.00    -0.258 C  
HETATM    7  C   UNL     1     -11.885  13.840  69.275  1.00  0.00    -0.392 C  
BRANCH   6   8
HETATM    8  C   UNL     1     -11.338  11.466  69.085  1.00  0.00    -0.288 C  
HETATM    9  O   UNL     1     -12.275  10.940  68.260  1.00  0.00    -0.804 OA 
HETATM   10  H   UNL     1     -12.544  10.075  68.547  1.00  0.00     0.000 HD 
BRANCH   8  11
HETATM   11  N   UNL     1     -10.861  10.915  70.152  1.00  0.00    -0.462 NA 
HETATM   12  H   UNL     1      -9.904  11.102  70.455  1.00  0.00     0.000 HD 
BRANCH  11  13
HETATM   13  C   UNL     1     -11.696  10.049  70.885  1.00  0.00    -0.374 A  
HETATM   14  C   UNL     1     -11.614   8.669  70.739  1.00  0.00    -0.242 A  
HETATM   15  C   UNL     1     -13.266  11.856  71.981  1.00  0.00    -0.461 C  
HETATM   16  S   UNL     1     -12.850   7.881  71.633  1.00  0.00    -0.327 SA 
HETATM   17  C   UNL     1     -13.492   9.355  72.183  1.00  0.00    -0.471 A  
HETATM   18  C   UNL     1     -12.822  10.459  71.688  1.00  0.00    -0.579 A  
BRANCH  14  19
HETATM   19  C   UNL     1     -10.719   7.825  69.970  1.00  0.00    -0.244 C  
HETATM   20  O   UNL     1      -9.543   8.074  69.710  1.00  0.00    -0.170 OA 
BRANCH  19  21
HETATM   21  O   UNL     1     -11.364   6.710  69.505  1.00  0.00    -0.323 OA 
HETATM   22  C   UNL     1     -10.484   5.700  69.014  1.00  0.00    -0.251 C  
ENDBRANCH  19  21
ENDBRANCH  14  19
ENDBRANCH  11  13
ENDBRANCH   8  11
ENDBRANCH   6   8
ENDBRANCH   4   6
ENDBRANCH   3   4
ENDBRANCH   2   3
TORSDOF 8
ENDMDL
MODEL       33
REMARK 921   NORMALIZED FREE ENERGY PREDICTED BY IDOCK:   -5.12 KCAL/MOL
REMARK 922        TOTAL FREE ENERGY PREDICTED BY IDOCK:   -8.22 KCAL/MOL
REMARK 923 INTER-LIGAND FREE ENERGY PREDICTED BY IDOCK:   -7.57 KCAL/MOL
REMARK 924 INTRA-LIGAND FREE ENERGY PREDICTED BY IDOCK:   -0.65 KCAL/MOL
REMARK 927      BINDING AFFINITY PREDICTED BY RF-SCORE:    0.00 PKD
ROOT
HETATM    1  C   UNL     1      -8.621   9.353  62.785  1.00  0.00    -0.221 C  
HETATM    2  C   UNL     1      -9.269  10.019  63.993  1.00  0.00    -0.318 C  
ENDROOT
BRANCH   2   3
HETATM    3  C   UNL     1      -9.952  11.324  63.578  1.00  0.00    -0.376 C  
BRANCH   3   4
HETATM    4  N   UNL     1      -9.926  12.310  64.668  1.00  0.00    -0.438 NA 
HETATM    5  H   UNL     1      -9.025  12.786  64.719  1.00  0.00     0.000 HD 
BRANCH   4   6
HETATM    6  C   UNL     1     -11.051  13.280  64.549  1.00  0.00    -0.372 C  
HETATM    7  C   UNL     1     -12.074  12.880  63.480  1.00  0.00    -0.633 C  
BRANCH   6   8
HETATM    8  C   UNL     1     -11.813  13.276  65.876  1.00  0.00    -0.393 C  
HETATM    9  O   UNL     1     -12.040  12.014  66.313  1.00  0.00    -0.596 OA 
HETATM   10  H   UNL     1     -12.513  12.011  67.137  1.00  0.00     0.000 HD 
BRANCH   8  11
HETATM   11  N   UNL     1     -12.195  14.366  66.455  1.00  0.00    -0.440 NA 
HETATM   12  H   UNL     1     -13.099  14.786  66.237  1.00  0.00     0.000 HD 
BRANCH  11  13
HETATM   13  C   UNL     1     -11.330  14.959  67.396  1.00  0.00    -0.347 A  
HETATM   14  C   UNL     1     -10.515  16.032  67.054  1.00  0.00    -0.307 A  
HETATM   15  C   UNL     1     -11.654  13.239  69.363  1.00  0.00    -0.364 C  
HETATM   16  S   UNL     1      -9.462  16.442  68.347  1.00  0.00    -0.227 SA 
HETATM   17  C   UNL     1     -10.070  15.197  69.332  1.00  0.00    -0.240 A  
HETATM   18  C   UNL     1     -11.040  14.434  68.708  1.00  0.00    -0.275 A  
BRANCH  14  19
HETATM   19  C   UNL     1     -10.391  16.807  65.835  1.00  0.00    -0.328 C  
HETATM   20  O   UNL     1     -10.845  16.495  64.735  1.00  0.00    -0.720 OA 
BRANCH  19  21
HETATM   21  O   UNL     1      -9.641  17.935  66.038  1.00  0.00    -0.502 OA 
HETATM   22  C   UNL     1     -10.412  19.135  66.094  1.00  0.00    -0.477 C  
ENDBRANCH  19  21
ENDBRANCH  14  19
ENDBRANCH  11  13
ENDBRANCH   8  11
ENDBRANCH   6   8
ENDBRANCH   4   6
ENDBRANCH   3   4
ENDBRANCH   2   3
TORSDOF 8
ENDMDL
MODEL       34
REMARK 921   NORMALIZED FREE ENERGY PREDICTED BY IDOCK:   -5.11 KCAL/MOL
REMARK 922        TOTAL FREE ENERGY PREDICTED BY IDOCK:   -8.21 KCAL/MOL
REMARK 923 INTER-LIGAND FREE ENERGY PREDICTED BY IDOCK:   -7.49 KCAL/MOL
REMARK 924 INTRA-LIGAND FREE ENERGY PREDICTED BY IDOCK:   -0.72 KCAL/MOL
REMARK 927      BINDING AFFINITY PREDICTED BY RF-SCORE:    0.00 PKD
ROOT
HETATM    1  C   UNL     1     -10.209  19.671  66.039  1.00  0.00    -0.587 C  
HETATM    2  C   UNL     1     -10.858  19.249  67.351  1.00  0.00    -0.554 C  
ENDROOT
BRANCH   2   3
HETATM    3  C   UNL     1      -9.816  18.636  68.289  1.00  0.00    -0.371 C  
BRANCH   3   4
HETATM    4  N   UNL     1     -10.414  17.609  69.153  1.00  0.00    -0.405 NA 
HETATM    5  H   UNL     1     -11.167  17.993  69.724  1.00  0.00     0.000 HD 
BRANCH   4   6
HETATM    6  C   UNL     1     -10.874  16.433  68.361  1.00  0.00    -0.342 C  
HETATM    7  C   UNL     1      -9.790  15.880  67.429  1.00  0.00    -0.234 C  
BRANCH   6   8
HETATM    8  C   UNL     1     -11.193  15.304  69.344  1.00  0.00    -0.285 C  
HETATM    9  O   UNL     1     -10.151  15.063  70.176  1.00  0.00    -0.494 OA 
HETATM   10  H   UNL     1     -10.349  14.362  70.786  1.00  0.00     0.000 HD 
BRANCH   8  11
HETATM   11  N   UNL     1     -12.319  14.671  69.324  1.00  0.00    -0.560 NA 
HETATM   12  H   UNL     1     -12.989  14.817  68.568  1.00  0.00     0.000 HD 
BRANCH  11  13
HETATM   13  C   UNL     1     -12.599  13.775  70.375  1.00  0.00    -0.256 A  
HETATM   14  C   UNL     1     -12.350  12.413  70.249  1.00  0.00    -0.188 A  
HETATM   15  C   UNL     1     -13.841  15.442  71.991  1.00  0.00    -0.625 C  
HETATM   16  S   UNL     1     -12.931  11.552  71.616  1.00  0.00    -0.295 SA 
HETATM   17  C   UNL     1     -13.522  12.969  72.347  1.00  0.00    -0.515 A  
HETATM   18  C   UNL     1     -13.329  14.100  71.575  1.00  0.00    -0.424 A  
BRANCH  14  19
HETATM   19  C   UNL     1     -11.736  11.632  69.193  1.00  0.00    -0.326 C  
HETATM   20  O   UNL     1     -12.114  11.580  68.023  1.00  0.00    -0.617 OA 
BRANCH  19  21
HETATM   21  O   UNL     1     -10.686  10.892  69.669  1.00  0.00    -0.238 OA 
HETATM   22  C   UNL     1      -9.519  10.958  68.850  1.00  0.00    -0.172 C  
ENDBRANCH  19  21
ENDBRANCH  14  19
ENDBRANCH  11  13
ENDBRANCH   8  11
ENDBRANCH   6   8
ENDBRANCH   4   6
ENDBRANCH   3   4
ENDBRANCH   2   3
TORSDOF 8
ENDMDL
MODEL       35
REMARK 921   NORMALIZED FREE ENERGY PREDICTED BY IDOCK:   -5.09 KCAL/MOL
REMARK 922        TOTAL FREE ENERGY PREDICTED BY IDOCK:   -8.19 KCAL/MOL
REMARK 923 INTER-LIGAND FREE ENERGY PREDICTED BY IDOCK:   -6.88 KCAL/MOL
REMARK 924 INTRA-LIGAND FREE ENERGY PREDICTED BY IDOCK:   -1.31 KCAL/MOL
REMARK 927      BINDING AFFINITY PREDICTED BY RF-SCORE:    0.00 PKD
ROOT
HETATM    1  C   UNL     1     -12.581   9.340  72.179  1.00  0.00    -0.443 C  
HETATM    2  C   UNL     1     -12.743  10.401  71.097  1.00  0.00    -0.514 C  
ENDROOT
BRANCH   2   3
HETATM    3  C   UNL     1     -11.538  10.387  70.154  1.00  0.00    -0.312 C  
BRANCH   3   4
HETATM    4  N   UNL     1     -11.955  10.547  68.753  1.00  0.00    -0.734 NA 
HETATM    5  H   UNL     1     -12.391  11.456  68.595  1.00  0.00     0.000 HD 
BRANCH   4   6
HETATM    6  C   UNL     1     -10.817  10.317  67.818  1.00  0.00    -0.292 C  
HETATM    7  C   UNL     1     -10.678   8.849  67.398  1.00  0.00    -0.225 C  
BRANCH   6   8
HETATM    8  C   UNL     1     -11.105  11.093  66.531  1.00  0.00    -0.167 C  
HETATM    9  O   UNL     1     -10.316  10.674  65.513  1.00  0.00    -0.266 OA 
HETATM   10  H   UNL     1     -10.495  11.156  64.714  1.00  0.00     0.000 HD 
BRANCH   8  11
HETATM   11  N   UNL     1     -11.983  12.039  66.480  1.00  0.00    -0.601 NA 
HETATM   12  H   UNL     1     -12.960  11.861  66.715  1.00  0.00     0.000 HD 
BRANCH  11  13
HETATM   13  C   UNL     1     -11.556  13.324  66.091  1.00  0.00    -0.348 A  
HETATM   14  C   UNL     1     -11.224  14.292  67.033  1.00  0.00    -0.323 A  
HETATM   15  C   UNL     1     -12.002  13.119  63.504  1.00  0.00    -0.580 C  
HETATM   16  S   UNL     1     -10.894  15.798  66.278  1.00  0.00    -0.172 SA 
HETATM   17  C   UNL     1     -11.211  15.173  64.729  1.00  0.00    -0.388 A  
HETATM   18  C   UNL     1     -11.600  13.846  64.747  1.00  0.00    -0.383 A  
BRANCH  14  19
HETATM   19  C   UNL     1     -11.142  14.250  68.480  1.00  0.00    -0.257 C  
HETATM   20  O   UNL     1     -10.217  14.689  69.161  1.00  0.00    -0.231 OA 
BRANCH  19  21
HETATM   21  O   UNL     1     -12.219  13.598  69.020  1.00  0.00    -0.334 OA 
HETATM   22  C   UNL     1     -12.650  14.137  70.269  1.00  0.00    -0.306 C  
ENDBRANCH  19  21
ENDBRANCH  14  19
ENDBRANCH  11  13
ENDBRANCH   8  11
ENDBRANCH   6   8
ENDBRANCH   4   6
ENDBRANCH   3   4
ENDBRANCH   2   3
TORSDOF 8
ENDMDL
MODEL       36
REMARK 921   NORMALIZED FREE ENERGY PREDICTED BY IDOCK:   -5.09 KCAL/MOL
REMARK 922        TOTAL FREE ENERGY PREDICTED BY IDOCK:   -8.18 KCAL/MOL
REMARK 923 INTER-LIGAND FREE ENERGY PREDICTED BY IDOCK:   -7.37 KCAL/MOL
REMARK 924 INTRA-LIGAND FREE ENERGY PREDICTED BY IDOCK:   -0.81 KCAL/MOL
REMARK 927      BINDING AFFINITY PREDICTED BY RF-SCORE:    0.00 PKD
ROOT
HETATM    1  C   UNL     1     -13.883   8.795  71.867  1.00  0.00    -0.491 C  
HETATM    2  C   UNL     1     -12.616   9.600  71.604  1.00  0.00    -0.493 C  
ENDROOT
BRANCH   2   3
HETATM    3  C   UNL     1     -12.914  11.099  71.673  1.00  0.00    -0.443 C  
BRANCH   3   4
HETATM    4  N   UNL     1     -11.999  11.865  70.815  1.00  0.00    -0.443 NA 
HETATM    5  H   UNL     1     -11.698  11.318  70.008  1.00  0.00     0.000 HD 
BRANCH   4   6
HETATM    6  C   UNL     1     -12.603  13.164  70.400  1.00  0.00    -0.116 C  
HETATM    7  C   UNL     1     -12.446  14.260  71.460  1.00  0.00    -0.435 C  
BRANCH   6   8
HETATM    8  C   UNL     1     -11.840  13.661  69.171  1.00  0.00    -0.348 C  
HETATM    9  O   UNL     1     -10.620  13.079  69.075  1.00  0.00    -0.393 OA 
HETATM   10  H   UNL     1     -10.147  13.388  68.311  1.00  0.00     0.000 HD 
BRANCH   8  11
HETATM   11  N   UNL     1     -12.330  14.548  68.368  1.00  0.00    -0.605 NA 
HETATM   12  H   UNL     1     -13.236  14.979  68.554  1.00  0.00     0.000 HD 
BRANCH  11  13
HETATM   13  C   UNL     1     -11.579  14.905  67.231  1.00  0.00    -0.324 A  
HETATM   14  C   UNL     1     -10.780  16.043  67.218  1.00  0.00    -0.295 A  
HETATM   15  C   UNL     1     -12.529  13.109  65.556  1.00  0.00    -0.516 C  
HETATM   16  S   UNL     1     -10.113  16.309  65.659  1.00  0.00    -0.254 SA 
HETATM   17  C   UNL     1     -10.895  14.946  65.012  1.00  0.00    -0.423 A  
HETATM   18  C   UNL     1     -11.691  14.288  65.932  1.00  0.00    -0.375 A  
BRANCH  14  19
HETATM   19  C   UNL     1     -10.455  17.012  68.247  1.00  0.00    -0.363 C  
HETATM   20  O   UNL     1     -10.724  16.909  69.443  1.00  0.00    -0.335 OA 
BRANCH  19  21
HETATM   21  O   UNL     1      -9.844  18.115  67.715  1.00  0.00    -0.289 OA 
HETATM   22  C   UNL     1     -10.096  19.319  68.440  1.00  0.00    -0.431 C  
ENDBRANCH  19  21
ENDBRANCH  14  19
ENDBRANCH  11  13
ENDBRANCH   8  11
ENDBRANCH   6   8
ENDBRANCH   4   6
ENDBRANCH   3   4
ENDBRANCH   2   3
TORSDOF 8
ENDMDL
MODEL       37
REMARK 921   NORMALIZED FREE ENERGY PREDICTED BY IDOCK:   -5.09 KCAL/MOL
REMARK 922        TOTAL FREE ENERGY PREDICTED BY IDOCK:   -8.18 KCAL/MOL
REMARK 923 INTER-LIGAND FREE ENERGY PREDICTED BY IDOCK:   -7.20 KCAL/MOL
REMARK 924 INTRA-LIGAND FREE ENERGY PREDICTED BY IDOCK:   -0.98 KCAL/MOL
REMARK 927      BINDING AFFINITY PREDICTED BY RF-SCORE:    0.00 PKD
ROOT
HETATM    1  C   UNL     1     -13.912  15.490  72.685  1.00  0.00    -0.617 C  
HETATM    2  C   UNL     1     -13.642  15.331  71.193  1.00  0.00    -0.540 C  
ENDROOT
BRANCH   2   3
HETATM    3  C   UNL     1     -12.753  14.111  70.940  1.00  0.00    -0.361 C  
BRANCH   3   4
HETATM    4  N   UNL     1     -12.386  14.004  69.521  1.00  0.00    -0.426 NA 
HETATM    5  H   UNL     1     -12.083  14.903  69.145  1.00  0.00     0.000 HD 
BRANCH   4   6
HETATM    6  C   UNL     1     -11.357  12.946  69.305  1.00  0.00    -0.243 C  
HETATM    7  C   UNL     1     -11.787  11.578  69.844  1.00  0.00    -0.430 C  
BRANCH   6   8
HETATM    8  C   UNL     1     -11.186  12.764  67.795  1.00  0.00    -0.275 C  
HETATM    9  O   UNL     1     -12.135  11.942  67.284  1.00  0.00    -0.582 OA 
HETATM   10  H   UNL     1     -12.028  11.829  66.347  1.00  0.00     0.000 HD 
BRANCH   8  11
HETATM   11  N   UNL     1     -10.224  13.323  67.138  1.00  0.00    -0.244 NA 
HETATM   12  H   UNL     1      -9.399  12.789  66.862  1.00  0.00     0.000 HD 
BRANCH  11  13
HETATM   13  C   UNL     1     -10.344  14.689  66.814  1.00  0.00    -0.268 A  
HETATM   14  C   UNL     1     -10.973  15.102  65.644  1.00  0.00    -0.355 A  
HETATM   15  C   UNL     1      -8.849  15.682  68.740  1.00  0.00    -0.208 C  
HETATM   16  S   UNL     1     -10.832  16.800  65.436  1.00  0.00    -0.012 SA 
HETATM   17  C   UNL     1      -9.930  16.973  66.866  1.00  0.00    -0.289 A  
HETATM   18  C   UNL     1      -9.689  15.771  67.506  1.00  0.00    -0.226 A  
BRANCH  14  19
HETATM   19  C   UNL     1     -11.671  14.368  64.606  1.00  0.00    -0.430 C  
HETATM   20  O   UNL     1     -12.567  14.811  63.891  1.00  0.00    -0.834 OA 
BRANCH  19  21
HETATM   21  O   UNL     1     -11.244  13.068  64.545  1.00  0.00    -0.310 OA 
HETATM   22  C   UNL     1     -11.979  12.264  63.622  1.00  0.00    -0.543 C  
ENDBRANCH  19  21
ENDBRANCH  14  19
ENDBRANCH  11  13
ENDBRANCH   8  11
ENDBRANCH   6   8
ENDBRANCH   4   6
ENDBRANCH   3   4
ENDBRANCH   2   3
TORSDOF 8
ENDMDL
MODEL       38
REMARK 921   NORMALIZED FREE ENERGY PREDICTED BY IDOCK:   -5.09 KCAL/MOL
REMARK 922        TOTAL FREE ENERGY PREDICTED BY IDOCK:   -8.18 KCAL/MOL
REMARK 923 INTER-LIGAND FREE ENERGY PREDICTED BY IDOCK:   -6.96 KCAL/MOL
REMARK 924 INTRA-LIGAND FREE ENERGY PREDICTED BY IDOCK:   -1.22 KCAL/MOL
REMARK 927      BINDING AFFINITY PREDICTED BY RF-SCORE:    0.00 PKD
ROOT
HETATM    1  C   UNL     1      -9.334   9.340  70.604  1.00  0.00    -0.329 C  
HETATM    2  C   UNL     1     -10.021   8.746  71.828  1.00  0.00    -0.396 C  
ENDROOT
BRANCH   2   3
HETATM    3  C   UNL     1     -11.485   8.430  71.515  1.00  0.00    -0.278 C  
BRANCH   3   4
HETATM    4  N   UNL     1     -12.036   9.373  70.531  1.00  0.00    -0.467 NA 
HETATM    5  H   UNL     1     -12.286   8.901  69.661  1.00  0.00     0.000 HD 
BRANCH   4   6
HETATM    6  C   UNL     1     -13.190  10.132  71.093  1.00  0.00    -0.355 C  
HETATM    7  C   UNL     1     -13.649   9.599  72.455  1.00  0.00    -0.397 C  
BRANCH   6   8
HETATM    8  C   UNL     1     -12.727  11.569  71.343  1.00  0.00    -0.364 C  
HETATM    9  O   UNL     1     -13.575  12.226  72.169  1.00  0.00    -0.461 OA 
HETATM   10  H   UNL     1     -13.287  13.119  72.325  1.00  0.00     0.000 HD 
BRANCH   8  11
HETATM   11  N   UNL     1     -11.666  12.056  70.789  1.00  0.00    -0.298 NA 
HETATM   12  H   UNL     1     -10.745  11.663  70.986  1.00  0.00     0.000 HD 
BRANCH  11  13
HETATM   13  C   UNL     1     -11.814  13.145  69.908  1.00  0.00    -0.308 A  
HETATM   14  C   UNL     1     -11.848  12.961  68.530  1.00  0.00    -0.313 A  
HETATM   15  C   UNL     1     -11.611  15.099  71.661  1.00  0.00    -0.463 C  
HETATM   16  S   UNL     1     -11.878  14.468  67.708  1.00  0.00    -0.320 SA 
HETATM   17  C   UNL     1     -11.822  15.344  69.163  1.00  0.00    -0.335 A  
HETATM   18  C   UNL     1     -11.747  14.536  70.283  1.00  0.00    -0.356 A  
BRANCH  14  19
HETATM   19  C   UNL     1     -11.835  11.765  67.710  1.00  0.00    -0.196 C  
HETATM   20  O   UNL     1     -11.760  10.609  68.125  1.00  0.00    -0.474 OA 
BRANCH  19  21
HETATM   21  O   UNL     1     -11.862  12.076  66.377  1.00  0.00    -0.578 OA 
HETATM   22  C   UNL     1     -10.773  11.526  65.635  1.00  0.00    -0.267 C  
ENDBRANCH  19  21
ENDBRANCH  14  19
ENDBRANCH  11  13
ENDBRANCH   8  11
ENDBRANCH   6   8
ENDBRANCH   4   6
ENDBRANCH   3   4
ENDBRANCH   2   3
TORSDOF 8
ENDMDL
MODEL       39
REMARK 921   NORMALIZED FREE ENERGY PREDICTED BY IDOCK:   -5.09 KCAL/MOL
REMARK 922        TOTAL FREE ENERGY PREDICTED BY IDOCK:   -8.17 KCAL/MOL
REMARK 923 INTER-LIGAND FREE ENERGY PREDICTED BY IDOCK:   -7.41 KCAL/MOL
REMARK 924 INTRA-LIGAND FREE ENERGY PREDICTED BY IDOCK:   -0.76 KCAL/MOL
REMARK 927      BINDING AFFINITY PREDICTED BY RF-SCORE:    0.00 PKD
ROOT
HETATM    1  C   UNL     1     -14.329  15.079  71.998  1.00  0.00    -0.666 C  
HETATM    2  C   UNL     1     -13.060  15.105  72.842  1.00  0.00    -0.577 C  
ENDROOT
BRANCH   2   3
HETATM    3  C   UNL     1     -11.949  15.860  72.110  1.00  0.00    -0.518 C  
BRANCH   3   4
HETATM    4  N   UNL     1     -11.446  15.090  70.963  1.00  0.00    -0.399 NA 
HETATM    5  H   UNL     1     -11.878  14.167  70.916  1.00  0.00     0.000 HD 
BRANCH   4   6
HETATM    6  C   UNL     1     -11.619  15.841  69.687  1.00  0.00    -0.358 C  
HETATM    7  C   UNL     1     -10.478  16.828  69.417  1.00  0.00    -0.312 C  
BRANCH   6   8
HETATM    8  C   UNL     1     -11.574  14.829  68.540  1.00  0.00    -0.321 C  
HETATM    9  O   UNL     1     -10.610  15.141  67.641  1.00  0.00    -0.253 OA 
HETATM   10  H   UNL     1     -10.582  14.513  66.929  1.00  0.00     0.000 HD 
BRANCH   8  11
HETATM   11  N   UNL     1     -12.393  13.832  68.469  1.00  0.00    -0.399 NA 
HETATM   12  H   UNL     1     -13.398  13.985  68.377  1.00  0.00     0.000 HD 
BRANCH  11  13
HETATM   13  C   UNL     1     -11.862  12.528  68.521  1.00  0.00    -0.295 A  
HETATM   14  C   UNL     1     -11.367  11.902  67.383  1.00  0.00    -0.324 A  
HETATM   15  C   UNL     1     -12.503  11.945  71.008  1.00  0.00    -0.390 C  
HETATM   16  S   UNL     1     -10.935  10.274  67.714  1.00  0.00    -0.263 SA 
HETATM   17  C   UNL     1     -11.421  10.400  69.338  1.00  0.00    -0.227 A  
HETATM   18  C   UNL     1     -11.943  11.640  69.655  1.00  0.00    -0.390 A  
BRANCH  14  19
HETATM   19  C   UNL     1     -11.191  12.364  66.019  1.00  0.00    -0.335 C  
HETATM   20  O   UNL     1     -10.126  12.703  65.507  1.00  0.00    -0.273 OA 
BRANCH  19  21
HETATM   21  O   UNL     1     -12.390  12.436  65.361  1.00  0.00    -0.596 OA 
HETATM   22  C   UNL     1     -12.276  12.304  63.944  1.00  0.00    -0.515 C  
ENDBRANCH  19  21
ENDBRANCH  14  19
ENDBRANCH  11  13
ENDBRANCH   8  11
ENDBRANCH   6   8
ENDBRANCH   4   6
ENDBRANCH   3   4
ENDBRANCH   2   3
TORSDOF 8
ENDMDL
MODEL       40
REMARK 921   NORMALIZED FREE ENERGY PREDICTED BY IDOCK:   -5.06 KCAL/MOL
REMARK 922        TOTAL FREE ENERGY PREDICTED BY IDOCK:   -8.14 KCAL/MOL
REMARK 923 INTER-LIGAND FREE ENERGY PREDICTED BY IDOCK:   -7.13 KCAL/MOL
REMARK 924 INTRA-LIGAND FREE ENERGY PREDICTED BY IDOCK:   -1.01 KCAL/MOL
REMARK 927      BINDING AFFINITY PREDICTED BY RF-SCORE:    0.00 PKD
ROOT
HETATM    1  C   UNL     1      -9.555  19.412  68.482  1.00  0.00    -0.472 C  
HETATM    2  C   UNL     1     -10.583  19.808  67.429  1.00  0.00    -0.553 C  
ENDROOT
BRANCH   2   3
HETATM    3  C   UNL     1     -10.613  18.775  66.300  1.00  0.00    -0.369 C  
BRANCH   3   4
HETATM    4  N   UNL     1     -10.527  17.405  66.828  1.00  0.00    -0.292 NA 
HETATM    5  H   UNL     1     -11.453  16.994  66.949  1.00  0.00     0.000 HD 
BRANCH   4   6
HETATM    6  C   UNL     1      -9.655  16.549  65.974  1.00  0.00    -0.290 C  
HETATM    7  C   UNL     1      -8.289  16.269  66.609  1.00  0.00    -0.315 C  
BRANCH   6   8
HETATM    8  C   UNL     1     -10.336  15.185  65.832  1.00  0.00    -0.327 C  
HETATM    9  O   UNL     1      -9.591  14.335  65.084  1.00  0.00    -0.528 OA 
HETATM   10  H   UNL     1     -10.014  13.489  64.996  1.00  0.00     0.000 HD 
BRANCH   8  11
HETATM   11  N   UNL     1     -11.489  14.933  66.357  1.00  0.00    -0.321 NA 
HETATM   12  H   UNL     1     -12.336  15.373  65.996  1.00  0.00     0.000 HD 
BRANCH  11  13
HETATM   13  C   UNL     1     -11.547  14.034  67.440  1.00  0.00    -0.368 A  
HETATM   14  C   UNL     1     -11.631  12.661  67.238  1.00  0.00    -0.364 A  
HETATM   15  C   UNL     1     -11.779  15.787  69.391  1.00  0.00    -0.379 C  
HETATM   16  S   UNL     1     -11.845  11.831  68.726  1.00  0.00    -0.279 SA 
HETATM   17  C   UNL     1     -11.847  13.279  69.616  1.00  0.00    -0.327 A  
HETATM   18  C   UNL     1     -11.723  14.406  68.823  1.00  0.00    -0.372 A  
BRANCH  14  19
HETATM   19  C   UNL     1     -11.599  11.854  66.033  1.00  0.00    -0.227 C  
HETATM   20  O   UNL     1     -10.776  10.977  65.777  1.00  0.00    -0.228 OA 
BRANCH  19  21
HETATM   21  O   UNL     1     -12.588  12.225  65.161  1.00  0.00    -0.585 OA 
HETATM   22  C   UNL     1     -12.196  12.164  63.789  1.00  0.00    -0.531 C  
ENDBRANCH  19  21
ENDBRANCH  14  19
ENDBRANCH  11  13
ENDBRANCH   8  11
ENDBRANCH   6   8
ENDBRANCH   4   6
ENDBRANCH   3   4
ENDBRANCH   2   3
TORSDOF 8
ENDMDL
MODEL       41
REMARK 921   NORMALIZED FREE ENERGY PREDICTED BY IDOCK:   -5.06 KCAL/MOL
REMARK 922        TOTAL FREE ENERGY PREDICTED BY IDOCK:   -8.13 KCAL/MOL
REMARK 923 INTER-LIGAND FREE ENERGY PREDICTED BY IDOCK:   -7.01 KCAL/MOL
REMARK 924 INTRA-LIGAND FREE ENERGY PREDICTED BY IDOCK:   -1.12 KCAL/MOL
REMARK 927      BINDING AFFINITY PREDICTED BY RF-SCORE:    0.00 PKD
ROOT
HETATM    1  C   UNL     1     -10.852   9.213  71.479  1.00  0.00    -0.436 C  
HETATM    2  C   UNL     1     -12.347   9.505  71.427  1.00  0.00    -0.451 C  
ENDROOT
BRANCH   2   3
HETATM    3  C   UNL     1     -12.616  10.762  70.598  1.00  0.00    -0.357 C  
BRANCH   3   4
HETATM    4  N   UNL     1     -12.004  10.664  69.266  1.00  0.00    -0.510 NA 
HETATM    5  H   UNL     1     -12.597  10.143  68.619  1.00  0.00     0.000 HD 
BRANCH   4   6
HETATM    6  C   UNL     1     -11.658  12.010  68.726  1.00  0.00    -0.311 C  
HETATM    7  C   UNL     1     -11.659  13.102  69.801  1.00  0.00    -0.291 C  
BRANCH   6   8
HETATM    8  C   UNL     1     -10.223  11.947  68.198  1.00  0.00    -0.199 C  
HETATM    9  O   UNL     1      -9.359  11.541  69.159  1.00  0.00    -0.405 OA 
HETATM   10  H   UNL     1      -8.468  11.502  68.831  1.00  0.00     0.000 HD 
BRANCH   8  11
HETATM   11  N   UNL     1      -9.920  12.277  66.985  1.00  0.00    -0.209 NA 
HETATM   12  H   UNL     1      -9.660  11.567  66.300  1.00  0.00     0.000 HD 
BRANCH  11  13
HETATM   13  C   UNL     1      -9.960  13.641  66.635  1.00  0.00    -0.283 A  
HETATM   14  C   UNL     1     -10.980  14.155  65.843  1.00  0.00    -0.297 A  
HETATM   15  C   UNL     1      -7.615  14.358  67.594  1.00  0.00    -0.195 C  
HETATM   16  S   UNL     1     -10.685  15.801  65.451  1.00  0.00    -0.397 SA 
HETATM   17  C   UNL     1      -9.214  15.815  66.304  1.00  0.00    -0.333 A  
HETATM   18  C   UNL     1      -8.900  14.591  66.866  1.00  0.00    -0.257 A  
BRANCH  14  19
HETATM   19  C   UNL     1     -12.180  13.554  65.294  1.00  0.00    -0.441 C  
HETATM   20  O   UNL     1     -13.269  14.111  65.164  1.00  0.00    -0.743 OA 
BRANCH  19  21
HETATM   21  O   UNL     1     -11.975  12.238  64.976  1.00  0.00    -0.385 OA 
HETATM   22  C   UNL     1     -11.977  11.979  63.572  1.00  0.00    -0.507 C  
ENDBRANCH  19  21
ENDBRANCH  14  19
ENDBRANCH  11  13
ENDBRANCH   8  11
ENDBRANCH   6   8
ENDBRANCH   4   6
ENDBRANCH   3   4
ENDBRANCH   2   3
TORSDOF 8
ENDMDL
MODEL       42
REMARK 921   NORMALIZED FREE ENERGY PREDICTED BY IDOCK:   -5.04 KCAL/MOL
REMARK 922        TOTAL FREE ENERGY PREDICTED BY IDOCK:   -8.11 KCAL/MOL
REMARK 923 INTER-LIGAND FREE ENERGY PREDICTED BY IDOCK:   -6.96 KCAL/MOL
REMARK 924 INTRA-LIGAND FREE ENERGY PREDICTED BY IDOCK:   -1.15 KCAL/MOL
REMARK 927      BINDING AFFINITY PREDICTED BY RF-SCORE:    0.00 PKD
ROOT
HETATM    1  C   UNL     1      -8.097  10.270  64.207  1.00  0.00    -0.143 C  
HETATM    2  C   UNL     1      -9.617  10.379  64.212  1.00  0.00    -0.377 C  
ENDROOT
BRANCH   2   3
HETATM    3  C   UNL     1     -10.062  11.643  63.474  1.00  0.00    -0.425 C  
BRANCH   3   4
HETATM    4  N   UNL     1     -10.247  12.766  64.404  1.00  0.00    -0.519 NA 
HETATM    5  H   UNL     1      -9.640  13.552  64.167  1.00  0.00     0.000 HD 
BRANCH   4   6
HETATM    6  C   UNL     1     -11.677  13.182  64.476  1.00  0.00    -0.371 C  
HETATM    7  C   UNL     1     -12.618  12.208  63.760  1.00  0.00    -0.585 C  
BRANCH   6   8
HETATM    8  C   UNL     1     -12.096  13.160  65.948  1.00  0.00    -0.444 C  
HETATM    9  O   UNL     1     -12.156  11.894  66.427  1.00  0.00    -0.552 OA 
HETATM   10  H   UNL     1     -12.416  11.880  67.340  1.00  0.00     0.000 HD 
BRANCH   8  11
HETATM   11  N   UNL     1     -12.374  14.239  66.602  1.00  0.00    -0.541 NA 
HETATM   12  H   UNL     1     -13.328  14.598  66.638  1.00  0.00     0.000 HD 
BRANCH  11  13
HETATM   13  C   UNL     1     -11.324  14.907  67.263  1.00  0.00    -0.349 A  
HETATM   14  C   UNL     1     -11.095  14.728  68.622  1.00  0.00    -0.262 A  
HETATM   15  C   UNL     1     -10.564  16.484  65.297  1.00  0.00    -0.273 C  
HETATM   16  S   UNL     1      -9.860  15.780  69.183  1.00  0.00    -0.264 SA 
HETATM   17  C   UNL     1      -9.654  16.474  67.645  1.00  0.00    -0.235 A  
HETATM   18  C   UNL     1     -10.520  15.962  66.696  1.00  0.00    -0.306 A  
BRANCH  14  19
HETATM   19  C   UNL     1     -11.717  13.861  69.605  1.00  0.00    -0.311 C  
HETATM   20  O   UNL     1     -12.098  12.708  69.409  1.00  0.00    -0.264 OA 
BRANCH  19  21
HETATM   21  O   UNL     1     -11.886  14.508  70.801  1.00  0.00    -0.297 OA 
HETATM   22  C   UNL     1     -13.126  15.208  70.904  1.00  0.00    -0.441 C  
ENDBRANCH  19  21
ENDBRANCH  14  19
ENDBRANCH  11  13
ENDBRANCH   8  11
ENDBRANCH   6   8
ENDBRANCH   4   6
ENDBRANCH   3   4
ENDBRANCH   2   3
TORSDOF 8
ENDMDL
MODEL       43
REMARK 921   NORMALIZED FREE ENERGY PREDICTED BY IDOCK:   -5.04 KCAL/MOL
REMARK 922        TOTAL FREE ENERGY PREDICTED BY IDOCK:   -8.10 KCAL/MOL
REMARK 923 INTER-LIGAND FREE ENERGY PREDICTED BY IDOCK:   -7.01 KCAL/MOL
REMARK 924 INTRA-LIGAND FREE ENERGY PREDICTED BY IDOCK:   -1.09 KCAL/MOL
REMARK 927      BINDING AFFINITY PREDICTED BY RF-SCORE:    0.00 PKD
ROOT
HETATM    1  C   UNL     1     -13.715  15.242  71.279  1.00  0.00    -0.570 C  
HETATM    2  C   UNL     1     -14.229  14.113  72.164  1.00  0.00    -0.638 C  
ENDROOT
BRANCH   2   3
HETATM    3  C   UNL     1     -13.371  12.859  71.980  1.00  0.00    -0.482 C  
BRANCH   3   4
HETATM    4  N   UNL     1     -12.582  12.930  70.742  1.00  0.00    -0.280 NA 
HETATM    5  H   UNL     1     -11.939  13.722  70.753  1.00  0.00     0.000 HD 
BRANCH   4   6
HETATM    6  C   UNL     1     -11.867  11.648  70.481  1.00  0.00    -0.231 C  
HETATM    7  C   UNL     1     -12.770  10.419  70.631  1.00  0.00    -0.417 C  
BRANCH   6   8
HETATM    8  C   UNL     1     -11.414  11.656  69.019  1.00  0.00    -0.294 C  
HETATM    9  O   UNL     1     -12.243  10.919  68.240  1.00  0.00    -0.804 OA 
HETATM   10  H   UNL     1     -11.961  10.924  67.332  1.00  0.00     0.000 HD 
BRANCH   8  11
HETATM   11  N   UNL     1     -10.352  12.280  68.630  1.00  0.00    -0.313 NA 
HETATM   12  H   UNL     1      -9.424  11.959  68.909  1.00  0.00     0.000 HD 
BRANCH  11  13
HETATM   13  C   UNL     1     -10.508  13.415  67.811  1.00  0.00    -0.243 A  
HETATM   14  C   UNL     1     -10.479  13.317  66.424  1.00  0.00    -0.284 A  
HETATM   15  C   UNL     1     -10.457  15.261  69.687  1.00  0.00    -0.279 C  
HETATM   16  S   UNL     1     -10.536  14.870  65.695  1.00  0.00    -0.379 SA 
HETATM   17  C   UNL     1     -10.575  15.655  67.202  1.00  0.00    -0.308 A  
HETATM   18  C   UNL     1     -10.514  14.782  68.273  1.00  0.00    -0.241 A  
BRANCH  14  19
HETATM   19  C   UNL     1     -10.383  12.176  65.534  1.00  0.00    -0.263 C  
HETATM   20  O   UNL     1     -10.250  11.003  65.880  1.00  0.00    -0.239 OA 
BRANCH  19  21
HETATM   21  O   UNL     1     -10.405  12.567  64.222  1.00  0.00    -0.341 OA 
HETATM   22  C   UNL     1      -9.960  11.559  63.314  1.00  0.00    -0.409 C  
ENDBRANCH  19  21
ENDBRANCH  14  19
ENDBRANCH  11  13
ENDBRANCH   8  11
ENDBRANCH   6   8
ENDBRANCH   4   6
ENDBRANCH   3   4
ENDBRANCH   2   3
TORSDOF 8
ENDMDL
MODEL       44
REMARK 921   NORMALIZED FREE ENERGY PREDICTED BY IDOCK:   -5.03 KCAL/MOL
REMARK 922        TOTAL FREE ENERGY PREDICTED BY IDOCK:   -8.09 KCAL/MOL
REMARK 923 INTER-LIGAND FREE ENERGY PREDICTED BY IDOCK:   -6.93 KCAL/MOL
REMARK 924 INTRA-LIGAND FREE ENERGY PREDICTED BY IDOCK:   -1.16 KCAL/MOL
REMARK 927      BINDING AFFINITY PREDICTED BY RF-SCORE:    0.00 PKD
ROOT
HETATM    1  C   UNL     1     -10.865  12.116  63.403  1.00  0.00    -0.474 C  
HETATM    2  C   UNL     1     -12.262  12.705  63.561  1.00  0.00    -0.638 C  
ENDROOT
BRANCH   2   3
HETATM    3  C   UNL     1     -12.442  13.280  64.968  1.00  0.00    -0.443 C  
BRANCH   3   4
HETATM    4  N   UNL     1     -12.198  12.259  65.997  1.00  0.00    -0.597 NA 
HETATM    5  H   UNL     1     -11.819  11.403  65.591  1.00  0.00     0.000 HD 
BRANCH   4   6
HETATM    6  C   UNL     1     -11.324  12.782  67.086  1.00  0.00    -0.314 C  
HETATM    7  C   UNL     1     -11.827  14.108  67.668  1.00  0.00    -0.427 C  
BRANCH   6   8
HETATM    8  C   UNL     1     -11.364  11.778  68.240  1.00  0.00    -0.282 C  
HETATM    9  O   UNL     1     -10.901  12.326  69.389  1.00  0.00    -0.443 OA 
HETATM   10  H   UNL     1     -10.926  11.702  70.106  1.00  0.00     0.000 HD 
BRANCH   8  11
HETATM   11  N   UNL     1     -11.772  10.562  68.081  1.00  0.00    -0.760 NA 
HETATM   12  H   UNL     1     -12.747  10.362  67.856  1.00  0.00     0.000 HD 
BRANCH  11  13
HETATM   13  C   UNL     1     -10.835   9.520  68.228  1.00  0.00    -0.145 A  
HETATM   14  C   UNL     1     -10.603   8.924  69.462  1.00  0.00    -0.228 A  
HETATM   15  C   UNL     1      -9.793   9.589  65.811  1.00  0.00    -0.363 C  
HETATM   16  S   UNL     1      -9.307   7.802  69.370  1.00  0.00    -0.151 SA 
HETATM   17  C   UNL     1      -9.049   8.126  67.721  1.00  0.00    -0.135 A  
HETATM   18  C   UNL     1      -9.898   9.095  67.218  1.00  0.00    -0.244 A  
BRANCH  14  19
HETATM   19  C   UNL     1     -11.225   9.105  70.760  1.00  0.00    -0.277 C  
HETATM   20  O   UNL     1     -11.456  10.184  71.303  1.00  0.00    -0.353 OA 
BRANCH  19  21
HETATM   21  O   UNL     1     -11.486   7.900  71.357  1.00  0.00    -0.251 OA 
HETATM   22  C   UNL     1     -11.189   7.874  72.753  1.00  0.00    -0.405 C  
ENDBRANCH  19  21
ENDBRANCH  14  19
ENDBRANCH  11  13
ENDBRANCH   8  11
ENDBRANCH   6   8
ENDBRANCH   4   6
ENDBRANCH   3   4
ENDBRANCH   2   3
TORSDOF 8
ENDMDL
MODEL       45
REMARK 921   NORMALIZED FREE ENERGY PREDICTED BY IDOCK:   -5.02 KCAL/MOL
REMARK 922        TOTAL FREE ENERGY PREDICTED BY IDOCK:   -8.07 KCAL/MOL
REMARK 923 INTER-LIGAND FREE ENERGY PREDICTED BY IDOCK:   -6.94 KCAL/MOL
REMARK 924 INTRA-LIGAND FREE ENERGY PREDICTED BY IDOCK:   -1.13 KCAL/MOL
REMARK 927      BINDING AFFINITY PREDICTED BY RF-SCORE:    0.00 PKD
ROOT
HETATM    1  C   UNL     1     -10.026   5.353  69.087  1.00  0.00    -0.267 C  
HETATM    2  C   UNL     1     -11.280   6.210  69.223  1.00  0.00    -0.438 C  
ENDROOT
BRANCH   2   3
HETATM    3  C   UNL     1     -11.559   6.515  70.696  1.00  0.00    -0.381 C  
BRANCH   3   4
HETATM    4  N   UNL     1     -12.538   7.601  70.839  1.00  0.00    -0.537 NA 
HETATM    5  H   UNL     1     -13.411   7.266  71.248  1.00  0.00     0.000 HD 
BRANCH   4   6
HETATM    6  C   UNL     1     -11.973   8.742  71.616  1.00  0.00    -0.332 C  
HETATM    7  C   UNL     1     -10.466   8.610  71.858  1.00  0.00    -0.410 C  
BRANCH   6   8
HETATM    8  C   UNL     1     -12.152  10.011  70.779  1.00  0.00    -0.327 C  
HETATM    9  O   UNL     1     -13.451  10.208  70.449  1.00  0.00    -0.520 OA 
HETATM   10  H   UNL     1     -13.562  10.995  69.929  1.00  0.00     0.000 HD 
BRANCH   8  11
HETATM   11  N   UNL     1     -11.153  10.754  70.433  1.00  0.00    -0.462 NA 
HETATM   12  H   UNL     1     -10.304  10.785  70.998  1.00  0.00     0.000 HD 
BRANCH  11  13
HETATM   13  C   UNL     1     -11.268  11.519  69.255  1.00  0.00    -0.272 A  
HETATM   14  C   UNL     1     -11.774  12.813  69.280  1.00  0.00    -0.319 A  
HETATM   15  C   UNL     1     -10.636   9.650  67.512  1.00  0.00    -0.339 C  
HETATM   16  S   UNL     1     -11.943  13.439  67.690  1.00  0.00    -0.278 SA 
HETATM   17  C   UNL     1     -11.373  12.001  66.986  1.00  0.00    -0.336 A  
HETATM   18  C   UNL     1     -11.078  11.019  67.916  1.00  0.00    -0.347 A  
BRANCH  14  19
HETATM   19  C   UNL     1     -12.191  13.672  70.372  1.00  0.00    -0.363 C  
HETATM   20  O   UNL     1     -11.679  14.748  70.676  1.00  0.00    -0.274 OA 
BRANCH  19  21
HETATM   21  O   UNL     1     -13.216  13.108  71.084  1.00  0.00    -0.180 OA 
HETATM   22  C   UNL     1     -13.554  13.824  72.271  1.00  0.00    -0.559 C  
ENDBRANCH  19  21
ENDBRANCH  14  19
ENDBRANCH  11  13
ENDBRANCH   8  11
ENDBRANCH   6   8
ENDBRANCH   4   6
ENDBRANCH   3   4
ENDBRANCH   2   3
TORSDOF 8
ENDMDL
MODEL       46
REMARK 921   NORMALIZED FREE ENERGY PREDICTED BY IDOCK:   -4.99 KCAL/MOL
REMARK 922        TOTAL FREE ENERGY PREDICTED BY IDOCK:   -8.04 KCAL/MOL
REMARK 923 INTER-LIGAND FREE ENERGY PREDICTED BY IDOCK:   -6.91 KCAL/MOL
REMARK 924 INTRA-LIGAND FREE ENERGY PREDICTED BY IDOCK:   -1.13 KCAL/MOL
REMARK 927      BINDING AFFINITY PREDICTED BY RF-SCORE:    0.00 PKD
ROOT
HETATM    1  C   UNL     1     -13.182   8.722  72.074  1.00  0.00    -0.438 C  
HETATM    2  C   UNL     1     -13.161   9.918  71.130  1.00  0.00    -0.453 C  
ENDROOT
BRANCH   2   3
HETATM    3  C   UNL     1     -13.134  11.225  71.927  1.00  0.00    -0.405 C  
BRANCH   3   4
HETATM    4  N   UNL     1     -12.430  12.284  71.191  1.00  0.00    -0.303 NA 
HETATM    5  H   UNL     1     -12.316  12.043  70.206  1.00  0.00     0.000 HD 
BRANCH   4   6
HETATM    6  C   UNL     1     -13.107  13.602  71.356  1.00  0.00    -0.319 C  
HETATM    7  C   UNL     1     -12.955  14.178  72.769  1.00  0.00    -0.516 C  
BRANCH   6   8
HETATM    8  C   UNL     1     -12.417  14.601  70.424  1.00  0.00    -0.352 C  
HETATM    9  O   UNL     1     -13.223  15.653  70.142  1.00  0.00    -0.703 OA 
HETATM   10  H   UNL     1     -12.795  16.273  69.563  1.00  0.00     0.000 HD 
BRANCH   8  11
HETATM   11  N   UNL     1     -11.224  14.407  69.967  1.00  0.00    -0.435 NA 
HETATM   12  H   UNL     1     -10.449  14.202  70.598  1.00  0.00     0.000 HD 
BRANCH  11  13
HETATM   13  C   UNL     1     -11.022  14.487  68.575  1.00  0.00    -0.249 A  
HETATM   14  C   UNL     1     -10.920  13.342  67.793  1.00  0.00    -0.258 A  
HETATM   15  C   UNL     1     -10.629  17.083  68.384  1.00  0.00    -0.375 C  
HETATM   16  S   UNL     1     -10.520  13.739  66.171  1.00  0.00    -0.304 SA 
HETATM   17  C   UNL     1     -10.463  15.402  66.516  1.00  0.00    -0.294 A  
HETATM   18  C   UNL     1     -10.707  15.690  67.846  1.00  0.00    -0.294 A  
BRANCH  14  19
HETATM   19  C   UNL     1     -11.059  11.934  68.110  1.00  0.00    -0.242 C  
HETATM   20  O   UNL     1     -11.848  11.152  67.580  1.00  0.00    -0.612 OA 
BRANCH  19  21
HETATM   21  O   UNL     1     -10.226  11.570  69.134  1.00  0.00    -0.141 OA 
HETATM   22  C   UNL     1     -10.020  10.161  69.235  1.00  0.00    -0.219 C  
ENDBRANCH  19  21
ENDBRANCH  14  19
ENDBRANCH  11  13
ENDBRANCH   8  11
ENDBRANCH   6   8
ENDBRANCH   4   6
ENDBRANCH   3   4
ENDBRANCH   2   3
TORSDOF 8
ENDMDL
MODEL       47
REMARK 921   NORMALIZED FREE ENERGY PREDICTED BY IDOCK:   -4.97 KCAL/MOL
REMARK 922        TOTAL FREE ENERGY PREDICTED BY IDOCK:   -8.01 KCAL/MOL
REMARK 923 INTER-LIGAND FREE ENERGY PREDICTED BY IDOCK:   -6.86 KCAL/MOL
REMARK 924 INTRA-LIGAND FREE ENERGY PREDICTED BY IDOCK:   -1.15 KCAL/MOL
REMARK 927      BINDING AFFINITY PREDICTED BY RF-SCORE:    0.00 PKD
ROOT
HETATM    1  C   UNL     1      -9.277  17.476  66.576  1.00  0.00    -0.286 C  
HETATM    2  C   UNL     1      -9.131  15.991  66.884  1.00  0.00    -0.251 C  
ENDROOT
BRANCH   2   3
HETATM    3  C   UNL     1     -10.207  15.187  66.152  1.00  0.00    -0.295 C  
BRANCH   3   4
HETATM    4  N   UNL     1     -10.217  13.784  66.591  1.00  0.00    -0.271 NA 
HETATM    5  H   UNL     1      -9.567  13.630  67.363  1.00  0.00     0.000 HD 
BRANCH   4   6
HETATM    6  C   UNL     1     -11.595  13.334  66.938  1.00  0.00    -0.364 C  
HETATM    7  C   UNL     1     -12.257  12.521  65.820  1.00  0.00    -0.361 C  
BRANCH   6   8
HETATM    8  C   UNL     1     -11.488  12.385  68.134  1.00  0.00    -0.318 C  
HETATM    9  O   UNL     1     -12.018  11.170  67.852  1.00  0.00    -0.624 OA 
HETATM   10  H   UNL     1     -11.952  10.581  68.595  1.00  0.00     0.000 HD 
BRANCH   8  11
HETATM   11  N   UNL     1     -10.973  12.752  69.261  1.00  0.00    -0.443 NA 
HETATM   12  H   UNL     1      -9.971  12.662  69.432  1.00  0.00     0.000 HD 
BRANCH  11  13
HETATM   13  C   UNL     1     -11.831  13.280  70.246  1.00  0.00    -0.234 A  
HETATM   14  C   UNL     1     -12.552  12.451  71.097  1.00  0.00    -0.251 A  
HETATM   15  C   UNL     1     -11.712  15.816  69.549  1.00  0.00    -0.369 C  
HETATM   16  S   UNL     1     -13.625  13.362  72.081  1.00  0.00    -0.565 SA 
HETATM   17  C   UNL     1     -13.149  14.829  71.366  1.00  0.00    -0.354 A  
HETATM   18  C   UNL     1     -12.211  14.666  70.363  1.00  0.00    -0.391 A  
BRANCH  14  19
HETATM   19  C   UNL     1     -12.570  11.010  71.264  1.00  0.00    -0.412 C  
HETATM   20  O   UNL     1     -11.879  10.206  70.642  1.00  0.00    -0.293 OA 
BRANCH  19  21
HETATM   21  O   UNL     1     -13.511  10.629  72.184  1.00  0.00    -0.373 OA 
HETATM   22  C   UNL     1     -13.471   9.238  72.503  1.00  0.00    -0.404 C  
ENDBRANCH  19  21
ENDBRANCH  14  19
ENDBRANCH  11  13
ENDBRANCH   8  11
ENDBRANCH   6   8
ENDBRANCH   4   6
ENDBRANCH   3   4
ENDBRANCH   2   3
TORSDOF 8
ENDMDL
MODEL       48
REMARK 921   NORMALIZED FREE ENERGY PREDICTED BY IDOCK:   -4.97 KCAL/MOL
REMARK 922        TOTAL FREE ENERGY PREDICTED BY IDOCK:   -8.01 KCAL/MOL
REMARK 923 INTER-LIGAND FREE ENERGY PREDICTED BY IDOCK:   -6.88 KCAL/MOL
REMARK 924 INTRA-LIGAND FREE ENERGY PREDICTED BY IDOCK:   -1.12 KCAL/MOL
REMARK 927      BINDING AFFINITY PREDICTED BY RF-SCORE:    0.00 PKD
ROOT
HETATM    1  C   UNL     1     -11.008   6.195  69.846  1.00  0.00    -0.458 C  
HETATM    2  C   UNL     1     -12.129   6.717  70.737  1.00  0.00    -0.402 C  
ENDROOT
BRANCH   2   3
HETATM    3  C   UNL     1     -11.762   8.090  71.305  1.00  0.00    -0.282 C  
BRANCH   3   4
HETATM    4  N   UNL     1     -12.215   9.172  70.419  1.00  0.00    -0.458 NA 
HETATM    5  H   UNL     1     -13.043   9.638  70.791  1.00  0.00     0.000 HD 
BRANCH   4   6
HETATM    6  C   UNL     1     -11.118  10.144  70.144  1.00  0.00    -0.315 C  
HETATM    7  C   UNL     1      -9.728   9.578  70.455  1.00  0.00    -0.328 C  
BRANCH   6   8
HETATM    8  C   UNL     1     -11.121  10.439  68.643  1.00  0.00    -0.262 C  
HETATM    9  O   UNL     1     -10.056   9.874  68.024  1.00  0.00    -0.157 OA 
HETATM   10  H   UNL     1     -10.058  10.057  67.092  1.00  0.00     0.000 HD 
BRANCH   8  11
HETATM   11  N   UNL     1     -12.033  11.166  68.085  1.00  0.00    -0.704 NA 
HETATM   12  H   UNL     1     -12.939  10.769  67.838  1.00  0.00     0.000 HD 
BRANCH  11  13
HETATM   13  C   UNL     1     -11.742  12.520  67.829  1.00  0.00    -0.359 A  
HETATM   14  C   UNL     1     -11.192  12.926  66.618  1.00  0.00    -0.304 A  
HETATM   15  C   UNL     1     -12.222  13.485  70.231  1.00  0.00    -0.417 C  
HETATM   16  S   UNL     1     -10.802  14.597  66.648  1.00  0.00    -0.318 SA 
HETATM   17  C   UNL     1     -11.335  14.767  68.253  1.00  0.00    -0.301 A  
HETATM   18  C   UNL     1     -11.781  13.580  68.806  1.00  0.00    -0.373 A  
BRANCH  14  19
HETATM   19  C   UNL     1     -10.883  12.200  65.401  1.00  0.00    -0.294 C  
HETATM   20  O   UNL     1     -10.581  11.010  65.331  1.00  0.00    -0.258 OA 
BRANCH  19  21
HETATM   21  O   UNL     1     -10.912  13.026  64.309  1.00  0.00    -0.358 OA 
HETATM   22  C   UNL     1     -11.986  12.752  63.410  1.00  0.00    -0.535 C  
ENDBRANCH  19  21
ENDBRANCH  14  19
ENDBRANCH  11  13
ENDBRANCH   8  11
ENDBRANCH   6   8
ENDBRANCH   4   6
ENDBRANCH   3   4
ENDBRANCH   2   3
TORSDOF 8
ENDMDL
MODEL       49
REMARK 921   NORMALIZED FREE ENERGY PREDICTED BY IDOCK:   -4.96 KCAL/MOL
REMARK 922        TOTAL FREE ENERGY PREDICTED BY IDOCK:   -8.00 KCAL/MOL
REMARK 923 INTER-LIGAND FREE ENERGY PREDICTED BY IDOCK:   -6.89 KCAL/MOL
REMARK 924 INTRA-LIGAND FREE ENERGY PREDICTED BY IDOCK:   -1.10 KCAL/MOL
REMARK 927      BINDING AFFINITY PREDICTED BY RF-SCORE:    0.00 PKD
ROOT
HETATM    1  C   UNL     1      -8.805  19.892  66.194  1.00  0.00    -0.358 C  
HETATM    2  C   UNL     1      -9.741  20.025  67.389  1.00  0.00    -0.550 C  
ENDROOT
BRANCH   2   3
HETATM    3  C   UNL     1     -10.779  18.900  67.381  1.00  0.00    -0.444 C  
BRANCH   3   4
HETATM    4  N   UNL     1     -10.650  18.046  68.570  1.00  0.00    -0.338 NA 
HETATM    5  H   UNL     1     -11.482  18.098  69.159  1.00  0.00     0.000 HD 
BRANCH   4   6
HETATM    6  C   UNL     1     -10.331  16.639  68.196  1.00  0.00    -0.303 C  
HETATM    7  C   UNL     1      -8.872  16.263  68.478  1.00  0.00    -0.219 C  
BRANCH   6   8
HETATM    8  C   UNL     1     -11.176  15.718  69.080  1.00  0.00    -0.322 C  
HETATM    9  O   UNL     1     -10.695  15.669  70.346  1.00  0.00    -0.317 OA 
HETATM   10  H   UNL     1     -11.220  15.098  70.895  1.00  0.00     0.000 HD 
BRANCH   8  11
HETATM   11  N   UNL     1     -12.195  15.069  68.623  1.00  0.00    -0.593 NA 
HETATM   12  H   UNL     1     -13.135  15.463  68.679  1.00  0.00     0.000 HD 
BRANCH  11  13
HETATM   13  C   UNL     1     -11.975  13.803  68.045  1.00  0.00    -0.355 A  
HETATM   14  C   UNL     1     -11.901  12.655  68.825  1.00  0.00    -0.300 A  
HETATM   15  C   UNL     1     -11.495  14.580  65.575  1.00  0.00    -0.343 C  
HETATM   16  S   UNL     1     -11.471  11.291  67.873  1.00  0.00    -0.263 SA 
HETATM   17  C   UNL     1     -11.364  12.224  66.456  1.00  0.00    -0.351 A  
HETATM   18  C   UNL     1     -11.612  13.568  66.669  1.00  0.00    -0.396 A  
BRANCH  14  19
HETATM   19  C   UNL     1     -12.090  12.432  70.245  1.00  0.00    -0.297 C  
HETATM   20  O   UNL     1     -12.388  13.290  71.074  1.00  0.00    -0.362 OA 
BRANCH  19  21
HETATM   21  O   UNL     1     -11.841  11.128  70.581  1.00  0.00    -0.335 OA 
HETATM   22  C   UNL     1     -12.831  10.555  71.435  1.00  0.00    -0.447 C  
ENDBRANCH  19  21
ENDBRANCH  14  19
ENDBRANCH  11  13
ENDBRANCH   8  11
ENDBRANCH   6   8
ENDBRANCH   4   6
ENDBRANCH   3   4
ENDBRANCH   2   3
TORSDOF 8
ENDMDL
MODEL       50
REMARK 921   NORMALIZED FREE ENERGY PREDICTED BY IDOCK:   -4.95 KCAL/MOL
REMARK 922        TOTAL FREE ENERGY PREDICTED BY IDOCK:   -7.97 KCAL/MOL
REMARK 923 INTER-LIGAND FREE ENERGY PREDICTED BY IDOCK:   -6.81 KCAL/MOL
REMARK 924 INTRA-LIGAND FREE ENERGY PREDICTED BY IDOCK:   -1.16 KCAL/MOL
REMARK 927      BINDING AFFINITY PREDICTED BY RF-SCORE:    0.00 PKD
ROOT
HETATM    1  C   UNL     1      -8.736  10.357  63.961  1.00  0.00    -0.202 C  
HETATM    2  C   UNL     1      -9.661  11.131  63.029  1.00  0.00    -0.384 C  
ENDROOT
BRANCH   2   3
HETATM    3  C   UNL     1     -10.664  11.955  63.839  1.00  0.00    -0.395 C  
BRANCH   3   4
HETATM    4  N   UNL     1      -9.982  12.955  64.674  1.00  0.00    -0.563 NA 
HETATM    5  H   UNL     1      -9.095  13.244  64.261  1.00  0.00     0.000 HD 
BRANCH   4   6
HETATM    6  C   UNL     1     -10.865  14.124  64.951  1.00  0.00    -0.411 C  
HETATM    7  C   UNL     1     -12.077  14.191  64.016  1.00  0.00    -0.382 C  
BRANCH   6   8
HETATM    8  C   UNL     1     -11.435  13.955  66.361  1.00  0.00    -0.344 C  
HETATM    9  O   UNL     1     -12.736  14.329  66.417  1.00  0.00    -0.524 OA 
HETATM   10  H   UNL     1     -13.091  14.224  67.292  1.00  0.00     0.000 HD 
BRANCH   8  11
HETATM   11  N   UNL     1     -10.718  13.530  67.348  1.00  0.00    -0.261 NA 
HETATM   12  H   UNL     1      -9.733  13.783  67.426  1.00  0.00     0.000 HD 
BRANCH  11  13
HETATM   13  C   UNL     1     -11.333  12.708  68.313  1.00  0.00    -0.295 A  
HETATM   14  C   UNL     1     -11.844  13.237  69.493  1.00  0.00    -0.327 A  
HETATM   15  C   UNL     1     -10.779  10.367  67.244  1.00  0.00    -0.331 C  
HETATM   16  S   UNL     1     -12.387  11.990  70.542  1.00  0.00    -0.214 SA 
HETATM   17  C   UNL     1     -11.926  10.772  69.450  1.00  0.00    -0.281 A  
HETATM   18  C   UNL     1     -11.331  11.266  68.303  1.00  0.00    -0.359 A  
BRANCH  14  19
HETATM   19  C   UNL     1     -11.964  14.600  69.975  1.00  0.00    -0.320 C  
HETATM   20  O   UNL     1     -12.062  15.605  69.272  1.00  0.00    -0.347 OA 
BRANCH  19  21
HETATM   21  O   UNL     1     -11.899  14.651  71.342  1.00  0.00    -0.332 OA 
HETATM   22  C   UNL     1     -11.790  15.975  71.863  1.00  0.00    -0.534 C  
ENDBRANCH  19  21
ENDBRANCH  14  19
ENDBRANCH  11  13
ENDBRANCH   8  11
ENDBRANCH   6   8
ENDBRANCH   4   6
ENDBRANCH   3   4
ENDBRANCH   2   3
TORSDOF 8
ENDMDL
MODEL       51
REMARK 921   NORMALIZED FREE ENERGY PREDICTED BY IDOCK:   -4.92 KCAL/MOL
REMARK 922        TOTAL FREE ENERGY PREDICTED BY IDOCK:   -7.93 KCAL/MOL
REMARK 923 INTER-LIGAND FREE ENERGY PREDICTED BY IDOCK:   -6.96 KCAL/MOL
REMARK 924 INTRA-LIGAND FREE ENERGY PREDICTED BY IDOCK:   -0.98 KCAL/MOL
REMARK 927      BINDING AFFINITY PREDICTED BY RF-SCORE:    0.00 PKD
ROOT
HETATM    1  C   UNL     1      -9.320  20.040  67.056  1.00  0.00    -0.510 C  
HETATM    2  C   UNL     1     -10.528  19.407  67.735  1.00  0.00    -0.556 C  
ENDROOT
BRANCH   2   3
HETATM    3  C   UNL     1     -10.117  18.132  68.475  1.00  0.00    -0.400 C  
BRANCH   3   4
HETATM    4  N   UNL     1     -10.971  16.997  68.099  1.00  0.00    -0.333 NA 
HETATM    5  H   UNL     1     -11.321  17.093  67.145  1.00  0.00     0.000 HD 
BRANCH   4   6
HETATM    6  C   UNL     1     -10.266  15.698  68.295  1.00  0.00    -0.223 C  
HETATM    7  C   UNL     1      -9.429  15.661  69.578  1.00  0.00    -0.275 C  
BRANCH   6   8
HETATM    8  C   UNL     1     -11.330  14.610  68.460  1.00  0.00    -0.284 C  
HETATM    9  O   UNL     1     -11.277  14.049  69.692  1.00  0.00    -0.349 OA 
HETATM   10  H   UNL     1     -11.938  13.374  69.795  1.00  0.00     0.000 HD 
BRANCH   8  11
HETATM   11  N   UNL     1     -12.137  14.285  67.505  1.00  0.00    -0.570 NA 
HETATM   12  H   UNL     1     -13.123  14.543  67.542  1.00  0.00     0.000 HD 
BRANCH  11  13
HETATM   13  C   UNL     1     -11.619  13.563  66.411  1.00  0.00    -0.350 A  
HETATM   14  C   UNL     1     -11.329  12.207  66.511  1.00  0.00    -0.350 A  
HETATM   15  C   UNL     1     -11.216  15.580  64.768  1.00  0.00    -0.399 C  
HETATM   16  S   UNL     1     -10.569  11.633  65.083  1.00  0.00    -0.299 SA 
HETATM   17  C   UNL     1     -10.608  13.170  64.358  1.00  0.00    -0.421 A  
HETATM   18  C   UNL     1     -11.155  14.143  65.175  1.00  0.00    -0.349 A  
BRANCH  14  19
HETATM   19  C   UNL     1     -11.526  11.248  67.582  1.00  0.00    -0.264 C  
HETATM   20  O   UNL     1     -12.277  11.391  68.545  1.00  0.00    -0.557 OA 
BRANCH  19  21
HETATM   21  O   UNL     1     -10.717  10.155  67.424  1.00  0.00    -0.260 OA 
HETATM   22  C   UNL     1     -10.443   9.462  68.642  1.00  0.00    -0.209 C  
ENDBRANCH  19  21
ENDBRANCH  14  19
ENDBRANCH  11  13
ENDBRANCH   8  11
ENDBRANCH   6   8
ENDBRANCH   4   6
ENDBRANCH   3   4
ENDBRANCH   2   3
TORSDOF 8
ENDMDL
MODEL       52
REMARK 921   NORMALIZED FREE ENERGY PREDICTED BY IDOCK:   -4.92 KCAL/MOL
REMARK 922        TOTAL FREE ENERGY PREDICTED BY IDOCK:   -7.93 KCAL/MOL
REMARK 923 INTER-LIGAND FREE ENERGY PREDICTED BY IDOCK:   -6.70 KCAL/MOL
REMARK 924 INTRA-LIGAND FREE ENERGY PREDICTED BY IDOCK:   -1.23 KCAL/MOL
REMARK 927      BINDING AFFINITY PREDICTED BY RF-SCORE:    0.00 PKD
ROOT
HETATM    1  C   UNL     1     -12.277  13.501  63.418  1.00  0.00    -0.338 C  
HETATM    2  C   UNL     1     -12.188  11.981  63.479  1.00  0.00    -0.653 C  
ENDROOT
BRANCH   2   3
HETATM    3  C   UNL     1     -11.207  11.549  64.572  1.00  0.00    -0.231 C  
BRANCH   3   4
HETATM    4  N   UNL     1     -11.736  11.846  65.911  1.00  0.00    -0.437 NA 
HETATM    5  H   UNL     1     -12.236  11.047  66.302  1.00  0.00     0.000 HD 
BRANCH   4   6
HETATM    6  C   UNL     1     -10.658  12.318  66.827  1.00  0.00    -0.224 C  
HETATM    7  C   UNL     1      -9.301  11.667  66.538  1.00  0.00    -0.216 C  
BRANCH   6   8
HETATM    8  C   UNL     1     -10.461  13.816  66.583  1.00  0.00    -0.272 C  
HETATM    9  O   UNL     1      -9.227  14.080  66.090  1.00  0.00    -0.480 OA 
HETATM   10  H   UNL     1      -9.105  15.010  65.938  1.00  0.00     0.000 HD 
BRANCH   8  11
HETATM   11  N   UNL     1     -11.378  14.685  66.855  1.00  0.00    -0.347 NA 
HETATM   12  H   UNL     1     -12.260  14.693  66.342  1.00  0.00     0.000 HD 
BRANCH  11  13
HETATM   13  C   UNL     1     -11.128  15.621  67.879  1.00  0.00    -0.324 A  
HETATM   14  C   UNL     1     -10.553  16.856  67.604  1.00  0.00    -0.325 A  
HETATM   15  C   UNL     1     -11.723  14.105  69.948  1.00  0.00    -0.372 C  
HETATM   16  S   UNL     1     -10.224  17.717  69.053  1.00  0.00    -0.175 SA 
HETATM   17  C   UNL     1     -10.816  16.454  70.023  1.00  0.00    -0.305 A  
HETATM   18  C   UNL     1     -11.238  15.358  69.292  1.00  0.00    -0.300 A  
BRANCH  14  19
HETATM   19  C   UNL     1     -10.176  17.497  66.359  1.00  0.00    -0.354 C  
HETATM   20  O   UNL     1     -10.080  16.942  65.265  1.00  0.00    -0.577 OA 
BRANCH  19  21
HETATM   21  O   UNL     1      -9.877  18.820  66.552  1.00  0.00    -0.331 OA 
HETATM   22  C   UNL     1     -10.651  19.707  65.744  1.00  0.00    -0.438 C  
ENDBRANCH  19  21
ENDBRANCH  14  19
ENDBRANCH  11  13
ENDBRANCH   8  11
ENDBRANCH   6   8
ENDBRANCH   4   6
ENDBRANCH   3   4
ENDBRANCH   2   3
TORSDOF 8
ENDMDL
MODEL       53
REMARK 921   NORMALIZED FREE ENERGY PREDICTED BY IDOCK:   -4.89 KCAL/MOL
REMARK 922        TOTAL FREE ENERGY PREDICTED BY IDOCK:   -7.88 KCAL/MOL
REMARK 923 INTER-LIGAND FREE ENERGY PREDICTED BY IDOCK:   -6.94 KCAL/MOL
REMARK 924 INTRA-LIGAND FREE ENERGY PREDICTED BY IDOCK:   -0.94 KCAL/MOL
REMARK 927      BINDING AFFINITY PREDICTED BY RF-SCORE:    0.00 PKD
ROOT
HETATM    1  C   UNL     1     -10.829   6.606  73.232  1.00  0.00    -0.290 C  
HETATM    2  C   UNL     1     -11.829   6.349  72.112  1.00  0.00    -0.361 C  
ENDROOT
BRANCH   2   3
HETATM    3  C   UNL     1     -11.454   7.158  70.868  1.00  0.00    -0.297 C  
BRANCH   3   4
HETATM    4  N   UNL     1     -12.221   8.410  70.795  1.00  0.00    -0.496 NA 
HETATM    5  H   UNL     1     -13.031   8.389  71.416  1.00  0.00     0.000 HD 
BRANCH   4   6
HETATM    6  C   UNL     1     -11.356   9.593  71.064  1.00  0.00    -0.374 C  
HETATM    7  C   UNL     1      -9.870   9.315  70.814  1.00  0.00    -0.350 C  
BRANCH   6   8
HETATM    8  C   UNL     1     -11.746  10.692  70.074  1.00  0.00    -0.324 C  
HETATM    9  O   UNL     1     -13.028  10.552  69.658  1.00  0.00    -0.595 OA 
HETATM   10  H   UNL     1     -13.271  11.234  69.043  1.00  0.00     0.000 HD 
BRANCH   8  11
HETATM   11  N   UNL     1     -10.914  11.603  69.692  1.00  0.00    -0.466 NA 
HETATM   12  H   UNL     1     -10.121  11.867  70.278  1.00  0.00     0.000 HD 
BRANCH  11  13
HETATM   13  C   UNL     1     -11.128  12.223  68.444  1.00  0.00    -0.243 A  
HETATM   14  C   UNL     1     -11.699  13.487  68.353  1.00  0.00    -0.358 A  
HETATM   15  C   UNL     1     -10.494  10.196  66.887  1.00  0.00    -0.286 C  
HETATM   16  S   UNL     1     -11.982  13.918  66.716  1.00  0.00    -0.438 SA 
HETATM   17  C   UNL     1     -11.377  12.436  66.146  1.00  0.00    -0.352 A  
HETATM   18  C   UNL     1     -10.984  11.582  67.160  1.00  0.00    -0.338 A  
BRANCH  14  19
HETATM   19  C   UNL     1     -12.101  14.446  69.365  1.00  0.00    -0.297 C  
HETATM   20  O   UNL     1     -12.668  14.179  70.423  1.00  0.00    -0.342 OA 
BRANCH  19  21
HETATM   21  O   UNL     1     -11.819  15.728  68.973  1.00  0.00    -0.391 OA 
HETATM   22  C   UNL     1     -10.833  16.371  69.780  1.00  0.00    -0.343 C  
ENDBRANCH  19  21
ENDBRANCH  14  19
ENDBRANCH  11  13
ENDBRANCH   8  11
ENDBRANCH   6   8
ENDBRANCH   4   6
ENDBRANCH   3   4
ENDBRANCH   2   3
TORSDOF 8
ENDMDL
MODEL       54
REMARK 921   NORMALIZED FREE ENERGY PREDICTED BY IDOCK:   -4.87 KCAL/MOL
REMARK 922        TOTAL FREE ENERGY PREDICTED BY IDOCK:   -7.85 KCAL/MOL
REMARK 923 INTER-LIGAND FREE ENERGY PREDICTED BY IDOCK:   -6.48 KCAL/MOL
REMARK 924 INTRA-LIGAND FREE ENERGY PREDICTED BY IDOCK:   -1.38 KCAL/MOL
REMARK 927      BINDING AFFINITY PREDICTED BY RF-SCORE:    0.00 PKD
ROOT
HETATM    1  C   UNL     1     -10.191  20.185  68.098  1.00  0.00    -0.479 C  
HETATM    2  C   UNL     1     -10.057  20.040  66.587  1.00  0.00    -0.607 C  
ENDROOT
BRANCH   2   3
HETATM    3  C   UNL     1      -8.727  19.371  66.233  1.00  0.00    -0.346 C  
BRANCH   3   4
HETATM    4  N   UNL     1      -8.923  17.968  65.841  1.00  0.00    -0.486 NA 
HETATM    5  H   UNL     1      -8.729  17.826  64.849  1.00  0.00     0.000 HD 
BRANCH   4   6
HETATM    6  C   UNL     1      -8.116  17.048  66.693  1.00  0.00    -0.262 C  
HETATM    7  C   UNL     1      -6.801  17.675  67.169  1.00  0.00    -0.192 C  
BRANCH   6   8
HETATM    8  C   UNL     1      -8.922  16.759  67.961  1.00  0.00    -0.217 C  
HETATM    9  O   UNL     1      -8.118  16.654  69.046  1.00  0.00    -0.239 OA 
HETATM   10  H   UNL     1      -8.619  16.475  69.834  1.00  0.00     0.000 HD 
BRANCH   8  11
HETATM   11  N   UNL     1     -10.206  16.614  67.943  1.00  0.00    -0.274 NA 
HETATM   12  H   UNL     1     -10.821  17.414  67.794  1.00  0.00     0.000 HD 
BRANCH  11  13
HETATM   13  C   UNL     1     -10.734  15.322  68.134  1.00  0.00    -0.257 A  
HETATM   14  C   UNL     1     -11.082  14.515  67.056  1.00  0.00    -0.322 A  
HETATM   15  C   UNL     1     -11.025  15.401  70.750  1.00  0.00    -0.349 C  
HETATM   16  S   UNL     1     -11.840  13.069  67.588  1.00  0.00    -0.318 SA 
HETATM   17  C   UNL     1     -11.725  13.525  69.221  1.00  0.00    -0.330 A  
HETATM   18  C   UNL     1     -11.153  14.771  69.400  1.00  0.00    -0.302 A  
BRANCH  14  19
HETATM   19  C   UNL     1     -10.944  14.697  65.624  1.00  0.00    -0.335 C  
HETATM   20  O   UNL     1     -10.877  15.777  65.039  1.00  0.00    -0.419 OA 
BRANCH  19  21
HETATM   21  O   UNL     1     -10.949  13.495  64.968  1.00  0.00    -0.307 OA 
HETATM   22  C   UNL     1     -11.883  13.432  63.891  1.00  0.00    -0.439 C  
ENDBRANCH  19  21
ENDBRANCH  14  19
ENDBRANCH  11  13
ENDBRANCH   8  11
ENDBRANCH   6   8
ENDBRANCH   4   6
ENDBRANCH   3   4
ENDBRANCH   2   3
TORSDOF 8
ENDMDL
MODEL       55
REMARK 921   NORMALIZED FREE ENERGY PREDICTED BY IDOCK:   -4.87 KCAL/MOL
REMARK 922        TOTAL FREE ENERGY PREDICTED BY IDOCK:   -7.85 KCAL/MOL
REMARK 923 INTER-LIGAND FREE ENERGY PREDICTED BY IDOCK:   -6.76 KCAL/MOL
REMARK 924 INTRA-LIGAND FREE ENERGY PREDICTED BY IDOCK:   -1.10 KCAL/MOL
REMARK 927      BINDING AFFINITY PREDICTED BY RF-SCORE:    0.00 PKD
ROOT
HETATM    1  C   UNL     1     -13.432   9.837  72.137  1.00  0.00    -0.491 C  
HETATM    2  C   UNL     1     -13.073  11.218  71.601  1.00  0.00    -0.513 C  
ENDROOT
BRANCH   2   3
HETATM    3  C   UNL     1     -12.107  11.097  70.421  1.00  0.00    -0.385 C  
BRANCH   3   4
HETATM    4  N   UNL     1     -11.503  12.396  70.089  1.00  0.00    -0.520 NA 
HETATM    5  H   UNL     1     -10.959  12.765  70.870  1.00  0.00     0.000 HD 
BRANCH   4   6
HETATM    6  C   UNL     1     -10.688  12.314  68.844  1.00  0.00    -0.172 C  
HETATM    7  C   UNL     1     -10.033  10.942  68.649  1.00  0.00    -0.196 C  
BRANCH   6   8
HETATM    8  C   UNL     1     -11.632  12.497  67.654  1.00  0.00    -0.355 C  
HETATM    9  O   UNL     1     -11.710  11.371  66.905  1.00  0.00    -0.507 OA 
HETATM   10  H   UNL     1     -12.296  11.485  66.166  1.00  0.00     0.000 HD 
BRANCH   8  11
HETATM   11  N   UNL     1     -12.237  13.615  67.421  1.00  0.00    -0.374 NA 
HETATM   12  H   UNL     1     -13.194  13.770  67.741  1.00  0.00     0.000 HD 
BRANCH  11  13
HETATM   13  C   UNL     1     -11.541  14.614  66.712  1.00  0.00    -0.360 A  
HETATM   14  C   UNL     1     -10.928  15.674  67.371  1.00  0.00    -0.293 A  
HETATM   15  C   UNL     1     -12.188  13.883  64.267  1.00  0.00    -0.447 C  
HETATM   16  S   UNL     1     -10.296  16.812  66.252  1.00  0.00    -0.284 SA 
HETATM   17  C   UNL     1     -10.853  15.917  64.918  1.00  0.00    -0.400 A  
HETATM   18  C   UNL     1     -11.545  14.776  65.279  1.00  0.00    -0.338 A  
BRANCH  14  19
HETATM   19  C   UNL     1     -10.766  15.978  68.780  1.00  0.00    -0.282 C  
HETATM   20  O   UNL     1     -11.593  15.757  69.663  1.00  0.00    -0.318 OA 
BRANCH  19  21
HETATM   21  O   UNL     1      -9.572  16.607  69.018  1.00  0.00    -0.258 OA 
HETATM   22  C   UNL     1      -8.498  15.712  69.303  1.00  0.00    -0.265 C  
ENDBRANCH  19  21
ENDBRANCH  14  19
ENDBRANCH  11  13
ENDBRANCH   8  11
ENDBRANCH   6   8
ENDBRANCH   4   6
ENDBRANCH   3   4
ENDBRANCH   2   3
TORSDOF 8
ENDMDL
MODEL       56
REMARK 921   NORMALIZED FREE ENERGY PREDICTED BY IDOCK:   -4.86 KCAL/MOL
REMARK 922        TOTAL FREE ENERGY PREDICTED BY IDOCK:   -7.85 KCAL/MOL
REMARK 923 INTER-LIGAND FREE ENERGY PREDICTED BY IDOCK:   -6.90 KCAL/MOL
REMARK 924 INTRA-LIGAND FREE ENERGY PREDICTED BY IDOCK:   -0.95 KCAL/MOL
REMARK 927      BINDING AFFINITY PREDICTED BY RF-SCORE:    0.00 PKD
ROOT
HETATM    1  C   UNL     1     -14.384   7.264  71.466  1.00  0.00    -0.558 C  
HETATM    2  C   UNL     1     -14.012   8.642  72.000  1.00  0.00    -0.506 C  
ENDROOT
BRANCH   2   3
HETATM    3  C   UNL     1     -12.534   8.680  72.394  1.00  0.00    -0.362 C  
BRANCH   3   4
HETATM    4  N   UNL     1     -11.821   9.755  71.688  1.00  0.00    -0.390 NA 
HETATM    5  H   UNL     1     -11.131   9.380  71.036  1.00  0.00     0.000 HD 
BRANCH   4   6
HETATM    6  C   UNL     1     -12.770  10.681  71.008  1.00  0.00    -0.415 C  
HETATM    7  C   UNL     1     -13.075  11.935  71.834  1.00  0.00    -0.474 C  
BRANCH   6   8
HETATM    8  C   UNL     1     -12.099  11.180  69.726  1.00  0.00    -0.344 C  
HETATM    9  O   UNL     1     -11.360  12.292  69.955  1.00  0.00    -0.488 OA 
HETATM   10  H   UNL     1     -10.943  12.602  69.159  1.00  0.00     0.000 HD 
BRANCH   8  11
HETATM   11  N   UNL     1     -12.268  10.594  68.587  1.00  0.00    -0.814 NA 
HETATM   12  H   UNL     1     -13.116  10.061  68.393  1.00  0.00     0.000 HD 
BRANCH  11  13
HETATM   13  C   UNL     1     -11.250  10.710  67.620  1.00  0.00    -0.290 A  
HETATM   14  C   UNL     1     -10.208   9.792  67.553  1.00  0.00    -0.220 A  
HETATM   15  C   UNL     1     -11.917  13.057  66.631  1.00  0.00    -0.453 C  
HETATM   16  S   UNL     1      -9.040  10.271  66.388  1.00  0.00    -0.156 SA 
HETATM   17  C   UNL     1      -9.900  11.685  66.002  1.00  0.00    -0.230 A  
HETATM   18  C   UNL     1     -11.051  11.845  66.752  1.00  0.00    -0.359 A  
BRANCH  14  19
HETATM   19  C   UNL     1      -9.941   8.571  68.288  1.00  0.00    -0.184 C  
HETATM   20  O   UNL     1      -9.998   8.440  69.509  1.00  0.00    -0.182 OA 
BRANCH  19  21
HETATM   21  O   UNL     1      -9.554   7.561  67.448  1.00  0.00    -0.139 OA 
HETATM   22  C   UNL     1     -10.622   6.699  67.055  1.00  0.00    -0.333 C  
ENDBRANCH  19  21
ENDBRANCH  14  19
ENDBRANCH  11  13
ENDBRANCH   8  11
ENDBRANCH   6   8
ENDBRANCH   4   6
ENDBRANCH   3   4
ENDBRANCH   2   3
TORSDOF 8
ENDMDL
MODEL       57
REMARK 921   NORMALIZED FREE ENERGY PREDICTED BY IDOCK:   -4.86 KCAL/MOL
REMARK 922        TOTAL FREE ENERGY PREDICTED BY IDOCK:   -7.84 KCAL/MOL
REMARK 923 INTER-LIGAND FREE ENERGY PREDICTED BY IDOCK:   -6.91 KCAL/MOL
REMARK 924 INTRA-LIGAND FREE ENERGY PREDICTED BY IDOCK:   -0.92 KCAL/MOL
REMARK 927      BINDING AFFINITY PREDICTED BY RF-SCORE:    0.00 PKD
ROOT
HETATM    1  C   UNL     1     -12.636  11.770  63.357  1.00  0.00    -0.458 C  
HETATM    2  C   UNL     1     -11.115  11.739  63.267  1.00  0.00    -0.370 C  
ENDROOT
BRANCH   2   3
HETATM    3  C   UNL     1     -10.502  12.708  64.280  1.00  0.00    -0.392 C  
BRANCH   3   4
HETATM    4  N   UNL     1     -10.943  14.088  64.033  1.00  0.00    -0.494 NA 
HETATM    5  H   UNL     1     -11.493  14.157  63.176  1.00  0.00     0.000 HD 
BRANCH   4   6
HETATM    6  C   UNL     1     -11.684  14.639  65.204  1.00  0.00    -0.364 C  
HETATM    7  C   UNL     1     -11.410  13.868  66.500  1.00  0.00    -0.340 C  
BRANCH   6   8
HETATM    8  C   UNL     1     -11.175  16.061  65.451  1.00  0.00    -0.047 C  
HETATM    9  O   UNL     1     -11.248  16.815  64.327  1.00  0.00    -1.334 OA 
HETATM   10  H   UNL     1     -10.932  17.698  64.480  1.00  0.00     0.000 HD 
BRANCH   8  11
HETATM   11  N   UNL     1     -10.718  16.440  66.598  1.00  0.00    -0.233 NA 
HETATM   12  H   UNL     1     -11.317  16.444  67.425  1.00  0.00     0.000 HD 
BRANCH  11  13
HETATM   13  C   UNL     1      -9.372  16.848  66.678  1.00  0.00    -0.258 A  
HETATM   14  C   UNL     1      -9.006  18.175  66.484  1.00  0.00    -0.275 A  
HETATM   15  C   UNL     1      -8.255  14.473  66.884  1.00  0.00    -0.073 C  
HETATM   16  S   UNL     1      -7.298  18.349  66.485  1.00  0.00    -0.247 SA 
HETATM   17  C   UNL     1      -7.057  16.682  66.716  1.00  0.00    -0.236 A  
HETATM   18  C   UNL     1      -8.237  15.963  66.764  1.00  0.00    -0.307 A  
BRANCH  14  19
HETATM   19  C   UNL     1      -9.789  19.376  66.263  1.00  0.00    -0.403 C  
HETATM   20  O   UNL     1     -10.550  19.574  65.317  1.00  0.00    -0.391 OA 
BRANCH  19  21
HETATM   21  O   UNL     1      -9.537  20.317  67.226  1.00  0.00    -0.393 OA 
HETATM   22  C   UNL     1     -10.255  20.102  68.441  1.00  0.00    -0.300 C  
ENDBRANCH  19  21
ENDBRANCH  14  19
ENDBRANCH  11  13
ENDBRANCH   8  11
ENDBRANCH   6   8
ENDBRANCH   4   6
ENDBRANCH   3   4
ENDBRANCH   2   3
TORSDOF 8
ENDMDL
MODEL       58
REMARK 921   NORMALIZED FREE ENERGY PREDICTED BY IDOCK:   -4.84 KCAL/MOL
REMARK 922        TOTAL FREE ENERGY PREDICTED BY IDOCK:   -7.81 KCAL/MOL
REMARK 923 INTER-LIGAND FREE ENERGY PREDICTED BY IDOCK:   -7.01 KCAL/MOL
REMARK 924 INTRA-LIGAND FREE ENERGY PREDICTED BY IDOCK:   -0.80 KCAL/MOL
REMARK 927      BINDING AFFINITY PREDICTED BY RF-SCORE:    0.00 PKD
ROOT
HETATM    1  C   UNL     1     -12.425  12.005  63.828  1.00  0.00    -0.594 C  
HETATM    2  C   UNL     1     -12.234  13.512  63.951  1.00  0.00    -0.458 C  
ENDROOT
BRANCH   2   3
HETATM    3  C   UNL     1     -12.766  14.007  65.298  1.00  0.00    -0.439 C  
BRANCH   3   4
HETATM    4  N   UNL     1     -11.676  14.496  66.154  1.00  0.00    -0.367 NA 
HETATM    5  H   UNL     1     -11.859  15.443  66.488  1.00  0.00     0.000 HD 
BRANCH   4   6
HETATM    6  C   UNL     1     -11.411  13.559  67.283  1.00  0.00    -0.315 C  
HETATM    7  C   UNL     1      -9.980  13.010  67.280  1.00  0.00    -0.232 C  
BRANCH   6   8
HETATM    8  C   UNL     1     -11.551  14.348  68.587  1.00  0.00    -0.314 C  
HETATM    9  O   UNL     1     -12.227  15.507  68.395  1.00  0.00    -0.510 OA 
HETATM   10  H   UNL     1     -12.314  15.997  69.205  1.00  0.00     0.000 HD 
BRANCH   8  11
HETATM   11  N   UNL     1     -11.046  13.932  69.702  1.00  0.00    -0.443 NA 
HETATM   12  H   UNL     1     -10.041  13.976  69.870  1.00  0.00     0.000 HD 
BRANCH  11  13
HETATM   13  C   UNL     1     -11.921  13.418  70.679  1.00  0.00    -0.209 A  
HETATM   14  C   UNL     1     -12.237  12.064  70.726  1.00  0.00    -0.286 A  
HETATM   15  C   UNL     1     -12.715  15.696  71.733  1.00  0.00    -0.519 C  
HETATM   16  S   UNL     1     -13.440  11.754  71.912  1.00  0.00     0.026 SA 
HETATM   17  C   UNL     1     -13.550  13.397  72.334  1.00  0.00    -0.606 A  
HETATM   18  C   UNL     1     -12.721  14.209  71.581  1.00  0.00    -0.430 A  
BRANCH  14  19
HETATM   19  C   UNL     1     -11.764  10.929  69.957  1.00  0.00    -0.345 C  
HETATM   20  O   UNL     1     -12.127  10.629  68.821  1.00  0.00    -0.389 OA 
BRANCH  19  21
HETATM   21  O   UNL     1     -10.879  10.175  70.680  1.00  0.00    -0.308 OA 
HETATM   22  C   UNL     1     -11.290   8.819  70.857  1.00  0.00    -0.275 C  
ENDBRANCH  19  21
ENDBRANCH  14  19
ENDBRANCH  11  13
ENDBRANCH   8  11
ENDBRANCH   6   8
ENDBRANCH   4   6
ENDBRANCH   3   4
ENDBRANCH   2   3
TORSDOF 8
ENDMDL
MODEL       59
REMARK 921   NORMALIZED FREE ENERGY PREDICTED BY IDOCK:   -4.82 KCAL/MOL
REMARK 922        TOTAL FREE ENERGY PREDICTED BY IDOCK:   -7.79 KCAL/MOL
REMARK 923 INTER-LIGAND FREE ENERGY PREDICTED BY IDOCK:   -6.93 KCAL/MOL
REMARK 924 INTRA-LIGAND FREE ENERGY PREDICTED BY IDOCK:   -0.86 KCAL/MOL
REMARK 927      BINDING AFFINITY PREDICTED BY RF-SCORE:    0.00 PKD
ROOT
HETATM    1  C   UNL     1     -11.275   6.084  71.998  1.00  0.00    -0.341 C  
HETATM    2  C   UNL     1     -12.084   7.235  71.413  1.00  0.00    -0.370 C  
ENDROOT
BRANCH   2   3
HETATM    3  C   UNL     1     -11.843   8.516  72.214  1.00  0.00    -0.383 C  
BRANCH   3   4
HETATM    4  N   UNL     1     -11.353   9.601  71.351  1.00  0.00    -0.379 NA 
HETATM    5  H   UNL     1     -10.718   9.250  70.634  1.00  0.00     0.000 HD 
BRANCH   4   6
HETATM    6  C   UNL     1     -12.482  10.369  70.752  1.00  0.00    -0.368 C  
HETATM    7  C   UNL     1     -13.104  11.374  71.728  1.00  0.00    -0.523 C  
BRANCH   6   8
HETATM    8  C   UNL     1     -11.919  11.203  69.598  1.00  0.00    -0.359 C  
HETATM    9  O   UNL     1     -12.398  10.781  68.403  1.00  0.00    -0.813 OA 
HETATM   10  H   UNL     1     -12.048  11.298  67.687  1.00  0.00     0.000 HD 
BRANCH   8  11
HETATM   11  N   UNL     1     -11.075  12.162  69.789  1.00  0.00    -0.477 NA 
HETATM   12  H   UNL     1     -10.315  12.064  70.464  1.00  0.00     0.000 HD 
BRANCH  11  13
HETATM   13  C   UNL     1     -11.230  13.345  69.041  1.00  0.00    -0.275 A  
HETATM   14  C   UNL     1     -10.588  13.518  67.819  1.00  0.00    -0.246 A  
HETATM   15  C   UNL     1     -12.576  14.754  70.811  1.00  0.00    -0.412 C  
HETATM   16  S   UNL     1     -10.833  15.107  67.215  1.00  0.00    -0.321 SA 
HETATM   17  C   UNL     1     -11.756  15.557  68.569  1.00  0.00    -0.337 A  
HETATM   18  C   UNL     1     -11.872  14.549  69.509  1.00  0.00    -0.374 A  
BRANCH  14  19
HETATM   19  C   UNL     1      -9.761  12.632  67.023  1.00  0.00    -0.225 C  
HETATM   20  O   UNL     1      -8.878  11.893  67.453  1.00  0.00    -0.160 OA 
BRANCH  19  21
HETATM   21  O   UNL     1     -10.047  12.753  65.689  1.00  0.00    -0.274 OA 
HETATM   22  C   UNL     1     -10.621  11.578  65.115  1.00  0.00    -0.293 C  
ENDBRANCH  19  21
ENDBRANCH  14  19
ENDBRANCH  11  13
ENDBRANCH   8  11
ENDBRANCH   6   8
ENDBRANCH   4   6
ENDBRANCH   3   4
ENDBRANCH   2   3
TORSDOF 8
ENDMDL
MODEL       60
REMARK 921   NORMALIZED FREE ENERGY PREDICTED BY IDOCK:   -4.82 KCAL/MOL
REMARK 922        TOTAL FREE ENERGY PREDICTED BY IDOCK:   -7.78 KCAL/MOL
REMARK 923 INTER-LIGAND FREE ENERGY PREDICTED BY IDOCK:   -6.88 KCAL/MOL
REMARK 924 INTRA-LIGAND FREE ENERGY PREDICTED BY IDOCK:   -0.89 KCAL/MOL
REMARK 927      BINDING AFFINITY PREDICTED BY RF-SCORE:    0.00 PKD
ROOT
HETATM    1  C   UNL     1     -10.643   4.967  66.300  1.00  0.00    -0.307 C  
HETATM    2  C   UNL     1      -9.914   5.372  67.576  1.00  0.00    -0.198 C  
ENDROOT
BRANCH   2   3
HETATM    3  C   UNL     1     -10.726   6.417  68.344  1.00  0.00    -0.286 C  
BRANCH   3   4
HETATM    4  N   UNL     1     -11.127   7.529  67.469  1.00  0.00    -0.532 NA 
HETATM    5  H   UNL     1     -12.043   7.896  67.729  1.00  0.00     0.000 HD 
BRANCH   4   6
HETATM    6  C   UNL     1     -10.093   8.603  67.448  1.00  0.00    -0.229 C  
HETATM    7  C   UNL     1      -9.968   9.284  66.081  1.00  0.00    -0.348 C  
BRANCH   6   8
HETATM    8  C   UNL     1     -10.538   9.698  68.420  1.00  0.00    -0.225 C  
HETATM    9  O   UNL     1      -9.511  10.116  69.199  1.00  0.00    -0.183 OA 
HETATM   10  H   UNL     1      -9.788  10.796  69.802  1.00  0.00     0.000 HD 
BRANCH   8  11
HETATM   11  N   UNL     1     -11.758  10.120  68.470  1.00  0.00    -0.645 NA 
HETATM   12  H   UNL     1     -12.515   9.584  68.045  1.00  0.00     0.000 HD 
BRANCH  11  13
HETATM   13  C   UNL     1     -12.016  11.339  69.129  1.00  0.00    -0.336 A  
HETATM   14  C   UNL     1     -11.758  12.560  68.517  1.00  0.00    -0.324 A  
HETATM   15  C   UNL     1     -12.624  10.378  71.504  1.00  0.00    -0.544 C  
HETATM   16  S   UNL     1     -12.018  13.861  69.607  1.00  0.00    -0.352 SA 
HETATM   17  C   UNL     1     -12.443  12.810  70.874  1.00  0.00    -0.283 A  
HETATM   18  C   UNL     1     -12.368  11.475  70.521  1.00  0.00    -0.432 A  
BRANCH  14  19
HETATM   19  C   UNL     1     -11.299  12.901  67.184  1.00  0.00    -0.306 C  
HETATM   20  O   UNL     1     -10.312  13.584  66.916  1.00  0.00    -0.260 OA 
BRANCH  19  21
HETATM   21  O   UNL     1     -12.146  12.407  66.227  1.00  0.00    -0.612 OA 
HETATM   22  C   UNL     1     -12.531  13.371  65.248  1.00  0.00    -0.483 C  
ENDBRANCH  19  21
ENDBRANCH  14  19
ENDBRANCH  11  13
ENDBRANCH   8  11
ENDBRANCH   6   8
ENDBRANCH   4   6
ENDBRANCH   3   4
ENDBRANCH   2   3
TORSDOF 8
ENDMDL
MODEL       61
REMARK 921   NORMALIZED FREE ENERGY PREDICTED BY IDOCK:   -4.81 KCAL/MOL
REMARK 922        TOTAL FREE ENERGY PREDICTED BY IDOCK:   -7.77 KCAL/MOL
REMARK 923 INTER-LIGAND FREE ENERGY PREDICTED BY IDOCK:   -6.65 KCAL/MOL
REMARK 924 INTRA-LIGAND FREE ENERGY PREDICTED BY IDOCK:   -1.12 KCAL/MOL
REMARK 927      BINDING AFFINITY PREDICTED BY RF-SCORE:    0.00 PKD
ROOT
HETATM    1  C   UNL     1     -13.499  15.321  71.301  1.00  0.00    -0.591 C  
HETATM    2  C   UNL     1     -12.744  14.014  71.510  1.00  0.00    -0.443 C  
ENDROOT
BRANCH   2   3
HETATM    3  C   UNL     1     -12.228  13.477  70.173  1.00  0.00    -0.330 C  
BRANCH   3   4
HETATM    4  N   UNL     1     -12.523  14.409  69.075  1.00  0.00    -0.552 NA 
HETATM    5  H   UNL     1     -12.646  15.362  69.417  1.00  0.00     0.000 HD 
BRANCH   4   6
HETATM    6  C   UNL     1     -11.481  14.340  68.010  1.00  0.00    -0.314 C  
HETATM    7  C   UNL     1     -12.058  13.998  66.632  1.00  0.00    -0.487 C  
BRANCH   6   8
HETATM    8  C   UNL     1     -10.865  15.734  67.869  1.00  0.00    -0.314 C  
HETATM    9  O   UNL     1     -10.789  16.113  66.571  1.00  0.00    -0.262 OA 
HETATM   10  H   UNL     1     -10.406  16.978  66.483  1.00  0.00     0.000 HD 
BRANCH   8  11
HETATM   11  N   UNL     1     -10.458  16.414  68.890  1.00  0.00    -0.264 NA 
HETATM   12  H   UNL     1     -11.012  16.454  69.746  1.00  0.00     0.000 HD 
BRANCH  11  13
HETATM   13  C   UNL     1      -9.231  17.098  68.790  1.00  0.00    -0.249 A  
HETATM   14  C   UNL     1      -9.177  18.438  68.422  1.00  0.00    -0.322 A  
HETATM   15  C   UNL     1      -7.613  15.048  69.125  1.00  0.00    -0.176 C  
HETATM   16  S   UNL     1      -7.552  18.959  68.230  1.00  0.00    -0.298 SA 
HETATM   17  C   UNL     1      -6.938  17.419  68.608  1.00  0.00    -0.226 A  
HETATM   18  C   UNL     1      -7.927  16.483  68.851  1.00  0.00    -0.239 A  
BRANCH  14  19
HETATM   19  C   UNL     1     -10.216  19.414  68.158  1.00  0.00    -0.431 C  
HETATM   20  O   UNL     1     -10.429  20.433  68.813  1.00  0.00    -0.230 OA 
BRANCH  19  21
HETATM   21  O   UNL     1     -10.995  19.036  67.096  1.00  0.00    -0.433 OA 
HETATM   22  C   UNL     1     -10.529  19.527  65.839  1.00  0.00    -0.491 C  
ENDBRANCH  19  21
ENDBRANCH  14  19
ENDBRANCH  11  13
ENDBRANCH   8  11
ENDBRANCH   6   8
ENDBRANCH   4   6
ENDBRANCH   3   4
ENDBRANCH   2   3
TORSDOF 8
ENDMDL
MODEL       62
REMARK 921   NORMALIZED FREE ENERGY PREDICTED BY IDOCK:   -4.81 KCAL/MOL
REMARK 922        TOTAL FREE ENERGY PREDICTED BY IDOCK:   -7.77 KCAL/MOL
REMARK 923 INTER-LIGAND FREE ENERGY PREDICTED BY IDOCK:   -7.06 KCAL/MOL
REMARK 924 INTRA-LIGAND FREE ENERGY PREDICTED BY IDOCK:   -0.71 KCAL/MOL
REMARK 927      BINDING AFFINITY PREDICTED BY RF-SCORE:    0.00 PKD
ROOT
HETATM    1  C   UNL     1     -13.240   9.959  72.049  1.00  0.00    -0.555 C  
HETATM    2  C   UNL     1     -12.439  10.731  71.008  1.00  0.00    -0.522 C  
ENDROOT
BRANCH   2   3
HETATM    3  C   UNL     1     -12.699  12.232  71.141  1.00  0.00    -0.243 C  
BRANCH   3   4
HETATM    4  N   UNL     1     -11.642  13.017  70.488  1.00  0.00    -0.457 NA 
HETATM    5  H   UNL     1     -10.722  12.600  70.634  1.00  0.00     0.000 HD 
BRANCH   4   6
HETATM    6  C   UNL     1     -11.929  13.214  69.038  1.00  0.00    -0.285 C  
HETATM    7  C   UNL     1     -11.500  14.594  68.527  1.00  0.00    -0.327 C  
BRANCH   6   8
HETATM    8  C   UNL     1     -11.092  12.201  68.254  1.00  0.00    -0.243 C  
HETATM    9  O   UNL     1      -9.794  12.224  68.644  1.00  0.00    -0.336 OA 
HETATM   10  H   UNL     1      -9.274  11.595  68.158  1.00  0.00     0.000 HD 
BRANCH   8  11
HETATM   11  N   UNL     1     -11.599  11.457  67.328  1.00  0.00    -0.560 NA 
HETATM   12  H   UNL     1     -12.418  10.877  67.512  1.00  0.00     0.000 HD 
BRANCH  11  13
HETATM   13  C   UNL     1     -10.993  11.470  66.056  1.00  0.00    -0.259 A  
HETATM   14  C   UNL     1     -11.231  12.499  65.151  1.00  0.00    -0.304 A  
HETATM   15  C   UNL     1      -9.891   9.080  66.124  1.00  0.00    -0.349 C  
HETATM   16  S   UNL     1     -10.490  12.171  63.638  1.00  0.00    -0.464 SA 
HETATM   17  C   UNL     1      -9.885  10.676  64.176  1.00  0.00    -0.335 A  
HETATM   18  C   UNL     1     -10.249  10.378  65.477  1.00  0.00    -0.316 A  
BRANCH  14  19
HETATM   19  C   UNL     1     -11.989  13.730  65.259  1.00  0.00    -0.374 C  
HETATM   20  O   UNL     1     -13.185  13.817  65.533  1.00  0.00    -0.662 OA 
BRANCH  19  21
HETATM   21  O   UNL     1     -11.213  14.818  64.960  1.00  0.00    -0.356 OA 
HETATM   22  C   UNL     1     -11.898  15.825  64.214  1.00  0.00    -0.118 C  
ENDBRANCH  19  21
ENDBRANCH  14  19
ENDBRANCH  11  13
ENDBRANCH   8  11
ENDBRANCH   6   8
ENDBRANCH   4   6
ENDBRANCH   3   4
ENDBRANCH   2   3
TORSDOF 8
ENDMDL
MODEL       63
REMARK 921   NORMALIZED FREE ENERGY PREDICTED BY IDOCK:   -4.80 KCAL/MOL
REMARK 922        TOTAL FREE ENERGY PREDICTED BY IDOCK:   -7.75 KCAL/MOL
REMARK 923 INTER-LIGAND FREE ENERGY PREDICTED BY IDOCK:   -6.59 KCAL/MOL
REMARK 924 INTRA-LIGAND FREE ENERGY PREDICTED BY IDOCK:   -1.16 KCAL/MOL
REMARK 927      BINDING AFFINITY PREDICTED BY RF-SCORE:    0.00 PKD
ROOT
HETATM    1  C   UNL     1     -10.969  14.690  64.846  1.00  0.00    -0.419 C  
HETATM    2  C   UNL     1     -12.153  13.740  64.980  1.00  0.00    -0.424 C  
ENDROOT
BRANCH   2   3
HETATM    3  C   UNL     1     -11.674  12.347  65.396  1.00  0.00    -0.402 C  
BRANCH   3   4
HETATM    4  N   UNL     1     -12.027  12.056  66.792  1.00  0.00    -0.610 NA 
HETATM    5  H   UNL     1     -12.729  11.318  66.854  1.00  0.00     0.000 HD 
BRANCH   4   6
HETATM    6  C   UNL     1     -10.818  11.730  67.602  1.00  0.00    -0.217 C  
HETATM    7  C   UNL     1     -10.209  12.958  68.287  1.00  0.00    -0.245 C  
BRANCH   6   8
HETATM    8  C   UNL     1     -11.253  10.795  68.733  1.00  0.00    -0.272 C  
HETATM    9  O   UNL     1     -12.570  10.937  69.015  1.00  0.00    -0.683 OA 
HETATM   10  H   UNL     1     -12.840  10.357  69.718  1.00  0.00     0.000 HD 
BRANCH   8  11
HETATM   11  N   UNL     1     -10.423  10.005  69.331  1.00  0.00    -0.216 NA 
HETATM   12  H   UNL     1      -9.575  10.369  69.766  1.00  0.00     0.000 HD 
BRANCH  11  13
HETATM   13  C   UNL     1     -10.721   8.629  69.368  1.00  0.00    -0.158 A  
HETATM   14  C   UNL     1     -11.173   8.017  70.533  1.00  0.00    -0.250 A  
HETATM   15  C   UNL     1      -9.837   7.973  66.977  1.00  0.00    -0.295 C  
HETATM   16  S   UNL     1     -11.302   6.318  70.325  1.00  0.00    -0.351 SA 
HETATM   17  C   UNL     1     -10.744   6.399  68.722  1.00  0.00    -0.287 A  
HETATM   18  C   UNL     1     -10.421   7.683  68.322  1.00  0.00    -0.219 A  
BRANCH  14  19
HETATM   19  C   UNL     1     -11.510   8.548  71.840  1.00  0.00    -0.335 C  
HETATM   20  O   UNL     1     -11.030   8.179  72.911  1.00  0.00    -0.364 OA 
BRANCH  19  21
HETATM   21  O   UNL     1     -12.491   9.499  71.752  1.00  0.00    -0.356 OA 
HETATM   22  C   UNL     1     -13.761   9.060  72.234  1.00  0.00    -0.492 C  
ENDBRANCH  19  21
ENDBRANCH  14  19
ENDBRANCH  11  13
ENDBRANCH   8  11
ENDBRANCH   6   8
ENDBRANCH   4   6
ENDBRANCH   3   4
ENDBRANCH   2   3
TORSDOF 8
ENDMDL
MODEL       64
REMARK 921   NORMALIZED FREE ENERGY PREDICTED BY IDOCK:   -4.78 KCAL/MOL
REMARK 922        TOTAL FREE ENERGY PREDICTED BY IDOCK:   -7.73 KCAL/MOL
REMARK 923 INTER-LIGAND FREE ENERGY PREDICTED BY IDOCK:   -6.80 KCAL/MOL
REMARK 924 INTRA-LIGAND FREE ENERGY PREDICTED BY IDOCK:   -0.93 KCAL/MOL
REMARK 927      BINDING AFFINITY PREDICTED BY RF-SCORE:    0.00 PKD
ROOT
HETATM    1  C   UNL     1     -14.138  15.461  72.131  1.00  0.00    -0.651 C  
HETATM    2  C   UNL     1     -13.066  15.185  71.083  1.00  0.00    -0.515 C  
ENDROOT
BRANCH   2   3
HETATM    3  C   UNL     1     -12.429  13.815  71.322  1.00  0.00    -0.345 C  
BRANCH   3   4
HETATM    4  N   UNL     1     -11.416  13.512  70.301  1.00  0.00    -0.511 NA 
HETATM    5  H   UNL     1     -10.664  12.935  70.679  1.00  0.00     0.000 HD 
BRANCH   4   6
HETATM    6  C   UNL     1     -12.032  12.887  69.095  1.00  0.00    -0.259 C  
HETATM    7  C   UNL     1     -11.568  13.533  67.785  1.00  0.00    -0.374 C  
BRANCH   6   8
HETATM    8  C   UNL     1     -11.560  11.432  69.032  1.00  0.00    -0.317 C  
HETATM    9  O   UNL     1     -11.995  10.819  67.904  1.00  0.00    -0.753 OA 
HETATM   10  H   UNL     1     -11.702   9.916  67.865  1.00  0.00     0.000 HD 
BRANCH   8  11
HETATM   11  N   UNL     1     -10.858  10.894  69.974  1.00  0.00    -0.465 NA 
HETATM   12  H   UNL     1     -10.046  11.375  70.362  1.00  0.00     0.000 HD 
BRANCH  11  13
HETATM   13  C   UNL     1     -11.244   9.625  70.450  1.00  0.00    -0.283 A  
HETATM   14  C   UNL     1     -10.662   8.461  69.961  1.00  0.00    -0.236 A  
HETATM   15  C   UNL     1     -13.282  10.371  71.941  1.00  0.00    -0.535 C  
HETATM   16  S   UNL     1     -11.434   7.070  70.606  1.00  0.00    -0.332 SA 
HETATM   17  C   UNL     1     -12.535   8.006  71.500  1.00  0.00    -0.310 A  
HETATM   18  C   UNL     1     -12.371   9.366  71.311  1.00  0.00    -0.422 A  
BRANCH  14  19
HETATM   19  C   UNL     1      -9.582   8.237  69.019  1.00  0.00    -0.156 C  
HETATM   20  O   UNL     1      -9.604   7.451  68.074  1.00  0.00    -0.140 OA 
BRANCH  19  21
HETATM   21  O   UNL     1      -8.480   8.983  69.341  1.00  0.00    -0.112 OA 
HETATM   22  C   UNL     1      -7.821   9.553  68.210  1.00  0.00    -0.086 C  
ENDBRANCH  19  21
ENDBRANCH  14  19
ENDBRANCH  11  13
ENDBRANCH   8  11
ENDBRANCH   6   8
ENDBRANCH   4   6
ENDBRANCH   3   4
ENDBRANCH   2   3
TORSDOF 8
ENDMDL
MODEL       65
REMARK 921   NORMALIZED FREE ENERGY PREDICTED BY IDOCK:   -4.77 KCAL/MOL
REMARK 922        TOTAL FREE ENERGY PREDICTED BY IDOCK:   -7.71 KCAL/MOL
REMARK 923 INTER-LIGAND FREE ENERGY PREDICTED BY IDOCK:   -6.58 KCAL/MOL
REMARK 924 INTRA-LIGAND FREE ENERGY PREDICTED BY IDOCK:   -1.13 KCAL/MOL
REMARK 927      BINDING AFFINITY PREDICTED BY RF-SCORE:    0.00 PKD
ROOT
HETATM    1  C   UNL     1      -8.928  15.602  66.255  1.00  0.00    -0.377 C  
HETATM    2  C   UNL     1      -9.908  16.494  67.008  1.00  0.00    -0.259 C  
ENDROOT
BRANCH   2   3
HETATM    3  C   UNL     1     -10.921  15.643  67.777  1.00  0.00    -0.316 C  
BRANCH   3   4
HETATM    4  N   UNL     1     -10.543  14.223  67.764  1.00  0.00    -0.251 NA 
HETATM    5  H   UNL     1      -9.938  13.990  68.552  1.00  0.00     0.000 HD 
BRANCH   4   6
HETATM    6  C   UNL     1     -11.746  13.342  67.718  1.00  0.00    -0.358 C  
HETATM    7  C   UNL     1     -11.757  12.411  66.500  1.00  0.00    -0.443 C  
BRANCH   6   8
HETATM    8  C   UNL     1     -11.699  12.425  68.942  1.00  0.00    -0.324 C  
HETATM    9  O   UNL     1     -11.352  13.108  70.060  1.00  0.00    -0.503 OA 
HETATM   10  H   UNL     1     -11.323  12.539  70.820  1.00  0.00     0.000 HD 
BRANCH   8  11
HETATM   11  N   UNL     1     -11.944  11.159  68.864  1.00  0.00    -0.493 NA 
HETATM   12  H   UNL     1     -12.707  10.807  68.285  1.00  0.00     0.000 HD 
BRANCH  11  13
HETATM   13  C   UNL     1     -11.128  10.276  69.600  1.00  0.00    -0.274 A  
HETATM   14  C   UNL     1     -11.453   9.905  70.900  1.00  0.00    -0.376 A  
HETATM   15  C   UNL     1      -9.110  10.113  67.917  1.00  0.00    -0.133 C  
HETATM   16  S   UNL     1     -10.205   8.953  71.598  1.00  0.00    -0.348 SA 
HETATM   17  C   UNL     1      -9.245   9.057  70.199  1.00  0.00    -0.192 A  
HETATM   18  C   UNL     1      -9.817   9.826  69.202  1.00  0.00    -0.192 A  
BRANCH  14  19
HETATM   19  C   UNL     1     -12.601  10.198  71.735  1.00  0.00    -0.403 C  
HETATM   20  O   UNL     1     -13.153  11.292  71.841  1.00  0.00    -0.493 OA 
BRANCH  19  21
HETATM   21  O   UNL     1     -12.983   9.099  72.457  1.00  0.00    -0.407 OA 
HETATM   22  C   UNL     1     -14.108   8.412  71.908  1.00  0.00    -0.442 C  
ENDBRANCH  19  21
ENDBRANCH  14  19
ENDBRANCH  11  13
ENDBRANCH   8  11
ENDBRANCH   6   8
ENDBRANCH   4   6
ENDBRANCH   3   4
ENDBRANCH   2   3
TORSDOF 8
ENDMDL
MODEL       66
REMARK 921   NORMALIZED FREE ENERGY PREDICTED BY IDOCK:   -4.76 KCAL/MOL
REMARK 922        TOTAL FREE ENERGY PREDICTED BY IDOCK:   -7.70 KCAL/MOL
REMARK 923 INTER-LIGAND FREE ENERGY PREDICTED BY IDOCK:   -6.53 KCAL/MOL
REMARK 924 INTRA-LIGAND FREE ENERGY PREDICTED BY IDOCK:   -1.17 KCAL/MOL
REMARK 927      BINDING AFFINITY PREDICTED BY RF-SCORE:    0.00 PKD
ROOT
HETATM    1  C   UNL     1     -12.082   9.174  71.776  1.00  0.00    -0.446 C  
HETATM    2  C   UNL     1     -10.712   8.534  71.966  1.00  0.00    -0.410 C  
ENDROOT
BRANCH   2   3
HETATM    3  C   UNL     1      -9.677   9.218  71.071  1.00  0.00    -0.271 C  
BRANCH   3   4
HETATM    4  N   UNL     1     -10.311  10.185  70.164  1.00  0.00    -0.384 NA 
HETATM    5  H   UNL     1     -10.114  11.146  70.445  1.00  0.00     0.000 HD 
BRANCH   4   6
HETATM    6  C   UNL     1      -9.918   9.939  68.746  1.00  0.00    -0.173 C  
HETATM    7  C   UNL     1     -10.433   8.600  68.208  1.00  0.00    -0.234 C  
BRANCH   6   8
HETATM    8  C   UNL     1     -10.580  11.016  67.885  1.00  0.00    -0.205 C  
HETATM    9  O   UNL     1     -11.928  11.004  68.025  1.00  0.00    -0.695 OA 
HETATM   10  H   UNL     1     -12.339  11.673  67.490  1.00  0.00     0.000 HD 
BRANCH   8  11
HETATM   11  N   UNL     1      -9.898  11.799  67.115  1.00  0.00    -0.192 NA 
HETATM   12  H   UNL     1      -9.111  12.336  67.480  1.00  0.00     0.000 HD 
BRANCH  11  13
HETATM   13  C   UNL     1     -10.270  11.891  65.759  1.00  0.00    -0.242 A  
HETATM   14  C   UNL     1     -11.115  12.898  65.307  1.00  0.00    -0.284 A  
HETATM   15  C   UNL     1      -9.217   9.631  64.912  1.00  0.00    -0.306 C  
HETATM   16  S   UNL     1     -11.516  12.668  63.654  1.00  0.00    -0.496 SA 
HETATM   17  C   UNL     1     -10.599  11.241  63.554  1.00  0.00    -0.369 A  
HETATM   18  C   UNL     1     -10.005  10.891  64.754  1.00  0.00    -0.366 A  
BRANCH  14  19
HETATM   19  C   UNL     1     -11.708  14.040  65.975  1.00  0.00    -0.369 C  
HETATM   20  O   UNL     1     -12.399  13.999  66.992  1.00  0.00    -0.397 OA 
BRANCH  19  21
HETATM   21  O   UNL     1     -11.450  15.201  65.297  1.00  0.00    -0.334 OA 
HETATM   22  C   UNL     1     -10.113  15.675  65.457  1.00  0.00    -0.362 C  
ENDBRANCH  19  21
ENDBRANCH  14  19
ENDBRANCH  11  13
ENDBRANCH   8  11
ENDBRANCH   6   8
ENDBRANCH   4   6
ENDBRANCH   3   4
ENDBRANCH   2   3
TORSDOF 8
ENDMDL
MODEL       67
REMARK 921   NORMALIZED FREE ENERGY PREDICTED BY IDOCK:   -4.76 KCAL/MOL
REMARK 922        TOTAL FREE ENERGY PREDICTED BY IDOCK:   -7.69 KCAL/MOL
REMARK 923 INTER-LIGAND FREE ENERGY PREDICTED BY IDOCK:   -6.56 KCAL/MOL
REMARK 924 INTRA-LIGAND FREE ENERGY PREDICTED BY IDOCK:   -1.13 KCAL/MOL
REMARK 927      BINDING AFFINITY PREDICTED BY RF-SCORE:    0.00 PKD
ROOT
HETATM    1  C   UNL     1     -10.297   5.128  69.989  1.00  0.00    -0.347 C  
HETATM    2  C   UNL     1     -11.026   6.051  69.021  1.00  0.00    -0.409 C  
ENDROOT
BRANCH   2   3
HETATM    3  C   UNL     1     -10.656   7.510  69.295  1.00  0.00    -0.210 C  
BRANCH   3   4
HETATM    4  N   UNL     1     -11.690   8.181  70.096  1.00  0.00    -0.458 NA 
HETATM    5  H   UNL     1     -12.161   7.527  70.722  1.00  0.00     0.000 HD 
BRANCH   4   6
HETATM    6  C   UNL     1     -11.129   9.345  70.841  1.00  0.00    -0.319 C  
HETATM    7  C   UNL     1      -9.743   9.063  71.431  1.00  0.00    -0.369 C  
BRANCH   6   8
HETATM    8  C   UNL     1     -10.933  10.488  69.843  1.00  0.00    -0.298 C  
HETATM    9  O   UNL     1      -9.619  10.739  69.629  1.00  0.00    -0.426 OA 
HETATM   10  H   UNL     1      -9.497  11.449  69.010  1.00  0.00     0.000 HD 
BRANCH   8  11
HETATM   11  N   UNL     1     -11.929  11.122  69.317  1.00  0.00    -0.344 NA 
HETATM   12  H   UNL     1     -12.583  10.646  68.695  1.00  0.00     0.000 HD 
BRANCH  11  13
HETATM   13  C   UNL     1     -12.088  12.487  69.626  1.00  0.00    -0.207 A  
HETATM   14  C   UNL     1     -11.548  13.480  68.816  1.00  0.00    -0.325 A  
HETATM   15  C   UNL     1     -13.200  12.225  71.998  1.00  0.00    -0.508 C  
HETATM   16  S   UNL     1     -11.763  15.032  69.517  1.00  0.00    -0.342 SA 
HETATM   17  C   UNL     1     -12.540  14.386  70.884  1.00  0.00    -0.352 A  
HETATM   18  C   UNL     1     -12.625  13.006  70.860  1.00  0.00    -0.364 A  
BRANCH  14  19
HETATM   19  C   UNL     1     -10.841  13.422  67.550  1.00  0.00    -0.263 C  
HETATM   20  O   UNL     1      -9.907  12.669  67.282  1.00  0.00    -0.202 OA 
BRANCH  19  21
HETATM   21  O   UNL     1     -11.309  14.368  66.677  1.00  0.00    -0.332 OA 
HETATM   22  C   UNL     1     -12.411  13.925  65.886  1.00  0.00    -0.483 C  
ENDBRANCH  19  21
ENDBRANCH  14  19
ENDBRANCH  11  13
ENDBRANCH   8  11
ENDBRANCH   6   8
ENDBRANCH   4   6
ENDBRANCH   3   4
ENDBRANCH   2   3
TORSDOF 8
ENDMDL
MODEL       68
REMARK 921   NORMALIZED FREE ENERGY PREDICTED BY IDOCK:   -4.75 KCAL/MOL
REMARK 922        TOTAL FREE ENERGY PREDICTED BY IDOCK:   -7.68 KCAL/MOL
REMARK 923 INTER-LIGAND FREE ENERGY PREDICTED BY IDOCK:   -6.87 KCAL/MOL
REMARK 924 INTRA-LIGAND FREE ENERGY PREDICTED BY IDOCK:   -0.81 KCAL/MOL
REMARK 927      BINDING AFFINITY PREDICTED BY RF-SCORE:    0.00 PKD
ROOT
HETATM    1  C   UNL     1     -10.914   6.512  67.228  1.00  0.00    -0.475 C  
HETATM    2  C   UNL     1     -10.904   5.994  68.661  1.00  0.00    -0.379 C  
ENDROOT
BRANCH   2   3
HETATM    3  C   UNL     1     -10.598   7.132  69.637  1.00  0.00    -0.234 C  
BRANCH   3   4
HETATM    4  N   UNL     1     -11.046   8.427  69.105  1.00  0.00    -0.419 NA 
HETATM    5  H   UNL     1     -11.905   8.330  68.561  1.00  0.00     0.000 HD 
BRANCH   4   6
HETATM    6  C   UNL     1     -11.197   9.437  70.191  1.00  0.00    -0.219 C  
HETATM    7  C   UNL     1     -10.126   9.308  71.279  1.00  0.00    -0.361 C  
BRANCH   6   8
HETATM    8  C   UNL     1     -10.996  10.822  69.571  1.00  0.00    -0.266 C  
HETATM    9  O   UNL     1      -9.681  11.128  69.457  1.00  0.00    -0.418 OA 
HETATM   10  H   UNL     1      -9.556  11.988  69.072  1.00  0.00     0.000 HD 
BRANCH   8  11
HETATM   11  N   UNL     1     -11.989  11.579  69.238  1.00  0.00    -0.336 NA 
HETATM   12  H   UNL     1     -12.952  11.268  69.372  1.00  0.00     0.000 HD 
BRANCH  11  13
HETATM   13  C   UNL     1     -11.708  12.844  68.686  1.00  0.00    -0.324 A  
HETATM   14  C   UNL     1     -11.762  13.999  69.459  1.00  0.00    -0.313 A  
HETATM   15  C   UNL     1     -11.523  12.135  66.157  1.00  0.00    -0.429 C  
HETATM   16  S   UNL     1     -11.529  15.398  68.491  1.00  0.00    -0.359 SA 
HETATM   17  C   UNL     1     -11.382  14.479  67.069  1.00  0.00    -0.349 A  
HETATM   18  C   UNL     1     -11.537  13.121  67.281  1.00  0.00    -0.404 A  
BRANCH  14  19
HETATM   19  C   UNL     1     -12.000  14.210  70.874  1.00  0.00    -0.297 C  
HETATM   20  O   UNL     1     -11.377  14.982  71.600  1.00  0.00    -0.360 OA 
BRANCH  19  21
HETATM   21  O   UNL     1     -12.992  13.387  71.338  1.00  0.00    -0.352 OA 
HETATM   22  C   UNL     1     -13.632  13.869  72.519  1.00  0.00    -0.576 C  
ENDBRANCH  19  21
ENDBRANCH  14  19
ENDBRANCH  11  13
ENDBRANCH   8  11
ENDBRANCH   6   8
ENDBRANCH   4   6
ENDBRANCH   3   4
ENDBRANCH   2   3
TORSDOF 8
ENDMDL
MODEL       69
REMARK 921   NORMALIZED FREE ENERGY PREDICTED BY IDOCK:   -4.75 KCAL/MOL
REMARK 922        TOTAL FREE ENERGY PREDICTED BY IDOCK:   -7.68 KCAL/MOL
REMARK 923 INTER-LIGAND FREE ENERGY PREDICTED BY IDOCK:   -6.56 KCAL/MOL
REMARK 924 INTRA-LIGAND FREE ENERGY PREDICTED BY IDOCK:   -1.12 KCAL/MOL
REMARK 927      BINDING AFFINITY PREDICTED BY RF-SCORE:    0.00 PKD
ROOT
HETATM    1  C   UNL     1     -12.144  14.610  64.391  1.00  0.00    -0.481 C  
HETATM    2  C   UNL     1     -12.621  13.703  65.519  1.00  0.00    -0.541 C  
ENDROOT
BRANCH   2   3
HETATM    3  C   UNL     1     -11.544  12.673  65.866  1.00  0.00    -0.396 C  
BRANCH   3   4
HETATM    4  N   UNL     1     -11.945  11.848  67.014  1.00  0.00    -0.601 NA 
HETATM    5  H   UNL     1     -12.049  10.867  66.751  1.00  0.00     0.000 HD 
BRANCH   4   6
HETATM    6  C   UNL     1     -11.000  12.011  68.156  1.00  0.00    -0.230 C  
HETATM    7  C   UNL     1     -11.496  13.016  69.202  1.00  0.00    -0.353 C  
BRANCH   6   8
HETATM    8  C   UNL     1     -10.909  10.667  68.882  1.00  0.00    -0.231 C  
HETATM    9  O   UNL     1     -11.426   9.663  68.133  1.00  0.00    -0.504 OA 
HETATM   10  H   UNL     1     -11.369   8.829  68.583  1.00  0.00     0.000 HD 
BRANCH   8  11
HETATM   11  N   UNL     1     -10.416  10.558  70.071  1.00  0.00    -0.449 NA 
HETATM   12  H   UNL     1      -9.653  11.162  70.379  1.00  0.00     0.000 HD 
BRANCH  11  13
HETATM   13  C   UNL     1     -10.959   9.583  70.932  1.00  0.00    -0.337 A  
HETATM   14  C   UNL     1     -10.415   8.306  71.014  1.00  0.00    -0.202 A  
HETATM   15  C   UNL     1     -13.103  10.899  71.708  1.00  0.00    -0.564 C  
HETATM   16  S   UNL     1     -11.371   7.294  72.017  1.00  0.00    -0.270 SA 
HETATM   17  C   UNL     1     -12.498   8.531  72.315  1.00  0.00    -0.387 A  
HETATM   18  C   UNL     1     -12.204   9.707  71.649  1.00  0.00    -0.484 A  
BRANCH  14  19
HETATM   19  C   UNL     1      -9.246   7.708  70.399  1.00  0.00    -0.156 C  
HETATM   20  O   UNL     1      -8.247   7.307  70.993  1.00  0.00    -0.106 OA 
BRANCH  19  21
HETATM   21  O   UNL     1      -9.359   7.687  69.034  1.00  0.00    -0.147 OA 
HETATM   22  C   UNL     1      -8.112   7.820  68.352  1.00  0.00    -0.124 C  
ENDBRANCH  19  21
ENDBRANCH  14  19
ENDBRANCH  11  13
ENDBRANCH   8  11
ENDBRANCH   6   8
ENDBRANCH   4   6
ENDBRANCH   3   4
ENDBRANCH   2   3
TORSDOF 8
ENDMDL
MODEL       70
REMARK 921   NORMALIZED FREE ENERGY PREDICTED BY IDOCK:   -4.75 KCAL/MOL
REMARK 922        TOTAL FREE ENERGY PREDICTED BY IDOCK:   -7.68 KCAL/MOL
REMARK 923 INTER-LIGAND FREE ENERGY PREDICTED BY IDOCK:   -6.36 KCAL/MOL
REMARK 924 INTRA-LIGAND FREE ENERGY PREDICTED BY IDOCK:   -1.32 KCAL/MOL
REMARK 927      BINDING AFFINITY PREDICTED BY RF-SCORE:    0.00 PKD
ROOT
HETATM    1  C   UNL     1      -8.172   8.945  66.066  1.00  0.00    -0.117 C  
HETATM    2  C   UNL     1      -9.486   9.164  65.327  1.00  0.00    -0.169 C  
ENDROOT
BRANCH   2   3
HETATM    3  C   UNL     1      -9.304  10.197  64.213  1.00  0.00    -0.295 C  
BRANCH   3   4
HETATM    4  N   UNL     1      -9.353  11.568  64.742  1.00  0.00    -0.402 NA 
HETATM    5  H   UNL     1      -8.418  11.964  64.838  1.00  0.00     0.000 HD 
BRANCH   4   6
HETATM    6  C   UNL     1     -10.234  12.439  63.913  1.00  0.00    -0.383 C  
HETATM    7  C   UNL     1     -11.612  11.820  63.654  1.00  0.00    -0.521 C  
BRANCH   6   8
HETATM    8  C   UNL     1     -10.497  13.723  64.704  1.00  0.00    -0.412 C  
HETATM    9  O   UNL     1     -11.552  14.408  64.199  1.00  0.00    -0.616 OA 
HETATM   10  H   UNL     1     -11.715  15.205  64.690  1.00  0.00     0.000 HD 
BRANCH   8  11
HETATM   11  N   UNL     1      -9.761  14.080  65.704  1.00  0.00    -0.516 NA 
HETATM   12  H   UNL     1      -8.743  14.025  65.650  1.00  0.00     0.000 HD 
BRANCH  11  13
HETATM   13  C   UNL     1     -10.399  14.546  66.870  1.00  0.00    -0.264 A  
HETATM   14  C   UNL     1     -10.989  13.668  67.772  1.00  0.00    -0.259 A  
HETATM   15  C   UNL     1     -10.299  17.128  66.364  1.00  0.00    -0.307 C  
HETATM   16  S   UNL     1     -11.822  14.522  69.007  1.00  0.00    -0.308 SA 
HETATM   17  C   UNL     1     -11.421  16.031  68.334  1.00  0.00    -0.331 A  
HETATM   18  C   UNL     1     -10.691  15.928  67.164  1.00  0.00    -0.301 A  
BRANCH  14  19
HETATM   19  C   UNL     1     -11.039  12.220  67.826  1.00  0.00    -0.255 C  
HETATM   20  O   UNL     1     -12.059  11.538  67.920  1.00  0.00    -0.630 OA 
BRANCH  19  21
HETATM   21  O   UNL     1      -9.781  11.679  67.813  1.00  0.00    -0.167 OA 
HETATM   22  C   UNL     1      -9.415  11.048  69.041  1.00  0.00    -0.108 C  
ENDBRANCH  19  21
ENDBRANCH  14  19
ENDBRANCH  11  13
ENDBRANCH   8  11
ENDBRANCH   6   8
ENDBRANCH   4   6
ENDBRANCH   3   4
ENDBRANCH   2   3
TORSDOF 8
ENDMDL
MODEL       71
REMARK 921   NORMALIZED FREE ENERGY PREDICTED BY IDOCK:   -4.74 KCAL/MOL
REMARK 922        TOTAL FREE ENERGY PREDICTED BY IDOCK:   -7.67 KCAL/MOL
REMARK 923 INTER-LIGAND FREE ENERGY PREDICTED BY IDOCK:   -6.88 KCAL/MOL
REMARK 924 INTRA-LIGAND FREE ENERGY PREDICTED BY IDOCK:   -0.79 KCAL/MOL
REMARK 927      BINDING AFFINITY PREDICTED BY RF-SCORE:    0.00 PKD
ROOT
HETATM    1  C   UNL     1      -9.717  20.373  67.478  1.00  0.00    -0.571 C  
HETATM    2  C   UNL     1      -9.751  19.301  68.561  1.00  0.00    -0.481 C  
ENDROOT
BRANCH   2   3
HETATM    3  C   UNL     1     -10.169  17.956  67.965  1.00  0.00    -0.376 C  
BRANCH   3   4
HETATM    4  N   UNL     1     -10.888  17.136  68.950  1.00  0.00    -0.285 NA 
HETATM    5  H   UNL     1     -11.892  17.317  68.925  1.00  0.00     0.000 HD 
BRANCH   4   6
HETATM    6  C   UNL     1     -10.590  15.686  68.771  1.00  0.00    -0.238 C  
HETATM    7  C   UNL     1      -9.340  15.235  69.534  1.00  0.00    -0.198 C  
BRANCH   6   8
HETATM    8  C   UNL     1     -11.753  14.893  69.372  1.00  0.00    -0.319 C  
HETATM    9  O   UNL     1     -11.851  15.093  70.708  1.00  0.00    -0.277 OA 
HETATM   10  H   UNL     1     -12.573  14.601  71.081  1.00  0.00     0.000 HD 
BRANCH   8  11
HETATM   11  N   UNL     1     -12.503  14.120  68.657  1.00  0.00    -0.470 NA 
HETATM   12  H   UNL     1     -13.504  14.297  68.569  1.00  0.00     0.000 HD 
BRANCH  11  13
HETATM   13  C   UNL     1     -11.901  13.028  68.000  1.00  0.00    -0.347 A  
HETATM   14  C   UNL     1     -11.758  13.005  66.618  1.00  0.00    -0.381 A  
HETATM   15  C   UNL     1     -11.674  11.409  70.064  1.00  0.00    -0.416 C  
HETATM   16  S   UNL     1     -11.139  11.493  66.088  1.00  0.00    -0.191 SA 
HETATM   17  C   UNL     1     -11.087  10.879  67.672  1.00  0.00    -0.313 A  
HETATM   18  C   UNL     1     -11.559  11.771  68.618  1.00  0.00    -0.367 A  
BRANCH  14  19
HETATM   19  C   UNL     1     -12.057  13.988  65.594  1.00  0.00    -0.417 C  
HETATM   20  O   UNL     1     -13.164  14.469  65.360  1.00  0.00    -0.494 OA 
BRANCH  19  21
HETATM   21  O   UNL     1     -10.943  14.291  64.857  1.00  0.00    -0.362 OA 
HETATM   22  C   UNL     1     -10.182  15.377  65.386  1.00  0.00    -0.377 C  
ENDBRANCH  19  21
ENDBRANCH  14  19
ENDBRANCH  11  13
ENDBRANCH   8  11
ENDBRANCH   6   8
ENDBRANCH   4   6
ENDBRANCH   3   4
ENDBRANCH   2   3
TORSDOF 8
ENDMDL
MODEL       72
REMARK 921   NORMALIZED FREE ENERGY PREDICTED BY IDOCK:   -4.74 KCAL/MOL
REMARK 922        TOTAL FREE ENERGY PREDICTED BY IDOCK:   -7.67 KCAL/MOL
REMARK 923 INTER-LIGAND FREE ENERGY PREDICTED BY IDOCK:   -6.71 KCAL/MOL
REMARK 924 INTRA-LIGAND FREE ENERGY PREDICTED BY IDOCK:   -0.96 KCAL/MOL
REMARK 927      BINDING AFFINITY PREDICTED BY RF-SCORE:    0.00 PKD
ROOT
HETATM    1  C   UNL     1     -10.923   6.144  68.712  1.00  0.00    -0.421 C  
HETATM    2  C   UNL     1     -11.594   6.433  70.049  1.00  0.00    -0.446 C  
ENDROOT
BRANCH   2   3
HETATM    3  C   UNL     1     -10.549   6.835  71.093  1.00  0.00    -0.224 C  
BRANCH   3   4
HETATM    4  N   UNL     1     -10.912   8.096  71.754  1.00  0.00    -0.247 NA 
HETATM    5  H   UNL     1     -10.123   8.742  71.787  1.00  0.00     0.000 HD 
BRANCH   4   6
HETATM    6  C   UNL     1     -12.104   8.722  71.112  1.00  0.00    -0.267 C  
HETATM    7  C   UNL     1     -13.178   9.135  72.125  1.00  0.00    -0.524 C  
BRANCH   6   8
HETATM    8  C   UNL     1     -11.646  10.017  70.439  1.00  0.00    -0.302 C  
HETATM    9  O   UNL     1     -10.324  10.238  70.637  1.00  0.00    -0.380 OA 
HETATM   10  H   UNL     1     -10.040  11.042  70.219  1.00  0.00     0.000 HD 
BRANCH   8  11
HETATM   11  N   UNL     1     -12.462  10.785  69.796  1.00  0.00    -0.474 NA 
HETATM   12  H   UNL     1     -13.248  10.395  69.274  1.00  0.00     0.000 HD 
BRANCH  11  13
HETATM   13  C   UNL     1     -12.239  12.176  69.833  1.00  0.00    -0.170 A  
HETATM   14  C   UNL     1     -11.446  12.807  68.881  1.00  0.00    -0.305 A  
HETATM   15  C   UNL     1     -13.380  12.693  72.149  1.00  0.00    -0.570 C  
HETATM   16  S   UNL     1     -11.225  14.466  69.266  1.00  0.00    -0.284 SA 
HETATM   17  C   UNL     1     -12.150  14.334  70.686  1.00  0.00    -0.346 A  
HETATM   18  C   UNL     1     -12.612  13.051  70.918  1.00  0.00    -0.364 A  
BRANCH  14  19
HETATM   19  C   UNL     1     -10.783  12.315  67.689  1.00  0.00    -0.220 C  
HETATM   20  O   UNL     1      -9.590  12.451  67.422  1.00  0.00    -0.179 OA 
BRANCH  19  21
HETATM   21  O   UNL     1     -11.672  11.709  66.841  1.00  0.00    -0.552 OA 
HETATM   22  C   UNL     1     -12.002  12.496  65.697  1.00  0.00    -0.433 C  
ENDBRANCH  19  21
ENDBRANCH  14  19
ENDBRANCH  11  13
ENDBRANCH   8  11
ENDBRANCH   6   8
ENDBRANCH   4   6
ENDBRANCH   3   4
ENDBRANCH   2   3
TORSDOF 8
ENDMDL
MODEL       73
REMARK 921   NORMALIZED FREE ENERGY PREDICTED BY IDOCK:   -4.72 KCAL/MOL
REMARK 922        TOTAL FREE ENERGY PREDICTED BY IDOCK:   -7.63 KCAL/MOL
REMARK 923 INTER-LIGAND FREE ENERGY PREDICTED BY IDOCK:   -6.53 KCAL/MOL
REMARK 924 INTRA-LIGAND FREE ENERGY PREDICTED BY IDOCK:   -1.10 KCAL/MOL
REMARK 927      BINDING AFFINITY PREDICTED BY RF-SCORE:    0.00 PKD
ROOT
HETATM    1  C   UNL     1     -11.266   6.189  68.899  1.00  0.00    -0.338 C  
HETATM    2  C   UNL     1     -10.914   6.551  70.337  1.00  0.00    -0.353 C  
ENDROOT
BRANCH   2   3
HETATM    3  C   UNL     1     -10.408   7.994  70.414  1.00  0.00    -0.206 C  
BRANCH   3   4
HETATM    4  N   UNL     1     -11.149   8.869  69.495  1.00  0.00    -0.432 NA 
HETATM    5  H   UNL     1     -11.936   9.320  69.963  1.00  0.00     0.000 HD 
BRANCH   4   6
HETATM    6  C   UNL     1     -10.248   9.868  68.852  1.00  0.00    -0.196 C  
HETATM    7  C   UNL     1      -9.174   9.223  67.971  1.00  0.00    -0.138 C  
BRANCH   6   8
HETATM    8  C   UNL     1     -11.099  10.726  67.912  1.00  0.00    -0.308 C  
HETATM    9  O   UNL     1     -12.396  10.753  68.303  1.00  0.00    -0.717 OA 
HETATM   10  H   UNL     1     -12.923  11.285  67.719  1.00  0.00     0.000 HD 
BRANCH   8  11
HETATM   11  N   UNL     1     -10.600  11.310  66.873  1.00  0.00    -0.245 NA 
HETATM   12  H   UNL     1     -10.352  10.775  66.040  1.00  0.00     0.000 HD 
BRANCH  11  13
HETATM   13  C   UNL     1     -10.409  12.705  66.920  1.00  0.00    -0.233 A  
HETATM   14  C   UNL     1     -11.254  13.575  66.241  1.00  0.00    -0.297 A  
HETATM   15  C   UNL     1      -8.104  12.741  68.192  1.00  0.00    -0.158 C  
HETATM   16  S   UNL     1     -10.690  15.193  66.349  1.00  0.00    -0.320 SA 
HETATM   17  C   UNL     1      -9.333  14.734  67.265  1.00  0.00    -0.206 A  
HETATM   18  C   UNL     1      -9.257  13.370  67.478  1.00  0.00    -0.219 A  
BRANCH  14  19
HETATM   19  C   UNL     1     -12.461  13.350  65.468  1.00  0.00    -0.483 C  
HETATM   20  O   UNL     1     -13.391  14.144  65.339  1.00  0.00    -0.705 OA 
BRANCH  19  21
HETATM   21  O   UNL     1     -12.475  12.093  64.923  1.00  0.00    -0.467 OA 
HETATM   22  C   UNL     1     -12.016  12.048  63.572  1.00  0.00    -0.507 C  
ENDBRANCH  19  21
ENDBRANCH  14  19
ENDBRANCH  11  13
ENDBRANCH   8  11
ENDBRANCH   6   8
ENDBRANCH   4   6
ENDBRANCH   3   4
ENDBRANCH   2   3
TORSDOF 8
ENDMDL
MODEL       74
REMARK 921   NORMALIZED FREE ENERGY PREDICTED BY IDOCK:   -4.72 KCAL/MOL
REMARK 922        TOTAL FREE ENERGY PREDICTED BY IDOCK:   -7.63 KCAL/MOL
REMARK 923 INTER-LIGAND FREE ENERGY PREDICTED BY IDOCK:   -6.60 KCAL/MOL
REMARK 924 INTRA-LIGAND FREE ENERGY PREDICTED BY IDOCK:   -1.03 KCAL/MOL
REMARK 927      BINDING AFFINITY PREDICTED BY RF-SCORE:    0.00 PKD
ROOT
HETATM    1  C   UNL     1     -10.521   5.121  66.247  1.00  0.00    -0.341 C  
HETATM    2  C   UNL     1     -10.849   6.193  67.279  1.00  0.00    -0.438 C  
ENDROOT
BRANCH   2   3
HETATM    3  C   UNL     1     -10.068   7.474  66.983  1.00  0.00    -0.261 C  
BRANCH   3   4
HETATM    4  N   UNL     1     -10.864   8.669  67.296  1.00  0.00    -0.434 NA 
HETATM    5  H   UNL     1     -11.859   8.509  67.133  1.00  0.00     0.000 HD 
BRANCH   4   6
HETATM    6  C   UNL     1     -10.607   9.144  68.686  1.00  0.00    -0.174 C  
HETATM    7  C   UNL     1      -9.152   8.949  69.124  1.00  0.00    -0.141 C  
BRANCH   6   8
HETATM    8  C   UNL     1     -10.852  10.655  68.716  1.00  0.00    -0.229 C  
HETATM    9  O   UNL     1      -9.851  11.306  69.355  1.00  0.00    -0.420 OA 
HETATM   10  H   UNL     1     -10.003  12.244  69.373  1.00  0.00     0.000 HD 
BRANCH   8  11
HETATM   11  N   UNL     1     -11.910  11.191  68.205  1.00  0.00    -0.621 NA 
HETATM   12  H   UNL     1     -12.784  10.668  68.142  1.00  0.00     0.000 HD 
BRANCH  11  13
HETATM   13  C   UNL     1     -11.826  12.518  67.737  1.00  0.00    -0.313 A  
HETATM   14  C   UNL     1     -11.429  12.801  66.435  1.00  0.00    -0.357 A  
HETATM   15  C   UNL     1     -12.250  13.765  70.016  1.00  0.00    -0.407 C  
HETATM   16  S   UNL     1     -11.267  14.494  66.196  1.00  0.00    -0.343 SA 
HETATM   17  C   UNL     1     -11.696  14.835  67.805  1.00  0.00    -0.343 A  
HETATM   18  C   UNL     1     -11.935  13.699  68.557  1.00  0.00    -0.396 A  
BRANCH  14  19
HETATM   19  C   UNL     1     -11.116  11.945  65.307  1.00  0.00    -0.299 C  
HETATM   20  O   UNL     1     -10.592  10.835  65.371  1.00  0.00    -0.242 OA 
BRANCH  19  21
HETATM   21  O   UNL     1     -11.431  12.553  64.120  1.00  0.00    -0.332 OA 
HETATM   22  C   UNL     1     -12.552  11.969  63.456  1.00  0.00    -0.507 C  
ENDBRANCH  19  21
ENDBRANCH  14  19
ENDBRANCH  11  13
ENDBRANCH   8  11
ENDBRANCH   6   8
ENDBRANCH   4   6
ENDBRANCH   3   4
ENDBRANCH   2   3
TORSDOF 8
ENDMDL
MODEL       75
REMARK 921   NORMALIZED FREE ENERGY PREDICTED BY IDOCK:   -4.71 KCAL/MOL
REMARK 922        TOTAL FREE ENERGY PREDICTED BY IDOCK:   -7.62 KCAL/MOL
REMARK 923 INTER-LIGAND FREE ENERGY PREDICTED BY IDOCK:   -6.80 KCAL/MOL
REMARK 924 INTRA-LIGAND FREE ENERGY PREDICTED BY IDOCK:   -0.82 KCAL/MOL
REMARK 927      BINDING AFFINITY PREDICTED BY RF-SCORE:    0.00 PKD
ROOT
HETATM    1  C   UNL     1     -13.588   8.789  71.706  1.00  0.00    -0.453 C  
HETATM    2  C   UNL     1     -13.148  10.226  71.960  1.00  0.00    -0.529 C  
ENDROOT
BRANCH   2   3
HETATM    3  C   UNL     1     -11.966  10.588  71.059  1.00  0.00    -0.364 C  
BRANCH   3   4
HETATM    4  N   UNL     1     -12.138  11.921  70.463  1.00  0.00    -0.430 NA 
HETATM    5  H   UNL     1     -12.107  12.654  71.172  1.00  0.00     0.000 HD 
BRANCH   4   6
HETATM    6  C   UNL     1     -11.141  12.165  69.381  1.00  0.00    -0.117 C  
HETATM    7  C   UNL     1     -10.430  10.886  68.925  1.00  0.00    -0.228 C  
BRANCH   6   8
HETATM    8  C   UNL     1     -11.900  12.678  68.155  1.00  0.00    -0.315 C  
HETATM    9  O   UNL     1     -11.942  11.746  67.172  1.00  0.00    -0.617 OA 
HETATM   10  H   UNL     1     -12.413  12.065  66.411  1.00  0.00     0.000 HD 
BRANCH   8  11
HETATM   11  N   UNL     1     -12.397  13.870  68.101  1.00  0.00    -0.456 NA 
HETATM   12  H   UNL     1     -13.405  14.014  68.040  1.00  0.00     0.000 HD 
BRANCH  11  13
HETATM   13  C   UNL     1     -11.510  14.964  68.130  1.00  0.00    -0.330 A  
HETATM   14  C   UNL     1     -10.651  15.228  67.068  1.00  0.00    -0.306 A  
HETATM   15  C   UNL     1     -11.904  15.722  70.620  1.00  0.00    -0.415 C  
HETATM   16  S   UNL     1      -9.585  16.519  67.445  1.00  0.00    -0.241 SA 
HETATM   17  C   UNL     1     -10.242  16.703  69.002  1.00  0.00    -0.301 A  
HETATM   18  C   UNL     1     -11.242  15.789  69.282  1.00  0.00    -0.324 A  
BRANCH  14  19
HETATM   19  C   UNL     1     -10.496  14.604  65.768  1.00  0.00    -0.325 C  
HETATM   20  O   UNL     1      -9.790  13.628  65.518  1.00  0.00    -0.246 OA 
BRANCH  19  21
HETATM   21  O   UNL     1     -11.203  15.277  64.807  1.00  0.00    -0.405 OA 
HETATM   22  C   UNL     1     -12.390  14.603  64.389  1.00  0.00    -0.398 C  
ENDBRANCH  19  21
ENDBRANCH  14  19
ENDBRANCH  11  13
ENDBRANCH   8  11
ENDBRANCH   6   8
ENDBRANCH   4   6
ENDBRANCH   3   4
ENDBRANCH   2   3
TORSDOF 8
ENDMDL
MODEL       76
REMARK 921   NORMALIZED FREE ENERGY PREDICTED BY IDOCK:   -4.71 KCAL/MOL
REMARK 922        TOTAL FREE ENERGY PREDICTED BY IDOCK:   -7.62 KCAL/MOL
REMARK 923 INTER-LIGAND FREE ENERGY PREDICTED BY IDOCK:   -6.50 KCAL/MOL
REMARK 924 INTRA-LIGAND FREE ENERGY PREDICTED BY IDOCK:   -1.12 KCAL/MOL
REMARK 927      BINDING AFFINITY PREDICTED BY RF-SCORE:    0.00 PKD
ROOT
HETATM    1  C   UNL     1     -13.840   7.226  71.370  1.00  0.00    -0.416 C  
HETATM    2  C   UNL     1     -12.426   6.907  71.838  1.00  0.00    -0.350 C  
ENDROOT
BRANCH   2   3
HETATM    3  C   UNL     1     -11.509   6.667  70.636  1.00  0.00    -0.364 C  
BRANCH   3   4
HETATM    4  N   UNL     1     -11.302   7.903  69.868  1.00  0.00    -0.457 NA 
HETATM    5  H   UNL     1     -12.142   8.167  69.351  1.00  0.00     0.000 HD 
BRANCH   4   6
HETATM    6  C   UNL     1     -10.827   9.013  70.743  1.00  0.00    -0.251 C  
HETATM    7  C   UNL     1      -9.309   9.217  70.677  1.00  0.00    -0.312 C  
BRANCH   6   8
HETATM    8  C   UNL     1     -11.444  10.314  70.223  1.00  0.00    -0.317 C  
HETATM    9  O   UNL     1     -12.798  10.266  70.252  1.00  0.00    -0.551 OA 
HETATM   10  H   UNL     1     -13.181  11.073  69.929  1.00  0.00     0.000 HD 
BRANCH   8  11
HETATM   11  N   UNL     1     -10.722  11.297  69.796  1.00  0.00    -0.458 NA 
HETATM   12  H   UNL     1      -9.794  11.471  70.182  1.00  0.00     0.000 HD 
BRANCH  11  13
HETATM   13  C   UNL     1     -11.251  12.121  68.783  1.00  0.00    -0.264 A  
HETATM   14  C   UNL     1     -11.113  11.794  67.438  1.00  0.00    -0.282 A  
HETATM   15  C   UNL     1     -11.996  14.153  70.282  1.00  0.00    -0.404 C  
HETATM   16  S   UNL     1     -11.712  13.051  66.434  1.00  0.00    -0.407 SA 
HETATM   17  C   UNL     1     -12.123  14.019  67.770  1.00  0.00    -0.290 A  
HETATM   18  C   UNL     1     -11.794  13.442  68.982  1.00  0.00    -0.378 A  
BRANCH  14  19
HETATM   19  C   UNL     1     -10.549  10.634  66.774  1.00  0.00    -0.237 C  
HETATM   20  O   UNL     1     -10.783   9.460  67.055  1.00  0.00    -0.229 OA 
BRANCH  19  21
HETATM   21  O   UNL     1      -9.657  11.004  65.803  1.00  0.00    -0.203 OA 
HETATM   22  C   UNL     1      -9.792  10.266  64.588  1.00  0.00    -0.327 C  
ENDBRANCH  19  21
ENDBRANCH  14  19
ENDBRANCH  11  13
ENDBRANCH   8  11
ENDBRANCH   6   8
ENDBRANCH   4   6
ENDBRANCH   3   4
ENDBRANCH   2   3
TORSDOF 8
ENDMDL
MODEL       77
REMARK 921   NORMALIZED FREE ENERGY PREDICTED BY IDOCK:   -4.70 KCAL/MOL
REMARK 922        TOTAL FREE ENERGY PREDICTED BY IDOCK:   -7.61 KCAL/MOL
REMARK 923 INTER-LIGAND FREE ENERGY PREDICTED BY IDOCK:   -6.38 KCAL/MOL
REMARK 924 INTRA-LIGAND FREE ENERGY PREDICTED BY IDOCK:   -1.23 KCAL/MOL
REMARK 927      BINDING AFFINITY PREDICTED BY RF-SCORE:    0.00 PKD
ROOT
HETATM    1  C   UNL     1     -12.386  12.258  63.862  1.00  0.00    -0.606 C  
HETATM    2  C   UNL     1     -11.181  12.209  64.793  1.00  0.00    -0.373 C  
ENDROOT
BRANCH   2   3
HETATM    3  C   UNL     1     -11.625  12.385  66.247  1.00  0.00    -0.393 C  
BRANCH   3   4
HETATM    4  N   UNL     1     -12.013  13.776  66.522  1.00  0.00    -0.411 NA 
HETATM    5  H   UNL     1     -12.837  14.047  65.984  1.00  0.00     0.000 HD 
BRANCH   4   6
HETATM    6  C   UNL     1     -12.214  14.005  67.982  1.00  0.00    -0.153 C  
HETATM    7  C   UNL     1     -11.458  12.997  68.853  1.00  0.00    -0.345 C  
BRANCH   6   8
HETATM    8  C   UNL     1     -11.625  15.376  68.324  1.00  0.00    -0.348 C  
HETATM    9  O   UNL     1     -11.949  15.753  69.584  1.00  0.00    -0.356 OA 
HETATM   10  H   UNL     1     -11.583  16.604  69.797  1.00  0.00     0.000 HD 
BRANCH   8  11
HETATM   11  N   UNL     1     -10.935  16.061  67.473  1.00  0.00    -0.300 NA 
HETATM   12  H   UNL     1     -11.330  16.324  66.570  1.00  0.00     0.000 HD 
BRANCH  11  13
HETATM   13  C   UNL     1      -9.623  16.436  67.826  1.00  0.00    -0.231 A  
HETATM   14  C   UNL     1      -9.314  17.746  68.175  1.00  0.00    -0.281 A  
HETATM   15  C   UNL     1      -8.401  14.179  67.239  1.00  0.00    -0.212 C  
HETATM   16  S   UNL     1      -7.623  17.939  68.401  1.00  0.00    -0.290 SA 
HETATM   17  C   UNL     1      -7.313  16.313  68.019  1.00  0.00    -0.132 A  
HETATM   18  C   UNL     1      -8.453  15.605  67.684  1.00  0.00    -0.169 A  
BRANCH  14  19
HETATM   19  C   UNL     1     -10.140  18.926  68.343  1.00  0.00    -0.392 C  
HETATM   20  O   UNL     1     -10.126  19.681  69.314  1.00  0.00    -0.423 OA 
BRANCH  19  21
HETATM   21  O   UNL     1     -11.003  19.082  67.291  1.00  0.00    -0.459 OA 
HETATM   22  C   UNL     1     -10.425  19.748  66.168  1.00  0.00    -0.509 C  
ENDBRANCH  19  21
ENDBRANCH  14  19
ENDBRANCH  11  13
ENDBRANCH   8  11
ENDBRANCH   6   8
ENDBRANCH   4   6
ENDBRANCH   3   4
ENDBRANCH   2   3
TORSDOF 8
ENDMDL
MODEL       78
REMARK 921   NORMALIZED FREE ENERGY PREDICTED BY IDOCK:   -4.70 KCAL/MOL
REMARK 922        TOTAL FREE ENERGY PREDICTED BY IDOCK:   -7.61 KCAL/MOL
REMARK 923 INTER-LIGAND FREE ENERGY PREDICTED BY IDOCK:   -6.35 KCAL/MOL
REMARK 924 INTRA-LIGAND FREE ENERGY PREDICTED BY IDOCK:   -1.26 KCAL/MOL
REMARK 927      BINDING AFFINITY PREDICTED BY RF-SCORE:    0.00 PKD
ROOT
HETATM    1  C   UNL     1     -10.270  20.050  68.320  1.00  0.00    -0.527 C  
HETATM    2  C   UNL     1      -9.986  20.019  66.824  1.00  0.00    -0.585 C  
ENDROOT
BRANCH   2   3
HETATM    3  C   UNL     1      -8.778  19.126  66.530  1.00  0.00    -0.337 C  
BRANCH   3   4
HETATM    4  N   UNL     1      -9.190  17.860  65.908  1.00  0.00    -0.509 NA 
HETATM    5  H   UNL     1      -8.979  17.848  64.909  1.00  0.00     0.000 HD 
BRANCH   4   6
HETATM    6  C   UNL     1      -8.586  16.690  66.608  1.00  0.00    -0.258 C  
HETATM    7  C   UNL     1      -7.184  16.980  67.154  1.00  0.00    -0.206 C  
BRANCH   6   8
HETATM    8  C   UNL     1      -9.453  16.379  67.830  1.00  0.00    -0.222 C  
HETATM    9  O   UNL     1      -8.724  16.396  68.972  1.00  0.00    -0.248 OA 
HETATM   10  H   UNL     1      -9.263  16.203  69.731  1.00  0.00     0.000 HD 
BRANCH   8  11
HETATM   11  N   UNL     1     -10.714  16.113  67.731  1.00  0.00    -0.320 NA 
HETATM   12  H   UNL     1     -11.362  16.794  67.333  1.00  0.00     0.000 HD 
BRANCH  11  13
HETATM   13  C   UNL     1     -11.169  14.860  68.185  1.00  0.00    -0.299 A  
HETATM   14  C   UNL     1     -11.673  14.695  69.470  1.00  0.00    -0.324 A  
HETATM   15  C   UNL     1     -10.400  13.398  66.134  1.00  0.00    -0.295 C  
HETATM   16  S   UNL     1     -12.001  13.042  69.795  1.00  0.00    -0.261 SA 
HETATM   17  C   UNL     1     -11.460  12.557  68.259  1.00  0.00    -0.308 A  
HETATM   18  C   UNL     1     -10.995  13.608  67.490  1.00  0.00    -0.282 A  
BRANCH  14  19
HETATM   19  C   UNL     1     -11.928  15.640  70.541  1.00  0.00    -0.385 C  
HETATM   20  O   UNL     1     -11.284  16.663  70.766  1.00  0.00    -0.228 OA 
BRANCH  19  21
HETATM   21  O   UNL     1     -12.965  15.224  71.333  1.00  0.00    -0.360 OA 
HETATM   22  C   UNL     1     -12.703  15.340  72.731  1.00  0.00    -0.397 C  
ENDBRANCH  19  21
ENDBRANCH  14  19
ENDBRANCH  11  13
ENDBRANCH   8  11
ENDBRANCH   6   8
ENDBRANCH   4   6
ENDBRANCH   3   4
ENDBRANCH   2   3
TORSDOF 8
ENDMDL
MODEL       79
REMARK 921   NORMALIZED FREE ENERGY PREDICTED BY IDOCK:   -4.68 KCAL/MOL
REMARK 922        TOTAL FREE ENERGY PREDICTED BY IDOCK:   -7.58 KCAL/MOL
REMARK 923 INTER-LIGAND FREE ENERGY PREDICTED BY IDOCK:   -6.50 KCAL/MOL
REMARK 924 INTRA-LIGAND FREE ENERGY PREDICTED BY IDOCK:   -1.09 KCAL/MOL
REMARK 927      BINDING AFFINITY PREDICTED BY RF-SCORE:    0.00 PKD
ROOT
HETATM    1  C   UNL     1     -13.649  15.736  72.856  1.00  0.00    -0.660 C  
HETATM    2  C   UNL     1     -12.313  15.497  72.163  1.00  0.00    -0.476 C  
ENDROOT
BRANCH   2   3
HETATM    3  C   UNL     1     -12.334  14.164  71.412  1.00  0.00    -0.344 C  
BRANCH   3   4
HETATM    4  N   UNL     1     -11.292  14.118  70.377  1.00  0.00    -0.495 NA 
HETATM    5  H   UNL     1     -10.773  13.240  70.408  1.00  0.00     0.000 HD 
BRANCH   4   6
HETATM    6  C   UNL     1     -11.861  14.370  69.022  1.00  0.00    -0.323 C  
HETATM    7  C   UNL     1     -11.533  15.768  68.487  1.00  0.00    -0.381 C  
BRANCH   6   8
HETATM    8  C   UNL     1     -11.204  13.387  68.050  1.00  0.00    -0.268 C  
HETATM    9  O   UNL     1      -9.989  13.828  67.645  1.00  0.00    -0.230 OA 
HETATM   10  H   UNL     1      -9.581  13.218  67.042  1.00  0.00     0.000 HD 
BRANCH   8  11
HETATM   11  N   UNL     1     -11.788  12.298  67.672  1.00  0.00    -0.496 NA 
HETATM   12  H   UNL     1     -12.714  12.322  67.244  1.00  0.00     0.000 HD 
BRANCH  11  13
HETATM   13  C   UNL     1     -11.111  11.077  67.864  1.00  0.00    -0.288 A  
HETATM   14  C   UNL     1     -10.421  10.461  66.826  1.00  0.00    -0.225 A  
HETATM   15  C   UNL     1     -11.947  10.547  70.304  1.00  0.00    -0.411 C  
HETATM   16  S   UNL     1      -9.832   8.922  67.307  1.00  0.00    -0.218 SA 
HETATM   17  C   UNL     1     -10.507   9.069  68.860  1.00  0.00    -0.210 A  
HETATM   18  C   UNL     1     -11.208  10.247  69.039  1.00  0.00    -0.260 A  
BRANCH  14  19
HETATM   19  C   UNL     1     -10.153  10.871  65.461  1.00  0.00    -0.267 C  
HETATM   20  O   UNL     1     -10.090  10.125  64.485  1.00  0.00    -0.304 OA 
BRANCH  19  21
HETATM   21  O   UNL     1      -9.916  12.218  65.384  1.00  0.00    -0.262 OA 
HETATM   22  C   UNL     1     -10.300  12.798  64.138  1.00  0.00    -0.376 C  
ENDBRANCH  19  21
ENDBRANCH  14  19
ENDBRANCH  11  13
ENDBRANCH   8  11
ENDBRANCH   6   8
ENDBRANCH   4   6
ENDBRANCH   3   4
ENDBRANCH   2   3
TORSDOF 8
ENDMDL
MODEL       80
REMARK 921   NORMALIZED FREE ENERGY PREDICTED BY IDOCK:   -4.68 KCAL/MOL
REMARK 922        TOTAL FREE ENERGY PREDICTED BY IDOCK:   -7.57 KCAL/MOL
REMARK 923 INTER-LIGAND FREE ENERGY PREDICTED BY IDOCK:   -6.70 KCAL/MOL
REMARK 924 INTRA-LIGAND FREE ENERGY PREDICTED BY IDOCK:   -0.88 KCAL/MOL
REMARK 927      BINDING AFFINITY PREDICTED BY RF-SCORE:    0.00 PKD
ROOT
HETATM    1  C   UNL     1      -9.669   7.512  66.724  1.00  0.00    -0.283 C  
HETATM    2  C   UNL     1     -10.198   8.934  66.590  1.00  0.00    -0.338 C  
ENDROOT
BRANCH   2   3
HETATM    3  C   UNL     1     -10.612   9.480  67.959  1.00  0.00    -0.230 C  
BRANCH   3   4
HETATM    4  N   UNL     1     -11.715  10.444  67.838  1.00  0.00    -0.680 NA 
HETATM    5  H   UNL     1     -12.582   9.986  67.557  1.00  0.00     0.000 HD 
BRANCH   4   6
HETATM    6  C   UNL     1     -11.891  11.227  69.094  1.00  0.00    -0.355 C  
HETATM    7  C   UNL     1     -11.106  10.646  70.275  1.00  0.00    -0.310 C  
BRANCH   6   8
HETATM    8  C   UNL     1     -11.315  12.625  68.858  1.00  0.00    -0.297 C  
HETATM    9  O   UNL     1     -10.005  12.685  69.201  1.00  0.00    -0.398 OA 
HETATM   10  H   UNL     1      -9.647  13.553  69.055  1.00  0.00     0.000 HD 
BRANCH   8  11
HETATM   11  N   UNL     1     -12.034  13.601  68.411  1.00  0.00    -0.367 NA 
HETATM   12  H   UNL     1     -12.993  13.735  68.735  1.00  0.00     0.000 HD 
BRANCH  11  13
HETATM   13  C   UNL     1     -11.461  14.474  67.466  1.00  0.00    -0.356 A  
HETATM   14  C   UNL     1     -10.954  15.713  67.839  1.00  0.00    -0.319 A  
HETATM   15  C   UNL     1     -12.064  13.134  65.281  1.00  0.00    -0.471 C  
HETATM   16  S   UNL     1     -10.466  16.618  66.465  1.00  0.00    -0.218 SA 
HETATM   17  C   UNL     1     -10.944  15.387  65.395  1.00  0.00    -0.368 A  
HETATM   18  C   UNL     1     -11.504  14.297  66.035  1.00  0.00    -0.347 A  
BRANCH  14  19
HETATM   19  C   UNL     1     -10.803  16.350  69.134  1.00  0.00    -0.329 C  
HETATM   20  O   UNL     1     -10.510  17.529  69.325  1.00  0.00    -0.321 OA 
BRANCH  19  21
HETATM   21  O   UNL     1     -10.975  15.451  70.152  1.00  0.00    -0.266 OA 
HETATM   22  C   UNL     1     -11.649  15.992  71.289  1.00  0.00    -0.449 C  
ENDBRANCH  19  21
ENDBRANCH  14  19
ENDBRANCH  11  13
ENDBRANCH   8  11
ENDBRANCH   6   8
ENDBRANCH   4   6
ENDBRANCH   3   4
ENDBRANCH   2   3
TORSDOF 8
ENDMDL
MODEL       81
REMARK 921   NORMALIZED FREE ENERGY PREDICTED BY IDOCK:   -4.67 KCAL/MOL
REMARK 922        TOTAL FREE ENERGY PREDICTED BY IDOCK:   -7.56 KCAL/MOL
REMARK 923 INTER-LIGAND FREE ENERGY PREDICTED BY IDOCK:   -6.50 KCAL/MOL
REMARK 924 INTRA-LIGAND FREE ENERGY PREDICTED BY IDOCK:   -1.07 KCAL/MOL
REMARK 927      BINDING AFFINITY PREDICTED BY RF-SCORE:    0.00 PKD
ROOT
HETATM    1  C   UNL     1     -13.762  16.009  73.024  1.00  0.00    -0.470 C  
HETATM    2  C   UNL     1     -12.598  15.050  72.812  1.00  0.00    -0.484 C  
ENDROOT
BRANCH   2   3
HETATM    3  C   UNL     1     -12.980  13.961  71.807  1.00  0.00    -0.358 C  
BRANCH   3   4
HETATM    4  N   UNL     1     -11.845  13.612  70.941  1.00  0.00    -0.492 NA 
HETATM    5  H   UNL     1     -11.498  12.673  71.141  1.00  0.00     0.000 HD 
BRANCH   4   6
HETATM    6  C   UNL     1     -12.192  13.770  69.500  1.00  0.00    -0.293 C  
HETATM    7  C   UNL     1     -11.796  15.140  68.937  1.00  0.00    -0.337 C  
BRANCH   6   8
HETATM    8  C   UNL     1     -11.379  12.743  68.708  1.00  0.00    -0.288 C  
HETATM    9  O   UNL     1     -10.078  13.107  68.616  1.00  0.00    -0.328 OA 
HETATM   10  H   UNL     1      -9.573  12.469  68.124  1.00  0.00     0.000 HD 
BRANCH   8  11
HETATM   11  N   UNL     1     -11.918  11.690  68.189  1.00  0.00    -0.590 NA 
HETATM   12  H   UNL     1     -12.851  11.729  67.776  1.00  0.00     0.000 HD 
BRANCH  11  13
HETATM   13  C   UNL     1     -11.185  10.487  68.209  1.00  0.00    -0.291 A  
HETATM   14  C   UNL     1     -11.072   9.728  69.368  1.00  0.00    -0.170 A  
HETATM   15  C   UNL     1     -10.131  10.632  65.800  1.00  0.00    -0.327 C  
HETATM   16  S   UNL     1      -9.998   8.408  69.137  1.00  0.00    -0.201 SA 
HETATM   17  C   UNL     1      -9.675   8.859  67.530  1.00  0.00    -0.170 A  
HETATM   18  C   UNL     1     -10.332  10.014  67.146  1.00  0.00    -0.300 A  
BRANCH  14  19
HETATM   19  C   UNL     1     -11.660   9.874  70.685  1.00  0.00    -0.335 C  
HETATM   20  O   UNL     1     -12.625  10.583  70.968  1.00  0.00    -0.333 OA 
BRANCH  19  21
HETATM   21  O   UNL     1     -10.967   9.153  71.621  1.00  0.00    -0.335 OA 
HETATM   22  C   UNL     1     -11.787   8.274  72.392  1.00  0.00    -0.396 C  
ENDBRANCH  19  21
ENDBRANCH  14  19
ENDBRANCH  11  13
ENDBRANCH   8  11
ENDBRANCH   6   8
ENDBRANCH   4   6
ENDBRANCH   3   4
ENDBRANCH   2   3
TORSDOF 8
ENDMDL
MODEL       82
REMARK 921   NORMALIZED FREE ENERGY PREDICTED BY IDOCK:   -4.67 KCAL/MOL
REMARK 922        TOTAL FREE ENERGY PREDICTED BY IDOCK:   -7.56 KCAL/MOL
REMARK 923 INTER-LIGAND FREE ENERGY PREDICTED BY IDOCK:   -6.45 KCAL/MOL
REMARK 924 INTRA-LIGAND FREE ENERGY PREDICTED BY IDOCK:   -1.10 KCAL/MOL
REMARK 927      BINDING AFFINITY PREDICTED BY RF-SCORE:    0.00 PKD
ROOT
HETATM    1  C   UNL     1      -9.372   7.537  66.447  1.00  0.00    -0.211 C  
HETATM    2  C   UNL     1     -10.249   8.566  67.149  1.00  0.00    -0.355 C  
ENDROOT
BRANCH   2   3
HETATM    3  C   UNL     1     -10.225   9.894  66.390  1.00  0.00    -0.222 C  
BRANCH   3   4
HETATM    4  N   UNL     1     -10.123  11.034  67.313  1.00  0.00    -0.185 NA 
HETATM    5  H   UNL     1      -9.166  11.163  67.643  1.00  0.00     0.000 HD 
BRANCH   4   6
HETATM    6  C   UNL     1     -10.661  12.281  66.696  1.00  0.00    -0.245 C  
HETATM    7  C   UNL     1     -11.344  12.033  65.347  1.00  0.00    -0.375 C  
BRANCH   6   8
HETATM    8  C   UNL     1     -11.752  12.825  67.622  1.00  0.00    -0.367 C  
HETATM    9  O   UNL     1     -12.133  11.901  68.536  1.00  0.00    -0.412 OA 
HETATM   10  H   UNL     1     -12.810  12.239  69.111  1.00  0.00     0.000 HD 
BRANCH   8  11
HETATM   11  N   UNL     1     -12.236  14.016  67.489  1.00  0.00    -0.535 NA 
HETATM   12  H   UNL     1     -13.186  14.159  67.145  1.00  0.00     0.000 HD 
BRANCH  11  13
HETATM   13  C   UNL     1     -11.419  15.110  67.834  1.00  0.00    -0.332 A  
HETATM   14  C   UNL     1     -11.427  15.644  69.118  1.00  0.00    -0.359 A  
HETATM   15  C   UNL     1     -10.508  15.689  65.432  1.00  0.00    -0.435 C  
HETATM   16  S   UNL     1     -10.457  17.058  69.203  1.00  0.00    -0.272 SA 
HETATM   17  C   UNL     1     -10.056  16.969  67.553  1.00  0.00    -0.294 A  
HETATM   18  C   UNL     1     -10.660  15.909  66.903  1.00  0.00    -0.309 A  
BRANCH  14  19
HETATM   19  C   UNL     1     -12.108  15.240  70.333  1.00  0.00    -0.348 C  
HETATM   20  O   UNL     1     -12.970  14.367  70.417  1.00  0.00    -0.320 OA 
BRANCH  19  21
HETATM   21  O   UNL     1     -11.711  16.000  71.401  1.00  0.00    -0.421 OA 
HETATM   22  C   UNL     1     -12.571  15.891  72.534  1.00  0.00    -0.457 C  
ENDBRANCH  19  21
ENDBRANCH  14  19
ENDBRANCH  11  13
ENDBRANCH   8  11
ENDBRANCH   6   8
ENDBRANCH   4   6
ENDBRANCH   3   4
ENDBRANCH   2   3
TORSDOF 8
ENDMDL
MODEL       83
REMARK 921   NORMALIZED FREE ENERGY PREDICTED BY IDOCK:   -4.65 KCAL/MOL
REMARK 922        TOTAL FREE ENERGY PREDICTED BY IDOCK:   -7.53 KCAL/MOL
REMARK 923 INTER-LIGAND FREE ENERGY PREDICTED BY IDOCK:   -6.38 KCAL/MOL
REMARK 924 INTRA-LIGAND FREE ENERGY PREDICTED BY IDOCK:   -1.15 KCAL/MOL
REMARK 927      BINDING AFFINITY PREDICTED BY RF-SCORE:    0.00 PKD
ROOT
HETATM    1  C   UNL     1     -11.085  11.572  63.505  1.00  0.00    -0.434 C  
HETATM    2  C   UNL     1     -12.443  12.254  63.619  1.00  0.00    -0.647 C  
ENDROOT
BRANCH   2   3
HETATM    3  C   UNL     1     -12.523  13.069  64.911  1.00  0.00    -0.455 C  
BRANCH   3   4
HETATM    4  N   UNL     1     -11.184  13.417  65.406  1.00  0.00    -0.286 NA 
HETATM    5  H   UNL     1     -10.832  14.268  64.966  1.00  0.00     0.000 HD 
BRANCH   4   6
HETATM    6  C   UNL     1     -11.165  13.523  66.893  1.00  0.00    -0.311 C  
HETATM    7  C   UNL     1     -11.587  12.224  67.589  1.00  0.00    -0.421 C  
BRANCH   6   8
HETATM    8  C   UNL     1      -9.718  13.775  67.325  1.00  0.00    -0.242 C  
HETATM    9  O   UNL     1      -9.506  13.376  68.603  1.00  0.00    -0.360 OA 
HETATM   10  H   UNL     1      -8.608  13.533  68.871  1.00  0.00     0.000 HD 
BRANCH   8  11
HETATM   11  N   UNL     1      -8.852  14.327  66.542  1.00  0.00    -0.463 NA 
HETATM   12  H   UNL     1      -8.695  13.968  65.600  1.00  0.00     0.000 HD 
BRANCH  11  13
HETATM   13  C   UNL     1      -8.130  15.438  67.022  1.00  0.00    -0.230 A  
HETATM   14  C   UNL     1      -8.578  16.737  66.813  1.00  0.00    -0.232 A  
HETATM   15  C   UNL     1      -5.978  14.173  67.860  1.00  0.00    -0.143 C  
HETATM   16  S   UNL     1      -7.426  17.882  67.368  1.00  0.00    -0.203 SA 
HETATM   17  C   UNL     1      -6.344  16.665  67.855  1.00  0.00    -0.134 A  
HETATM   18  C   UNL     1      -6.803  15.389  67.585  1.00  0.00    -0.208 A  
BRANCH  14  19
HETATM   19  C   UNL     1      -9.787  17.261  66.207  1.00  0.00    -0.285 C  
HETATM   20  O   UNL     1     -10.420  16.735  65.293  1.00  0.00    -0.630 OA 
BRANCH  19  21
HETATM   21  O   UNL     1     -10.126  18.474  66.745  1.00  0.00    -0.336 OA 
HETATM   22  C   UNL     1     -10.784  19.347  65.826  1.00  0.00    -0.365 C  
ENDBRANCH  19  21
ENDBRANCH  14  19
ENDBRANCH  11  13
ENDBRANCH   8  11
ENDBRANCH   6   8
ENDBRANCH   4   6
ENDBRANCH   3   4
ENDBRANCH   2   3
TORSDOF 8
ENDMDL
MODEL       84
REMARK 921   NORMALIZED FREE ENERGY PREDICTED BY IDOCK:   -4.64 KCAL/MOL
REMARK 922        TOTAL FREE ENERGY PREDICTED BY IDOCK:   -7.52 KCAL/MOL
REMARK 923 INTER-LIGAND FREE ENERGY PREDICTED BY IDOCK:   -6.65 KCAL/MOL
REMARK 924 INTRA-LIGAND FREE ENERGY PREDICTED BY IDOCK:   -0.87 KCAL/MOL
REMARK 927      BINDING AFFINITY PREDICTED BY RF-SCORE:    0.00 PKD
ROOT
HETATM    1  C   UNL     1     -10.957   6.449  67.663  1.00  0.00    -0.441 C  
HETATM    2  C   UNL     1      -9.893   7.526  67.485  1.00  0.00    -0.209 C  
ENDROOT
BRANCH   2   3
HETATM    3  C   UNL     1     -10.524   8.814  66.953  1.00  0.00    -0.249 C  
BRANCH   3   4
HETATM    4  N   UNL     1     -10.158   9.970  67.784  1.00  0.00    -0.173 NA 
HETATM    5  H   UNL     1     -10.058  10.817  67.223  1.00  0.00     0.000 HD 
BRANCH   4   6
HETATM    6  C   UNL     1     -11.126  10.165  68.901  1.00  0.00    -0.207 C  
HETATM    7  C   UNL     1     -10.525   9.845  70.274  1.00  0.00    -0.348 C  
BRANCH   6   8
HETATM    8  C   UNL     1     -11.497  11.649  68.944  1.00  0.00    -0.287 C  
HETATM    9  O   UNL     1     -12.160  12.027  67.825  1.00  0.00    -0.537 OA 
HETATM   10  H   UNL     1     -12.390  12.949  67.852  1.00  0.00     0.000 HD 
BRANCH   8  11
HETATM   11  N   UNL     1     -11.171  12.412  69.935  1.00  0.00    -0.486 NA 
HETATM   12  H   UNL     1     -10.208  12.455  70.269  1.00  0.00     0.000 HD 
BRANCH  11  13
HETATM   13  C   UNL     1     -12.182  13.183  70.543  1.00  0.00    -0.328 A  
HETATM   14  C   UNL     1     -12.240  14.562  70.374  1.00  0.00    -0.329 A  
HETATM   15  C   UNL     1     -13.270  11.301  72.028  1.00  0.00    -0.437 C  
HETATM   16  S   UNL     1     -13.473  15.250  71.352  1.00  0.00    -0.524 SA 
HETATM   17  C   UNL     1     -13.901  13.739  72.001  1.00  0.00    -0.485 A  
HETATM   18  C   UNL     1     -13.117  12.702  71.530  1.00  0.00    -0.373 A  
BRANCH  14  19
HETATM   19  C   UNL     1     -11.452  15.476  69.570  1.00  0.00    -0.333 C  
HETATM   20  O   UNL     1     -11.737  15.869  68.441  1.00  0.00    -0.358 OA 
BRANCH  19  21
HETATM   21  O   UNL     1     -10.290  15.822  70.208  1.00  0.00    -0.286 OA 
HETATM   22  C   UNL     1      -9.112  15.514  69.463  1.00  0.00    -0.260 C  
ENDBRANCH  19  21
ENDBRANCH  14  19
ENDBRANCH  11  13
ENDBRANCH   8  11
ENDBRANCH   6   8
ENDBRANCH   4   6
ENDBRANCH   3   4
ENDBRANCH   2   3
TORSDOF 8
ENDMDL
MODEL       85
REMARK 921   NORMALIZED FREE ENERGY PREDICTED BY IDOCK:   -4.64 KCAL/MOL
REMARK 922        TOTAL FREE ENERGY PREDICTED BY IDOCK:   -7.51 KCAL/MOL
REMARK 923 INTER-LIGAND FREE ENERGY PREDICTED BY IDOCK:   -6.55 KCAL/MOL
REMARK 924 INTRA-LIGAND FREE ENERGY PREDICTED BY IDOCK:   -0.97 KCAL/MOL
REMARK 927      BINDING AFFINITY PREDICTED BY RF-SCORE:    0.00 PKD
ROOT
HETATM    1  C   UNL     1     -10.410  19.182  67.799  1.00  0.00    -0.513 C  
HETATM    2  C   UNL     1     -10.354  18.055  66.775  1.00  0.00    -0.373 C  
ENDROOT
BRANCH   2   3
HETATM    3  C   UNL     1      -9.094  17.212  66.980  1.00  0.00    -0.230 C  
BRANCH   3   4
HETATM    4  N   UNL     1      -9.346  15.795  66.684  1.00  0.00    -0.239 NA 
HETATM    5  H   UNL     1      -9.087  15.197  67.470  1.00  0.00     0.000 HD 
BRANCH   4   6
HETATM    6  C   UNL     1     -10.761  15.570  66.269  1.00  0.00    -0.307 C  
HETATM    7  C   UNL     1     -10.881  14.932  64.881  1.00  0.00    -0.431 C  
BRANCH   6   8
HETATM    8  C   UNL     1     -11.379  14.566  67.244  1.00  0.00    -0.350 C  
HETATM    9  O   UNL     1     -12.625  14.200  66.855  1.00  0.00    -0.553 OA 
HETATM   10  H   UNL     1     -13.009  13.577  67.461  1.00  0.00     0.000 HD 
BRANCH   8  11
HETATM   11  N   UNL     1     -10.762  14.167  68.306  1.00  0.00    -0.243 NA 
HETATM   12  H   UNL     1      -9.904  14.624  68.616  1.00  0.00     0.000 HD 
BRANCH  11  13
HETATM   13  C   UNL     1     -11.304  13.083  69.026  1.00  0.00    -0.289 A  
HETATM   14  C   UNL     1     -12.106  13.286  70.143  1.00  0.00    -0.333 A  
HETATM   15  C   UNL     1     -10.043  11.127  67.795  1.00  0.00    -0.200 C  
HETATM   16  S   UNL     1     -12.490  11.795  70.904  1.00  0.00    -0.238 SA 
HETATM   17  C   UNL     1     -11.584  10.904  69.775  1.00  0.00    -0.322 A  
HETATM   18  C   UNL     1     -10.953  11.697  68.835  1.00  0.00    -0.282 A  
BRANCH  14  19
HETATM   19  C   UNL     1     -12.623  14.492  70.761  1.00  0.00    -0.351 C  
HETATM   20  O   UNL     1     -12.173  15.626  70.612  1.00  0.00    -0.366 OA 
BRANCH  19  21
HETATM   21  O   UNL     1     -13.670  14.210  71.598  1.00  0.00    -0.363 OA 
HETATM   22  C   UNL     1     -14.262  15.368  72.187  1.00  0.00    -0.565 C  
ENDBRANCH  19  21
ENDBRANCH  14  19
ENDBRANCH  11  13
ENDBRANCH   8  11
ENDBRANCH   6   8
ENDBRANCH   4   6
ENDBRANCH   3   4
ENDBRANCH   2   3
TORSDOF 8
ENDMDL
MODEL       86
REMARK 921   NORMALIZED FREE ENERGY PREDICTED BY IDOCK:   -4.63 KCAL/MOL
REMARK 922        TOTAL FREE ENERGY PREDICTED BY IDOCK:   -7.51 KCAL/MOL
REMARK 923 INTER-LIGAND FREE ENERGY PREDICTED BY IDOCK:   -6.63 KCAL/MOL
REMARK 924 INTRA-LIGAND FREE ENERGY PREDICTED BY IDOCK:   -0.88 KCAL/MOL
REMARK 927      BINDING AFFINITY PREDICTED BY RF-SCORE:    0.00 PKD
ROOT
HETATM    1  C   UNL     1     -12.180  12.067  63.460  1.00  0.00    -0.653 C  
HETATM    2  C   UNL     1     -10.668  12.032  63.650  1.00  0.00    -0.506 C  
ENDROOT
BRANCH   2   3
HETATM    3  C   UNL     1     -10.267  10.825  64.500  1.00  0.00    -0.359 C  
BRANCH   3   4
HETATM    4  N   UNL     1      -9.833  11.238  65.843  1.00  0.00    -0.222 NA 
HETATM    5  H   UNL     1      -9.394  12.159  65.827  1.00  0.00     0.000 HD 
BRANCH   4   6
HETATM    6  C   UNL     1     -10.960  11.185  66.818  1.00  0.00    -0.249 C  
HETATM    7  C   UNL     1     -10.841  10.019  67.805  1.00  0.00    -0.337 C  
BRANCH   6   8
HETATM    8  C   UNL     1     -10.902  12.457  67.667  1.00  0.00    -0.225 C  
HETATM    9  O   UNL     1      -9.836  12.446  68.503  1.00  0.00    -0.278 OA 
HETATM   10  H   UNL     1      -9.800  13.235  69.031  1.00  0.00     0.000 HD 
BRANCH   8  11
HETATM   11  N   UNL     1     -11.796  13.385  67.580  1.00  0.00    -0.365 NA 
HETATM   12  H   UNL     1     -12.659  13.233  67.056  1.00  0.00     0.000 HD 
BRANCH  11  13
HETATM   13  C   UNL     1     -11.550  14.612  68.227  1.00  0.00    -0.326 A  
HETATM   14  C   UNL     1     -10.924  15.665  67.569  1.00  0.00    -0.309 A  
HETATM   15  C   UNL     1     -12.266  13.919  70.664  1.00  0.00    -0.443 C  
HETATM   16  S   UNL     1     -10.616  16.967  68.644  1.00  0.00    -0.347 SA 
HETATM   17  C   UNL     1     -11.283  16.130  69.964  1.00  0.00    -0.357 A  
HETATM   18  C   UNL     1     -11.717  14.858  69.639  1.00  0.00    -0.356 A  
BRANCH  14  19
HETATM   19  C   UNL     1     -10.484  15.827  66.196  1.00  0.00    -0.317 C  
HETATM   20  O   UNL     1      -9.643  16.633  65.801  1.00  0.00    -0.492 OA 
BRANCH  19  21
HETATM   21  O   UNL     1     -11.169  14.993  65.354  1.00  0.00    -0.345 OA 
HETATM   22  C   UNL     1     -11.838  15.672  64.291  1.00  0.00    -0.146 C  
ENDBRANCH  19  21
ENDBRANCH  14  19
ENDBRANCH  11  13
ENDBRANCH   8  11
ENDBRANCH   6   8
ENDBRANCH   4   6
ENDBRANCH   3   4
ENDBRANCH   2   3
TORSDOF 8
ENDMDL
MODEL       87
REMARK 921   NORMALIZED FREE ENERGY PREDICTED BY IDOCK:   -4.62 KCAL/MOL
REMARK 922        TOTAL FREE ENERGY PREDICTED BY IDOCK:   -7.48 KCAL/MOL
REMARK 923 INTER-LIGAND FREE ENERGY PREDICTED BY IDOCK:   -6.82 KCAL/MOL
REMARK 924 INTRA-LIGAND FREE ENERGY PREDICTED BY IDOCK:   -0.66 KCAL/MOL
REMARK 927      BINDING AFFINITY PREDICTED BY RF-SCORE:    0.00 PKD
ROOT
HETATM    1  C   UNL     1     -11.134   6.206  69.818  1.00  0.00    -0.486 C  
HETATM    2  C   UNL     1     -11.084   6.791  71.224  1.00  0.00    -0.303 C  
ENDROOT
BRANCH   2   3
HETATM    3  C   UNL     1     -11.355   8.297  71.184  1.00  0.00    -0.263 C  
BRANCH   3   4
HETATM    4  N   UNL     1     -11.583   8.761  69.808  1.00  0.00    -0.371 NA 
HETATM    5  H   UNL     1     -12.552   9.048  69.665  1.00  0.00     0.000 HD 
BRANCH   4   6
HETATM    6  C   UNL     1     -10.631   9.848  69.437  1.00  0.00    -0.229 C  
HETATM    7  C   UNL     1      -9.966   9.620  68.076  1.00  0.00    -0.190 C  
BRANCH   6   8
HETATM    8  C   UNL     1     -11.434  11.143  69.297  1.00  0.00    -0.294 C  
HETATM    9  O   UNL     1     -12.393  11.031  68.347  1.00  0.00    -0.762 OA 
HETATM   10  H   UNL     1     -12.891  11.836  68.259  1.00  0.00     0.000 HD 
BRANCH   8  11
HETATM   11  N   UNL     1     -11.174  12.195  70.001  1.00  0.00    -0.470 NA 
HETATM   12  H   UNL     1     -10.214  12.523  70.118  1.00  0.00     0.000 HD 
BRANCH  11  13
HETATM   13  C   UNL     1     -12.249  12.877  70.604  1.00  0.00    -0.302 A  
HETATM   14  C   UNL     1     -12.457  14.234  70.388  1.00  0.00    -0.362 A  
HETATM   15  C   UNL     1     -13.102  10.947  72.179  1.00  0.00    -0.325 C  
HETATM   16  S   UNL     1     -13.738  14.824  71.368  1.00  0.00    -0.434 SA 
HETATM   17  C   UNL     1     -13.990  13.302  72.080  1.00  0.00    -0.377 A  
HETATM   18  C   UNL     1     -13.109  12.337  71.629  1.00  0.00    -0.408 A  
BRANCH  14  19
HETATM   19  C   UNL     1     -11.785  15.196  69.535  1.00  0.00    -0.327 C  
HETATM   20  O   UNL     1     -11.234  16.229  69.911  1.00  0.00    -0.340 OA 
BRANCH  19  21
HETATM   21  O   UNL     1     -11.883  14.841  68.216  1.00  0.00    -0.320 OA 
HETATM   22  C   UNL     1     -10.628  14.806  67.536  1.00  0.00    -0.259 C  
ENDBRANCH  19  21
ENDBRANCH  14  19
ENDBRANCH  11  13
ENDBRANCH   8  11
ENDBRANCH   6   8
ENDBRANCH   4   6
ENDBRANCH   3   4
ENDBRANCH   2   3
TORSDOF 8
ENDMDL
MODEL       88
REMARK 921   NORMALIZED FREE ENERGY PREDICTED BY IDOCK:   -4.61 KCAL/MOL
REMARK 922        TOTAL FREE ENERGY PREDICTED BY IDOCK:   -7.48 KCAL/MOL
REMARK 923 INTER-LIGAND FREE ENERGY PREDICTED BY IDOCK:   -6.71 KCAL/MOL
REMARK 924 INTRA-LIGAND FREE ENERGY PREDICTED BY IDOCK:   -0.77 KCAL/MOL
REMARK 927      BINDING AFFINITY PREDICTED BY RF-SCORE:    0.00 PKD
ROOT
HETATM    1  C   UNL     1      -9.164  10.267  64.234  1.00  0.00    -0.300 C  
HETATM    2  C   UNL     1      -8.585   9.702  65.525  1.00  0.00    -0.162 C  
ENDROOT
BRANCH   2   3
HETATM    3  C   UNL     1      -9.317  10.283  66.736  1.00  0.00    -0.160 C  
BRANCH   3   4
HETATM    4  N   UNL     1     -10.664  10.749  66.374  1.00  0.00    -0.205 NA 
HETATM    5  H   UNL     1     -11.373  10.048  66.592  1.00  0.00     0.000 HD 
BRANCH   4   6
HETATM    6  C   UNL     1     -10.975  12.060  67.012  1.00  0.00    -0.274 C  
HETATM    7  C   UNL     1     -12.100  12.818  66.299  1.00  0.00    -0.400 C  
BRANCH   6   8
HETATM    8  C   UNL     1     -11.491  11.780  68.425  1.00  0.00    -0.294 C  
HETATM    9  O   UNL     1     -12.410  10.784  68.429  1.00  0.00    -0.813 OA 
HETATM   10  H   UNL     1     -12.731  10.611  69.306  1.00  0.00     0.000 HD 
BRANCH   8  11
HETATM   11  N   UNL     1     -11.090  12.455  69.451  1.00  0.00    -0.443 NA 
HETATM   12  H   UNL     1     -10.104  12.473  69.713  1.00  0.00     0.000 HD 
BRANCH  11  13
HETATM   13  C   UNL     1     -12.050  13.166  70.199  1.00  0.00    -0.321 A  
HETATM   14  C   UNL     1     -12.171  14.547  70.094  1.00  0.00    -0.342 A  
HETATM   15  C   UNL     1     -12.903  11.191  71.717  1.00  0.00    -0.479 C  
HETATM   16  S   UNL     1     -13.308  15.153  71.230  1.00  0.00    -0.498 SA 
HETATM   17  C   UNL     1     -13.612  13.604  71.860  1.00  0.00    -0.427 A  
HETATM   18  C   UNL     1     -12.852  12.614  71.263  1.00  0.00    -0.344 A  
BRANCH  14  19
HETATM   19  C   UNL     1     -11.507  15.518  69.246  1.00  0.00    -0.340 C  
HETATM   20  O   UNL     1     -11.324  15.409  68.035  1.00  0.00    -0.327 OA 
BRANCH  19  21
HETATM   21  O   UNL     1     -11.045  16.581  69.976  1.00  0.00    -0.345 OA 
HETATM   22  C   UNL     1     -10.325  17.540  69.202  1.00  0.00    -0.239 C  
ENDBRANCH  19  21
ENDBRANCH  14  19
ENDBRANCH  11  13
ENDBRANCH   8  11
ENDBRANCH   6   8
ENDBRANCH   4   6
ENDBRANCH   3   4
ENDBRANCH   2   3
TORSDOF 8
ENDMDL
MODEL       89
REMARK 921   NORMALIZED FREE ENERGY PREDICTED BY IDOCK:   -4.59 KCAL/MOL
REMARK 922        TOTAL FREE ENERGY PREDICTED BY IDOCK:   -7.45 KCAL/MOL
REMARK 923 INTER-LIGAND FREE ENERGY PREDICTED BY IDOCK:   -6.33 KCAL/MOL
REMARK 924 INTRA-LIGAND FREE ENERGY PREDICTED BY IDOCK:   -1.12 KCAL/MOL
REMARK 927      BINDING AFFINITY PREDICTED BY RF-SCORE:    0.00 PKD
ROOT
HETATM    1  C   UNL     1      -9.920   4.952  71.431  1.00  0.00    -0.266 C  
HETATM    2  C   UNL     1     -10.828   6.104  71.018  1.00  0.00    -0.338 C  
ENDROOT
BRANCH   2   3
HETATM    3  C   UNL     1     -11.030   6.106  69.502  1.00  0.00    -0.393 C  
BRANCH   3   4
HETATM    4  N   UNL     1     -11.257   7.467  68.995  1.00  0.00    -0.431 NA 
HETATM    5  H   UNL     1     -11.546   8.100  69.741  1.00  0.00     0.000 HD 
BRANCH   4   6
HETATM    6  C   UNL     1     -10.060   7.983  68.272  1.00  0.00    -0.196 C  
HETATM    7  C   UNL     1      -9.762   7.211  66.982  1.00  0.00    -0.222 C  
BRANCH   6   8
HETATM    8  C   UNL     1     -10.360   9.420  67.838  1.00  0.00    -0.225 C  
HETATM    9  O   UNL     1      -9.252  10.036  67.361  1.00  0.00    -0.137 OA 
HETATM   10  H   UNL     1      -9.438  10.927  67.092  1.00  0.00     0.000 HD 
BRANCH   8  11
HETATM   11  N   UNL     1     -11.536   9.943  67.956  1.00  0.00    -0.581 NA 
HETATM   12  H   UNL     1     -12.362   9.461  67.600  1.00  0.00     0.000 HD 
BRANCH  11  13
HETATM   13  C   UNL     1     -11.647  11.197  68.589  1.00  0.00    -0.315 A  
HETATM   14  C   UNL     1     -11.772  11.302  69.969  1.00  0.00    -0.346 A  
HETATM   15  C   UNL     1     -11.863  12.702  66.439  1.00  0.00    -0.466 C  
HETATM   16  S   UNL     1     -12.045  12.931  70.440  1.00  0.00    -0.215 SA 
HETATM   17  C   UNL     1     -12.019  13.476  68.831  1.00  0.00    -0.341 A  
HETATM   18  C   UNL     1     -11.840  12.457  67.913  1.00  0.00    -0.370 A  
BRANCH  14  19
HETATM   19  C   UNL     1     -11.741  10.309  71.025  1.00  0.00    -0.370 C  
HETATM   20  O   UNL     1     -10.777   9.605  71.322  1.00  0.00    -0.335 OA 
BRANCH  19  21
HETATM   21  O   UNL     1     -12.960  10.200  71.640  1.00  0.00    -0.385 OA 
HETATM   22  C   UNL     1     -13.453   8.861  71.706  1.00  0.00    -0.397 C  
ENDBRANCH  19  21
ENDBRANCH  14  19
ENDBRANCH  11  13
ENDBRANCH   8  11
ENDBRANCH   6   8
ENDBRANCH   4   6
ENDBRANCH   3   4
ENDBRANCH   2   3
TORSDOF 8
ENDMDL
MODEL       90
REMARK 921   NORMALIZED FREE ENERGY PREDICTED BY IDOCK:   -4.58 KCAL/MOL
REMARK 922        TOTAL FREE ENERGY PREDICTED BY IDOCK:   -7.44 KCAL/MOL
REMARK 923 INTER-LIGAND FREE ENERGY PREDICTED BY IDOCK:   -6.68 KCAL/MOL
REMARK 924 INTRA-LIGAND FREE ENERGY PREDICTED BY IDOCK:   -0.76 KCAL/MOL
REMARK 927      BINDING AFFINITY PREDICTED BY RF-SCORE:    0.00 PKD
ROOT
HETATM    1  C   UNL     1     -14.126  14.751  71.698  1.00  0.00    -0.590 C  
HETATM    2  C   UNL     1     -12.656  14.673  72.092  1.00  0.00    -0.404 C  
ENDROOT
BRANCH   2   3
HETATM    3  C   UNL     1     -11.787  15.376  71.047  1.00  0.00    -0.360 C  
BRANCH   3   4
HETATM    4  N   UNL     1     -11.055  14.404  70.222  1.00  0.00    -0.475 NA 
HETATM    5  H   UNL     1     -11.422  13.460  70.343  1.00  0.00     0.000 HD 
BRANCH   4   6
HETATM    6  C   UNL     1     -11.047  14.808  68.787  1.00  0.00    -0.265 C  
HETATM    7  C   UNL     1     -10.894  16.321  68.593  1.00  0.00    -0.322 C  
BRANCH   6   8
HETATM    8  C   UNL     1      -9.816  14.178  68.131  1.00  0.00    -0.229 C  
HETATM    9  O   UNL     1      -8.989  13.630  69.054  1.00  0.00    -0.374 OA 
HETATM   10  H   UNL     1      -8.225  13.239  68.647  1.00  0.00     0.000 HD 
BRANCH   8  11
HETATM   11  N   UNL     1      -9.622  14.213  66.854  1.00  0.00    -0.260 NA 
HETATM   12  H   UNL     1      -8.698  14.417  66.471  1.00  0.00     0.000 HD 
BRANCH  11  13
HETATM   13  C   UNL     1     -10.718  13.963  66.005  1.00  0.00    -0.287 A  
HETATM   14  C   UNL     1     -11.237  12.683  65.853  1.00  0.00    -0.314 A  
HETATM   15  C   UNL     1     -10.905  16.344  64.896  1.00  0.00    -0.268 C  
HETATM   16  S   UNL     1     -12.458  12.653  64.646  1.00  0.00    -0.421 SA 
HETATM   17  C   UNL     1     -12.276  14.311  64.320  1.00  0.00    -0.423 A  
HETATM   18  C   UNL     1     -11.285  14.909  65.077  1.00  0.00    -0.408 A  
BRANCH  14  19
HETATM   19  C   UNL     1     -10.916  11.422  66.494  1.00  0.00    -0.272 C  
HETATM   20  O   UNL     1     -11.561  10.888  67.395  1.00  0.00    -0.509 OA 
BRANCH  19  21
HETATM   21  O   UNL     1      -9.747  10.901  66.006  1.00  0.00    -0.206 OA 
HETATM   22  C   UNL     1      -9.808   9.500  65.740  1.00  0.00    -0.293 C  
ENDBRANCH  19  21
ENDBRANCH  14  19
ENDBRANCH  11  13
ENDBRANCH   8  11
ENDBRANCH   6   8
ENDBRANCH   4   6
ENDBRANCH   3   4
ENDBRANCH   2   3
TORSDOF 8
ENDMDL
MODEL       91
REMARK 921   NORMALIZED FREE ENERGY PREDICTED BY IDOCK:   -4.56 KCAL/MOL
REMARK 922        TOTAL FREE ENERGY PREDICTED BY IDOCK:   -7.41 KCAL/MOL
REMARK 923 INTER-LIGAND FREE ENERGY PREDICTED BY IDOCK:   -6.25 KCAL/MOL
REMARK 924 INTRA-LIGAND FREE ENERGY PREDICTED BY IDOCK:   -1.15 KCAL/MOL
REMARK 927      BINDING AFFINITY PREDICTED BY RF-SCORE:    0.00 PKD
ROOT
HETATM    1  C   UNL     1      -9.781  20.668  67.331  1.00  0.00    -0.552 C  
HETATM    2  C   UNL     1      -9.989  19.526  68.319  1.00  0.00    -0.533 C  
ENDROOT
BRANCH   2   3
HETATM    3  C   UNL     1     -10.883  18.447  67.705  1.00  0.00    -0.259 C  
BRANCH   3   4
HETATM    4  N   UNL     1     -10.198  17.147  67.660  1.00  0.00    -0.316 NA 
HETATM    5  H   UNL     1     -10.797  16.397  68.004  1.00  0.00     0.000 HD 
BRANCH   4   6
HETATM    6  C   UNL     1      -9.683  16.852  66.292  1.00  0.00    -0.280 C  
HETATM    7  C   UNL     1      -8.195  17.184  66.130  1.00  0.00    -0.269 C  
BRANCH   6   8
HETATM    8  C   UNL     1      -9.800  15.343  66.064  1.00  0.00    -0.326 C  
HETATM    9  O   UNL     1      -8.597  14.731  66.173  1.00  0.00    -0.402 OA 
HETATM   10  H   UNL     1      -8.670  13.794  66.032  1.00  0.00     0.000 HD 
BRANCH   8  11
HETATM   11  N   UNL     1     -10.925  14.775  65.780  1.00  0.00    -0.324 NA 
HETATM   12  H   UNL     1     -11.684  15.303  65.347  1.00  0.00     0.000 HD 
BRANCH  11  13
HETATM   13  C   UNL     1     -11.077  13.408  66.084  1.00  0.00    -0.288 A  
HETATM   14  C   UNL     1     -11.457  12.987  67.353  1.00  0.00    -0.332 A  
HETATM   15  C   UNL     1     -10.141  12.402  63.838  1.00  0.00    -0.349 C  
HETATM   16  S   UNL     1     -11.408  11.274  67.474  1.00  0.00    -0.250 SA 
HETATM   17  C   UNL     1     -10.869  11.105  65.871  1.00  0.00    -0.157 A  
HETATM   18  C   UNL     1     -10.684  12.316  65.228  1.00  0.00    -0.329 A  
BRANCH  14  19
HETATM   19  C   UNL     1     -11.841  13.719  68.545  1.00  0.00    -0.370 C  
HETATM   20  O   UNL     1     -12.126  14.914  68.593  1.00  0.00    -0.266 OA 
BRANCH  19  21
HETATM   21  O   UNL     1     -11.796  12.918  69.655  1.00  0.00    -0.311 OA 
HETATM   22  C   UNL     1     -12.473  13.467  70.786  1.00  0.00    -0.341 C  
ENDBRANCH  19  21
ENDBRANCH  14  19
ENDBRANCH  11  13
ENDBRANCH   8  11
ENDBRANCH   6   8
ENDBRANCH   4   6
ENDBRANCH   3   4
ENDBRANCH   2   3
TORSDOF 8
ENDMDL
MODEL       92
REMARK 921   NORMALIZED FREE ENERGY PREDICTED BY IDOCK:   -4.56 KCAL/MOL
REMARK 922        TOTAL FREE ENERGY PREDICTED BY IDOCK:   -7.40 KCAL/MOL
REMARK 923 INTER-LIGAND FREE ENERGY PREDICTED BY IDOCK:   -6.40 KCAL/MOL
REMARK 924 INTRA-LIGAND FREE ENERGY PREDICTED BY IDOCK:   -1.00 KCAL/MOL
REMARK 927      BINDING AFFINITY PREDICTED BY RF-SCORE:    0.00 PKD
ROOT
HETATM    1  C   UNL     1     -12.074  13.190  63.646  1.00  0.00    -0.583 C  
HETATM    2  C   UNL     1     -11.414  13.635  64.946  1.00  0.00    -0.352 C  
ENDROOT
BRANCH   2   3
HETATM    3  C   UNL     1     -12.340  13.364  66.134  1.00  0.00    -0.380 C  
BRANCH   3   4
HETATM    4  N   UNL     1     -11.989  12.105  66.807  1.00  0.00    -0.615 NA 
HETATM    5  H   UNL     1     -11.492  11.471  66.179  1.00  0.00     0.000 HD 
BRANCH   4   6
HETATM    6  C   UNL     1     -11.217  12.354  68.057  1.00  0.00    -0.268 C  
HETATM    7  C   UNL     1     -11.625  13.652  68.762  1.00  0.00    -0.359 C  
BRANCH   6   8
HETATM    8  C   UNL     1     -11.541  11.226  69.039  1.00  0.00    -0.319 C  
HETATM    9  O   UNL     1     -12.785  10.730  68.831  1.00  0.00    -0.647 OA 
HETATM   10  H   UNL     1     -12.986  10.030  69.440  1.00  0.00     0.000 HD 
BRANCH   8  11
HETATM   11  N   UNL     1     -10.710  10.848  69.953  1.00  0.00    -0.462 NA 
HETATM   12  H   UNL     1     -10.515  11.441  70.761  1.00  0.00     0.000 HD 
BRANCH  11  13
HETATM   13  C   UNL     1     -10.080   9.597  69.806  1.00  0.00    -0.233 A  
HETATM   14  C   UNL     1     -10.583   8.457  70.423  1.00  0.00    -0.223 A  
HETATM   15  C   UNL     1      -7.920  10.394  68.530  1.00  0.00    -0.114 C  
HETATM   16  S   UNL     1      -9.530   7.119  70.197  1.00  0.00    -0.160 SA 
HETATM   17  C   UNL     1      -8.417   8.053  69.314  1.00  0.00    -0.136 A  
HETATM   18  C   UNL     1      -8.790   9.379  69.199  1.00  0.00    -0.143 A  
BRANCH  14  19
HETATM   19  C   UNL     1     -11.778   8.227  71.212  1.00  0.00    -0.283 C  
HETATM   20  O   UNL     1     -12.354   7.148  71.348  1.00  0.00    -0.337 OA 
BRANCH  19  21
HETATM   21  O   UNL     1     -12.241   9.392  71.763  1.00  0.00    -0.353 OA 
HETATM   22  C   UNL     1     -13.641   9.379  72.043  1.00  0.00    -0.433 C  
ENDBRANCH  19  21
ENDBRANCH  14  19
ENDBRANCH  11  13
ENDBRANCH   8  11
ENDBRANCH   6   8
ENDBRANCH   4   6
ENDBRANCH   3   4
ENDBRANCH   2   3
TORSDOF 8
ENDMDL
MODEL       93
REMARK 921   NORMALIZED FREE ENERGY PREDICTED BY IDOCK:   -4.55 KCAL/MOL
REMARK 922        TOTAL FREE ENERGY PREDICTED BY IDOCK:   -7.39 KCAL/MOL
REMARK 923 INTER-LIGAND FREE ENERGY PREDICTED BY IDOCK:   -6.22 KCAL/MOL
REMARK 924 INTRA-LIGAND FREE ENERGY PREDICTED BY IDOCK:   -1.17 KCAL/MOL
REMARK 927      BINDING AFFINITY PREDICTED BY RF-SCORE:    0.00 PKD
ROOT
HETATM    1  C   UNL     1      -8.814   5.135  69.991  1.00  0.00    -0.135 C  
HETATM    2  C   UNL     1      -9.662   6.201  70.675  1.00  0.00    -0.203 C  
ENDROOT
BRANCH   2   3
HETATM    3  C   UNL     1     -11.084   6.193  70.110  1.00  0.00    -0.378 C  
BRANCH   3   4
HETATM    4  N   UNL     1     -11.510   7.545  69.720  1.00  0.00    -0.469 NA 
HETATM    5  H   UNL     1     -11.841   8.079  70.524  1.00  0.00     0.000 HD 
BRANCH   4   6
HETATM    6  C   UNL     1     -10.427   8.267  68.992  1.00  0.00    -0.197 C  
HETATM    7  C   UNL     1     -10.480   8.051  67.476  1.00  0.00    -0.331 C  
BRANCH   6   8
HETATM    8  C   UNL     1     -10.640   9.767  69.207  1.00  0.00    -0.221 C  
HETATM    9  O   UNL     1      -9.540  10.352  69.739  1.00  0.00    -0.382 OA 
HETATM   10  H   UNL     1      -9.672  11.284  69.873  1.00  0.00     0.000 HD 
BRANCH   8  11
HETATM   11  N   UNL     1     -11.757  10.352  68.926  1.00  0.00    -0.522 NA 
HETATM   12  H   UNL     1     -12.298  10.078  68.105  1.00  0.00     0.000 HD 
BRANCH  11  13
HETATM   13  C   UNL     1     -12.208  11.376  69.781  1.00  0.00    -0.265 A  
HETATM   14  C   UNL     1     -11.959  12.715  69.501  1.00  0.00    -0.270 A  
HETATM   15  C   UNL     1     -13.090   9.875  71.757  1.00  0.00    -0.553 C  
HETATM   16  S   UNL     1     -12.484  13.721  70.789  1.00  0.00    -0.359 SA 
HETATM   17  C   UNL     1     -13.011  12.392  71.709  1.00  0.00    -0.316 A  
HETATM   18  C   UNL     1     -12.776  11.177  71.092  1.00  0.00    -0.510 A  
BRANCH  14  19
HETATM   19  C   UNL     1     -11.333  13.369  68.368  1.00  0.00    -0.294 C  
HETATM   20  O   UNL     1     -11.872  14.183  67.620  1.00  0.00    -0.360 OA 
BRANCH  19  21
HETATM   21  O   UNL     1     -10.050  12.926  68.186  1.00  0.00    -0.227 OA 
HETATM   22  C   UNL     1      -9.759  12.545  66.841  1.00  0.00    -0.232 C  
ENDBRANCH  19  21
ENDBRANCH  14  19
ENDBRANCH  11  13
ENDBRANCH   8  11
ENDBRANCH   6   8
ENDBRANCH   4   6
ENDBRANCH   3   4
ENDBRANCH   2   3
TORSDOF 8
ENDMDL
MODEL       94
REMARK 921   NORMALIZED FREE ENERGY PREDICTED BY IDOCK:   -4.52 KCAL/MOL
REMARK 922        TOTAL FREE ENERGY PREDICTED BY IDOCK:   -7.35 KCAL/MOL
REMARK 923 INTER-LIGAND FREE ENERGY PREDICTED BY IDOCK:   -6.45 KCAL/MOL
REMARK 924 INTRA-LIGAND FREE ENERGY PREDICTED BY IDOCK:   -0.90 KCAL/MOL
REMARK 927      BINDING AFFINITY PREDICTED BY RF-SCORE:    0.00 PKD
ROOT
HETATM    1  C   UNL     1      -9.702  20.119  67.409  1.00  0.00    -0.563 C  
HETATM    2  C   UNL     1     -10.698  18.971  67.520  1.00  0.00    -0.532 C  
ENDROOT
BRANCH   2   3
HETATM    3  C   UNL     1     -10.173  17.901  68.479  1.00  0.00    -0.390 C  
BRANCH   3   4
HETATM    4  N   UNL     1     -11.126  16.790  68.612  1.00  0.00    -0.297 NA 
HETATM    5  H   UNL     1     -11.201  16.256  67.746  1.00  0.00     0.000 HD 
BRANCH   4   6
HETATM    6  C   UNL     1     -10.780  15.914  69.768  1.00  0.00    -0.324 C  
HETATM    7  C   UNL     1     -11.636  16.195  71.008  1.00  0.00    -0.434 C  
BRANCH   6   8
HETATM    8  C   UNL     1     -11.090  14.469  69.367  1.00  0.00    -0.268 C  
HETATM    9  O   UNL     1     -12.425  14.241  69.330  1.00  0.00    -0.513 OA 
HETATM   10  H   UNL     1     -12.617  13.344  69.082  1.00  0.00     0.000 HD 
BRANCH   8  11
HETATM   11  N   UNL     1     -10.159  13.605  69.130  1.00  0.00    -0.424 NA 
HETATM   12  H   UNL     1      -9.275  13.635  69.639  1.00  0.00     0.000 HD 
BRANCH  11  13
HETATM   13  C   UNL     1     -10.397  12.621  68.151  1.00  0.00    -0.234 A  
HETATM   14  C   UNL     1     -10.703  11.311  68.501  1.00  0.00    -0.201 A  
HETATM   15  C   UNL     1      -9.734  14.021  66.021  1.00  0.00    -0.280 C  
HETATM   16  S   UNL     1     -10.785  10.306  67.111  1.00  0.00    -0.207 SA 
HETATM   17  C   UNL     1     -10.396  11.591  66.070  1.00  0.00    -0.246 A  
HETATM   18  C   UNL     1     -10.166  12.781  66.736  1.00  0.00    -0.245 A  
BRANCH  14  19
HETATM   19  C   UNL     1     -10.926  10.676  69.786  1.00  0.00    -0.280 C  
HETATM   20  O   UNL     1     -10.297   9.719  70.234  1.00  0.00    -0.258 OA 
BRANCH  19  21
HETATM   21  O   UNL     1     -11.985  11.245  70.443  1.00  0.00    -0.334 OA 
HETATM   22  C   UNL     1     -12.687  10.338  71.293  1.00  0.00    -0.421 C  
ENDBRANCH  19  21
ENDBRANCH  14  19
ENDBRANCH  11  13
ENDBRANCH   8  11
ENDBRANCH   6   8
ENDBRANCH   4   6
ENDBRANCH   3   4
ENDBRANCH   2   3
TORSDOF 8
ENDMDL
MODEL       95
REMARK 921   NORMALIZED FREE ENERGY PREDICTED BY IDOCK:   -4.51 KCAL/MOL
REMARK 922        TOTAL FREE ENERGY PREDICTED BY IDOCK:   -7.33 KCAL/MOL
REMARK 923 INTER-LIGAND FREE ENERGY PREDICTED BY IDOCK:   -6.37 KCAL/MOL
REMARK 924 INTRA-LIGAND FREE ENERGY PREDICTED BY IDOCK:   -0.97 KCAL/MOL
REMARK 927      BINDING AFFINITY PREDICTED BY RF-SCORE:    0.00 PKD
ROOT
HETATM    1  C   UNL     1      -9.410  16.019  67.250  1.00  0.00    -0.218 C  
HETATM    2  C   UNL     1      -9.735  15.503  65.853  1.00  0.00    -0.392 C  
ENDROOT
BRANCH   2   3
HETATM    3  C   UNL     1     -11.121  14.855  65.833  1.00  0.00    -0.338 C  
BRANCH   3   4
HETATM    4  N   UNL     1     -11.451  14.262  67.136  1.00  0.00    -0.341 NA 
HETATM    5  H   UNL     1     -12.090  14.855  67.666  1.00  0.00     0.000 HD 
BRANCH   4   6
HETATM    6  C   UNL     1     -11.988  12.879  66.983  1.00  0.00    -0.325 C  
HETATM    7  C   UNL     1     -11.362  12.124  65.806  1.00  0.00    -0.402 C  
BRANCH   6   8
HETATM    8  C   UNL     1     -11.605  12.088  68.236  1.00  0.00    -0.334 C  
HETATM    9  O   UNL     1     -10.607  12.697  68.921  1.00  0.00    -0.351 OA 
HETATM   10  H   UNL     1     -10.369  12.206  69.699  1.00  0.00     0.000 HD 
BRANCH   8  11
HETATM   11  N   UNL     1     -12.174  10.970  68.546  1.00  0.00    -0.781 NA 
HETATM   12  H   UNL     1     -13.001  10.647  68.043  1.00  0.00     0.000 HD 
BRANCH  11  13
HETATM   13  C   UNL     1     -11.621  10.209  69.594  1.00  0.00    -0.153 A  
HETATM   14  C   UNL     1     -10.770   9.139  69.341  1.00  0.00    -0.198 A  
HETATM   15  C   UNL     1     -12.965  11.267  71.596  1.00  0.00    -0.537 C  
HETATM   16  S   UNL     1     -10.381   8.306  70.791  1.00  0.00    -0.197 SA 
HETATM   17  C   UNL     1     -11.348   9.341  71.731  1.00  0.00    -0.367 A  
HETATM   18  C   UNL     1     -12.003  10.302  70.982  1.00  0.00    -0.483 A  
BRANCH  14  19
HETATM   19  C   UNL     1     -10.207   8.616  68.111  1.00  0.00    -0.205 C  
HETATM   20  O   UNL     1      -9.921   9.277  67.114  1.00  0.00    -0.186 OA 
BRANCH  19  21
HETATM   21  O   UNL     1     -10.075   7.254  68.165  1.00  0.00    -0.160 OA 
HETATM   22  C   UNL     1     -10.961   6.556  67.290  1.00  0.00    -0.400 C  
ENDBRANCH  19  21
ENDBRANCH  14  19
ENDBRANCH  11  13
ENDBRANCH   8  11
ENDBRANCH   6   8
ENDBRANCH   4   6
ENDBRANCH   3   4
ENDBRANCH   2   3
TORSDOF 8
ENDMDL
MODEL       96
REMARK 921   NORMALIZED FREE ENERGY PREDICTED BY IDOCK:   -4.45 KCAL/MOL
REMARK 922        TOTAL FREE ENERGY PREDICTED BY IDOCK:   -7.24 KCAL/MOL
REMARK 923 INTER-LIGAND FREE ENERGY PREDICTED BY IDOCK:   -6.33 KCAL/MOL
REMARK 924 INTRA-LIGAND FREE ENERGY PREDICTED BY IDOCK:   -0.91 KCAL/MOL
REMARK 927      BINDING AFFINITY PREDICTED BY RF-SCORE:    0.00 PKD
ROOT
HETATM    1  C   UNL     1      -8.944  20.184  67.011  1.00  0.00    -0.453 C  
HETATM    2  C   UNL     1     -10.270  19.717  67.602  1.00  0.00    -0.567 C  
ENDROOT
BRANCH   2   3
HETATM    3  C   UNL     1     -10.033  18.616  68.637  1.00  0.00    -0.388 C  
BRANCH   3   4
HETATM    4  N   UNL     1     -11.160  17.674  68.682  1.00  0.00    -0.108 NA 
HETATM    5  H   UNL     1     -11.573  17.541  67.759  1.00  0.00     0.000 HD 
BRANCH   4   6
HETATM    6  C   UNL     1     -10.759  16.375  69.295  1.00  0.00    -0.325 C  
HETATM    7  C   UNL     1     -11.368  16.157  70.684  1.00  0.00    -0.394 C  
BRANCH   6   8
HETATM    8  C   UNL     1     -11.315  15.253  68.415  1.00  0.00    -0.329 C  
HETATM    9  O   UNL     1     -12.318  14.587  69.037  1.00  0.00    -0.554 OA 
HETATM   10  H   UNL     1     -12.663  13.890  68.491  1.00  0.00     0.000 HD 
BRANCH   8  11
HETATM   11  N   UNL     1     -10.837  14.995  67.243  1.00  0.00    -0.303 NA 
HETATM   12  H   UNL     1     -11.152  15.514  66.423  1.00  0.00     0.000 HD 
BRANCH  11  13
HETATM   13  C   UNL     1      -9.869  13.978  67.127  1.00  0.00    -0.240 A  
HETATM   14  C   UNL     1     -10.234  12.644  66.988  1.00  0.00    -0.226 A  
HETATM   15  C   UNL     1      -7.722  15.427  67.600  1.00  0.00    -0.180 C  
HETATM   16  S   UNL     1      -8.855  11.621  67.028  1.00  0.00    -0.183 SA 
HETATM   17  C   UNL     1      -7.798  12.934  67.249  1.00  0.00    -0.131 A  
HETATM   18  C   UNL     1      -8.451  14.150  67.330  1.00  0.00    -0.214 A  
BRANCH  14  19
HETATM   19  C   UNL     1     -11.526  12.000  66.851  1.00  0.00    -0.337 C  
HETATM   20  O   UNL     1     -11.820  10.881  67.268  1.00  0.00    -0.389 OA 
BRANCH  19  21
HETATM   21  O   UNL     1     -12.396  12.780  66.137  1.00  0.00    -0.542 OA 
HETATM   22  C   UNL     1     -12.212  12.699  64.723  1.00  0.00    -0.465 C  
ENDBRANCH  19  21
ENDBRANCH  14  19
ENDBRANCH  11  13
ENDBRANCH   8  11
ENDBRANCH   6   8
ENDBRANCH   4   6
ENDBRANCH   3   4
ENDBRANCH   2   3
TORSDOF 8
ENDMDL
MODEL       97
REMARK 921   NORMALIZED FREE ENERGY PREDICTED BY IDOCK:   -4.44 KCAL/MOL
REMARK 922        TOTAL FREE ENERGY PREDICTED BY IDOCK:   -7.23 KCAL/MOL
REMARK 923 INTER-LIGAND FREE ENERGY PREDICTED BY IDOCK:   -6.05 KCAL/MOL
REMARK 924 INTRA-LIGAND FREE ENERGY PREDICTED BY IDOCK:   -1.19 KCAL/MOL
REMARK 927      BINDING AFFINITY PREDICTED BY RF-SCORE:    0.00 PKD
ROOT
HETATM    1  C   UNL     1      -9.415   6.616  66.457  1.00  0.00    -0.192 C  
HETATM    2  C   UNL     1      -9.512   8.133  66.347  1.00  0.00    -0.285 C  
ENDROOT
BRANCH   2   3
HETATM    3  C   UNL     1      -9.789   8.749  67.719  1.00  0.00    -0.174 C  
BRANCH   3   4
HETATM    4  N   UNL     1     -11.150   9.300  67.791  1.00  0.00    -0.478 NA 
HETATM    5  H   UNL     1     -11.850   8.560  67.846  1.00  0.00     0.000 HD 
BRANCH   4   6
HETATM    6  C   UNL     1     -11.286  10.266  68.919  1.00  0.00    -0.207 C  
HETATM    7  C   UNL     1     -10.148  10.155  69.940  1.00  0.00    -0.268 C  
BRANCH   6   8
HETATM    8  C   UNL     1     -11.188  11.679  68.338  1.00  0.00    -0.249 C  
HETATM    9  O   UNL     1     -11.937  11.806  67.217  1.00  0.00    -0.618 OA 
HETATM   10  H   UNL     1     -11.876  12.683  66.856  1.00  0.00     0.000 HD 
BRANCH   8  11
HETATM   11  N   UNL     1     -10.448  12.594  68.872  1.00  0.00    -0.415 NA 
HETATM   12  H   UNL     1      -9.568  12.354  69.330  1.00  0.00     0.000 HD 
BRANCH  11  13
HETATM   13  C   UNL     1     -10.888  13.930  68.806  1.00  0.00    -0.263 A  
HETATM   14  C   UNL     1     -10.380  14.813  67.860  1.00  0.00    -0.240 A  
HETATM   15  C   UNL     1     -12.365  13.965  70.986  1.00  0.00    -0.453 C  
HETATM   16  S   UNL     1     -10.979  16.402  68.116  1.00  0.00    -0.312 SA 
HETATM   17  C   UNL     1     -11.879  15.921  69.475  1.00  0.00    -0.301 A  
HETATM   18  C   UNL     1     -11.725  14.581  69.783  1.00  0.00    -0.356 A  
BRANCH  14  19
HETATM   19  C   UNL     1      -9.449  14.630  66.762  1.00  0.00    -0.260 C  
HETATM   20  O   UNL     1      -8.412  15.267  66.585  1.00  0.00    -0.259 OA 
BRANCH  19  21
HETATM   21  O   UNL     1      -9.896  13.676  65.887  1.00  0.00    -0.289 OA 
HETATM   22  C   UNL     1     -10.737  14.191  64.855  1.00  0.00    -0.428 C  
ENDBRANCH  19  21
ENDBRANCH  14  19
ENDBRANCH  11  13
ENDBRANCH   8  11
ENDBRANCH   6   8
ENDBRANCH   4   6
ENDBRANCH   3   4
ENDBRANCH   2   3
TORSDOF 8
ENDMDL
MODEL       98
REMARK 921   NORMALIZED FREE ENERGY PREDICTED BY IDOCK:   -4.43 KCAL/MOL
REMARK 922        TOTAL FREE ENERGY PREDICTED BY IDOCK:   -7.21 KCAL/MOL
REMARK 923 INTER-LIGAND FREE ENERGY PREDICTED BY IDOCK:   -6.03 KCAL/MOL
REMARK 924 INTRA-LIGAND FREE ENERGY PREDICTED BY IDOCK:   -1.18 KCAL/MOL
REMARK 927      BINDING AFFINITY PREDICTED BY RF-SCORE:    0.00 PKD
ROOT
HETATM    1  C   UNL     1     -11.627  11.972  64.451  1.00  0.00    -0.411 C  
HETATM    2  C   UNL     1     -10.254  11.354  64.214  1.00  0.00    -0.367 C  
ENDROOT
BRANCH   2   3
HETATM    3  C   UNL     1      -9.912  10.372  65.336  1.00  0.00    -0.295 C  
BRANCH   3   4
HETATM    4  N   UNL     1     -10.523  10.781  66.609  1.00  0.00    -0.245 NA 
HETATM    5  H   UNL     1     -11.419  11.247  66.460  1.00  0.00     0.000 HD 
BRANCH   4   6
HETATM    6  C   UNL     1     -10.656   9.627  67.543  1.00  0.00    -0.277 C  
HETATM    7  C   UNL     1     -10.399   8.277  66.864  1.00  0.00    -0.391 C  
BRANCH   6   8
HETATM    8  C   UNL     1      -9.572   9.767  68.615  1.00  0.00    -0.151 C  
HETATM    9  O   UNL     1      -8.450   9.086  68.276  1.00  0.00    -0.127 OA 
HETATM   10  H   UNL     1      -7.777   9.173  68.941  1.00  0.00     0.000 HD 
BRANCH   8  11
HETATM   11  N   UNL     1      -9.760  10.439  69.702  1.00  0.00    -0.389 NA 
HETATM   12  H   UNL     1      -9.076  11.128  70.017  1.00  0.00     0.000 HD 
BRANCH  11  13
HETATM   13  C   UNL     1     -10.936  10.198  70.440  1.00  0.00    -0.319 A  
HETATM   14  C   UNL     1     -11.922  11.169  70.568  1.00  0.00    -0.380 A  
HETATM   15  C   UNL     1     -10.279   7.864  71.467  1.00  0.00    -0.232 C  
HETATM   16  S   UNL     1     -13.156  10.655  71.645  1.00  0.00    -0.426 SA 
HETATM   17  C   UNL     1     -12.375   9.176  71.949  1.00  0.00    -0.385 A  
HETATM   18  C   UNL     1     -11.169   9.051  71.283  1.00  0.00    -0.385 A  
BRANCH  14  19
HETATM   19  C   UNL     1     -12.061  12.494  69.994  1.00  0.00    -0.266 C  
HETATM   20  O   UNL     1     -11.712  12.827  68.862  1.00  0.00    -0.290 OA 
BRANCH  19  21
HETATM   21  O   UNL     1     -12.591  13.374  70.899  1.00  0.00    -0.352 OA 
HETATM   22  C   UNL     1     -12.595  14.729  70.448  1.00  0.00    -0.346 C  
ENDBRANCH  19  21
ENDBRANCH  14  19
ENDBRANCH  11  13
ENDBRANCH   8  11
ENDBRANCH   6   8
ENDBRANCH   4   6
ENDBRANCH   3   4
ENDBRANCH   2   3
TORSDOF 8
ENDMDL
MODEL       99
REMARK 921   NORMALIZED FREE ENERGY PREDICTED BY IDOCK:   -4.43 KCAL/MOL
REMARK 922        TOTAL FREE ENERGY PREDICTED BY IDOCK:   -7.21 KCAL/MOL
REMARK 923 INTER-LIGAND FREE ENERGY PREDICTED BY IDOCK:   -6.27 KCAL/MOL
REMARK 924 INTRA-LIGAND FREE ENERGY PREDICTED BY IDOCK:   -0.94 KCAL/MOL
REMARK 927      BINDING AFFINITY PREDICTED BY RF-SCORE:    0.00 PKD
ROOT
HETATM    1  C   UNL     1     -13.600  15.664  72.768  1.00  0.00    -0.678 C  
HETATM    2  C   UNL     1     -12.589  15.361  71.669  1.00  0.00    -0.458 C  
ENDROOT
BRANCH   2   3
HETATM    3  C   UNL     1     -13.034  14.143  70.856  1.00  0.00    -0.305 C  
BRANCH   3   4
HETATM    4  N   UNL     1     -11.921  13.587  70.074  1.00  0.00    -0.344 NA 
HETATM    5  H   UNL     1     -11.807  12.588  70.243  1.00  0.00     0.000 HD 
BRANCH   4   6
HETATM    6  C   UNL     1     -12.079  13.881  68.620  1.00  0.00    -0.302 C  
HETATM    7  C   UNL     1     -11.348  15.156  68.186  1.00  0.00    -0.345 C  
BRANCH   6   8
HETATM    8  C   UNL     1     -11.423  12.739  67.840  1.00  0.00    -0.317 C  
HETATM    9  O   UNL     1     -12.054  11.561  68.062  1.00  0.00    -0.617 OA 
HETATM   10  H   UNL     1     -11.648  10.852  67.577  1.00  0.00     0.000 HD 
BRANCH   8  11
HETATM   11  N   UNL     1     -10.383  12.922  67.096  1.00  0.00    -0.237 NA 
HETATM   12  H   UNL     1      -9.574  13.437  67.444  1.00  0.00     0.000 HD 
BRANCH  11  13
HETATM   13  C   UNL     1     -10.395  12.390  65.791  1.00  0.00    -0.263 A  
HETATM   14  C   UNL     1      -9.776  11.180  65.497  1.00  0.00    -0.228 A  
HETATM   15  C   UNL     1     -11.471  14.442  64.541  1.00  0.00    -0.352 C  
HETATM   16  S   UNL     1      -9.815  10.862  63.811  1.00  0.00    -0.367 SA 
HETATM   17  C   UNL     1     -10.621  12.322  63.481  1.00  0.00    -0.448 A  
HETATM   18  C   UNL     1     -10.846  13.086  64.611  1.00  0.00    -0.373 A  
BRANCH  14  19
HETATM   19  C   UNL     1      -9.109  10.202  66.336  1.00  0.00    -0.152 C  
HETATM   20  O   UNL     1      -8.364  10.454  67.281  1.00  0.00    -0.121 OA 
BRANCH  19  21
HETATM   21  O   UNL     1      -9.366   8.926  65.910  1.00  0.00    -0.219 OA 
HETATM   22  C   UNL     1      -9.118   7.929  66.901  1.00  0.00    -0.143 C  
ENDBRANCH  19  21
ENDBRANCH  14  19
ENDBRANCH  11  13
ENDBRANCH   8  11
ENDBRANCH   6   8
ENDBRANCH   4   6
ENDBRANCH   3   4
ENDBRANCH   2   3
TORSDOF 8
ENDMDL
MODEL      100
REMARK 921   NORMALIZED FREE ENERGY PREDICTED BY IDOCK:   -4.43 KCAL/MOL
REMARK 922        TOTAL FREE ENERGY PREDICTED BY IDOCK:   -7.21 KCAL/MOL
REMARK 923 INTER-LIGAND FREE ENERGY PREDICTED BY IDOCK:   -6.25 KCAL/MOL
REMARK 924 INTRA-LIGAND FREE ENERGY PREDICTED BY IDOCK:   -0.96 KCAL/MOL
REMARK 927      BINDING AFFINITY PREDICTED BY RF-SCORE:    0.00 PKD
ROOT
HETATM    1  C   UNL     1     -12.148  14.024  64.378  1.00  0.00    -0.486 C  
HETATM    2  C   UNL     1     -12.645  13.839  65.807  1.00  0.00    -0.525 C  
ENDROOT
BRANCH   2   3
HETATM    3  C   UNL     1     -11.532  14.167  66.804  1.00  0.00    -0.369 C  
BRANCH   3   4
HETATM    4  N   UNL     1     -11.696  13.412  68.054  1.00  0.00    -0.336 NA 
HETATM    5  H   UNL     1     -12.557  13.670  68.537  1.00  0.00     0.000 HD 
BRANCH   4   6
HETATM    6  C   UNL     1     -11.625  11.942  67.814  1.00  0.00    -0.323 C  
HETATM    7  C   UNL     1     -10.304  11.506  67.170  1.00  0.00    -0.248 C  
BRANCH   6   8
HETATM    8  C   UNL     1     -11.675  11.243  69.175  1.00  0.00    -0.341 C  
HETATM    9  O   UNL     1     -11.690  12.139  70.191  1.00  0.00    -0.472 OA 
HETATM   10  H   UNL     1     -11.721  11.705  71.036  1.00  0.00     0.000 HD 
BRANCH   8  11
HETATM   11  N   UNL     1     -11.674   9.956  69.289  1.00  0.00    -0.460 NA 
HETATM   12  H   UNL     1     -11.950   9.361  68.508  1.00  0.00     0.000 HD 
BRANCH  11  13
HETATM   13  C   UNL     1     -11.280   9.396  70.521  1.00  0.00    -0.275 A  
HETATM   14  C   UNL     1      -9.944   9.134  70.802  1.00  0.00    -0.269 A  
HETATM   15  C   UNL     1     -13.670   8.878  71.496  1.00  0.00    -0.394 C  
HETATM   16  S   UNL     1      -9.781   8.313  72.302  1.00  0.00    -0.316 SA 
HETATM   17  C   UNL     1     -11.462   8.290  72.554  1.00  0.00    -0.384 A  
HETATM   18  C   UNL     1     -12.176   8.861  71.516  1.00  0.00    -0.388 A  
BRANCH  14  19
HETATM   19  C   UNL     1      -8.726   9.400  70.062  1.00  0.00    -0.210 C  
HETATM   20  O   UNL     1      -7.823  10.158  70.412  1.00  0.00    -0.202 OA 
BRANCH  19  21
HETATM   21  O   UNL     1      -8.716   8.732  68.867  1.00  0.00    -0.131 OA 
HETATM   22  C   UNL     1      -8.004   7.495  68.905  1.00  0.00    -0.126 C  
ENDBRANCH  19  21
ENDBRANCH  14  19
ENDBRANCH  11  13
ENDBRANCH   8  11
ENDBRANCH   6   8
ENDBRANCH   4   6
ENDBRANCH   3   4
ENDBRANCH   2   3
TORSDOF 8
ENDMDL
MODEL      101
REMARK 921   NORMALIZED FREE ENERGY PREDICTED BY IDOCK:   -4.43 KCAL/MOL
REMARK 922        TOTAL FREE ENERGY PREDICTED BY IDOCK:   -7.21 KCAL/MOL
REMARK 923 INTER-LIGAND FREE ENERGY PREDICTED BY IDOCK:   -6.20 KCAL/MOL
REMARK 924 INTRA-LIGAND FREE ENERGY PREDICTED BY IDOCK:   -1.01 KCAL/MOL
REMARK 927      BINDING AFFINITY PREDICTED BY RF-SCORE:    0.00 PKD
ROOT
HETATM    1  C   UNL     1     -10.787  12.245  63.871  1.00  0.00    -0.464 C  
HETATM    2  C   UNL     1     -10.620  13.073  65.140  1.00  0.00    -0.327 C  
ENDROOT
BRANCH   2   3
HETATM    3  C   UNL     1     -11.903  13.036  65.972  1.00  0.00    -0.417 C  
BRANCH   3   4
HETATM    4  N   UNL     1     -11.945  11.848  66.836  1.00  0.00    -0.591 NA 
HETATM    5  H   UNL     1     -11.589  11.022  66.353  1.00  0.00     0.000 HD 
BRANCH   4   6
HETATM    6  C   UNL     1     -11.225  12.083  68.120  1.00  0.00    -0.260 C  
HETATM    7  C   UNL     1     -11.828  13.229  68.941  1.00  0.00    -0.367 C  
BRANCH   6   8
HETATM    8  C   UNL     1     -11.381  10.827  68.980  1.00  0.00    -0.284 C  
HETATM    9  O   UNL     1     -12.676  10.620  69.323  1.00  0.00    -0.689 OA 
HETATM   10  H   UNL     1     -12.773   9.840  69.857  1.00  0.00     0.000 HD 
BRANCH   8  11
HETATM   11  N   UNL     1     -10.371  10.103  69.332  1.00  0.00    -0.216 NA 
HETATM   12  H   UNL     1      -9.460  10.527  69.513  1.00  0.00     0.000 HD 
BRANCH  11  13
HETATM   13  C   UNL     1     -10.559   8.713  69.460  1.00  0.00    -0.213 A  
HETATM   14  C   UNL     1     -10.486   7.868  68.357  1.00  0.00    -0.166 A  
HETATM   15  C   UNL     1     -11.310   8.650  71.983  1.00  0.00    -0.432 C  
HETATM   16  S   UNL     1     -10.911   6.261  68.785  1.00  0.00    -0.352 SA 
HETATM   17  C   UNL     1     -11.207   6.692  70.402  1.00  0.00    -0.344 A  
HETATM   18  C   UNL     1     -11.029   8.041  70.647  1.00  0.00    -0.250 A  
BRANCH  14  19
HETATM   19  C   UNL     1     -10.155   8.114  66.967  1.00  0.00    -0.280 C  
HETATM   20  O   UNL     1     -10.325   9.172  66.363  1.00  0.00    -0.258 OA 
BRANCH  19  21
HETATM   21  O   UNL     1      -9.665   6.984  66.367  1.00  0.00    -0.156 OA 
HETATM   22  C   UNL     1      -8.283   7.071  66.021  1.00  0.00    -0.129 C  
ENDBRANCH  19  21
ENDBRANCH  14  19
ENDBRANCH  11  13
ENDBRANCH   8  11
ENDBRANCH   6   8
ENDBRANCH   4   6
ENDBRANCH   3   4
ENDBRANCH   2   3
TORSDOF 8
ENDMDL
MODEL      102
REMARK 921   NORMALIZED FREE ENERGY PREDICTED BY IDOCK:   -4.41 KCAL/MOL
REMARK 922        TOTAL FREE ENERGY PREDICTED BY IDOCK:   -7.18 KCAL/MOL
REMARK 923 INTER-LIGAND FREE ENERGY PREDICTED BY IDOCK:   -6.14 KCAL/MOL
REMARK 924 INTRA-LIGAND FREE ENERGY PREDICTED BY IDOCK:   -1.04 KCAL/MOL
REMARK 927      BINDING AFFINITY PREDICTED BY RF-SCORE:    0.00 PKD
ROOT
HETATM    1  C   UNL     1     -10.626   4.948  66.132  1.00  0.00    -0.322 C  
HETATM    2  C   UNL     1      -9.814   6.142  66.616  1.00  0.00    -0.202 C  
ENDROOT
BRANCH   2   3
HETATM    3  C   UNL     1     -10.744   7.268  67.075  1.00  0.00    -0.336 C  
BRANCH   3   4
HETATM    4  N   UNL     1     -10.115   8.585  66.898  1.00  0.00    -0.267 NA 
HETATM    5  H   UNL     1     -10.584   9.127  66.171  1.00  0.00     0.000 HD 
BRANCH   4   6
HETATM    6  C   UNL     1     -10.053   9.334  68.186  1.00  0.00    -0.187 C  
HETATM    7  C   UNL     1      -8.626   9.738  68.572  1.00  0.00    -0.120 C  
BRANCH   6   8
HETATM    8  C   UNL     1     -10.821  10.645  68.000  1.00  0.00    -0.261 C  
HETATM    9  O   UNL     1     -12.126  10.506  68.339  1.00  0.00    -0.804 OA 
HETATM   10  H   UNL     1     -12.603  11.320  68.224  1.00  0.00     0.000 HD 
BRANCH   8  11
HETATM   11  N   UNL     1     -10.258  11.716  67.549  1.00  0.00    -0.193 NA 
HETATM   12  H   UNL     1      -9.339  12.006  67.885  1.00  0.00     0.000 HD 
BRANCH  11  13
HETATM   13  C   UNL     1     -10.944  12.473  66.578  1.00  0.00    -0.266 A  
HETATM   14  C   UNL     1     -11.717  13.573  66.933  1.00  0.00    -0.384 A  
HETATM   15  C   UNL     1     -10.491  10.935  64.490  1.00  0.00    -0.393 C  
HETATM   16  S   UNL     1     -12.556  14.200  65.572  1.00  0.00    -0.411 SA 
HETATM   17  C   UNL     1     -11.917  13.010  64.540  1.00  0.00    -0.394 A  
HETATM   18  C   UNL     1     -11.097  12.108  65.192  1.00  0.00    -0.369 A  
BRANCH  14  19
HETATM   19  C   UNL     1     -11.943  14.231  68.205  1.00  0.00    -0.311 C  
HETATM   20  O   UNL     1     -11.738  15.420  68.447  1.00  0.00    -0.352 OA 
BRANCH  19  21
HETATM   21  O   UNL     1     -12.372  13.342  69.154  1.00  0.00    -0.224 OA 
HETATM   22  C   UNL     1     -12.047  13.726  70.490  1.00  0.00    -0.345 C  
ENDBRANCH  19  21
ENDBRANCH  14  19
ENDBRANCH  11  13
ENDBRANCH   8  11
ENDBRANCH   6   8
ENDBRANCH   4   6
ENDBRANCH   3   4
ENDBRANCH   2   3
TORSDOF 8
ENDMDL
MODEL      103
REMARK 921   NORMALIZED FREE ENERGY PREDICTED BY IDOCK:   -4.41 KCAL/MOL
REMARK 922        TOTAL FREE ENERGY PREDICTED BY IDOCK:   -7.18 KCAL/MOL
REMARK 923 INTER-LIGAND FREE ENERGY PREDICTED BY IDOCK:   -6.23 KCAL/MOL
REMARK 924 INTRA-LIGAND FREE ENERGY PREDICTED BY IDOCK:   -0.95 KCAL/MOL
REMARK 927      BINDING AFFINITY PREDICTED BY RF-SCORE:    0.00 PKD
ROOT
HETATM    1  C   UNL     1     -10.081  18.820  67.541  1.00  0.00    -0.408 C  
HETATM    2  C   UNL     1     -10.368  18.060  66.252  1.00  0.00    -0.384 C  
ENDROOT
BRANCH   2   3
HETATM    3  C   UNL     1     -10.333  16.551  66.505  1.00  0.00    -0.305 C  
BRANCH   3   4
HETATM    4  N   UNL     1     -10.298  15.799  65.242  1.00  0.00    -0.446 NA 
HETATM    5  H   UNL     1      -9.377  15.396  65.073  1.00  0.00     0.000 HD 
BRANCH   4   6
HETATM    6  C   UNL     1     -11.367  14.760  65.200  1.00  0.00    -0.379 C  
HETATM    7  C   UNL     1     -12.488  15.096  64.210  1.00  0.00    -0.073 C  
BRANCH   6   8
HETATM    8  C   UNL     1     -10.736  13.462  64.689  1.00  0.00    -0.411 C  
HETATM    9  O   UNL     1     -11.320  13.047  63.540  1.00  0.00    -0.586 OA 
HETATM   10  H   UNL     1     -10.928  12.241  63.222  1.00  0.00     0.000 HD 
BRANCH   8  11
HETATM   11  N   UNL     1      -9.785  12.862  65.325  1.00  0.00    -0.485 NA 
HETATM   12  H   UNL     1      -8.879  13.312  65.459  1.00  0.00     0.000 HD 
BRANCH  11  13
HETATM   13  C   UNL     1     -10.032  11.569  65.829  1.00  0.00    -0.233 A  
HETATM   14  C   UNL     1     -10.540  11.377  67.109  1.00  0.00    -0.243 A  
HETATM   15  C   UNL     1      -8.959  10.175  63.870  1.00  0.00    -0.270 C  
HETATM   16  S   UNL     1     -10.589   9.707  67.506  1.00  0.00    -0.253 SA 
HETATM   17  C   UNL     1      -9.924   9.257  66.008  1.00  0.00    -0.255 A  
HETATM   18  C   UNL     1      -9.623  10.338  65.200  1.00  0.00    -0.337 A  
BRANCH  14  19
HETATM   19  C   UNL     1     -10.987  12.308  68.126  1.00  0.00    -0.231 C  
HETATM   20  O   UNL     1     -10.456  13.384  68.400  1.00  0.00    -0.239 OA 
BRANCH  19  21
HETATM   21  O   UNL     1     -12.069  11.818  68.807  1.00  0.00    -0.358 OA 
HETATM   22  C   UNL     1     -11.965  11.952  70.225  1.00  0.00    -0.330 C  
ENDBRANCH  19  21
ENDBRANCH  14  19
ENDBRANCH  11  13
ENDBRANCH   8  11
ENDBRANCH   6   8
ENDBRANCH   4   6
ENDBRANCH   3   4
ENDBRANCH   2   3
TORSDOF 8
ENDMDL
MODEL      104
REMARK 921   NORMALIZED FREE ENERGY PREDICTED BY IDOCK:   -4.40 KCAL/MOL
REMARK 922        TOTAL FREE ENERGY PREDICTED BY IDOCK:   -7.17 KCAL/MOL
REMARK 923 INTER-LIGAND FREE ENERGY PREDICTED BY IDOCK:   -6.45 KCAL/MOL
REMARK 924 INTRA-LIGAND FREE ENERGY PREDICTED BY IDOCK:   -0.72 KCAL/MOL
REMARK 927      BINDING AFFINITY PREDICTED BY RF-SCORE:    0.00 PKD
ROOT
HETATM    1  C   UNL     1     -14.229  14.793  72.019  1.00  0.00    -0.626 C  
HETATM    2  C   UNL     1     -12.851  15.001  72.635  1.00  0.00    -0.475 C  
ENDROOT
BRANCH   2   3
HETATM    3  C   UNL     1     -11.901  15.631  71.613  1.00  0.00    -0.429 C  
BRANCH   3   4
HETATM    4  N   UNL     1     -11.105  14.606  70.923  1.00  0.00    -0.518 NA 
HETATM    5  H   UNL     1     -11.349  13.667  71.240  1.00  0.00     0.000 HD 
BRANCH   4   6
HETATM    6  C   UNL     1     -11.225  14.732  69.442  1.00  0.00    -0.284 C  
HETATM    7  C   UNL     1     -11.853  16.059  69.005  1.00  0.00    -0.258 C  
BRANCH   6   8
HETATM    8  C   UNL     1      -9.810  14.728  68.857  1.00  0.00    -0.222 C  
HETATM    9  O   UNL     1      -8.875  14.903  69.822  1.00  0.00    -0.438 OA 
HETATM   10  H   UNL     1      -7.997  14.901  69.459  1.00  0.00     0.000 HD 
BRANCH   8  11
HETATM   11  N   UNL     1      -9.589  14.598  67.591  1.00  0.00    -0.211 NA 
HETATM   12  H   UNL     1      -9.529  15.416  66.983  1.00  0.00     0.000 HD 
BRANCH  11  13
HETATM   13  C   UNL     1      -9.430  13.298  67.072  1.00  0.00    -0.243 A  
HETATM   14  C   UNL     1     -10.451  12.672  66.365  1.00  0.00    -0.249 A  
HETATM   15  C   UNL     1      -7.109  12.718  68.171  1.00  0.00    -0.105 C  
HETATM   16  S   UNL     1     -10.036  11.048  65.994  1.00  0.00    -0.248 SA 
HETATM   17  C   UNL     1      -8.535  11.176  66.781  1.00  0.00    -0.153 A  
HETATM   18  C   UNL     1      -8.329  12.414  67.362  1.00  0.00    -0.180 A  
BRANCH  14  19
HETATM   19  C   UNL     1     -11.758  13.131  65.935  1.00  0.00    -0.384 C  
HETATM   20  O   UNL     1     -12.250  14.231  66.182  1.00  0.00    -0.431 OA 
BRANCH  19  21
HETATM   21  O   UNL     1     -12.426  12.154  65.248  1.00  0.00    -0.520 OA 
HETATM   22  C   UNL     1     -12.499  12.388  63.841  1.00  0.00    -0.476 C  
ENDBRANCH  19  21
ENDBRANCH  14  19
ENDBRANCH  11  13
ENDBRANCH   8  11
ENDBRANCH   6   8
ENDBRANCH   4   6
ENDBRANCH   3   4
ENDBRANCH   2   3
TORSDOF 8
ENDMDL
MODEL      105
REMARK 921   NORMALIZED FREE ENERGY PREDICTED BY IDOCK:   -4.37 KCAL/MOL
REMARK 922        TOTAL FREE ENERGY PREDICTED BY IDOCK:   -7.13 KCAL/MOL
REMARK 923 INTER-LIGAND FREE ENERGY PREDICTED BY IDOCK:   -6.12 KCAL/MOL
REMARK 924 INTRA-LIGAND FREE ENERGY PREDICTED BY IDOCK:   -1.01 KCAL/MOL
REMARK 927      BINDING AFFINITY PREDICTED BY RF-SCORE:    0.00 PKD
ROOT
HETATM    1  C   UNL     1      -8.451   8.693  62.343  1.00  0.00    -0.194 C  
HETATM    2  C   UNL     1      -8.873   9.819  63.280  1.00  0.00    -0.260 C  
ENDROOT
BRANCH   2   3
HETATM    3  C   UNL     1      -8.754   9.371  64.738  1.00  0.00    -0.197 C  
BRANCH   3   4
HETATM    4  N   UNL     1     -10.013   9.585  65.466  1.00  0.00    -0.399 NA 
HETATM    5  H   UNL     1     -10.821   9.323  64.900  1.00  0.00     0.000 HD 
BRANCH   4   6
HETATM    6  C   UNL     1     -10.010   8.874  66.777  1.00  0.00    -0.267 C  
HETATM    7  C   UNL     1      -8.624   8.349  67.168  1.00  0.00    -0.123 C  
BRANCH   6   8
HETATM    8  C   UNL     1     -10.391   9.887  67.858  1.00  0.00    -0.212 C  
HETATM    9  O   UNL     1      -9.308  10.289  68.566  1.00  0.00    -0.144 OA 
HETATM   10  H   UNL     1      -9.545  10.918  69.237  1.00  0.00     0.000 HD 
BRANCH   8  11
HETATM   11  N   UNL     1     -11.613  10.262  68.051  1.00  0.00    -0.698 NA 
HETATM   12  H   UNL     1     -12.393   9.705  67.701  1.00  0.00     0.000 HD 
BRANCH  11  13
HETATM   13  C   UNL     1     -11.839  11.460  68.758  1.00  0.00    -0.323 A  
HETATM   14  C   UNL     1     -11.769  12.696  68.127  1.00  0.00    -0.347 A  
HETATM   15  C   UNL     1     -11.980  10.459  71.189  1.00  0.00    -0.460 C  
HETATM   16  S   UNL     1     -11.933  13.976  69.260  1.00  0.00    -0.349 SA 
HETATM   17  C   UNL     1     -12.070  12.898  70.566  1.00  0.00    -0.282 A  
HETATM   18  C   UNL     1     -11.965  11.571  70.190  1.00  0.00    -0.452 A  
BRANCH  14  19
HETATM   19  C   UNL     1     -11.562  13.068  66.740  1.00  0.00    -0.368 C  
HETATM   20  O   UNL     1     -11.742  12.340  65.766  1.00  0.00    -0.387 OA 
BRANCH  19  21
HETATM   21  O   UNL     1     -11.076  14.345  66.636  1.00  0.00    -0.311 OA 
HETATM   22  C   UNL     1     -10.010  14.479  65.697  1.00  0.00    -0.347 C  
ENDBRANCH  19  21
ENDBRANCH  14  19
ENDBRANCH  11  13
ENDBRANCH   8  11
ENDBRANCH   6   8
ENDBRANCH   4   6
ENDBRANCH   3   4
ENDBRANCH   2   3
TORSDOF 8
ENDMDL
MODEL      106
REMARK 921   NORMALIZED FREE ENERGY PREDICTED BY IDOCK:   -4.37 KCAL/MOL
REMARK 922        TOTAL FREE ENERGY PREDICTED BY IDOCK:   -7.12 KCAL/MOL
REMARK 923 INTER-LIGAND FREE ENERGY PREDICTED BY IDOCK:   -6.05 KCAL/MOL
REMARK 924 INTRA-LIGAND FREE ENERGY PREDICTED BY IDOCK:   -1.07 KCAL/MOL
REMARK 927      BINDING AFFINITY PREDICTED BY RF-SCORE:    0.00 PKD
ROOT
HETATM    1  C   UNL     1      -7.732  14.564  68.414  1.00  0.00    -0.128 C  
HETATM    2  C   UNL     1      -8.596  14.303  67.186  1.00  0.00    -0.234 C  
ENDROOT
BRANCH   2   3
HETATM    3  C   UNL     1      -8.912  12.811  67.065  1.00  0.00    -0.221 C  
BRANCH   3   4
HETATM    4  N   UNL     1     -10.357  12.561  67.169  1.00  0.00    -0.220 NA 
HETATM    5  H   UNL     1     -10.608  11.652  66.780  1.00  0.00     0.000 HD 
BRANCH   4   6
HETATM    6  C   UNL     1     -10.833  12.706  68.574  1.00  0.00    -0.252 C  
HETATM    7  C   UNL     1     -12.084  13.582  68.693  1.00  0.00    -0.303 C  
BRANCH   6   8
HETATM    8  C   UNL     1     -11.247  11.319  69.071  1.00  0.00    -0.258 C  
HETATM    9  O   UNL     1     -12.057  10.695  68.182  1.00  0.00    -0.797 OA 
HETATM   10  H   UNL     1     -12.314   9.834  68.491  1.00  0.00     0.000 HD 
BRANCH   8  11
HETATM   11  N   UNL     1     -10.867  10.856  70.216  1.00  0.00    -0.430 NA 
HETATM   12  H   UNL     1      -9.944  11.076  70.590  1.00  0.00     0.000 HD 
BRANCH  11  13
HETATM   13  C   UNL     1     -11.762  10.038  70.935  1.00  0.00    -0.374 A  
HETATM   14  C   UNL     1     -11.775   8.658  70.766  1.00  0.00    -0.210 A  
HETATM   15  C   UNL     1     -13.207  11.931  72.057  1.00  0.00    -0.461 C  
HETATM   16  S   UNL     1     -13.065   7.943  71.646  1.00  0.00    -0.310 SA 
HETATM   17  C   UNL     1     -13.605   9.449  72.218  1.00  0.00    -0.462 A  
HETATM   18  C   UNL     1     -12.859  10.512  71.742  1.00  0.00    -0.559 A  
BRANCH  14  19
HETATM   19  C   UNL     1     -10.938   7.767  69.986  1.00  0.00    -0.214 C  
HETATM   20  O   UNL     1     -10.405   8.039  68.911  1.00  0.00    -0.208 OA 
BRANCH  19  21
HETATM   21  O   UNL     1     -10.849   6.532  70.570  1.00  0.00    -0.238 OA 
HETATM   22  C   UNL     1      -9.524   6.180  70.970  1.00  0.00    -0.171 C  
ENDBRANCH  19  21
ENDBRANCH  14  19
ENDBRANCH  11  13
ENDBRANCH   8  11
ENDBRANCH   6   8
ENDBRANCH   4   6
ENDBRANCH   3   4
ENDBRANCH   2   3
TORSDOF 8
ENDMDL
MODEL      107
REMARK 921   NORMALIZED FREE ENERGY PREDICTED BY IDOCK:   -4.36 KCAL/MOL
REMARK 922        TOTAL FREE ENERGY PREDICTED BY IDOCK:   -7.10 KCAL/MOL
REMARK 923 INTER-LIGAND FREE ENERGY PREDICTED BY IDOCK:   -6.36 KCAL/MOL
REMARK 924 INTRA-LIGAND FREE ENERGY PREDICTED BY IDOCK:   -0.74 KCAL/MOL
REMARK 927      BINDING AFFINITY PREDICTED BY RF-SCORE:    0.00 PKD
ROOT
HETATM    1  C   UNL     1     -12.340  12.254  63.524  1.00  0.00    -0.670 C  
HETATM    2  C   UNL     1     -12.417  12.779  64.952  1.00  0.00    -0.563 C  
ENDROOT
BRANCH   2   3
HETATM    3  C   UNL     1     -11.552  14.032  65.106  1.00  0.00    -0.342 C  
BRANCH   3   4
HETATM    4  N   UNL     1     -11.727  14.641  66.432  1.00  0.00    -0.355 NA 
HETATM    5  H   UNL     1     -12.460  14.173  66.965  1.00  0.00     0.000 HD 
BRANCH   4   6
HETATM    6  C   UNL     1     -10.441  14.678  67.187  1.00  0.00    -0.268 C  
HETATM    7  C   UNL     1      -9.369  13.764  66.582  1.00  0.00    -0.277 C  
BRANCH   6   8
HETATM    8  C   UNL     1      -9.881  16.099  67.088  1.00  0.00    -0.241 C  
HETATM    9  O   UNL     1      -9.471  16.383  65.828  1.00  0.00    -0.464 OA 
HETATM   10  H   UNL     1      -9.123  17.265  65.767  1.00  0.00     0.000 HD 
BRANCH   8  11
HETATM   11  N   UNL     1      -9.807  16.882  68.112  1.00  0.00    -0.255 NA 
HETATM   12  H   UNL     1     -10.649  17.184  68.603  1.00  0.00     0.000 HD 
BRANCH  11  13
HETATM   13  C   UNL     1      -8.532  17.310  68.533  1.00  0.00    -0.267 A  
HETATM   14  C   UNL     1      -8.059  18.582  68.230  1.00  0.00    -0.303 A  
HETATM   15  C   UNL     1      -7.649  15.022  69.492  1.00  0.00    -0.181 C  
HETATM   16  S   UNL     1      -6.427  18.767  68.731  1.00  0.00    -0.261 SA 
HETATM   17  C   UNL     1      -6.350  17.173  69.317  1.00  0.00    -0.231 A  
HETATM   18  C   UNL     1      -7.522  16.465  69.122  1.00  0.00    -0.228 A  
BRANCH  14  19
HETATM   19  C   UNL     1      -8.676  19.715  67.568  1.00  0.00    -0.312 C  
HETATM   20  O   UNL     1      -8.089  20.712  67.152  1.00  0.00    -0.324 OA 
BRANCH  19  21
HETATM   21  O   UNL     1     -10.036  19.571  67.503  1.00  0.00    -0.356 OA 
HETATM   22  C   UNL     1     -10.569  19.735  66.189  1.00  0.00    -0.464 C  
ENDBRANCH  19  21
ENDBRANCH  14  19
ENDBRANCH  11  13
ENDBRANCH   8  11
ENDBRANCH   6   8
ENDBRANCH   4   6
ENDBRANCH   3   4
ENDBRANCH   2   3
TORSDOF 8
ENDMDL
MODEL      108
REMARK 921   NORMALIZED FREE ENERGY PREDICTED BY IDOCK:   -4.35 KCAL/MOL
REMARK 922        TOTAL FREE ENERGY PREDICTED BY IDOCK:   -7.09 KCAL/MOL
REMARK 923 INTER-LIGAND FREE ENERGY PREDICTED BY IDOCK:   -6.02 KCAL/MOL
REMARK 924 INTRA-LIGAND FREE ENERGY PREDICTED BY IDOCK:   -1.07 KCAL/MOL
REMARK 927      BINDING AFFINITY PREDICTED BY RF-SCORE:    0.00 PKD
ROOT
HETATM    1  C   UNL     1      -9.263  15.840  68.615  1.00  0.00    -0.207 C  
HETATM    2  C   UNL     1     -10.576  15.276  69.144  1.00  0.00    -0.250 C  
ENDROOT
BRANCH   2   3
HETATM    3  C   UNL     1     -11.519  14.944  67.986  1.00  0.00    -0.337 C  
BRANCH   3   4
HETATM    4  N   UNL     1     -10.869  14.063  67.005  1.00  0.00    -0.288 NA 
HETATM    5  H   UNL     1     -10.841  13.096  67.331  1.00  0.00     0.000 HD 
BRANCH   4   6
HETATM    6  C   UNL     1     -11.517  14.170  65.666  1.00  0.00    -0.325 C  
HETATM    7  C   UNL     1     -11.142  15.457  64.923  1.00  0.00    -0.435 C  
BRANCH   6   8
HETATM    8  C   UNL     1     -10.992  13.022  64.801  1.00  0.00    -0.327 C  
HETATM    9  O   UNL     1     -10.014  13.441  63.961  1.00  0.00    -0.764 OA 
HETATM   10  H   UNL     1      -9.689  12.728  63.424  1.00  0.00     0.000 HD 
BRANCH   8  11
HETATM   11  N   UNL     1     -11.473  11.825  64.879  1.00  0.00    -0.251 NA 
HETATM   12  H   UNL     1     -12.461  11.645  64.698  1.00  0.00     0.000 HD 
BRANCH  11  13
HETATM   13  C   UNL     1     -10.597  10.775  65.219  1.00  0.00    -0.160 A  
HETATM   14  C   UNL     1     -10.402  10.396  66.543  1.00  0.00    -0.224 A  
HETATM   15  C   UNL     1      -9.546  10.356  62.842  1.00  0.00    -0.331 C  
HETATM   16  S   UNL     1      -9.171   9.206  66.667  1.00  0.00    -0.176 SA 
HETATM   17  C   UNL     1      -8.891   9.217  64.991  1.00  0.00    -0.189 A  
HETATM   18  C   UNL     1      -9.682  10.127  64.313  1.00  0.00    -0.326 A  
BRANCH  14  19
HETATM   19  C   UNL     1     -11.016  10.839  67.780  1.00  0.00    -0.297 C  
HETATM   20  O   UNL     1     -12.130  11.351  67.887  1.00  0.00    -0.646 OA 
BRANCH  19  21
HETATM   21  O   UNL     1     -10.170  10.667  68.843  1.00  0.00    -0.182 OA 
HETATM   22  C   UNL     1     -10.838  10.336  70.061  1.00  0.00    -0.307 C  
ENDBRANCH  19  21
ENDBRANCH  14  19
ENDBRANCH  11  13
ENDBRANCH   8  11
ENDBRANCH   6   8
ENDBRANCH   4   6
ENDBRANCH   3   4
ENDBRANCH   2   3
TORSDOF 8
ENDMDL
MODEL      109
REMARK 921   NORMALIZED FREE ENERGY PREDICTED BY IDOCK:   -4.32 KCAL/MOL
REMARK 922        TOTAL FREE ENERGY PREDICTED BY IDOCK:   -7.05 KCAL/MOL
REMARK 923 INTER-LIGAND FREE ENERGY PREDICTED BY IDOCK:   -5.76 KCAL/MOL
REMARK 924 INTRA-LIGAND FREE ENERGY PREDICTED BY IDOCK:   -1.29 KCAL/MOL
REMARK 927      BINDING AFFINITY PREDICTED BY RF-SCORE:    0.00 PKD
ROOT
HETATM    1  C   UNL     1     -10.272   7.605  67.013  1.00  0.00    -0.371 C  
HETATM    2  C   UNL     1      -8.805   7.712  66.616  1.00  0.00    -0.159 C  
ENDROOT
BRANCH   2   3
HETATM    3  C   UNL     1      -8.644   8.654  65.420  1.00  0.00    -0.181 C  
BRANCH   3   4
HETATM    4  N   UNL     1      -9.900   9.358  65.123  1.00  0.00    -0.421 NA 
HETATM    5  H   UNL     1     -10.401   9.605  65.978  1.00  0.00     0.000 HD 
BRANCH   4   6
HETATM    6  C   UNL     1      -9.662  10.554  64.264  1.00  0.00    -0.330 C  
HETATM    7  C   UNL     1      -9.370  10.190  62.804  1.00  0.00    -0.323 C  
BRANCH   6   8
HETATM    8  C   UNL     1     -10.953  11.375  64.239  1.00  0.00    -0.321 C  
HETATM    9  O   UNL     1     -11.505  11.392  63.001  1.00  0.00    -0.853 OA 
HETATM   10  H   UNL     1     -12.306  11.902  62.985  1.00  0.00     0.000 HD 
BRANCH   8  11
HETATM   11  N   UNL     1     -11.406  11.979  65.287  1.00  0.00    -0.327 NA 
HETATM   12  H   UNL     1     -12.188  11.594  65.817  1.00  0.00     0.000 HD 
BRANCH  11  13
HETATM   13  C   UNL     1     -10.791  13.185  65.679  1.00  0.00    -0.278 A  
HETATM   14  C   UNL     1      -9.827  13.213  66.680  1.00  0.00    -0.261 A  
HETATM   15  C   UNL     1     -12.271  14.852  64.278  1.00  0.00    -0.365 C  
HETATM   16  S   UNL     1      -9.373  14.826  67.052  1.00  0.00    -0.245 SA 
HETATM   17  C   UNL     1     -10.459  15.471  65.915  1.00  0.00    -0.342 A  
HETATM   18  C   UNL     1     -11.202  14.503  65.263  1.00  0.00    -0.352 A  
BRANCH  14  19
HETATM   19  C   UNL     1      -9.192  12.158  67.446  1.00  0.00    -0.182 C  
HETATM   20  O   UNL     1      -9.715  11.095  67.777  1.00  0.00    -0.167 OA 
BRANCH  19  21
HETATM   21  O   UNL     1      -7.922  12.510  67.819  1.00  0.00    -0.137 OA 
HETATM   22  C   UNL     1      -6.903  11.724  67.202  1.00  0.00    -0.148 C  
ENDBRANCH  19  21
ENDBRANCH  14  19
ENDBRANCH  11  13
ENDBRANCH   8  11
ENDBRANCH   6   8
ENDBRANCH   4   6
ENDBRANCH   3   4
ENDBRANCH   2   3
TORSDOF 8
ENDMDL
MODEL      110
REMARK 921   NORMALIZED FREE ENERGY PREDICTED BY IDOCK:   -4.29 KCAL/MOL
REMARK 922        TOTAL FREE ENERGY PREDICTED BY IDOCK:   -7.01 KCAL/MOL
REMARK 923 INTER-LIGAND FREE ENERGY PREDICTED BY IDOCK:   -6.22 KCAL/MOL
REMARK 924 INTRA-LIGAND FREE ENERGY PREDICTED BY IDOCK:   -0.78 KCAL/MOL
REMARK 927      BINDING AFFINITY PREDICTED BY RF-SCORE:    0.00 PKD
ROOT
HETATM    1  C   UNL     1      -9.680  19.563  66.770  1.00  0.00    -0.464 C  
HETATM    2  C   UNL     1     -10.520  18.862  65.709  1.00  0.00    -0.347 C  
ENDROOT
BRANCH   2   3
HETATM    3  C   UNL     1     -10.907  17.458  66.179  1.00  0.00     0.040 C  
BRANCH   3   4
HETATM    4  N   UNL     1     -10.665  16.458  65.129  1.00  0.00    -0.628 NA 
HETATM    5  H   UNL     1      -9.673  16.387  64.903  1.00  0.00     0.000 HD 
BRANCH   4   6
HETATM    6  C   UNL     1     -11.238  15.132  65.500  1.00  0.00    -0.320 C  
HETATM    7  C   UNL     1     -12.345  14.673  64.544  1.00  0.00    -0.416 C  
BRANCH   6   8
HETATM    8  C   UNL     1     -10.123  14.091  65.377  1.00  0.00    -0.319 C  
HETATM    9  O   UNL     1      -9.930  13.721  64.088  1.00  0.00    -0.704 OA 
HETATM   10  H   UNL     1      -9.238  13.075  64.012  1.00  0.00     0.000 HD 
BRANCH   8  11
HETATM   11  N   UNL     1      -9.492  13.633  66.408  1.00  0.00    -0.387 NA 
HETATM   12  H   UNL     1      -9.040  12.719  66.381  1.00  0.00     0.000 HD 
BRANCH  11  13
HETATM   13  C   UNL     1      -9.444  14.430  67.569  1.00  0.00    -0.207 A  
HETATM   14  C   UNL     1     -10.413  14.323  68.560  1.00  0.00    -0.253 A  
HETATM   15  C   UNL     1      -7.454  16.009  66.877  1.00  0.00    -0.253 C  
HETATM   16  S   UNL     1     -10.188  15.518  69.772  1.00  0.00    -0.282 SA 
HETATM   17  C   UNL     1      -8.839  16.176  68.974  1.00  0.00    -0.251 A  
HETATM   18  C   UNL     1      -8.551  15.543  67.779  1.00  0.00    -0.158 A  
BRANCH  14  19
HETATM   19  C   UNL     1     -11.545  13.431  68.718  1.00  0.00    -0.325 C  
HETATM   20  O   UNL     1     -11.936  12.611  67.889  1.00  0.00    -0.349 OA 
BRANCH  19  21
HETATM   21  O   UNL     1     -12.184  13.647  69.910  1.00  0.00    -0.321 OA 
HETATM   22  C   UNL     1     -12.358  12.465  70.692  1.00  0.00    -0.279 C  
ENDBRANCH  19  21
ENDBRANCH  14  19
ENDBRANCH  11  13
ENDBRANCH   8  11
ENDBRANCH   6   8
ENDBRANCH   4   6
ENDBRANCH   3   4
ENDBRANCH   2   3
TORSDOF 8
ENDMDL
MODEL      111
REMARK 921   NORMALIZED FREE ENERGY PREDICTED BY IDOCK:   -4.29 KCAL/MOL
REMARK 922        TOTAL FREE ENERGY PREDICTED BY IDOCK:   -7.00 KCAL/MOL
REMARK 923 INTER-LIGAND FREE ENERGY PREDICTED BY IDOCK:   -5.81 KCAL/MOL
REMARK 924 INTRA-LIGAND FREE ENERGY PREDICTED BY IDOCK:   -1.19 KCAL/MOL
REMARK 927      BINDING AFFINITY PREDICTED BY RF-SCORE:    0.00 PKD
ROOT
HETATM    1  C   UNL     1      -8.767  10.426  64.267  1.00  0.00    -0.206 C  
HETATM    2  C   UNL     1      -8.221   9.210  65.007  1.00  0.00    -0.150 C  
ENDROOT
BRANCH   2   3
HETATM    3  C   UNL     1      -8.525   9.318  66.503  1.00  0.00    -0.126 C  
BRANCH   3   4
HETATM    4  N   UNL     1      -9.613  10.271  66.760  1.00  0.00    -0.167 NA 
HETATM    5  H   UNL     1     -10.048  10.584  65.891  1.00  0.00     0.000 HD 
BRANCH   4   6
HETATM    6  C   UNL     1     -10.620   9.704  67.702  1.00  0.00    -0.275 C  
HETATM    7  C   UNL     1     -10.040   8.615  68.611  1.00  0.00    -0.207 C  
BRANCH   6   8
HETATM    8  C   UNL     1     -11.071  10.830  68.636  1.00  0.00    -0.259 C  
HETATM    9  O   UNL     1     -10.285  10.904  69.738  1.00  0.00    -0.446 OA 
HETATM   10  H   UNL     1     -10.565  11.602  70.318  1.00  0.00     0.000 HD 
BRANCH   8  11
HETATM   11  N   UNL     1     -12.095  11.572  68.376  1.00  0.00    -0.560 NA 
HETATM   12  H   UNL     1     -13.043  11.199  68.441  1.00  0.00     0.000 HD 
BRANCH  11  13
HETATM   13  C   UNL     1     -11.870  12.912  68.001  1.00  0.00    -0.343 A  
HETATM   14  C   UNL     1     -11.911  13.941  68.934  1.00  0.00    -0.358 A  
HETATM   15  C   UNL     1     -11.796  12.579  65.390  1.00  0.00    -0.479 C  
HETATM   16  S   UNL     1     -11.757  15.471  68.169  1.00  0.00    -0.120 SA 
HETATM   17  C   UNL     1     -11.662  14.770  66.624  1.00  0.00    -0.283 A  
HETATM   18  C   UNL     1     -11.775  13.392  66.644  1.00  0.00    -0.428 A  
BRANCH  14  19
HETATM   19  C   UNL     1     -12.083  13.940  70.374  1.00  0.00    -0.351 C  
HETATM   20  O   UNL     1     -12.370  12.963  71.063  1.00  0.00    -0.351 OA 
BRANCH  19  21
HETATM   21  O   UNL     1     -11.938  15.200  70.892  1.00  0.00    -0.279 OA 
HETATM   22  C   UNL     1     -11.955  15.239  72.319  1.00  0.00    -0.421 C  
ENDBRANCH  19  21
ENDBRANCH  14  19
ENDBRANCH  11  13
ENDBRANCH   8  11
ENDBRANCH   6   8
ENDBRANCH   4   6
ENDBRANCH   3   4
ENDBRANCH   2   3
TORSDOF 8
ENDMDL
MODEL      112
REMARK 921   NORMALIZED FREE ENERGY PREDICTED BY IDOCK:   -4.27 KCAL/MOL
REMARK 922        TOTAL FREE ENERGY PREDICTED BY IDOCK:   -6.98 KCAL/MOL
REMARK 923 INTER-LIGAND FREE ENERGY PREDICTED BY IDOCK:   -5.70 KCAL/MOL
REMARK 924 INTRA-LIGAND FREE ENERGY PREDICTED BY IDOCK:   -1.28 KCAL/MOL
REMARK 927      BINDING AFFINITY PREDICTED BY RF-SCORE:    0.00 PKD
ROOT
HETATM    1  C   UNL     1     -12.770  10.441  71.636  1.00  0.00    -0.560 C  
HETATM    2  C   UNL     1     -13.689   9.402  72.267  1.00  0.00    -0.495 C  
ENDROOT
BRANCH   2   3
HETATM    3  C   UNL     1     -13.374   8.009  71.719  1.00  0.00    -0.340 C  
BRANCH   3   4
HETATM    4  N   UNL     1     -12.277   8.056  70.741  1.00  0.00    -0.502 NA 
HETATM    5  H   UNL     1     -11.861   8.986  70.692  1.00  0.00     0.000 HD 
BRANCH   4   6
HETATM    6  C   UNL     1     -11.251   7.012  71.026  1.00  0.00    -0.274 C  
HETATM    7  C   UNL     1     -11.697   6.015  72.102  1.00  0.00    -0.335 C  
BRANCH   6   8
HETATM    8  C   UNL     1     -11.057   6.188  69.751  1.00  0.00    -0.416 C  
HETATM    9  O   UNL     1     -10.535   4.968  70.024  1.00  0.00    -0.276 OA 
HETATM   10  H   UNL     1     -10.414   4.457  69.232  1.00  0.00     0.000 HD 
BRANCH   8  11
HETATM   11  N   UNL     1     -11.344   6.653  68.580  1.00  0.00    -0.576 NA 
HETATM   12  H   UNL     1     -12.314   6.800  68.299  1.00  0.00     0.000 HD 
BRANCH  11  13
HETATM   13  C   UNL     1     -10.283   6.953  67.703  1.00  0.00    -0.185 A  
HETATM   14  C   UNL     1      -9.618   8.172  67.762  1.00  0.00    -0.151 A  
HETATM   15  C   UNL     1     -10.470   4.848  66.131  1.00  0.00    -0.346 C  
HETATM   16  S   UNL     1      -8.485   8.318  66.479  1.00  0.00    -0.123 SA 
HETATM   17  C   UNL     1      -8.895   6.793  65.848  1.00  0.00    -0.110 A  
HETATM   18  C   UNL     1      -9.901   6.163  66.558  1.00  0.00    -0.179 A  
BRANCH  14  19
HETATM   19  C   UNL     1      -9.736   9.299  68.666  1.00  0.00    -0.150 C  
HETATM   20  O   UNL     1      -8.863   9.698  69.436  1.00  0.00    -0.153 OA 
BRANCH  19  21
HETATM   21  O   UNL     1     -10.985   9.856  68.605  1.00  0.00    -0.225 OA 
HETATM   22  C   UNL     1     -11.134  10.822  67.564  1.00  0.00    -0.308 C  
ENDBRANCH  19  21
ENDBRANCH  14  19
ENDBRANCH  11  13
ENDBRANCH   8  11
ENDBRANCH   6   8
ENDBRANCH   4   6
ENDBRANCH   3   4
ENDBRANCH   2   3
TORSDOF 8
ENDMDL
MODEL      113
REMARK 921   NORMALIZED FREE ENERGY PREDICTED BY IDOCK:   -4.25 KCAL/MOL
REMARK 922        TOTAL FREE ENERGY PREDICTED BY IDOCK:   -6.95 KCAL/MOL
REMARK 923 INTER-LIGAND FREE ENERGY PREDICTED BY IDOCK:   -5.97 KCAL/MOL
REMARK 924 INTRA-LIGAND FREE ENERGY PREDICTED BY IDOCK:   -0.98 KCAL/MOL
REMARK 927      BINDING AFFINITY PREDICTED BY RF-SCORE:    0.00 PKD
ROOT
HETATM    1  C   UNL     1      -8.795   7.284  67.669  1.00  0.00    -0.123 C  
HETATM    2  C   UNL     1      -9.311   7.731  66.306  1.00  0.00    -0.210 C  
ENDROOT
BRANCH   2   3
HETATM    3  C   UNL     1     -10.040   9.071  66.425  1.00  0.00    -0.281 C  
BRANCH   3   4
HETATM    4  N   UNL     1      -9.507   9.871  67.536  1.00  0.00    -0.150 NA 
HETATM    5  H   UNL     1      -8.493   9.780  67.610  1.00  0.00     0.000 HD 
BRANCH   4   6
HETATM    6  C   UNL     1      -9.920  11.300  67.424  1.00  0.00    -0.182 C  
HETATM    7  C   UNL     1     -10.857  11.558  66.239  1.00  0.00    -0.333 C  
BRANCH   6   8
HETATM    8  C   UNL     1     -10.726  11.652  68.677  1.00  0.00    -0.212 C  
HETATM    9  O   UNL     1     -10.181  11.100  69.788  1.00  0.00    -0.419 OA 
HETATM   10  H   UNL     1     -10.681  11.319  70.565  1.00  0.00     0.000 HD 
BRANCH   8  11
HETATM   11  N   UNL     1     -11.799  12.369  68.626  1.00  0.00    -0.317 NA 
HETATM   12  H   UNL     1     -12.609  12.062  68.086  1.00  0.00     0.000 HD 
BRANCH  11  13
HETATM   13  C   UNL     1     -11.823  13.586  69.336  1.00  0.00    -0.335 A  
HETATM   14  C   UNL     1     -12.411  13.679  70.592  1.00  0.00    -0.368 A  
HETATM   15  C   UNL     1     -10.873  15.158  67.450  1.00  0.00    -0.302 C  
HETATM   16  S   UNL     1     -12.431  15.305  71.144  1.00  0.00    -0.416 SA 
HETATM   17  C   UNL     1     -11.691  15.872  69.722  1.00  0.00    -0.318 A  
HETATM   18  C   UNL     1     -11.446  14.871  68.800  1.00  0.00    -0.328 A  
BRANCH  14  19
HETATM   19  C   UNL     1     -13.007  12.683  71.461  1.00  0.00    -0.282 C  
HETATM   20  O   UNL     1     -13.719  12.913  72.437  1.00  0.00    -0.565 OA 
BRANCH  19  21
HETATM   21  O   UNL     1     -12.634  11.417  71.095  1.00  0.00    -0.394 OA 
HETATM   22  C   UNL     1     -13.247  10.389  71.873  1.00  0.00    -0.429 C  
ENDBRANCH  19  21
ENDBRANCH  14  19
ENDBRANCH  11  13
ENDBRANCH   8  11
ENDBRANCH   6   8
ENDBRANCH   4   6
ENDBRANCH   3   4
ENDBRANCH   2   3
TORSDOF 8
ENDMDL
MODEL      114
REMARK 921   NORMALIZED FREE ENERGY PREDICTED BY IDOCK:   -4.25 KCAL/MOL
REMARK 922        TOTAL FREE ENERGY PREDICTED BY IDOCK:   -6.95 KCAL/MOL
REMARK 923 INTER-LIGAND FREE ENERGY PREDICTED BY IDOCK:   -6.08 KCAL/MOL
REMARK 924 INTRA-LIGAND FREE ENERGY PREDICTED BY IDOCK:   -0.87 KCAL/MOL
REMARK 927      BINDING AFFINITY PREDICTED BY RF-SCORE:    0.00 PKD
ROOT
HETATM    1  C   UNL     1     -10.644   5.878  66.778  1.00  0.00    -0.368 C  
HETATM    2  C   UNL     1     -10.754   7.195  67.536  1.00  0.00    -0.344 C  
ENDROOT
BRANCH   2   3
HETATM    3  C   UNL     1      -9.927   8.279  66.843  1.00  0.00    -0.273 C  
BRANCH   3   4
HETATM    4  N   UNL     1      -9.691   9.423  67.735  1.00  0.00    -0.147 NA 
HETATM    5  H   UNL     1      -8.697   9.648  67.799  1.00  0.00     0.000 HD 
BRANCH   4   6
HETATM    6  C   UNL     1     -10.494  10.609  67.323  1.00  0.00    -0.246 C  
HETATM    7  C   UNL     1     -11.657  10.903  68.277  1.00  0.00    -0.335 C  
BRANCH   6   8
HETATM    8  C   UNL     1      -9.582  11.836  67.387  1.00  0.00    -0.168 C  
HETATM    9  O   UNL     1      -9.342  12.209  68.668  1.00  0.00    -0.351 OA 
HETATM   10  H   UNL     1      -8.776  12.970  68.707  1.00  0.00     0.000 HD 
BRANCH   8  11
HETATM   11  N   UNL     1      -9.143  12.425  66.324  1.00  0.00    -0.393 NA 
HETATM   12  H   UNL     1      -8.141  12.512  66.150  1.00  0.00     0.000 HD 
BRANCH  11  13
HETATM   13  C   UNL     1     -10.084  12.942  65.411  1.00  0.00    -0.251 A  
HETATM   14  C   UNL     1     -10.748  14.138  65.657  1.00  0.00    -0.313 A  
HETATM   15  C   UNL     1     -10.196  10.893  63.762  1.00  0.00    -0.407 C  
HETATM   16  S   UNL     1     -11.941  14.438  64.459  1.00  0.00    -0.461 SA 
HETATM   17  C   UNL     1     -11.590  12.987  63.645  1.00  0.00    -0.449 A  
HETATM   18  C   UNL     1     -10.606  12.240  64.265  1.00  0.00    -0.387 A  
BRANCH  14  19
HETATM   19  C   UNL     1     -10.627  15.115  66.723  1.00  0.00    -0.298 C  
HETATM   20  O   UNL     1     -10.732  14.883  67.926  1.00  0.00    -0.256 OA 
BRANCH  19  21
HETATM   21  O   UNL     1     -10.430  16.374  66.222  1.00  0.00    -0.309 OA 
HETATM   22  C   UNL     1     -10.445  17.397  67.217  1.00  0.00    -0.321 C  
ENDBRANCH  19  21
ENDBRANCH  14  19
ENDBRANCH  11  13
ENDBRANCH   8  11
ENDBRANCH   6   8
ENDBRANCH   4   6
ENDBRANCH   3   4
ENDBRANCH   2   3
TORSDOF 8
ENDMDL
MODEL      115
REMARK 921   NORMALIZED FREE ENERGY PREDICTED BY IDOCK:   -4.24 KCAL/MOL
REMARK 922        TOTAL FREE ENERGY PREDICTED BY IDOCK:   -6.93 KCAL/MOL
REMARK 923 INTER-LIGAND FREE ENERGY PREDICTED BY IDOCK:   -5.99 KCAL/MOL
REMARK 924 INTRA-LIGAND FREE ENERGY PREDICTED BY IDOCK:   -0.94 KCAL/MOL
REMARK 927      BINDING AFFINITY PREDICTED BY RF-SCORE:    0.00 PKD
ROOT
HETATM    1  C   UNL     1     -10.626   5.191  66.503  1.00  0.00    -0.320 C  
HETATM    2  C   UNL     1     -10.003   5.227  67.894  1.00  0.00    -0.206 C  
ENDROOT
BRANCH   2   3
HETATM    3  C   UNL     1     -10.676   6.301  68.751  1.00  0.00    -0.297 C  
BRANCH   3   4
HETATM    4  N   UNL     1     -11.043   7.474  67.945  1.00  0.00    -0.479 NA 
HETATM    5  H   UNL     1     -11.881   7.930  68.309  1.00  0.00     0.000 HD 
BRANCH   4   6
HETATM    6  C   UNL     1      -9.906   8.431  67.830  1.00  0.00    -0.174 C  
HETATM    7  C   UNL     1      -9.615   8.841  66.382  1.00  0.00    -0.316 C  
BRANCH   6   8
HETATM    8  C   UNL     1     -10.303   9.719  68.556  1.00  0.00    -0.202 C  
HETATM    9  O   UNL     1      -9.215  10.405  68.980  1.00  0.00    -0.169 OA 
HETATM   10  H   UNL     1      -9.462  11.204  69.431  1.00  0.00     0.000 HD 
BRANCH   8  11
HETATM   11  N   UNL     1     -11.538  10.053  68.739  1.00  0.00    -0.502 NA 
HETATM   12  H   UNL     1     -12.292   9.545  68.275  1.00  0.00     0.000 HD 
BRANCH  11  13
HETATM   13  C   UNL     1     -11.815  11.136  69.596  1.00  0.00    -0.348 A  
HETATM   14  C   UNL     1     -12.330  10.936  70.872  1.00  0.00    -0.400 A  
HETATM   15  C   UNL     1     -11.395  13.100  67.893  1.00  0.00    -0.321 C  
HETATM   16  S   UNL     1     -12.713  12.432  71.622  1.00  0.00    -0.103 SA 
HETATM   17  C   UNL     1     -12.223  13.323  70.261  1.00  0.00    -0.321 A  
HETATM   18  C   UNL     1     -11.797  12.527  69.213  1.00  0.00    -0.360 A  
BRANCH  14  19
HETATM   19  C   UNL     1     -12.610   9.730  71.627  1.00  0.00    -0.416 C  
HETATM   20  O   UNL     1     -13.641   9.500  72.257  1.00  0.00    -0.444 OA 
BRANCH  19  21
HETATM   21  O   UNL     1     -11.543   8.872  71.605  1.00  0.00    -0.291 OA 
HETATM   22  C   UNL     1     -11.777   7.647  72.301  1.00  0.00    -0.324 C  
ENDBRANCH  19  21
ENDBRANCH  14  19
ENDBRANCH  11  13
ENDBRANCH   8  11
ENDBRANCH   6   8
ENDBRANCH   4   6
ENDBRANCH   3   4
ENDBRANCH   2   3
TORSDOF 8
ENDMDL
MODEL      116
REMARK 921   NORMALIZED FREE ENERGY PREDICTED BY IDOCK:   -4.23 KCAL/MOL
REMARK 922        TOTAL FREE ENERGY PREDICTED BY IDOCK:   -6.92 KCAL/MOL
REMARK 923 INTER-LIGAND FREE ENERGY PREDICTED BY IDOCK:   -6.40 KCAL/MOL
REMARK 924 INTRA-LIGAND FREE ENERGY PREDICTED BY IDOCK:   -0.52 KCAL/MOL
REMARK 927      BINDING AFFINITY PREDICTED BY RF-SCORE:    0.00 PKD
ROOT
HETATM    1  C   UNL     1     -11.017   9.453  69.995  1.00  0.00    -0.267 C  
HETATM    2  C   UNL     1     -11.864  10.562  70.607  1.00  0.00    -0.458 C  
ENDROOT
BRANCH   2   3
HETATM    3  C   UNL     1     -11.997  11.731  69.629  1.00  0.00    -0.312 C  
BRANCH   3   4
HETATM    4  N   UNL     1     -11.551  12.991  70.241  1.00  0.00    -0.529 NA 
HETATM    5  H   UNL     1     -10.565  12.953  70.499  1.00  0.00     0.000 HD 
BRANCH   4   6
HETATM    6  C   UNL     1     -11.840  14.156  69.356  1.00  0.00    -0.330 C  
HETATM    7  C   UNL     1     -12.305  15.394  70.131  1.00  0.00    -0.395 C  
BRANCH   6   8
HETATM    8  C   UNL     1     -10.531  14.560  68.674  1.00  0.00    -0.247 C  
HETATM    9  O   UNL     1      -9.900  15.546  69.357  1.00  0.00    -0.247 OA 
HETATM   10  H   UNL     1      -9.087  15.797  68.933  1.00  0.00     0.000 HD 
BRANCH   8  11
HETATM   11  N   UNL     1     -10.133  14.018  67.571  1.00  0.00    -0.235 NA 
HETATM   12  H   UNL     1      -9.441  13.267  67.576  1.00  0.00     0.000 HD 
BRANCH  11  13
HETATM   13  C   UNL     1     -10.679  14.490  66.361  1.00  0.00    -0.309 A  
HETATM   14  C   UNL     1     -10.483  15.801  65.942  1.00  0.00    -0.352 A  
HETATM   15  C   UNL     1     -12.144  12.390  65.747  1.00  0.00    -0.381 C  
HETATM   16  S   UNL     1     -11.389  16.135  64.522  1.00  0.00    -0.055 SA 
HETATM   17  C   UNL     1     -12.044  14.567  64.484  1.00  0.00    -0.484 A  
HETATM   18  C   UNL     1     -11.629  13.779  65.542  1.00  0.00    -0.335 A  
BRANCH  14  19
HETATM   19  C   UNL     1      -9.701  16.891  66.494  1.00  0.00    -0.281 C  
HETATM   20  O   UNL     1      -8.543  17.170  66.191  1.00  0.00    -0.406 OA 
BRANCH  19  21
HETATM   21  O   UNL     1     -10.401  17.563  67.461  1.00  0.00    -0.330 OA 
HETATM   22  C   UNL     1     -10.434  18.977  67.268  1.00  0.00    -0.451 C  
ENDBRANCH  19  21
ENDBRANCH  14  19
ENDBRANCH  11  13
ENDBRANCH   8  11
ENDBRANCH   6   8
ENDBRANCH   4   6
ENDBRANCH   3   4
ENDBRANCH   2   3
TORSDOF 8
ENDMDL
MODEL      117
REMARK 921   NORMALIZED FREE ENERGY PREDICTED BY IDOCK:   -4.23 KCAL/MOL
REMARK 922        TOTAL FREE ENERGY PREDICTED BY IDOCK:   -6.92 KCAL/MOL
REMARK 923 INTER-LIGAND FREE ENERGY PREDICTED BY IDOCK:   -5.99 KCAL/MOL
REMARK 924 INTRA-LIGAND FREE ENERGY PREDICTED BY IDOCK:   -0.92 KCAL/MOL
REMARK 927      BINDING AFFINITY PREDICTED BY RF-SCORE:    0.00 PKD
ROOT
HETATM    1  C   UNL     1      -8.932  16.286  67.516  1.00  0.00    -0.193 C  
HETATM    2  C   UNL     1      -9.114  15.645  66.146  1.00  0.00    -0.378 C  
ENDROOT
BRANCH   2   3
HETATM    3  C   UNL     1     -10.601  15.465  65.835  1.00  0.00    -0.339 C  
BRANCH   3   4
HETATM    4  N   UNL     1     -11.373  15.197  67.057  1.00  0.00    -0.316 NA 
HETATM    5  H   UNL     1     -11.894  16.021  67.358  1.00  0.00     0.000 HD 
BRANCH   4   6
HETATM    6  C   UNL     1     -12.267  14.016  66.887  1.00  0.00    -0.380 C  
HETATM    7  C   UNL     1     -12.458  13.620  65.419  1.00  0.00    -0.537 C  
BRANCH   6   8
HETATM    8  C   UNL     1     -11.591  12.818  67.557  1.00  0.00    -0.356 C  
HETATM    9  O   UNL     1     -10.650  13.215  68.448  1.00  0.00    -0.239 OA 
HETATM   10  H   UNL     1     -10.231  12.471  68.864  1.00  0.00     0.000 HD 
BRANCH   8  11
HETATM   11  N   UNL     1     -11.897  11.599  67.259  1.00  0.00    -0.626 NA 
HETATM   12  H   UNL     1     -12.778  11.379  66.794  1.00  0.00     0.000 HD 
BRANCH  11  13
HETATM   13  C   UNL     1     -10.980  10.582  67.591  1.00  0.00    -0.314 A  
HETATM   14  C   UNL     1     -10.191   9.973  66.622  1.00  0.00    -0.223 A  
HETATM   15  C   UNL     1     -11.658  10.255  70.115  1.00  0.00    -0.376 C  
HETATM   16  S   UNL     1      -9.292   8.671  67.288  1.00  0.00    -0.158 SA 
HETATM   17  C   UNL     1      -9.963   8.904  68.832  1.00  0.00    -0.190 A  
HETATM   18  C   UNL     1     -10.889   9.929  68.874  1.00  0.00    -0.239 A  
BRANCH  14  19
HETATM   19  C   UNL     1     -10.031  10.225  65.202  1.00  0.00    -0.325 C  
HETATM   20  O   UNL     1     -10.680  11.030  64.537  1.00  0.00    -0.341 OA 
BRANCH  19  21
HETATM   21  O   UNL     1      -9.082   9.401  64.656  1.00  0.00    -0.225 OA 
HETATM   22  C   UNL     1      -8.818   9.663  63.278  1.00  0.00    -0.238 C  
ENDBRANCH  19  21
ENDBRANCH  14  19
ENDBRANCH  11  13
ENDBRANCH   8  11
ENDBRANCH   6   8
ENDBRANCH   4   6
ENDBRANCH   3   4
ENDBRANCH   2   3
TORSDOF 8
ENDMDL
MODEL      118
REMARK 921   NORMALIZED FREE ENERGY PREDICTED BY IDOCK:   -4.23 KCAL/MOL
REMARK 922        TOTAL FREE ENERGY PREDICTED BY IDOCK:   -6.91 KCAL/MOL
REMARK 923 INTER-LIGAND FREE ENERGY PREDICTED BY IDOCK:   -6.03 KCAL/MOL
REMARK 924 INTRA-LIGAND FREE ENERGY PREDICTED BY IDOCK:   -0.88 KCAL/MOL
REMARK 927      BINDING AFFINITY PREDICTED BY RF-SCORE:    0.00 PKD
ROOT
HETATM    1  C   UNL     1      -9.959   4.397  65.559  1.00  0.00    -0.242 C  
HETATM    2  C   UNL     1     -10.389   5.326  66.688  1.00  0.00    -0.330 C  
ENDROOT
BRANCH   2   3
HETATM    3  C   UNL     1      -9.618   6.646  66.615  1.00  0.00    -0.163 C  
BRANCH   3   4
HETATM    4  N   UNL     1     -10.533   7.796  66.573  1.00  0.00    -0.471 NA 
HETATM    5  H   UNL     1     -11.490   7.520  66.795  1.00  0.00     0.000 HD 
BRANCH   4   6
HETATM    6  C   UNL     1     -10.061   8.897  67.461  1.00  0.00    -0.227 C  
HETATM    7  C   UNL     1      -8.535   8.953  67.583  1.00  0.00    -0.121 C  
BRANCH   6   8
HETATM    8  C   UNL     1     -10.476  10.223  66.819  1.00  0.00    -0.214 C  
HETATM    9  O   UNL     1      -9.484  10.733  66.049  1.00  0.00    -0.181 OA 
HETATM   10  H   UNL     1      -9.742  11.556  65.651  1.00  0.00     0.000 HD 
BRANCH   8  11
HETATM   11  N   UNL     1     -11.630  10.763  67.037  1.00  0.00    -0.219 NA 
HETATM   12  H   UNL     1     -12.489  10.295  66.748  1.00  0.00     0.000 HD 
BRANCH  11  13
HETATM   13  C   UNL     1     -11.669  12.014  67.683  1.00  0.00    -0.294 A  
HETATM   14  C   UNL     1     -11.594  13.202  66.965  1.00  0.00    -0.359 A  
HETATM   15  C   UNL     1     -11.554  11.171  70.175  1.00  0.00    -0.410 C  
HETATM   16  S   UNL     1     -11.507  14.554  68.020  1.00  0.00    -0.337 SA 
HETATM   17  C   UNL     1     -11.546  13.568  69.404  1.00  0.00    -0.312 A  
HETATM   18  C   UNL     1     -11.591  12.218  69.109  1.00  0.00    -0.373 A  
BRANCH  14  19
HETATM   19  C   UNL     1     -11.549  13.475  65.542  1.00  0.00    -0.320 C  
HETATM   20  O   UNL     1     -10.764  14.236  64.979  1.00  0.00    -0.369 OA 
BRANCH  19  21
HETATM   21  O   UNL     1     -12.545  12.810  64.877  1.00  0.00    -0.535 OA 
HETATM   22  C   UNL     1     -12.217  12.482  63.527  1.00  0.00    -0.558 C  
ENDBRANCH  19  21
ENDBRANCH  14  19
ENDBRANCH  11  13
ENDBRANCH   8  11
ENDBRANCH   6   8
ENDBRANCH   4   6
ENDBRANCH   3   4
ENDBRANCH   2   3
TORSDOF 8
ENDMDL
MODEL      119
REMARK 921   NORMALIZED FREE ENERGY PREDICTED BY IDOCK:   -4.22 KCAL/MOL
REMARK 922        TOTAL FREE ENERGY PREDICTED BY IDOCK:   -6.91 KCAL/MOL
REMARK 923 INTER-LIGAND FREE ENERGY PREDICTED BY IDOCK:   -5.82 KCAL/MOL
REMARK 924 INTRA-LIGAND FREE ENERGY PREDICTED BY IDOCK:   -1.08 KCAL/MOL
REMARK 927      BINDING AFFINITY PREDICTED BY RF-SCORE:    0.00 PKD
ROOT
HETATM    1  C   UNL     1     -11.371  11.907  66.743  1.00  0.00    -0.393 C  
HETATM    2  C   UNL     1     -11.721  12.351  68.159  1.00  0.00    -0.408 C  
ENDROOT
BRANCH   2   3
HETATM    3  C   UNL     1     -11.143  11.371  69.182  1.00  0.00    -0.258 C  
BRANCH   3   4
HETATM    4  N   UNL     1     -12.150  10.388  69.608  1.00  0.00    -0.507 NA 
HETATM    5  H   UNL     1     -12.046   9.505  69.107  1.00  0.00     0.000 HD 
BRANCH   4   6
HETATM    6  C   UNL     1     -12.120  10.186  71.085  1.00  0.00    -0.388 C  
HETATM    7  C   UNL     1     -13.179  11.013  71.822  1.00  0.00    -0.505 C  
BRANCH   6   8
HETATM    8  C   UNL     1     -12.468   8.722  71.362  1.00  0.00    -0.303 C  
HETATM    9  O   UNL     1     -13.014   8.567  72.593  1.00  0.00    -0.597 OA 
HETATM   10  H   UNL     1     -13.230   7.658  72.765  1.00  0.00     0.000 HD 
BRANCH   8  11
HETATM   11  N   UNL     1     -12.227   7.782  70.509  1.00  0.00    -0.491 NA 
HETATM   12  H   UNL     1     -12.910   7.539  69.791  1.00  0.00     0.000 HD 
BRANCH  11  13
HETATM   13  C   UNL     1     -10.995   7.104  70.594  1.00  0.00    -0.258 A  
HETATM   14  C   UNL     1     -10.031   7.226  69.600  1.00  0.00    -0.176 A  
HETATM   15  C   UNL     1     -11.508   5.628  72.713  1.00  0.00    -0.328 C  
HETATM   16  S   UNL     1      -8.708   6.171  69.892  1.00  0.00    -0.137 SA 
HETATM   17  C   UNL     1      -9.423   5.549  71.303  1.00  0.00    -0.149 A  
HETATM   18  C   UNL     1     -10.669   6.088  71.566  1.00  0.00    -0.309 A  
BRANCH  14  19
HETATM   19  C   UNL     1      -9.972   8.038  68.400  1.00  0.00    -0.185 C  
HETATM   20  O   UNL     1     -10.905   8.247  67.627  1.00  0.00    -0.167 OA 
BRANCH  19  21
HETATM   21  O   UNL     1      -8.706   8.517  68.186  1.00  0.00    -0.140 OA 
HETATM   22  C   UNL     1      -8.566   9.244  66.966  1.00  0.00    -0.124 C  
ENDBRANCH  19  21
ENDBRANCH  14  19
ENDBRANCH  11  13
ENDBRANCH   8  11
ENDBRANCH   6   8
ENDBRANCH   4   6
ENDBRANCH   3   4
ENDBRANCH   2   3
TORSDOF 8
ENDMDL
MODEL      120
REMARK 921   NORMALIZED FREE ENERGY PREDICTED BY IDOCK:   -4.22 KCAL/MOL
REMARK 922        TOTAL FREE ENERGY PREDICTED BY IDOCK:   -6.91 KCAL/MOL
REMARK 923 INTER-LIGAND FREE ENERGY PREDICTED BY IDOCK:   -5.76 KCAL/MOL
REMARK 924 INTRA-LIGAND FREE ENERGY PREDICTED BY IDOCK:   -1.14 KCAL/MOL
REMARK 927      BINDING AFFINITY PREDICTED BY RF-SCORE:    0.00 PKD
ROOT
HETATM    1  C   UNL     1      -8.869  10.337  64.340  1.00  0.00    -0.229 C  
HETATM    2  C   UNL     1     -10.313  10.758  64.092  1.00  0.00    -0.382 C  
ENDROOT
BRANCH   2   3
HETATM    3  C   UNL     1     -10.394  12.266  63.847  1.00  0.00    -0.429 C  
BRANCH   3   4
HETATM    4  N   UNL     1      -9.721  13.017  64.917  1.00  0.00    -0.535 NA 
HETATM    5  H   UNL     1      -9.009  13.645  64.542  1.00  0.00     0.000 HD 
BRANCH   4   6
HETATM    6  C   UNL     1     -10.703  13.748  65.767  1.00  0.00    -0.281 C  
HETATM    7  C   UNL     1     -12.040  13.993  65.059  1.00  0.00    -0.427 C  
BRANCH   6   8
HETATM    8  C   UNL     1     -11.027  12.863  66.973  1.00  0.00    -0.262 C  
HETATM    9  O   UNL     1     -12.154  12.140  66.768  1.00  0.00    -0.609 OA 
HETATM   10  H   UNL     1     -12.355  11.590  67.516  1.00  0.00     0.000 HD 
BRANCH   8  11
HETATM   11  N   UNL     1     -10.300  12.861  68.041  1.00  0.00    -0.221 NA 
HETATM   12  H   UNL     1     -10.073  13.732  68.521  1.00  0.00     0.000 HD 
BRANCH  11  13
HETATM   13  C   UNL     1      -9.830  11.624  68.525  1.00  0.00    -0.193 A  
HETATM   14  C   UNL     1     -10.523  10.919  69.503  1.00  0.00    -0.138 A  
HETATM   15  C   UNL     1      -7.493  11.593  67.314  1.00  0.00    -0.143 C  
HETATM   16  S   UNL     1      -9.640   9.536  70.007  1.00  0.00    -0.251 SA 
HETATM   17  C   UNL     1      -8.350   9.888  68.957  1.00  0.00    -0.130 A  
HETATM   18  C   UNL     1      -8.537  11.054  68.239  1.00  0.00    -0.143 A  
BRANCH  14  19
HETATM   19  C   UNL     1     -11.795  11.162  70.157  1.00  0.00    -0.365 C  
HETATM   20  O   UNL     1     -12.302  12.264  70.356  1.00  0.00    -0.302 OA 
BRANCH  19  21
HETATM   21  O   UNL     1     -12.362   9.992  70.590  1.00  0.00    -0.285 OA 
HETATM   22  C   UNL     1     -13.175  10.144  71.753  1.00  0.00    -0.438 C  
ENDBRANCH  19  21
ENDBRANCH  14  19
ENDBRANCH  11  13
ENDBRANCH   8  11
ENDBRANCH   6   8
ENDBRANCH   4   6
ENDBRANCH   3   4
ENDBRANCH   2   3
TORSDOF 8
ENDMDL
MODEL      121
REMARK 921   NORMALIZED FREE ENERGY PREDICTED BY IDOCK:   -4.19 KCAL/MOL
REMARK 922        TOTAL FREE ENERGY PREDICTED BY IDOCK:   -6.86 KCAL/MOL
REMARK 923 INTER-LIGAND FREE ENERGY PREDICTED BY IDOCK:   -5.88 KCAL/MOL
REMARK 924 INTRA-LIGAND FREE ENERGY PREDICTED BY IDOCK:   -0.98 KCAL/MOL
REMARK 927      BINDING AFFINITY PREDICTED BY RF-SCORE:    0.00 PKD
ROOT
HETATM    1  C   UNL     1     -12.757  13.096  70.930  1.00  0.00    -0.313 C  
HETATM    2  C   UNL     1     -13.223  12.122  72.006  1.00  0.00    -0.496 C  
ENDROOT
BRANCH   2   3
HETATM    3  C   UNL     1     -13.196  10.688  71.473  1.00  0.00    -0.360 C  
BRANCH   3   4
HETATM    4  N   UNL     1     -12.357  10.581  70.271  1.00  0.00    -0.406 NA 
HETATM    5  H   UNL     1     -12.412  11.425  69.701  1.00  0.00     0.000 HD 
BRANCH   4   6
HETATM    6  C   UNL     1     -10.946  10.249  70.622  1.00  0.00    -0.214 C  
HETATM    7  C   UNL     1     -10.838   9.265  71.792  1.00  0.00    -0.358 C  
BRANCH   6   8
HETATM    8  C   UNL     1     -10.321   9.537  69.420  1.00  0.00    -0.214 C  
HETATM    9  O   UNL     1      -9.015   9.250  69.638  1.00  0.00    -0.140 OA 
HETATM   10  H   UNL     1      -8.627   8.808  68.892  1.00  0.00     0.000 HD 
BRANCH   8  11
HETATM   11  N   UNL     1     -10.990   9.288  68.343  1.00  0.00    -0.464 NA 
HETATM   12  H   UNL     1     -11.950   8.945  68.390  1.00  0.00     0.000 HD 
BRANCH  11  13
HETATM   13  C   UNL     1     -10.359   9.503  67.101  1.00  0.00    -0.253 A  
HETATM   14  C   UNL     1     -10.511  10.700  66.410  1.00  0.00    -0.213 A  
HETATM   15  C   UNL     1      -9.418   7.075  66.715  1.00  0.00    -0.205 C  
HETATM   16  S   UNL     1      -9.763  10.619  64.867  1.00  0.00    -0.312 SA 
HETATM   17  C   UNL     1      -9.268   9.012  65.111  1.00  0.00    -0.093 A  
HETATM   18  C   UNL     1      -9.677   8.495  66.327  1.00  0.00    -0.300 A  
BRANCH  14  19
HETATM   19  C   UNL     1     -11.189  11.937  66.749  1.00  0.00    -0.327 C  
HETATM   20  O   UNL     1     -11.945  12.105  67.704  1.00  0.00    -0.529 OA 
BRANCH  19  21
HETATM   21  O   UNL     1     -10.927  12.915  65.826  1.00  0.00    -0.274 OA 
HETATM   22  C   UNL     1     -12.057  13.269  65.028  1.00  0.00    -0.408 C  
ENDBRANCH  19  21
ENDBRANCH  14  19
ENDBRANCH  11  13
ENDBRANCH   8  11
ENDBRANCH   6   8
ENDBRANCH   4   6
ENDBRANCH   3   4
ENDBRANCH   2   3
TORSDOF 8
ENDMDL
MODEL      122
REMARK 921   NORMALIZED FREE ENERGY PREDICTED BY IDOCK:   -4.18 KCAL/MOL
REMARK 922        TOTAL FREE ENERGY PREDICTED BY IDOCK:   -6.85 KCAL/MOL
REMARK 923 INTER-LIGAND FREE ENERGY PREDICTED BY IDOCK:   -5.89 KCAL/MOL
REMARK 924 INTRA-LIGAND FREE ENERGY PREDICTED BY IDOCK:   -0.96 KCAL/MOL
REMARK 927      BINDING AFFINITY PREDICTED BY RF-SCORE:    0.00 PKD
ROOT
HETATM    1  C   UNL     1     -11.246  12.116  66.842  1.00  0.00    -0.375 C  
HETATM    2  C   UNL     1     -10.555  11.099  65.942  1.00  0.00    -0.294 C  
ENDROOT
BRANCH   2   3
HETATM    3  C   UNL     1     -10.425   9.754  66.659  1.00  0.00    -0.163 C  
BRANCH   3   4
HETATM    4  N   UNL     1     -11.113   9.774  67.958  1.00  0.00    -0.506 NA 
HETATM    5  H   UNL     1     -12.110   9.585  67.856  1.00  0.00     0.000 HD 
BRANCH   4   6
HETATM    6  C   UNL     1     -10.474   8.835  68.925  1.00  0.00    -0.197 C  
HETATM    7  C   UNL     1      -9.212   8.169  68.365  1.00  0.00    -0.135 C  
BRANCH   6   8
HETATM    8  C   UNL     1     -10.012   9.652  70.134  1.00  0.00    -0.261 C  
HETATM    9  O   UNL     1      -9.234  10.695  69.758  1.00  0.00    -0.406 OA 
HETATM   10  H   UNL     1      -8.947  11.203  70.509  1.00  0.00     0.000 HD 
BRANCH   8  11
HETATM   11  N   UNL     1     -10.330   9.331  71.344  1.00  0.00    -0.335 NA 
HETATM   12  H   UNL     1      -9.629   9.327  72.086  1.00  0.00     0.000 HD 
BRANCH  11  13
HETATM   13  C   UNL     1     -11.669   8.986  71.614  1.00  0.00    -0.361 A  
HETATM   14  C   UNL     1     -12.059   7.660  71.763  1.00  0.00    -0.305 A  
HETATM   15  C   UNL     1     -12.750  11.370  71.333  1.00  0.00    -0.489 C  
HETATM   16  S   UNL     1     -13.763   7.534  71.926  1.00  0.00    -0.189 SA 
HETATM   17  C   UNL     1     -13.974   9.214  71.775  1.00  0.00    -0.314 A  
HETATM   18  C   UNL     1     -12.788   9.895  71.569  1.00  0.00    -0.522 A  
BRANCH  14  19
HETATM   19  C   UNL     1     -11.304   6.422  71.776  1.00  0.00    -0.289 C  
HETATM   20  O   UNL     1     -10.269   6.204  71.147  1.00  0.00    -0.190 OA 
BRANCH  19  21
HETATM   21  O   UNL     1     -11.919   5.473  72.548  1.00  0.00    -0.223 OA 
HETATM   22  C   UNL     1     -11.045   4.833  73.478  1.00  0.00    -0.335 C  
ENDBRANCH  19  21
ENDBRANCH  14  19
ENDBRANCH  11  13
ENDBRANCH   8  11
ENDBRANCH   6   8
ENDBRANCH   4   6
ENDBRANCH   3   4
ENDBRANCH   2   3
TORSDOF 8
ENDMDL
MODEL      123
REMARK 921   NORMALIZED FREE ENERGY PREDICTED BY IDOCK:   -4.17 KCAL/MOL
REMARK 922        TOTAL FREE ENERGY PREDICTED BY IDOCK:   -6.84 KCAL/MOL
REMARK 923 INTER-LIGAND FREE ENERGY PREDICTED BY IDOCK:   -5.76 KCAL/MOL
REMARK 924 INTRA-LIGAND FREE ENERGY PREDICTED BY IDOCK:   -1.07 KCAL/MOL
REMARK 927      BINDING AFFINITY PREDICTED BY RF-SCORE:    0.00 PKD
ROOT
HETATM    1  C   UNL     1     -10.031   4.402  65.379  1.00  0.00    -0.231 C  
HETATM    2  C   UNL     1     -10.830   5.197  66.405  1.00  0.00    -0.174 C  
ENDROOT
BRANCH   2   3
HETATM    3  C   UNL     1      -9.984   6.340  66.968  1.00  0.00    -0.159 C  
BRANCH   3   4
HETATM    4  N   UNL     1     -10.788   7.556  67.158  1.00  0.00    -0.515 NA 
HETATM    5  H   UNL     1     -11.736   7.332  67.464  1.00  0.00     0.000 HD 
BRANCH   4   6
HETATM    6  C   UNL     1     -10.122   8.507  68.093  1.00  0.00    -0.200 C  
HETATM    7  C   UNL     1      -8.594   8.494  67.970  1.00  0.00    -0.134 C  
BRANCH   6   8
HETATM    8  C   UNL     1     -10.559   9.923  67.708  1.00  0.00    -0.261 C  
HETATM    9  O   UNL     1     -11.832  10.171  68.098  1.00  0.00    -0.686 OA 
HETATM   10  H   UNL     1     -12.103  11.050  67.859  1.00  0.00     0.000 HD 
BRANCH   8  11
HETATM   11  N   UNL     1      -9.782  10.733  67.068  1.00  0.00    -0.173 NA 
HETATM   12  H   UNL     1      -8.938  11.103  67.505  1.00  0.00     0.000 HD 
BRANCH  11  13
HETATM   13  C   UNL     1     -10.133  11.091  65.751  1.00  0.00    -0.252 A  
HETATM   14  C   UNL     1     -11.029  12.123  65.496  1.00  0.00    -0.301 A  
HETATM   15  C   UNL     1      -8.927   9.128  64.478  1.00  0.00    -0.129 C  
HETATM   16  S   UNL     1     -11.384  12.230  63.820  1.00  0.00    -0.498 SA 
HETATM   17  C   UNL     1     -10.379  10.910  63.450  1.00  0.00    -0.235 A  
HETATM   18  C   UNL     1      -9.788  10.346  64.565  1.00  0.00    -0.405 A  
BRANCH  14  19
HETATM   19  C   UNL     1     -11.704  13.061  66.373  1.00  0.00    -0.390 C  
HETATM   20  O   UNL     1     -12.115  12.819  67.506  1.00  0.00    -0.359 OA 
BRANCH  19  21
HETATM   21  O   UNL     1     -11.887  14.271  65.758  1.00  0.00    -0.355 OA 
HETATM   22  C   UNL     1     -10.913  15.251  66.117  1.00  0.00    -0.307 C  
ENDBRANCH  19  21
ENDBRANCH  14  19
ENDBRANCH  11  13
ENDBRANCH   8  11
ENDBRANCH   6   8
ENDBRANCH   4   6
ENDBRANCH   3   4
ENDBRANCH   2   3
TORSDOF 8
ENDMDL
MODEL      124
REMARK 921   NORMALIZED FREE ENERGY PREDICTED BY IDOCK:   -4.17 KCAL/MOL
REMARK 922        TOTAL FREE ENERGY PREDICTED BY IDOCK:   -6.83 KCAL/MOL
REMARK 923 INTER-LIGAND FREE ENERGY PREDICTED BY IDOCK:   -6.42 KCAL/MOL
REMARK 924 INTRA-LIGAND FREE ENERGY PREDICTED BY IDOCK:   -0.41 KCAL/MOL
REMARK 927      BINDING AFFINITY PREDICTED BY RF-SCORE:    0.00 PKD
ROOT
HETATM    1  C   UNL     1      -6.510  18.276  67.941  1.00  0.00    -0.195 C  
HETATM    2  C   UNL     1      -6.798  17.696  66.562  1.00  0.00    -0.277 C  
ENDROOT
BRANCH   2   3
HETATM    3  C   UNL     1      -8.058  18.332  65.970  1.00  0.00    -0.080 C  
BRANCH   3   4
HETATM    4  N   UNL     1      -9.079  18.554  67.004  1.00  0.00    -0.274 NA 
HETATM    5  H   UNL     1      -8.970  19.468  67.446  1.00  0.00     0.000 HD 
BRANCH   4   6
HETATM    6  C   UNL     1     -10.454  18.373  66.456  1.00  0.00    -0.381 C  
HETATM    7  C   UNL     1     -10.889  19.523  65.542  1.00  0.00    -0.247 C  
BRANCH   6   8
HETATM    8  C   UNL     1     -10.444  17.121  65.575  1.00  0.00    -0.144 C  
HETATM    9  O   UNL     1     -11.235  17.276  64.486  1.00  0.00    -1.083 OA 
HETATM   10  H   UNL     1     -11.229  16.499  63.939  1.00  0.00     0.000 HD 
BRANCH   8  11
HETATM   11  N   UNL     1      -9.770  16.064  65.887  1.00  0.00    -0.332 NA 
HETATM   12  H   UNL     1      -8.836  15.907  65.506  1.00  0.00     0.000 HD 
BRANCH  11  13
HETATM   13  C   UNL     1     -10.357  15.135  66.768  1.00  0.00    -0.273 A  
HETATM   14  C   UNL     1     -11.351  14.261  66.341  1.00  0.00    -0.343 A  
HETATM   15  C   UNL     1      -9.250  15.964  69.008  1.00  0.00    -0.242 C  
HETATM   16  S   UNL     1     -11.986  13.360  67.657  1.00  0.00    -0.278 SA 
HETATM   17  C   UNL     1     -10.969  14.139  68.774  1.00  0.00    -0.257 A  
HETATM   18  C   UNL     1     -10.165  15.104  68.197  1.00  0.00    -0.227 A  
BRANCH  14  19
HETATM   19  C   UNL     1     -11.933  14.017  65.035  1.00  0.00    -0.401 C  
HETATM   20  O   UNL     1     -13.133  14.043  64.766  1.00  0.00    -0.632 OA 
BRANCH  19  21
HETATM   21  O   UNL     1     -10.971  13.691  64.116  1.00  0.00    -0.345 OA 
HETATM   22  C   UNL     1     -10.803  12.285  63.935  1.00  0.00    -0.412 C  
ENDBRANCH  19  21
ENDBRANCH  14  19
ENDBRANCH  11  13
ENDBRANCH   8  11
ENDBRANCH   6   8
ENDBRANCH   4   6
ENDBRANCH   3   4
ENDBRANCH   2   3
TORSDOF 8
ENDMDL
MODEL      125
REMARK 921   NORMALIZED FREE ENERGY PREDICTED BY IDOCK:   -4.17 KCAL/MOL
REMARK 922        TOTAL FREE ENERGY PREDICTED BY IDOCK:   -6.83 KCAL/MOL
REMARK 923 INTER-LIGAND FREE ENERGY PREDICTED BY IDOCK:   -5.79 KCAL/MOL
REMARK 924 INTRA-LIGAND FREE ENERGY PREDICTED BY IDOCK:   -1.04 KCAL/MOL
REMARK 927      BINDING AFFINITY PREDICTED BY RF-SCORE:    0.00 PKD
ROOT
HETATM    1  C   UNL     1     -12.027  15.744  70.060  1.00  0.00    -0.352 C  
HETATM    2  C   UNL     1     -11.720  14.275  70.325  1.00  0.00    -0.343 C  
ENDROOT
BRANCH   2   3
HETATM    3  C   UNL     1     -11.945  13.446  69.059  1.00  0.00    -0.315 C  
BRANCH   3   4
HETATM    4  N   UNL     1     -12.220  14.308  67.900  1.00  0.00    -0.595 NA 
HETATM    5  H   UNL     1     -11.762  15.215  67.992  1.00  0.00     0.000 HD 
BRANCH   4   6
HETATM    6  C   UNL     1     -11.848  13.634  66.623  1.00  0.00    -0.409 C  
HETATM    7  C   UNL     1     -12.825  13.937  65.482  1.00  0.00    -0.471 C  
BRANCH   6   8
HETATM    8  C   UNL     1     -10.497  14.196  66.174  1.00  0.00    -0.296 C  
HETATM    9  O   UNL     1     -10.560  15.535  65.974  1.00  0.00    -0.303 OA 
HETATM   10  H   UNL     1      -9.721  15.884  65.696  1.00  0.00     0.000 HD 
BRANCH   8  11
HETATM   11  N   UNL     1      -9.462  13.444  65.997  1.00  0.00    -0.483 NA 
HETATM   12  H   UNL     1      -8.522  13.840  65.987  1.00  0.00     0.000 HD 
BRANCH  11  13
HETATM   13  C   UNL     1      -9.665  12.061  65.819  1.00  0.00    -0.235 A  
HETATM   14  C   UNL     1      -9.398  11.153  66.838  1.00  0.00    -0.175 A  
HETATM   15  C   UNL     1     -10.215  12.075  63.244  1.00  0.00    -0.398 C  
HETATM   16  S   UNL     1      -9.587   9.538  66.288  1.00  0.00    -0.246 SA 
HETATM   17  C   UNL     1      -9.994  10.044  64.717  1.00  0.00    -0.178 A  
HETATM   18  C   UNL     1      -9.965  11.418  64.563  1.00  0.00    -0.318 A  
BRANCH  14  19
HETATM   19  C   UNL     1      -8.978  11.334  68.214  1.00  0.00    -0.172 C  
HETATM   20  O   UNL     1      -8.464  12.349  68.681  1.00  0.00    -0.102 OA 
BRANCH  19  21
HETATM   21  O   UNL     1      -9.175  10.194  68.947  1.00  0.00    -0.154 OA 
HETATM   22  C   UNL     1     -10.319  10.250  69.800  1.00  0.00    -0.246 C  
ENDBRANCH  19  21
ENDBRANCH  14  19
ENDBRANCH  11  13
ENDBRANCH   8  11
ENDBRANCH   6   8
ENDBRANCH   4   6
ENDBRANCH   3   4
ENDBRANCH   2   3
TORSDOF 8
ENDMDL
MODEL      126
REMARK 921   NORMALIZED FREE ENERGY PREDICTED BY IDOCK:   -4.15 KCAL/MOL
REMARK 922        TOTAL FREE ENERGY PREDICTED BY IDOCK:   -6.80 KCAL/MOL
REMARK 923 INTER-LIGAND FREE ENERGY PREDICTED BY IDOCK:   -5.74 KCAL/MOL
REMARK 924 INTRA-LIGAND FREE ENERGY PREDICTED BY IDOCK:   -1.06 KCAL/MOL
REMARK 927      BINDING AFFINITY PREDICTED BY RF-SCORE:    0.00 PKD
ROOT
HETATM    1  C   UNL     1     -12.710  14.157  65.632  1.00  0.00    -0.469 C  
HETATM    2  C   UNL     1     -11.308  14.600  66.030  1.00  0.00    -0.344 C  
ENDROOT
BRANCH   2   3
HETATM    3  C   UNL     1     -11.282  15.030  67.498  1.00  0.00    -0.330 C  
BRANCH   3   4
HETATM    4  N   UNL     1     -12.182  14.202  68.313  1.00  0.00    -0.573 NA 
HETATM    5  H   UNL     1     -12.882  13.733  67.737  1.00  0.00     0.000 HD 
BRANCH   4   6
HETATM    6  C   UNL     1     -11.418  13.229  69.146  1.00  0.00    -0.305 C  
HETATM    7  C   UNL     1     -12.216  12.722  70.352  1.00  0.00    -0.371 C  
BRANCH   6   8
HETATM    8  C   UNL     1     -11.137  11.996  68.285  1.00  0.00    -0.243 C  
HETATM    9  O   UNL     1     -12.285  11.379  67.914  1.00  0.00    -0.592 OA 
HETATM   10  H   UNL     1     -12.110  10.613  67.379  1.00  0.00     0.000 HD 
BRANCH   8  11
HETATM   11  N   UNL     1      -9.936  11.616  67.996  1.00  0.00    -0.182 NA 
HETATM   12  H   UNL     1      -9.176  12.293  67.922  1.00  0.00     0.000 HD 
BRANCH  11  13
HETATM   13  C   UNL     1      -9.703  10.242  67.788  1.00  0.00    -0.156 A  
HETATM   14  C   UNL     1      -9.546   9.721  66.508  1.00  0.00    -0.194 A  
HETATM   15  C   UNL     1     -10.051   9.407  70.260  1.00  0.00    -0.288 C  
HETATM   16  S   UNL     1      -9.435   8.009  66.550  1.00  0.00    -0.209 SA 
HETATM   17  C   UNL     1      -9.616   7.967  68.240  1.00  0.00    -0.156 A  
HETATM   18  C   UNL     1      -9.795   9.219  68.799  1.00  0.00    -0.174 A  
BRANCH  14  19
HETATM   19  C   UNL     1      -9.493  10.352  65.203  1.00  0.00    -0.249 C  
HETATM   20  O   UNL     1      -8.534  10.330  64.433  1.00  0.00    -0.168 OA 
BRANCH  19  21
HETATM   21  O   UNL     1     -10.646  11.042  64.937  1.00  0.00    -0.302 OA 
HETATM   22  C   UNL     1     -10.620  11.748  63.697  1.00  0.00    -0.439 C  
ENDBRANCH  19  21
ENDBRANCH  14  19
ENDBRANCH  11  13
ENDBRANCH   8  11
ENDBRANCH   6   8
ENDBRANCH   4   6
ENDBRANCH   3   4
ENDBRANCH   2   3
TORSDOF 8
ENDMDL
MODEL      127
REMARK 921   NORMALIZED FREE ENERGY PREDICTED BY IDOCK:   -4.15 KCAL/MOL
REMARK 922        TOTAL FREE ENERGY PREDICTED BY IDOCK:   -6.80 KCAL/MOL
REMARK 923 INTER-LIGAND FREE ENERGY PREDICTED BY IDOCK:   -5.76 KCAL/MOL
REMARK 924 INTRA-LIGAND FREE ENERGY PREDICTED BY IDOCK:   -1.04 KCAL/MOL
REMARK 927      BINDING AFFINITY PREDICTED BY RF-SCORE:    0.00 PKD
ROOT
HETATM    1  C   UNL     1      -7.130   8.446  67.328  1.00  0.00    -0.079 C  
HETATM    2  C   UNL     1      -7.891   8.953  66.109  1.00  0.00    -0.102 C  
ENDROOT
BRANCH   2   3
HETATM    3  C   UNL     1      -7.696  10.462  65.949  1.00  0.00    -0.145 C  
BRANCH   3   4
HETATM    4  N   UNL     1      -8.824  11.209  66.525  1.00  0.00    -0.165 NA 
HETATM    5  H   UNL     1      -9.529  10.581  66.911  1.00  0.00     0.000 HD 
BRANCH   4   6
HETATM    6  C   UNL     1      -8.358  12.199  67.539  1.00  0.00    -0.166 C  
HETATM    7  C   UNL     1      -6.896  12.611  67.341  1.00  0.00    -0.141 C  
BRANCH   6   8
HETATM    8  C   UNL     1      -9.180  13.476  67.355  1.00  0.00    -0.223 C  
HETATM    9  O   UNL     1     -10.225  13.521  68.216  1.00  0.00    -0.237 OA 
HETATM   10  H   UNL     1     -10.735  14.314  68.102  1.00  0.00     0.000 HD 
BRANCH   8  11
HETATM   11  N   UNL     1      -8.889  14.360  66.459  1.00  0.00    -0.458 NA 
HETATM   12  H   UNL     1      -8.424  14.092  65.591  1.00  0.00     0.000 HD 
BRANCH  11  13
HETATM   13  C   UNL     1      -9.230  15.704  66.711  1.00  0.00    -0.251 A  
HETATM   14  C   UNL     1     -10.166  16.372  65.929  1.00  0.00    -0.359 A  
HETATM   15  C   UNL     1      -7.426  16.225  68.556  1.00  0.00    -0.176 C  
HETATM   16  S   UNL     1     -10.262  18.029  66.366  1.00  0.00    -0.381 SA 
HETATM   17  C   UNL     1      -9.063  17.859  67.558  1.00  0.00    -0.245 A  
HETATM   18  C   UNL     1      -8.545  16.578  67.631  1.00  0.00    -0.189 A  
BRANCH  14  19
HETATM   19  C   UNL     1     -11.013  15.929  64.838  1.00  0.00    -0.411 C  
HETATM   20  O   UNL     1     -11.543  16.655  63.999  1.00  0.00    -1.197 OA 
BRANCH  19  21
HETATM   21  O   UNL     1     -11.206  14.574  64.879  1.00  0.00    -0.354 OA 
HETATM   22  C   UNL     1     -12.427  14.186  65.510  1.00  0.00    -0.476 C  
ENDBRANCH  19  21
ENDBRANCH  14  19
ENDBRANCH  11  13
ENDBRANCH   8  11
ENDBRANCH   6   8
ENDBRANCH   4   6
ENDBRANCH   3   4
ENDBRANCH   2   3
TORSDOF 8
ENDMDL
MODEL      128
REMARK 921   NORMALIZED FREE ENERGY PREDICTED BY IDOCK:   -4.14 KCAL/MOL
REMARK 922        TOTAL FREE ENERGY PREDICTED BY IDOCK:   -6.78 KCAL/MOL
REMARK 923 INTER-LIGAND FREE ENERGY PREDICTED BY IDOCK:   -5.82 KCAL/MOL
REMARK 924 INTRA-LIGAND FREE ENERGY PREDICTED BY IDOCK:   -0.97 KCAL/MOL
REMARK 927      BINDING AFFINITY PREDICTED BY RF-SCORE:    0.00 PKD
ROOT
HETATM    1  C   UNL     1      -6.016  18.163  67.121  1.00  0.00    -0.165 C  
HETATM    2  C   UNL     1      -7.126  17.722  66.174  1.00  0.00    -0.347 C  
ENDROOT
BRANCH   2   3
HETATM    3  C   UNL     1      -8.489  18.171  66.706  1.00  0.00    -0.259 C  
BRANCH   3   4
HETATM    4  N   UNL     1      -8.643  17.836  68.129  1.00  0.00    -0.255 NA 
HETATM    5  H   UNL     1      -9.190  18.543  68.621  1.00  0.00     0.000 HD 
BRANCH   4   6
HETATM    6  C   UNL     1      -9.223  16.474  68.307  1.00  0.00    -0.214 C  
HETATM    7  C   UNL     1      -8.496  15.652  69.377  1.00  0.00    -0.244 C  
BRANCH   6   8
HETATM    8  C   UNL     1     -10.658  16.640  68.811  1.00  0.00    -0.340 C  
HETATM    9  O   UNL     1     -10.704  17.395  69.936  1.00  0.00    -0.263 OA 
HETATM   10  H   UNL     1     -11.595  17.497  70.249  1.00  0.00     0.000 HD 
BRANCH   8  11
HETATM   11  N   UNL     1     -11.664  16.087  68.219  1.00  0.00    -0.276 NA 
HETATM   12  H   UNL     1     -12.395  16.655  67.788  1.00  0.00     0.000 HD 
BRANCH  11  13
HETATM   13  C   UNL     1     -11.727  14.680  68.184  1.00  0.00    -0.330 A  
HETATM   14  C   UNL     1     -11.955  13.937  69.337  1.00  0.00    -0.354 A  
HETATM   15  C   UNL     1     -10.987  14.317  65.684  1.00  0.00    -0.309 C  
HETATM   16  S   UNL     1     -11.823  12.255  69.022  1.00  0.00    -0.276 SA 
HETATM   17  C   UNL     1     -11.446  12.518  67.385  1.00  0.00    -0.341 A  
HETATM   18  C   UNL     1     -11.379  13.858  67.051  1.00  0.00    -0.343 A  
BRANCH  14  19
HETATM   19  C   UNL     1     -12.244  14.329  70.703  1.00  0.00    -0.357 C  
HETATM   20  O   UNL     1     -11.465  14.895  71.469  1.00  0.00    -0.340 OA 
BRANCH  19  21
HETATM   21  O   UNL     1     -13.502  13.938  71.076  1.00  0.00    -0.213 OA 
HETATM   22  C   UNL     1     -13.552  13.307  72.356  1.00  0.00    -0.594 C  
ENDBRANCH  19  21
ENDBRANCH  14  19
ENDBRANCH  11  13
ENDBRANCH   8  11
ENDBRANCH   6   8
ENDBRANCH   4   6
ENDBRANCH   3   4
ENDBRANCH   2   3
TORSDOF 8
ENDMDL
MODEL      129
REMARK 921   NORMALIZED FREE ENERGY PREDICTED BY IDOCK:   -4.13 KCAL/MOL
REMARK 922        TOTAL FREE ENERGY PREDICTED BY IDOCK:   -6.78 KCAL/MOL
REMARK 923 INTER-LIGAND FREE ENERGY PREDICTED BY IDOCK:   -5.69 KCAL/MOL
REMARK 924 INTRA-LIGAND FREE ENERGY PREDICTED BY IDOCK:   -1.09 KCAL/MOL
REMARK 927      BINDING AFFINITY PREDICTED BY RF-SCORE:    0.00 PKD
ROOT
HETATM    1  C   UNL     1      -7.219  12.547  68.706  1.00  0.00    -0.089 C  
HETATM    2  C   UNL     1      -8.178  12.940  67.589  1.00  0.00    -0.177 C  
ENDROOT
BRANCH   2   3
HETATM    3  C   UNL     1      -8.430  11.749  66.661  1.00  0.00    -0.153 C  
BRANCH   3   4
HETATM    4  N   UNL     1      -9.864  11.586  66.380  1.00  0.00    -0.200 NA 
HETATM    5  H   UNL     1     -10.032  11.396  65.392  1.00  0.00     0.000 HD 
BRANCH   4   6
HETATM    6  C   UNL     1     -10.470  10.536  67.249  1.00  0.00    -0.250 C  
HETATM    7  C   UNL     1      -9.450   9.500  67.734  1.00  0.00    -0.151 C  
BRANCH   6   8
HETATM    8  C   UNL     1     -10.998  11.223  68.511  1.00  0.00    -0.220 C  
HETATM    9  O   UNL     1     -10.216  10.956  69.584  1.00  0.00    -0.426 OA 
HETATM   10  H   UNL     1     -10.544  11.382  70.368  1.00  0.00     0.000 HD 
BRANCH   8  11
HETATM   11  N   UNL     1     -12.075  11.936  68.507  1.00  0.00    -0.410 NA 
HETATM   12  H   UNL     1     -12.936  11.583  68.088  1.00  0.00     0.000 HD 
BRANCH  11  13
HETATM   13  C   UNL     1     -12.031  13.214  69.098  1.00  0.00    -0.281 A  
HETATM   14  C   UNL     1     -12.437  13.419  70.412  1.00  0.00    -0.252 A  
HETATM   15  C   UNL     1     -11.398  14.612  66.959  1.00  0.00    -0.362 C  
HETATM   16  S   UNL     1     -12.421  15.089  70.808  1.00  0.00    -0.385 SA 
HETATM   17  C   UNL     1     -11.905  15.528  69.249  1.00  0.00    -0.353 A  
HETATM   18  C   UNL     1     -11.767  14.447  68.398  1.00  0.00    -0.367 A  
BRANCH  14  19
HETATM   19  C   UNL     1     -12.878  12.502  71.446  1.00  0.00    -0.260 C  
HETATM   20  O   UNL     1     -13.528  12.803  72.445  1.00  0.00    -0.557 OA 
BRANCH  19  21
HETATM   21  O   UNL     1     -12.429  11.230  71.205  1.00  0.00    -0.368 OA 
HETATM   22  C   UNL     1     -13.110  10.228  71.961  1.00  0.00    -0.425 C  
ENDBRANCH  19  21
ENDBRANCH  14  19
ENDBRANCH  11  13
ENDBRANCH   8  11
ENDBRANCH   6   8
ENDBRANCH   4   6
ENDBRANCH   3   4
ENDBRANCH   2   3
TORSDOF 8
ENDMDL
MODEL      130
REMARK 921   NORMALIZED FREE ENERGY PREDICTED BY IDOCK:   -4.13 KCAL/MOL
REMARK 922        TOTAL FREE ENERGY PREDICTED BY IDOCK:   -6.78 KCAL/MOL
REMARK 923 INTER-LIGAND FREE ENERGY PREDICTED BY IDOCK:   -5.89 KCAL/MOL
REMARK 924 INTRA-LIGAND FREE ENERGY PREDICTED BY IDOCK:   -0.88 KCAL/MOL
REMARK 927      BINDING AFFINITY PREDICTED BY RF-SCORE:    0.00 PKD
ROOT
HETATM    1  C   UNL     1      -8.676  17.465  66.434  1.00  0.00    -0.275 C  
HETATM    2  C   UNL     1      -8.934  16.005  66.081  1.00  0.00    -0.381 C  
ENDROOT
BRANCH   2   3
HETATM    3  C   UNL     1     -10.291  15.857  65.390  1.00  0.00    -0.372 C  
BRANCH   3   4
HETATM    4  N   UNL     1     -10.370  14.598  64.635  1.00  0.00    -0.508 NA 
HETATM    5  H   UNL     1      -9.614  13.962  64.889  1.00  0.00     0.000 HD 
BRANCH   4   6
HETATM    6  C   UNL     1     -11.705  13.952  64.795  1.00  0.00    -0.386 C  
HETATM    7  C   UNL     1     -12.269  13.414  63.476  1.00  0.00    -0.468 C  
BRANCH   6   8
HETATM    8  C   UNL     1     -11.527  12.732  65.701  1.00  0.00    -0.342 C  
HETATM    9  O   UNL     1     -12.393  11.742  65.374  1.00  0.00    -0.217 OA 
HETATM   10  H   UNL     1     -12.283  10.984  65.937  1.00  0.00     0.000 HD 
BRANCH   8  11
HETATM   11  N   UNL     1     -10.663  12.706  66.661  1.00  0.00    -0.251 NA 
HETATM   12  H   UNL     1      -9.664  12.778  66.468  1.00  0.00     0.000 HD 
BRANCH  11  13
HETATM   13  C   UNL     1     -11.137  12.577  67.982  1.00  0.00    -0.245 A  
HETATM   14  C   UNL     1     -11.248  11.332  68.592  1.00  0.00    -0.250 A  
HETATM   15  C   UNL     1     -11.873  15.073  68.380  1.00  0.00    -0.298 C  
HETATM   16  S   UNL     1     -11.997  11.466  70.131  1.00  0.00    -0.382 SA 
HETATM   17  C   UNL     1     -12.189  13.147  69.972  1.00  0.00    -0.253 A  
HETATM   18  C   UNL     1     -11.731  13.635  68.761  1.00  0.00    -0.383 A  
BRANCH  14  19
HETATM   19  C   UNL     1     -10.880  10.000  68.153  1.00  0.00    -0.255 C  
HETATM   20  O   UNL     1     -10.688   9.029  68.884  1.00  0.00    -0.205 OA 
BRANCH  19  21
HETATM   21  O   UNL     1     -10.710   9.954  66.795  1.00  0.00    -0.176 OA 
HETATM   22  C   UNL     1      -9.638   9.109  66.378  1.00  0.00    -0.245 C  
ENDBRANCH  19  21
ENDBRANCH  14  19
ENDBRANCH  11  13
ENDBRANCH   8  11
ENDBRANCH   6   8
ENDBRANCH   4   6
ENDBRANCH   3   4
ENDBRANCH   2   3
TORSDOF 8
ENDMDL
MODEL      131
REMARK 921   NORMALIZED FREE ENERGY PREDICTED BY IDOCK:   -4.13 KCAL/MOL
REMARK 922        TOTAL FREE ENERGY PREDICTED BY IDOCK:   -6.77 KCAL/MOL
REMARK 923 INTER-LIGAND FREE ENERGY PREDICTED BY IDOCK:   -5.81 KCAL/MOL
REMARK 924 INTRA-LIGAND FREE ENERGY PREDICTED BY IDOCK:   -0.96 KCAL/MOL
REMARK 927      BINDING AFFINITY PREDICTED BY RF-SCORE:    0.00 PKD
ROOT
HETATM    1  C   UNL     1      -9.641   5.947  70.861  1.00  0.00    -0.202 C  
HETATM    2  C   UNL     1     -10.988   6.566  71.214  1.00  0.00    -0.309 C  
ENDROOT
BRANCH   2   3
HETATM    3  C   UNL     1     -10.950   8.081  70.998  1.00  0.00    -0.241 C  
BRANCH   3   4
HETATM    4  N   UNL     1     -11.595   8.456  69.731  1.00  0.00    -0.322 NA 
HETATM    5  H   UNL     1     -12.288   9.192  69.869  1.00  0.00     0.000 HD 
BRANCH   4   6
HETATM    6  C   UNL     1     -10.587   8.839  68.702  1.00  0.00    -0.139 C  
HETATM    7  C   UNL     1     -10.645   7.955  67.452  1.00  0.00    -0.342 C  
BRANCH   6   8
HETATM    8  C   UNL     1     -10.920  10.255  68.227  1.00  0.00    -0.264 C  
HETATM    9  O   UNL     1     -12.253  10.494  68.280  1.00  0.00    -0.744 OA 
HETATM   10  H   UNL     1     -12.460  11.374  67.985  1.00  0.00     0.000 HD 
BRANCH   8  11
HETATM   11  N   UNL     1     -10.012  11.074  67.811  1.00  0.00    -0.171 NA 
HETATM   12  H   UNL     1      -9.063  11.037  68.185  1.00  0.00     0.000 HD 
BRANCH  11  13
HETATM   13  C   UNL     1     -10.365  12.020  66.828  1.00  0.00    -0.207 A  
HETATM   14  C   UNL     1     -10.983  13.218  67.167  1.00  0.00    -0.272 A  
HETATM   15  C   UNL     1      -9.816  10.585  64.690  1.00  0.00    -0.404 C  
HETATM   16  S   UNL     1     -11.436  14.095  65.762  1.00  0.00    -0.335 SA 
HETATM   17  C   UNL     1     -10.839  12.886  64.727  1.00  0.00    -0.327 A  
HETATM   18  C   UNL     1     -10.324  11.796  65.404  1.00  0.00    -0.311 A  
BRANCH  14  19
HETATM   19  C   UNL     1     -11.319  13.810  68.448  1.00  0.00    -0.293 C  
HETATM   20  O   UNL     1     -11.417  13.206  69.515  1.00  0.00    -0.264 OA 
BRANCH  19  21
HETATM   21  O   UNL     1     -11.575  15.150  68.324  1.00  0.00    -0.325 OA 
HETATM   22  C   UNL     1     -11.478  15.869  69.553  1.00  0.00    -0.342 C  
ENDBRANCH  19  21
ENDBRANCH  14  19
ENDBRANCH  11  13
ENDBRANCH   8  11
ENDBRANCH   6   8
ENDBRANCH   4   6
ENDBRANCH   3   4
ENDBRANCH   2   3
TORSDOF 8
ENDMDL
MODEL      132
REMARK 921   NORMALIZED FREE ENERGY PREDICTED BY IDOCK:   -4.12 KCAL/MOL
REMARK 922        TOTAL FREE ENERGY PREDICTED BY IDOCK:   -6.76 KCAL/MOL
REMARK 923 INTER-LIGAND FREE ENERGY PREDICTED BY IDOCK:   -5.97 KCAL/MOL
REMARK 924 INTRA-LIGAND FREE ENERGY PREDICTED BY IDOCK:   -0.79 KCAL/MOL
REMARK 927      BINDING AFFINITY PREDICTED BY RF-SCORE:    0.00 PKD
ROOT
HETATM    1  C   UNL     1     -12.026  15.660  71.105  1.00  0.00    -0.457 C  
HETATM    2  C   UNL     1     -12.579  14.585  72.032  1.00  0.00    -0.400 C  
ENDROOT
BRANCH   2   3
HETATM    3  C   UNL     1     -12.703  13.253  71.289  1.00  0.00    -0.323 C  
BRANCH   3   4
HETATM    4  N   UNL     1     -11.844  13.226  70.096  1.00  0.00    -0.485 NA 
HETATM    5  H   UNL     1     -11.149  13.973  70.119  1.00  0.00     0.000 HD 
BRANCH   4   6
HETATM    6  C   UNL     1     -11.205  11.890  69.918  1.00  0.00     0.028 C  
HETATM    7  C   UNL     1     -11.987  10.760  70.597  1.00  0.00    -0.466 C  
BRANCH   6   8
HETATM    8  C   UNL     1     -11.216  11.564  68.423  1.00  0.00    -0.255 C  
HETATM    9  O   UNL     1     -12.283  10.798  68.090  1.00  0.00    -0.765 OA 
HETATM   10  H   UNL     1     -12.290  10.596  67.162  1.00  0.00     0.000 HD 
BRANCH   8  11
HETATM   11  N   UNL     1     -10.286  11.969  67.622  1.00  0.00    -0.196 NA 
HETATM   12  H   UNL     1      -9.467  11.390  67.436  1.00  0.00     0.000 HD 
BRANCH  11  13
HETATM   13  C   UNL     1     -10.433  13.231  67.014  1.00  0.00    -0.249 A  
HETATM   14  C   UNL     1      -9.803  14.360  67.527  1.00  0.00    -0.220 A  
HETATM   15  C   UNL     1     -12.276  12.600  65.243  1.00  0.00    -0.532 C  
HETATM   16  S   UNL     1     -10.287  15.773  66.681  1.00  0.00    -0.297 SA 
HETATM   17  C   UNL     1     -11.332  14.896  65.667  1.00  0.00    -0.325 A  
HETATM   18  C   UNL     1     -11.366  13.545  65.960  1.00  0.00    -0.327 A  
BRANCH  14  19
HETATM   19  C   UNL     1      -8.872  14.537  68.625  1.00  0.00    -0.180 C  
HETATM   20  O   UNL     1      -8.849  15.491  69.401  1.00  0.00    -0.243 OA 
BRANCH  19  21
HETATM   21  O   UNL     1      -7.959  13.517  68.671  1.00  0.00    -0.138 OA 
HETATM   22  C   UNL     1      -7.066  13.496  67.557  1.00  0.00    -0.148 C  
ENDBRANCH  19  21
ENDBRANCH  14  19
ENDBRANCH  11  13
ENDBRANCH   8  11
ENDBRANCH   6   8
ENDBRANCH   4   6
ENDBRANCH   3   4
ENDBRANCH   2   3
TORSDOF 8
ENDMDL
MODEL      133
REMARK 921   NORMALIZED FREE ENERGY PREDICTED BY IDOCK:   -4.11 KCAL/MOL
REMARK 922        TOTAL FREE ENERGY PREDICTED BY IDOCK:   -6.75 KCAL/MOL
REMARK 923 INTER-LIGAND FREE ENERGY PREDICTED BY IDOCK:   -5.63 KCAL/MOL
REMARK 924 INTRA-LIGAND FREE ENERGY PREDICTED BY IDOCK:   -1.12 KCAL/MOL
REMARK 927      BINDING AFFINITY PREDICTED BY RF-SCORE:    0.00 PKD
ROOT
HETATM    1  C   UNL     1      -9.056  10.023  63.352  1.00  0.00    -0.301 C  
HETATM    2  C   UNL     1      -9.334   9.900  64.846  1.00  0.00    -0.329 C  
ENDROOT
BRANCH   2   3
HETATM    3  C   UNL     1     -10.199  11.068  65.324  1.00  0.00    -0.284 C  
BRANCH   3   4
HETATM    4  N   UNL     1      -9.884  11.433  66.712  1.00  0.00    -0.202 NA 
HETATM    5  H   UNL     1     -10.706  11.787  67.201  1.00  0.00     0.000 HD 
BRANCH   4   6
HETATM    6  C   UNL     1      -9.260  10.293  67.444  1.00  0.00    -0.141 C  
HETATM    7  C   UNL     1      -7.946  10.675  68.133  1.00  0.00    -0.113 C  
BRANCH   6   8
HETATM    8  C   UNL     1     -10.215   9.882  68.568  1.00  0.00    -0.177 C  
HETATM    9  O   UNL     1     -11.279   9.194  68.087  1.00  0.00    -0.483 OA 
HETATM   10  H   UNL     1     -11.871   8.939  68.784  1.00  0.00     0.000 HD 
BRANCH   8  11
HETATM   11  N   UNL     1     -10.003  10.198  69.802  1.00  0.00    -0.301 NA 
HETATM   12  H   UNL     1      -9.055  10.349  70.149  1.00  0.00     0.000 HD 
BRANCH  11  13
HETATM   13  C   UNL     1     -11.115  10.331  70.657  1.00  0.00    -0.280 A  
HETATM   14  C   UNL     1     -11.503   9.299  71.504  1.00  0.00    -0.384 A  
HETATM   15  C   UNL     1     -12.022  12.636  69.766  1.00  0.00    -0.365 C  
HETATM   16  S   UNL     1     -12.973   9.680  72.306  1.00  0.00    -0.290 SA 
HETATM   17  C   UNL     1     -13.096  11.181  71.519  1.00  0.00    -0.385 A  
HETATM   18  C   UNL     1     -12.068  11.412  70.623  1.00  0.00    -0.469 A  
BRANCH  14  19
HETATM   19  C   UNL     1     -10.916   8.003  71.788  1.00  0.00    -0.251 C  
HETATM   20  O   UNL     1     -10.649   7.564  72.905  1.00  0.00    -0.270 OA 
BRANCH  19  21
HETATM   21  O   UNL     1     -10.635   7.322  70.634  1.00  0.00    -0.220 OA 
HETATM   22  C   UNL     1     -11.649   6.393  70.252  1.00  0.00    -0.383 C  
ENDBRANCH  19  21
ENDBRANCH  14  19
ENDBRANCH  11  13
ENDBRANCH   8  11
ENDBRANCH   6   8
ENDBRANCH   4   6
ENDBRANCH   3   4
ENDBRANCH   2   3
TORSDOF 8
ENDMDL
MODEL      134
REMARK 921   NORMALIZED FREE ENERGY PREDICTED BY IDOCK:   -4.11 KCAL/MOL
REMARK 922        TOTAL FREE ENERGY PREDICTED BY IDOCK:   -6.74 KCAL/MOL
REMARK 923 INTER-LIGAND FREE ENERGY PREDICTED BY IDOCK:   -6.02 KCAL/MOL
REMARK 924 INTRA-LIGAND FREE ENERGY PREDICTED BY IDOCK:   -0.72 KCAL/MOL
REMARK 927      BINDING AFFINITY PREDICTED BY RF-SCORE:    0.00 PKD
ROOT
HETATM    1  C   UNL     1      -8.562   9.169  62.827  1.00  0.00    -0.209 C  
HETATM    2  C   UNL     1      -7.961   9.802  64.076  1.00  0.00    -0.147 C  
ENDROOT
BRANCH   2   3
HETATM    3  C   UNL     1      -9.001   9.863  65.196  1.00  0.00    -0.198 C  
BRANCH   3   4
HETATM    4  N   UNL     1     -10.279  10.402  64.708  1.00  0.00    -0.318 NA 
HETATM    5  H   UNL     1     -11.072   9.965  65.178  1.00  0.00     0.000 HD 
BRANCH   4   6
HETATM    6  C   UNL     1     -10.322  11.888  64.828  1.00  0.00    -0.281 C  
HETATM    7  C   UNL     1     -11.129  12.553  63.707  1.00  0.00    -0.503 C  
BRANCH   6   8
HETATM    8  C   UNL     1     -11.054  12.230  66.127  1.00  0.00    -0.311 C  
HETATM    9  O   UNL     1     -12.396  12.270  65.945  1.00  0.00    -0.618 OA 
HETATM   10  H   UNL     1     -12.850  12.483  66.752  1.00  0.00     0.000 HD 
BRANCH   8  11
HETATM   11  N   UNL     1     -10.425  12.470  67.230  1.00  0.00    -0.219 NA 
HETATM   12  H   UNL     1      -9.460  12.163  67.360  1.00  0.00     0.000 HD 
BRANCH  11  13
HETATM   13  C   UNL     1     -11.105  13.167  68.248  1.00  0.00    -0.266 A  
HETATM   14  C   UNL     1     -11.126  14.556  68.284  1.00  0.00    -0.261 A  
HETATM   15  C   UNL     1     -11.726  11.115  69.778  1.00  0.00    -0.419 C  
HETATM   16  S   UNL     1     -11.890  15.123  69.713  1.00  0.00    -0.354 SA 
HETATM   17  C   UNL     1     -12.164  13.545  70.280  1.00  0.00    -0.347 A  
HETATM   18  C   UNL     1     -11.664  12.569  69.436  1.00  0.00    -0.383 A  
BRANCH  14  19
HETATM   19  C   UNL     1     -10.610  15.559  67.372  1.00  0.00    -0.292 C  
HETATM   20  O   UNL     1     -10.112  16.636  67.695  1.00  0.00    -0.258 OA 
BRANCH  19  21
HETATM   21  O   UNL     1     -10.793  15.185  66.068  1.00  0.00    -0.322 OA 
HETATM   22  C   UNL     1     -10.806  16.280  65.152  1.00  0.00    -0.318 C  
ENDBRANCH  19  21
ENDBRANCH  14  19
ENDBRANCH  11  13
ENDBRANCH   8  11
ENDBRANCH   6   8
ENDBRANCH   4   6
ENDBRANCH   3   4
ENDBRANCH   2   3
TORSDOF 8
ENDMDL
MODEL      135
REMARK 921   NORMALIZED FREE ENERGY PREDICTED BY IDOCK:   -4.11 KCAL/MOL
REMARK 922        TOTAL FREE ENERGY PREDICTED BY IDOCK:   -6.74 KCAL/MOL
REMARK 923 INTER-LIGAND FREE ENERGY PREDICTED BY IDOCK:   -5.40 KCAL/MOL
REMARK 924 INTRA-LIGAND FREE ENERGY PREDICTED BY IDOCK:   -1.33 KCAL/MOL
REMARK 927      BINDING AFFINITY PREDICTED BY RF-SCORE:    0.00 PKD
ROOT
HETATM    1  C   UNL     1     -10.943   6.763  67.160  1.00  0.00    -0.458 C  
HETATM    2  C   UNL     1      -9.447   6.740  67.451  1.00  0.00    -0.150 C  
ENDROOT
BRANCH   2   3
HETATM    3  C   UNL     1      -8.652   7.016  66.174  1.00  0.00    -0.143 C  
BRANCH   3   4
HETATM    4  N   UNL     1      -9.285   8.070  65.368  1.00  0.00    -0.391 NA 
HETATM    5  H   UNL     1     -10.000   8.567  65.900  1.00  0.00     0.000 HD 
BRANCH   4   6
HETATM    6  C   UNL     1      -8.271   9.007  64.806  1.00  0.00    -0.160 C  
HETATM    7  C   UNL     1      -7.742   8.563  63.438  1.00  0.00    -0.139 C  
BRANCH   6   8
HETATM    8  C   UNL     1      -8.959  10.353  64.569  1.00  0.00    -0.216 C  
HETATM    9  O   UNL     1      -9.893  10.267  63.591  1.00  0.00    -0.369 OA 
HETATM   10  H   UNL     1     -10.320  11.102  63.444  1.00  0.00     0.000 HD 
BRANCH   8  11
HETATM   11  N   UNL     1      -8.637  11.417  65.228  1.00  0.00    -0.383 NA 
HETATM   12  H   UNL     1      -7.770  11.915  65.026  1.00  0.00     0.000 HD 
BRANCH  11  13
HETATM   13  C   UNL     1      -9.516  11.872  66.231  1.00  0.00    -0.227 A  
HETATM   14  C   UNL     1     -10.345  12.968  66.023  1.00  0.00    -0.285 A  
HETATM   15  C   UNL     1      -8.696  10.326  68.199  1.00  0.00    -0.123 C  
HETATM   16  S   UNL     1     -11.184  13.386  67.462  1.00  0.00    -0.297 SA 
HETATM   17  C   UNL     1     -10.435  12.143  68.346  1.00  0.00    -0.231 A  
HETATM   18  C   UNL     1      -9.525  11.416  67.599  1.00  0.00    -0.165 A  
BRANCH  14  19
HETATM   19  C   UNL     1     -10.588  13.795  64.857  1.00  0.00    -0.413 C  
HETATM   20  O   UNL     1     -10.592  15.025  64.836  1.00  0.00    -0.409 OA 
BRANCH  19  21
HETATM   21  O   UNL     1     -10.873  13.031  63.757  1.00  0.00    -0.372 OA 
HETATM   22  C   UNL     1     -12.262  12.990  63.430  1.00  0.00    -0.472 C  
ENDBRANCH  19  21
ENDBRANCH  14  19
ENDBRANCH  11  13
ENDBRANCH   8  11
ENDBRANCH   6   8
ENDBRANCH   4   6
ENDBRANCH   3   4
ENDBRANCH   2   3
TORSDOF 8
ENDMDL
MODEL      136
REMARK 921   NORMALIZED FREE ENERGY PREDICTED BY IDOCK:   -4.10 KCAL/MOL
REMARK 922        TOTAL FREE ENERGY PREDICTED BY IDOCK:   -6.73 KCAL/MOL
REMARK 923 INTER-LIGAND FREE ENERGY PREDICTED BY IDOCK:   -5.85 KCAL/MOL
REMARK 924 INTRA-LIGAND FREE ENERGY PREDICTED BY IDOCK:   -0.88 KCAL/MOL
REMARK 927      BINDING AFFINITY PREDICTED BY RF-SCORE:    0.00 PKD
ROOT
HETATM    1  C   UNL     1     -11.501  13.170  65.729  1.00  0.00    -0.355 C  
HETATM    2  C   UNL     1     -11.307  12.376  67.015  1.00  0.00    -0.388 C  
ENDROOT
BRANCH   2   3
HETATM    3  C   UNL     1      -9.873  11.853  67.107  1.00  0.00    -0.194 C  
BRANCH   3   4
HETATM    4  N   UNL     1      -9.394  11.847  68.496  1.00  0.00    -0.320 NA 
HETATM    5  H   UNL     1     -10.161  11.979  69.156  1.00  0.00     0.000 HD 
BRANCH   4   6
HETATM    6  C   UNL     1      -8.619  10.610  68.799  1.00  0.00    -0.150 C  
HETATM    7  C   UNL     1      -7.249  10.900  69.422  1.00  0.00    -0.126 C  
BRANCH   6   8
HETATM    8  C   UNL     1      -9.397   9.818  69.854  1.00  0.00    -0.231 C  
HETATM    9  O   UNL     1      -8.707   9.734  71.017  1.00  0.00    -0.336 OA 
HETATM   10  H   UNL     1      -9.190   9.242  71.672  1.00  0.00     0.000 HD 
BRANCH   8  11
HETATM   11  N   UNL     1     -10.551   9.294  69.609  1.00  0.00    -0.224 NA 
HETATM   12  H   UNL     1     -10.746   8.854  68.708  1.00  0.00     0.000 HD 
BRANCH  11  13
HETATM   13  C   UNL     1     -11.534   9.343  70.617  1.00  0.00    -0.284 A  
HETATM   14  C   UNL     1     -11.994   8.187  71.236  1.00  0.00    -0.291 A  
HETATM   15  C   UNL     1     -12.144  11.899  70.443  1.00  0.00    -0.421 C  
HETATM   16  S   UNL     1     -13.293   8.535  72.304  1.00  0.00    -0.295 SA 
HETATM   17  C   UNL     1     -13.253  10.192  71.927  1.00  0.00    -0.452 A  
HETATM   18  C   UNL     1     -12.299  10.512  70.978  1.00  0.00    -0.503 A  
BRANCH  14  19
HETATM   19  C   UNL     1     -11.598   6.797  71.115  1.00  0.00    -0.329 C  
HETATM   20  O   UNL     1     -11.199   6.080  72.031  1.00  0.00    -0.263 OA 
BRANCH  19  21
HETATM   21  O   UNL     1     -11.668   6.373  69.815  1.00  0.00    -0.414 OA 
HETATM   22  C   UNL     1     -10.577   5.540  69.422  1.00  0.00    -0.279 C  
ENDBRANCH  19  21
ENDBRANCH  14  19
ENDBRANCH  11  13
ENDBRANCH   8  11
ENDBRANCH   6   8
ENDBRANCH   4   6
ENDBRANCH   3   4
ENDBRANCH   2   3
TORSDOF 8
ENDMDL
MODEL      137
REMARK 921   NORMALIZED FREE ENERGY PREDICTED BY IDOCK:   -4.10 KCAL/MOL
REMARK 922        TOTAL FREE ENERGY PREDICTED BY IDOCK:   -6.73 KCAL/MOL
REMARK 923 INTER-LIGAND FREE ENERGY PREDICTED BY IDOCK:   -5.61 KCAL/MOL
REMARK 924 INTRA-LIGAND FREE ENERGY PREDICTED BY IDOCK:   -1.13 KCAL/MOL
REMARK 927      BINDING AFFINITY PREDICTED BY RF-SCORE:    0.00 PKD
ROOT
HETATM    1  C   UNL     1     -10.347  18.318  66.498  1.00  0.00    -0.410 C  
HETATM    2  C   UNL     1     -10.706  17.086  65.676  1.00  0.00    -0.150 C  
ENDROOT
BRANCH   2   3
HETATM    3  C   UNL     1      -9.740  15.940  65.984  1.00  0.00    -0.343 C  
BRANCH   3   4
HETATM    4  N   UNL     1     -10.243  14.663  65.458  1.00  0.00    -0.346 NA 
HETATM    5  H   UNL     1      -9.549  13.920  65.555  1.00  0.00     0.000 HD 
BRANCH   4   6
HETATM    6  C   UNL     1     -11.539  14.287  66.091  1.00  0.00    -0.369 C  
HETATM    7  C   UNL     1     -12.642  13.999  65.067  1.00  0.00    -0.416 C  
BRANCH   6   8
HETATM    8  C   UNL     1     -11.325  12.977  66.852  1.00  0.00    -0.311 C  
HETATM    9  O   UNL     1     -10.639  13.178  68.003  1.00  0.00    -0.224 OA 
HETATM   10  H   UNL     1     -10.506  12.365  68.475  1.00  0.00     0.000 HD 
BRANCH   8  11
HETATM   11  N   UNL     1     -11.742  11.841  66.399  1.00  0.00    -0.503 NA 
HETATM   12  H   UNL     1     -12.740  11.639  66.329  1.00  0.00     0.000 HD 
BRANCH  11  13
HETATM   13  C   UNL     1     -10.782  10.888  66.003  1.00  0.00    -0.140 A  
HETATM   14  C   UNL     1     -10.192  10.030  66.925  1.00  0.00    -0.238 A  
HETATM   15  C   UNL     1     -10.482  11.650  63.501  1.00  0.00    -0.498 C  
HETATM   16  S   UNL     1      -8.956   9.093  66.189  1.00  0.00    -0.187 SA 
HETATM   17  C   UNL     1      -9.190   9.837  64.679  1.00  0.00    -0.255 A  
HETATM   18  C   UNL     1     -10.167  10.816  64.701  1.00  0.00    -0.419 A  
BRANCH  14  19
HETATM   19  C   UNL     1     -10.417   9.825  68.343  1.00  0.00    -0.218 C  
HETATM   20  O   UNL     1     -11.378  10.244  68.986  1.00  0.00    -0.231 OA 
BRANCH  19  21
HETATM   21  O   UNL     1      -9.382   9.135  68.915  1.00  0.00    -0.145 OA 
HETATM   22  C   UNL     1      -8.671   9.882  69.903  1.00  0.00    -0.201 C  
ENDBRANCH  19  21
ENDBRANCH  14  19
ENDBRANCH  11  13
ENDBRANCH   8  11
ENDBRANCH   6   8
ENDBRANCH   4   6
ENDBRANCH   3   4
ENDBRANCH   2   3
TORSDOF 8
ENDMDL
MODEL      138
REMARK 921   NORMALIZED FREE ENERGY PREDICTED BY IDOCK:   -4.10 KCAL/MOL
REMARK 922        TOTAL FREE ENERGY PREDICTED BY IDOCK:   -6.72 KCAL/MOL
REMARK 923 INTER-LIGAND FREE ENERGY PREDICTED BY IDOCK:   -5.62 KCAL/MOL
REMARK 924 INTRA-LIGAND FREE ENERGY PREDICTED BY IDOCK:   -1.10 KCAL/MOL
REMARK 927      BINDING AFFINITY PREDICTED BY RF-SCORE:    0.00 PKD
ROOT
HETATM    1  C   UNL     1      -9.539  10.886  63.016  1.00  0.00    -0.382 C  
HETATM    2  C   UNL     1      -8.835   9.867  63.903  1.00  0.00    -0.250 C  
ENDROOT
BRANCH   2   3
HETATM    3  C   UNL     1      -9.703   9.526  65.116  1.00  0.00    -0.137 C  
BRANCH   3   4
HETATM    4  N   UNL     1      -9.602  10.564  66.152  1.00  0.00    -0.182 NA 
HETATM    5  H   UNL     1      -9.606  11.500  65.745  1.00  0.00     0.000 HD 
BRANCH   4   6
HETATM    6  C   UNL     1     -10.672  10.411  67.180  1.00  0.00    -0.256 C  
HETATM    7  C   UNL     1     -10.333   9.357  68.240  1.00  0.00    -0.251 C  
BRANCH   6   8
HETATM    8  C   UNL     1     -10.789  11.737  67.934  1.00  0.00    -0.211 C  
HETATM    9  O   UNL     1      -9.800  11.875  68.850  1.00  0.00    -0.392 OA 
HETATM   10  H   UNL     1      -9.873  12.699  69.318  1.00  0.00     0.000 HD 
BRANCH   8  11
HETATM   11  N   UNL     1     -11.744  12.577  67.707  1.00  0.00    -0.354 NA 
HETATM   12  H   UNL     1     -12.641  12.492  68.188  1.00  0.00     0.000 HD 
BRANCH  11  13
HETATM   13  C   UNL     1     -11.517  13.612  66.779  1.00  0.00    -0.346 A  
HETATM   14  C   UNL     1     -10.992  14.837  67.176  1.00  0.00    -0.320 A  
HETATM   15  C   UNL     1     -12.651  12.507  64.675  1.00  0.00    -0.507 C  
HETATM   16  S   UNL     1     -10.972  15.950  65.869  1.00  0.00    -0.077 SA 
HETATM   17  C   UNL     1     -11.670  14.824  64.804  1.00  0.00    -0.422 A  
HETATM   18  C   UNL     1     -11.962  13.614  65.407  1.00  0.00    -0.400 A  
BRANCH  14  19
HETATM   19  C   UNL     1     -10.509  15.317  68.456  1.00  0.00    -0.235 C  
HETATM   20  O   UNL     1      -9.408  15.073  68.947  1.00  0.00    -0.195 OA 
BRANCH  19  21
HETATM   21  O   UNL     1     -11.466  16.052  69.104  1.00  0.00    -0.339 OA 
HETATM   22  C   UNL     1     -12.077  15.365  70.196  1.00  0.00    -0.369 C  
ENDBRANCH  19  21
ENDBRANCH  14  19
ENDBRANCH  11  13
ENDBRANCH   8  11
ENDBRANCH   6   8
ENDBRANCH   4   6
ENDBRANCH   3   4
ENDBRANCH   2   3
TORSDOF 8
ENDMDL
MODEL      139
REMARK 921   NORMALIZED FREE ENERGY PREDICTED BY IDOCK:   -4.09 KCAL/MOL
REMARK 922        TOTAL FREE ENERGY PREDICTED BY IDOCK:   -6.71 KCAL/MOL
REMARK 923 INTER-LIGAND FREE ENERGY PREDICTED BY IDOCK:   -5.81 KCAL/MOL
REMARK 924 INTRA-LIGAND FREE ENERGY PREDICTED BY IDOCK:   -0.91 KCAL/MOL
REMARK 927      BINDING AFFINITY PREDICTED BY RF-SCORE:    0.00 PKD
ROOT
HETATM    1  C   UNL     1     -10.279  19.734  67.419  1.00  0.00    -0.575 C  
HETATM    2  C   UNL     1     -10.125  18.816  66.213  1.00  0.00    -0.447 C  
ENDROOT
BRANCH   2   3
HETATM    3  C   UNL     1      -9.159  17.673  66.534  1.00  0.00    -0.265 C  
BRANCH   3   4
HETATM    4  N   UNL     1      -9.483  16.467  65.759  1.00  0.00    -0.499 NA 
HETATM    5  H   UNL     1      -8.953  15.659  66.086  1.00  0.00     0.000 HD 
BRANCH   4   6
HETATM    6  C   UNL     1     -10.950  16.196  65.763  1.00  0.00    -0.102 C  
HETATM    7  C   UNL     1     -11.513  15.940  64.361  1.00  0.00    -0.268 C  
BRANCH   6   8
HETATM    8  C   UNL     1     -11.184  14.904  66.548  1.00  0.00    -0.335 C  
HETATM    9  O   UNL     1     -12.296  14.259  66.121  1.00  0.00    -0.437 OA 
HETATM   10  H   UNL     1     -12.442  13.457  66.609  1.00  0.00     0.000 HD 
BRANCH   8  11
HETATM   11  N   UNL     1     -10.404  14.530  67.508  1.00  0.00    -0.243 NA 
HETATM   12  H   UNL     1      -9.415  14.782  67.507  1.00  0.00     0.000 HD 
BRANCH  11  13
HETATM   13  C   UNL     1     -10.955  13.766  68.556  1.00  0.00    -0.262 A  
HETATM   14  C   UNL     1     -11.047  12.382  68.471  1.00  0.00    -0.258 A  
HETATM   15  C   UNL     1     -11.828  15.741  70.062  1.00  0.00    -0.365 C  
HETATM   16  S   UNL     1     -11.898  11.738  69.816  1.00  0.00    -0.338 SA 
HETATM   17  C   UNL     1     -12.156  13.280  70.483  1.00  0.00    -0.314 A  
HETATM   18  C   UNL     1     -11.645  14.302  69.704  1.00  0.00    -0.351 A  
BRANCH  14  19
HETATM   19  C   UNL     1     -10.590  11.438  67.469  1.00  0.00    -0.213 C  
HETATM   20  O   UNL     1     -10.700  11.573  66.251  1.00  0.00    -0.255 OA 
BRANCH  19  21
HETATM   21  O   UNL     1     -10.053  10.319  68.049  1.00  0.00    -0.153 OA 
HETATM   22  C   UNL     1      -8.763   9.974  67.545  1.00  0.00    -0.125 C  
ENDBRANCH  19  21
ENDBRANCH  14  19
ENDBRANCH  11  13
ENDBRANCH   8  11
ENDBRANCH   6   8
ENDBRANCH   4   6
ENDBRANCH   3   4
ENDBRANCH   2   3
TORSDOF 8
ENDMDL
MODEL      140
REMARK 921   NORMALIZED FREE ENERGY PREDICTED BY IDOCK:   -4.09 KCAL/MOL
REMARK 922        TOTAL FREE ENERGY PREDICTED BY IDOCK:   -6.71 KCAL/MOL
REMARK 923 INTER-LIGAND FREE ENERGY PREDICTED BY IDOCK:   -5.81 KCAL/MOL
REMARK 924 INTRA-LIGAND FREE ENERGY PREDICTED BY IDOCK:   -0.90 KCAL/MOL
REMARK 927      BINDING AFFINITY PREDICTED BY RF-SCORE:    0.00 PKD
ROOT
HETATM    1  C   UNL     1     -12.684  11.968  63.498  1.00  0.00    -0.567 C  
HETATM    2  C   UNL     1     -11.249  11.490  63.681  1.00  0.00    -0.451 C  
ENDROOT
BRANCH   2   3
HETATM    3  C   UNL     1     -10.305  12.685  63.830  1.00  0.00    -0.377 C  
BRANCH   3   4
HETATM    4  N   UNL     1      -9.786  12.786  65.202  1.00  0.00    -0.487 NA 
HETATM    5  H   UNL     1      -8.788  12.573  65.241  1.00  0.00     0.000 HD 
BRANCH   4   6
HETATM    6  C   UNL     1     -10.084  14.120  65.798  1.00  0.00    -0.333 C  
HETATM    7  C   UNL     1     -10.949  15.000  64.889  1.00  0.00    -0.427 C  
BRANCH   6   8
HETATM    8  C   UNL     1     -10.911  13.891  67.065  1.00  0.00    -0.285 C  
HETATM    9  O   UNL     1     -12.158  13.452  66.770  1.00  0.00    -0.391 OA 
HETATM   10  H   UNL     1     -12.671  13.310  67.557  1.00  0.00     0.000 HD 
BRANCH   8  11
HETATM   11  N   UNL     1     -10.442  14.126  68.246  1.00  0.00    -0.243 NA 
HETATM   12  H   UNL     1     -10.965  13.858  69.080  1.00  0.00     0.000 HD 
BRANCH  11  13
HETATM   13  C   UNL     1      -9.189  14.763  68.351  1.00  0.00    -0.189 A  
HETATM   14  C   UNL     1      -9.071  16.145  68.268  1.00  0.00    -0.190 A  
HETATM   15  C   UNL     1      -7.660  12.619  68.346  1.00  0.00    -0.132 C  
HETATM   16  S   UNL     1      -7.422  16.623  68.271  1.00  0.00    -0.190 SA 
HETATM   17  C   UNL     1      -6.881  15.014  68.358  1.00  0.00    -0.110 A  
HETATM   18  C   UNL     1      -7.912  14.093  68.353  1.00  0.00    -0.142 A  
BRANCH  14  19
HETATM   19  C   UNL     1     -10.061  17.199  68.155  1.00  0.00    -0.311 C  
HETATM   20  O   UNL     1     -11.274  17.065  68.305  1.00  0.00    -0.267 OA 
BRANCH  19  21
HETATM   21  O   UNL     1      -9.481  18.388  67.798  1.00  0.00    -0.272 OA 
HETATM   22  C   UNL     1     -10.355  19.511  67.917  1.00  0.00    -0.444 C  
ENDBRANCH  19  21
ENDBRANCH  14  19
ENDBRANCH  11  13
ENDBRANCH   8  11
ENDBRANCH   6   8
ENDBRANCH   4   6
ENDBRANCH   3   4
ENDBRANCH   2   3
TORSDOF 8
ENDMDL
MODEL      141
REMARK 921   NORMALIZED FREE ENERGY PREDICTED BY IDOCK:   -4.09 KCAL/MOL
REMARK 922        TOTAL FREE ENERGY PREDICTED BY IDOCK:   -6.71 KCAL/MOL
REMARK 923 INTER-LIGAND FREE ENERGY PREDICTED BY IDOCK:   -5.67 KCAL/MOL
REMARK 924 INTRA-LIGAND FREE ENERGY PREDICTED BY IDOCK:   -1.04 KCAL/MOL
REMARK 927      BINDING AFFINITY PREDICTED BY RF-SCORE:    0.00 PKD
ROOT
HETATM    1  C   UNL     1      -9.821   3.222  63.222  1.00  0.00    -0.121 C  
HETATM    2  C   UNL     1     -10.796   3.959  64.132  1.00  0.00    -0.171 C  
ENDROOT
BRANCH   2   3
HETATM    3  C   UNL     1     -10.079   4.457  65.389  1.00  0.00    -0.223 C  
BRANCH   3   4
HETATM    4  N   UNL     1     -10.986   5.230  66.249  1.00  0.00    -0.707 NA 
HETATM    5  H   UNL     1     -11.892   4.770  66.346  1.00  0.00     0.000 HD 
BRANCH   4   6
HETATM    6  C   UNL     1     -10.368   5.508  67.578  1.00  0.00    -0.214 C  
HETATM    7  C   UNL     1      -8.904   5.947  67.474  1.00  0.00    -0.106 C  
BRANCH   6   8
HETATM    8  C   UNL     1     -11.114   6.690  68.201  1.00  0.00    -0.198 C  
HETATM    9  O   UNL     1     -11.058   7.786  67.407  1.00  0.00    -0.525 OA 
HETATM   10  H   UNL     1     -11.521   8.520  67.794  1.00  0.00     0.000 HD 
BRANCH   8  11
HETATM   11  N   UNL     1     -11.688   6.611  69.356  1.00  0.00    -0.648 NA 
HETATM   12  H   UNL     1     -12.668   6.336  69.436  1.00  0.00     0.000 HD 
BRANCH  11  13
HETATM   13  C   UNL     1     -10.926   6.912  70.502  1.00  0.00    -0.273 A  
HETATM   14  C   UNL     1     -10.812   8.216  70.972  1.00  0.00    -0.235 A  
HETATM   15  C   UNL     1      -9.838   4.545  70.882  1.00  0.00    -0.269 C  
HETATM   16  S   UNL     1      -9.702   8.303  72.280  1.00  0.00    -0.316 SA 
HETATM   17  C   UNL     1      -9.366   6.639  72.199  1.00  0.00    -0.141 A  
HETATM   18  C   UNL     1     -10.045   5.995  71.182  1.00  0.00    -0.241 A  
BRANCH  14  19
HETATM   19  C   UNL     1     -11.424   9.459  70.545  1.00  0.00    -0.262 C  
HETATM   20  O   UNL     1     -11.377   9.931  69.411  1.00  0.00    -0.193 OA 
BRANCH  19  21
HETATM   21  O   UNL     1     -12.036  10.096  71.592  1.00  0.00    -0.375 OA 
HETATM   22  C   UNL     1     -13.280   9.510  71.974  1.00  0.00    -0.452 C  
ENDBRANCH  19  21
ENDBRANCH  14  19
ENDBRANCH  11  13
ENDBRANCH   8  11
ENDBRANCH   6   8
ENDBRANCH   4   6
ENDBRANCH   3   4
ENDBRANCH   2   3
TORSDOF 8
ENDMDL
MODEL      142
REMARK 921   NORMALIZED FREE ENERGY PREDICTED BY IDOCK:   -4.08 KCAL/MOL
REMARK 922        TOTAL FREE ENERGY PREDICTED BY IDOCK:   -6.69 KCAL/MOL
REMARK 923 INTER-LIGAND FREE ENERGY PREDICTED BY IDOCK:   -5.37 KCAL/MOL
REMARK 924 INTRA-LIGAND FREE ENERGY PREDICTED BY IDOCK:   -1.32 KCAL/MOL
REMARK 927      BINDING AFFINITY PREDICTED BY RF-SCORE:    0.00 PKD
ROOT
HETATM    1  C   UNL     1      -7.263   8.607  69.717  1.00  0.00    -0.051 C  
HETATM    2  C   UNL     1      -7.935   9.922  70.093  1.00  0.00    -0.181 C  
ENDROOT
BRANCH   2   3
HETATM    3  C   UNL     1      -9.021  10.275  69.074  1.00  0.00    -0.172 C  
BRANCH   3   4
HETATM    4  N   UNL     1      -9.111  11.728  68.873  1.00  0.00    -0.397 NA 
HETATM    5  H   UNL     1      -9.057  12.232  69.759  1.00  0.00     0.000 HD 
BRANCH   4   6
HETATM    6  C   UNL     1      -8.082  12.207  67.907  1.00  0.00    -0.153 C  
HETATM    7  C   UNL     1      -8.001  11.343  66.644  1.00  0.00    -0.148 C  
BRANCH   6   8
HETATM    8  C   UNL     1      -8.501  13.601  67.432  1.00  0.00    -0.201 C  
HETATM    9  O   UNL     1      -7.442  14.301  66.957  1.00  0.00    -0.312 OA 
HETATM   10  H   UNL     1      -7.702  15.166  66.662  1.00  0.00     0.000 HD 
BRANCH   8  11
HETATM   11  N   UNL     1      -9.719  14.021  67.519  1.00  0.00    -0.227 NA 
HETATM   12  H   UNL     1     -10.154  14.180  68.429  1.00  0.00     0.000 HD 
BRANCH  11  13
HETATM   13  C   UNL     1     -10.431  14.254  66.326  1.00  0.00    -0.291 A  
HETATM   14  C   UNL     1     -10.520  15.527  65.774  1.00  0.00    -0.361 A  
HETATM   15  C   UNL     1     -11.511  11.870  66.043  1.00  0.00    -0.344 C  
HETATM   16  S   UNL     1     -11.573  15.537  64.418  1.00  0.00    -0.135 SA 
HETATM   17  C   UNL     1     -11.919  13.881  64.583  1.00  0.00    -0.419 A  
HETATM   18  C   UNL     1     -11.286  13.299  65.666  1.00  0.00    -0.325 A  
BRANCH  14  19
HETATM   19  C   UNL     1      -9.922  16.793  66.151  1.00  0.00    -0.327 C  
HETATM   20  O   UNL     1      -9.038  16.949  66.993  1.00  0.00    -0.215 OA 
BRANCH  19  21
HETATM   21  O   UNL     1     -10.505  17.837  65.483  1.00  0.00    -0.646 OA 
HETATM   22  C   UNL     1     -10.421  19.082  66.177  1.00  0.00    -0.467 C  
ENDBRANCH  19  21
ENDBRANCH  14  19
ENDBRANCH  11  13
ENDBRANCH   8  11
ENDBRANCH   6   8
ENDBRANCH   4   6
ENDBRANCH   3   4
ENDBRANCH   2   3
TORSDOF 8
ENDMDL
MODEL      143
REMARK 921   NORMALIZED FREE ENERGY PREDICTED BY IDOCK:   -4.07 KCAL/MOL
REMARK 922        TOTAL FREE ENERGY PREDICTED BY IDOCK:   -6.68 KCAL/MOL
REMARK 923 INTER-LIGAND FREE ENERGY PREDICTED BY IDOCK:   -5.48 KCAL/MOL
REMARK 924 INTRA-LIGAND FREE ENERGY PREDICTED BY IDOCK:   -1.19 KCAL/MOL
REMARK 927      BINDING AFFINITY PREDICTED BY RF-SCORE:    0.00 PKD
ROOT
HETATM    1  C   UNL     1      -6.443  11.118  66.382  1.00  0.00    -0.109 C  
HETATM    2  C   UNL     1      -7.401  11.080  67.566  1.00  0.00    -0.101 C  
ENDROOT
BRANCH   2   3
HETATM    3  C   UNL     1      -8.554  12.062  67.350  1.00  0.00    -0.171 C  
BRANCH   3   4
HETATM    4  N   UNL     1      -9.282  12.315  68.602  1.00  0.00    -0.394 NA 
HETATM    5  H   UNL     1      -9.029  13.218  69.005  1.00  0.00     0.000 HD 
BRANCH   4   6
HETATM    6  C   UNL     1     -10.755  12.195  68.407  1.00  0.00    -0.228 C  
HETATM    7  C   UNL     1     -11.164  12.210  66.930  1.00  0.00    -0.375 C  
BRANCH   6   8
HETATM    8  C   UNL     1     -11.188  10.830  68.946  1.00  0.00    -0.268 C  
HETATM    9  O   UNL     1     -12.537  10.700  68.940  1.00  0.00    -0.742 OA 
HETATM   10  H   UNL     1     -12.805   9.853  69.275  1.00  0.00     0.000 HD 
BRANCH   8  11
HETATM   11  N   UNL     1     -10.337   9.954  69.367  1.00  0.00    -0.206 NA 
HETATM   12  H   UNL     1      -9.501  10.240  69.878  1.00  0.00     0.000 HD 
BRANCH  11  13
HETATM   13  C   UNL     1     -10.593   8.594  69.103  1.00  0.00    -0.178 A  
HETATM   14  C   UNL     1     -10.911   7.706  70.124  1.00  0.00    -0.248 A  
HETATM   15  C   UNL     1      -9.932   8.561  66.554  1.00  0.00    -0.350 C  
HETATM   16  S   UNL     1     -11.014   6.098  69.531  1.00  0.00    -0.413 SA 
HETATM   17  C   UNL     1     -10.620   6.579  67.949  1.00  0.00    -0.252 A  
HETATM   18  C   UNL     1     -10.372   7.936  67.839  1.00  0.00    -0.281 A  
BRANCH  14  19
HETATM   19  C   UNL     1     -11.130   7.898  71.544  1.00  0.00    -0.241 C  
HETATM   20  O   UNL     1     -11.398   8.966  72.093  1.00  0.00    -0.356 OA 
BRANCH  19  21
HETATM   21  O   UNL     1     -10.949   6.731  72.237  1.00  0.00    -0.228 OA 
HETATM   22  C   UNL     1     -10.629   6.924  73.615  1.00  0.00    -0.340 C  
ENDBRANCH  19  21
ENDBRANCH  14  19
ENDBRANCH  11  13
ENDBRANCH   8  11
ENDBRANCH   6   8
ENDBRANCH   4   6
ENDBRANCH   3   4
ENDBRANCH   2   3
TORSDOF 8
ENDMDL
MODEL      144
REMARK 921   NORMALIZED FREE ENERGY PREDICTED BY IDOCK:   -4.04 KCAL/MOL
REMARK 922        TOTAL FREE ENERGY PREDICTED BY IDOCK:   -6.65 KCAL/MOL
REMARK 923 INTER-LIGAND FREE ENERGY PREDICTED BY IDOCK:   -5.54 KCAL/MOL
REMARK 924 INTRA-LIGAND FREE ENERGY PREDICTED BY IDOCK:   -1.11 KCAL/MOL
REMARK 927      BINDING AFFINITY PREDICTED BY RF-SCORE:    0.00 PKD
ROOT
HETATM    1  C   UNL     1     -12.478  13.315  65.810  1.00  0.00    -0.480 C  
HETATM    2  C   UNL     1     -11.620  14.305  66.589  1.00  0.00    -0.397 C  
ENDROOT
BRANCH   2   3
HETATM    3  C   UNL     1     -11.796  14.093  68.094  1.00  0.00    -0.352 C  
BRANCH   3   4
HETATM    4  N   UNL     1     -11.913  12.665  68.421  1.00  0.00    -0.287 NA 
HETATM    5  H   UNL     1     -11.299  12.096  67.838  1.00  0.00     0.000 HD 
BRANCH   4   6
HETATM    6  C   UNL     1     -11.670  12.419  69.872  1.00  0.00    -0.266 C  
HETATM    7  C   UNL     1     -12.328  13.469  70.773  1.00  0.00    -0.440 C  
BRANCH   6   8
HETATM    8  C   UNL     1     -12.329  11.086  70.236  1.00  0.00    -0.328 C  
HETATM    9  O   UNL     1     -13.164  11.219  71.294  1.00  0.00    -0.282 OA 
HETATM   10  H   UNL     1     -13.573  10.392  71.520  1.00  0.00     0.000 HD 
BRANCH   8  11
HETATM   11  N   UNL     1     -12.067   9.993  69.600  1.00  0.00    -0.477 NA 
HETATM   12  H   UNL     1     -12.785   9.525  69.046  1.00  0.00     0.000 HD 
BRANCH  11  13
HETATM   13  C   UNL     1     -10.765   9.463  69.691  1.00  0.00    -0.235 A  
HETATM   14  C   UNL     1      -9.977   9.282  68.560  1.00  0.00    -0.175 A  
HETATM   15  C   UNL     1     -10.786   8.808  72.241  1.00  0.00    -0.322 C  
HETATM   16  S   UNL     1      -8.510   8.480  68.953  1.00  0.00    -0.123 SA 
HETATM   17  C   UNL     1      -8.933   8.359  70.595  1.00  0.00    -0.152 A  
HETATM   18  C   UNL     1     -10.183   8.881  70.875  1.00  0.00    -0.304 A  
BRANCH  14  19
HETATM   19  C   UNL     1     -10.190   9.617  67.165  1.00  0.00    -0.243 C  
HETATM   20  O   UNL     1     -10.208   8.819  66.229  1.00  0.00    -0.271 OA 
BRANCH  19  21
HETATM   21  O   UNL     1     -10.318  10.969  66.993  1.00  0.00    -0.209 OA 
HETATM   22  C   UNL     1      -9.111  11.614  66.588  1.00  0.00    -0.194 C  
ENDBRANCH  19  21
ENDBRANCH  14  19
ENDBRANCH  11  13
ENDBRANCH   8  11
ENDBRANCH   6   8
ENDBRANCH   4   6
ENDBRANCH   3   4
ENDBRANCH   2   3
TORSDOF 8
ENDMDL
MODEL      145
REMARK 921   NORMALIZED FREE ENERGY PREDICTED BY IDOCK:   -4.04 KCAL/MOL
REMARK 922        TOTAL FREE ENERGY PREDICTED BY IDOCK:   -6.65 KCAL/MOL
REMARK 923 INTER-LIGAND FREE ENERGY PREDICTED BY IDOCK:   -5.78 KCAL/MOL
REMARK 924 INTRA-LIGAND FREE ENERGY PREDICTED BY IDOCK:   -0.87 KCAL/MOL
REMARK 927      BINDING AFFINITY PREDICTED BY RF-SCORE:    0.00 PKD
ROOT
HETATM    1  C   UNL     1      -8.259   8.885  70.040  1.00  0.00    -0.122 C  
HETATM    2  C   UNL     1      -9.004   8.462  68.780  1.00  0.00    -0.140 C  
ENDROOT
BRANCH   2   3
HETATM    3  C   UNL     1     -10.515   8.575  68.991  1.00  0.00    -0.200 C  
BRANCH   3   4
HETATM    4  N   UNL     1     -11.153   9.322  67.897  1.00  0.00    -0.493 NA 
HETATM    5  H   UNL     1     -12.083   9.648  68.160  1.00  0.00     0.000 HD 
BRANCH   4   6
HETATM    6  C   UNL     1     -10.290  10.446  67.433  1.00  0.00    -0.228 C  
HETATM    7  C   UNL     1     -10.579  10.861  65.986  1.00  0.00    -0.254 C  
BRANCH   6   8
HETATM    8  C   UNL     1     -10.617  11.670  68.290  1.00  0.00    -0.205 C  
HETATM    9  O   UNL     1      -9.569  12.019  69.076  1.00  0.00    -0.412 OA 
HETATM   10  H   UNL     1      -9.772  12.779  69.608  1.00  0.00     0.000 HD 
BRANCH   8  11
HETATM   11  N   UNL     1     -11.772  12.248  68.254  1.00  0.00    -0.324 NA 
HETATM   12  H   UNL     1     -12.601  11.743  67.938  1.00  0.00     0.000 HD 
BRANCH  11  13
HETATM   13  C   UNL     1     -11.857  13.594  68.663  1.00  0.00    -0.374 A  
HETATM   14  C   UNL     1     -11.453  14.630  67.828  1.00  0.00    -0.340 A  
HETATM   15  C   UNL     1     -12.545  13.198  71.173  1.00  0.00    -0.403 C  
HETATM   16  S   UNL     1     -11.523  16.140  68.644  1.00  0.00    -0.267 SA 
HETATM   17  C   UNL     1     -12.059  15.418  70.086  1.00  0.00    -0.369 A  
HETATM   18  C   UNL     1     -12.165  14.041  69.999  1.00  0.00    -0.414 A  
BRANCH  14  19
HETATM   19  C   UNL     1     -10.977  14.644  66.458  1.00  0.00    -0.318 C  
HETATM   20  O   UNL     1     -11.683  14.685  65.452  1.00  0.00    -0.351 OA 
BRANCH  19  21
HETATM   21  O   UNL     1      -9.612  14.550  66.406  1.00  0.00    -0.276 OA 
HETATM   22  C   UNL     1      -8.963  15.779  66.079  1.00  0.00    -0.287 C  
ENDBRANCH  19  21
ENDBRANCH  14  19
ENDBRANCH  11  13
ENDBRANCH   8  11
ENDBRANCH   6   8
ENDBRANCH   4   6
ENDBRANCH   3   4
ENDBRANCH   2   3
TORSDOF 8
ENDMDL
MODEL      146
REMARK 921   NORMALIZED FREE ENERGY PREDICTED BY IDOCK:   -4.02 KCAL/MOL
REMARK 922        TOTAL FREE ENERGY PREDICTED BY IDOCK:   -6.60 KCAL/MOL
REMARK 923 INTER-LIGAND FREE ENERGY PREDICTED BY IDOCK:   -5.88 KCAL/MOL
REMARK 924 INTRA-LIGAND FREE ENERGY PREDICTED BY IDOCK:   -0.73 KCAL/MOL
REMARK 927      BINDING AFFINITY PREDICTED BY RF-SCORE:    0.00 PKD
ROOT
HETATM    1  C   UNL     1      -8.931   7.127  71.925  1.00  0.00    -0.135 C  
HETATM    2  C   UNL     1      -8.999   8.626  71.661  1.00  0.00    -0.305 C  
ENDROOT
BRANCH   2   3
HETATM    3  C   UNL     1     -10.349   8.996  71.042  1.00  0.00    -0.278 C  
BRANCH   3   4
HETATM    4  N   UNL     1     -10.257  10.244  70.271  1.00  0.00    -0.420 NA 
HETATM    5  H   UNL     1      -9.664  10.132  69.448  1.00  0.00     0.000 HD 
BRANCH   4   6
HETATM    6  C   UNL     1     -11.609  10.756  69.904  1.00  0.00    -0.331 C  
HETATM    7  C   UNL     1     -12.420  11.220  71.119  1.00  0.00    -0.479 C  
BRANCH   6   8
HETATM    8  C   UNL     1     -11.416  12.000  69.033  1.00  0.00    -0.300 C  
HETATM    9  O   UNL     1     -12.255  11.993  67.969  1.00  0.00    -0.454 OA 
HETATM   10  H   UNL     1     -12.136  12.765  67.428  1.00  0.00     0.000 HD 
BRANCH   8  11
HETATM   11  N   UNL     1     -10.532  12.902  69.305  1.00  0.00    -0.419 NA 
HETATM   12  H   UNL     1      -9.778  12.713  69.966  1.00  0.00     0.000 HD 
BRANCH  11  13
HETATM   13  C   UNL     1     -10.636  14.152  68.664  1.00  0.00    -0.249 A  
HETATM   14  C   UNL     1     -11.365  15.194  69.225  1.00  0.00    -0.300 A  
HETATM   15  C   UNL     1      -9.470  13.523  66.388  1.00  0.00    -0.236 C  
HETATM   16  S   UNL     1     -11.446  16.534  68.155  1.00  0.00     0.118 SA 
HETATM   17  C   UNL     1     -10.546  15.727  66.960  1.00  0.00    -0.316 A  
HETATM   18  C   UNL     1     -10.197  14.438  67.320  1.00  0.00    -0.252 A  
BRANCH  14  19
HETATM   19  C   UNL     1     -12.060  15.321  70.491  1.00  0.00    -0.354 C  
HETATM   20  O   UNL     1     -13.220  15.703  70.640  1.00  0.00    -0.487 OA 
BRANCH  19  21
HETATM   21  O   UNL     1     -11.239  15.009  71.542  1.00  0.00    -0.321 OA 
HETATM   22  C   UNL     1     -11.870  15.119  72.817  1.00  0.00    -0.359 C  
ENDBRANCH  19  21
ENDBRANCH  14  19
ENDBRANCH  11  13
ENDBRANCH   8  11
ENDBRANCH   6   8
ENDBRANCH   4   6
ENDBRANCH   3   4
ENDBRANCH   2   3
TORSDOF 8
ENDMDL
MODEL      147
REMARK 921   NORMALIZED FREE ENERGY PREDICTED BY IDOCK:   -3.99 KCAL/MOL
REMARK 922        TOTAL FREE ENERGY PREDICTED BY IDOCK:   -6.56 KCAL/MOL
REMARK 923 INTER-LIGAND FREE ENERGY PREDICTED BY IDOCK:   -5.50 KCAL/MOL
REMARK 924 INTRA-LIGAND FREE ENERGY PREDICTED BY IDOCK:   -1.07 KCAL/MOL
REMARK 927      BINDING AFFINITY PREDICTED BY RF-SCORE:    0.00 PKD
ROOT
HETATM    1  C   UNL     1     -10.421   8.781  67.201  1.00  0.00    -0.354 C  
HETATM    2  C   UNL     1      -9.135   8.729  68.017  1.00  0.00    -0.144 C  
ENDROOT
BRANCH   2   3
HETATM    3  C   UNL     1      -8.406  10.072  67.947  1.00  0.00    -0.117 C  
BRANCH   3   4
HETATM    4  N   UNL     1      -9.236  11.097  67.300  1.00  0.00    -0.160 NA 
HETATM    5  H   UNL     1     -10.231  10.889  67.397  1.00  0.00     0.000 HD 
BRANCH   4   6
HETATM    6  C   UNL     1      -8.911  12.461  67.808  1.00  0.00    -0.176 C  
HETATM    7  C   UNL     1      -7.444  12.845  67.588  1.00  0.00    -0.148 C  
BRANCH   6   8
HETATM    8  C   UNL     1      -9.731  13.469  66.999  1.00  0.00    -0.251 C  
HETATM    9  O   UNL     1      -8.945  14.192  66.165  1.00  0.00    -0.488 OA 
HETATM   10  H   UNL     1      -9.454  14.817  65.663  1.00  0.00     0.000 HD 
BRANCH   8  11
HETATM   11  N   UNL     1     -11.008  13.595  67.147  1.00  0.00    -0.285 NA 
HETATM   12  H   UNL     1     -11.647  13.390  66.378  1.00  0.00     0.000 HD 
BRANCH  11  13
HETATM   13  C   UNL     1     -11.495  14.022  68.399  1.00  0.00    -0.306 A  
HETATM   14  C   UNL     1     -11.368  15.343  68.812  1.00  0.00    -0.320 A  
HETATM   15  C   UNL     1     -12.153  11.671  69.385  1.00  0.00    -0.328 C  
HETATM   16  S   UNL     1     -11.906  15.536  70.431  1.00  0.00    -0.384 SA 
HETATM   17  C   UNL     1     -12.277  13.884  70.581  1.00  0.00    -0.373 A  
HETATM   18  C   UNL     1     -11.979  13.154  69.444  1.00  0.00    -0.347 A  
BRANCH  14  19
HETATM   19  C   UNL     1     -10.854  16.524  68.144  1.00  0.00    -0.345 C  
HETATM   20  O   UNL     1     -10.689  16.650  66.932  1.00  0.00    -0.266 OA 
BRANCH  19  21
HETATM   21  O   UNL     1     -10.513  17.495  69.047  1.00  0.00    -0.350 OA 
HETATM   22  C   UNL     1      -9.661  18.506  68.508  1.00  0.00    -0.358 C  
ENDBRANCH  19  21
ENDBRANCH  14  19
ENDBRANCH  11  13
ENDBRANCH   8  11
ENDBRANCH   6   8
ENDBRANCH   4   6
ENDBRANCH   3   4
ENDBRANCH   2   3
TORSDOF 8
ENDMDL
MODEL      148
REMARK 921   NORMALIZED FREE ENERGY PREDICTED BY IDOCK:   -3.97 KCAL/MOL
REMARK 922        TOTAL FREE ENERGY PREDICTED BY IDOCK:   -6.54 KCAL/MOL
REMARK 923 INTER-LIGAND FREE ENERGY PREDICTED BY IDOCK:   -5.28 KCAL/MOL
REMARK 924 INTRA-LIGAND FREE ENERGY PREDICTED BY IDOCK:   -1.27 KCAL/MOL
REMARK 927      BINDING AFFINITY PREDICTED BY RF-SCORE:    0.00 PKD
ROOT
HETATM    1  C   UNL     1     -10.650   5.546  66.715  1.00  0.00    -0.360 C  
HETATM    2  C   UNL     1     -10.732   6.997  67.174  1.00  0.00    -0.433 C  
ENDROOT
BRANCH   2   3
HETATM    3  C   UNL     1      -9.588   7.812  66.567  1.00  0.00    -0.201 C  
BRANCH   3   4
HETATM    4  N   UNL     1      -9.337   9.037  67.341  1.00  0.00    -0.137 NA 
HETATM    5  H   UNL     1      -9.016   9.798  66.742  1.00  0.00     0.000 HD 
BRANCH   4   6
HETATM    6  C   UNL     1     -10.535   9.433  68.135  1.00  0.00    -0.220 C  
HETATM    7  C   UNL     1     -10.189   9.861  69.565  1.00  0.00    -0.243 C  
BRANCH   6   8
HETATM    8  C   UNL     1     -11.149  10.667  67.468  1.00  0.00    -0.300 C  
HETATM    9  O   UNL     1     -12.229  11.114  68.153  1.00  0.00    -0.708 OA 
HETATM   10  H   UNL     1     -12.610  11.880  67.740  1.00  0.00     0.000 HD 
BRANCH   8  11
HETATM   11  N   UNL     1     -10.675  11.166  66.375  1.00  0.00    -0.262 NA 
HETATM   12  H   UNL     1     -10.534  10.582  65.550  1.00  0.00     0.000 HD 
BRANCH  11  13
HETATM   13  C   UNL     1     -10.360  12.539  66.350  1.00  0.00    -0.243 A  
HETATM   14  C   UNL     1      -9.181  13.021  66.908  1.00  0.00    -0.236 A  
HETATM   15  C   UNL     1     -12.641  13.448  65.399  1.00  0.00    -0.528 C  
HETATM   16  S   UNL     1      -9.139  14.737  66.872  1.00  0.00    -0.260 SA 
HETATM   17  C   UNL     1     -10.674  14.831  66.148  1.00  0.00    -0.314 A  
HETATM   18  C   UNL     1     -11.259  13.594  65.951  1.00  0.00    -0.311 A  
BRANCH  14  19
HETATM   19  C   UNL     1      -8.047  12.347  67.512  1.00  0.00    -0.173 C  
HETATM   20  O   UNL     1      -7.488  11.345  67.071  1.00  0.00    -0.132 OA 
BRANCH  19  21
HETATM   21  O   UNL     1      -7.690  12.940  68.694  1.00  0.00    -0.127 OA 
HETATM   22  C   UNL     1      -6.279  13.025  68.891  1.00  0.00    -0.088 C  
ENDBRANCH  19  21
ENDBRANCH  14  19
ENDBRANCH  11  13
ENDBRANCH   8  11
ENDBRANCH   6   8
ENDBRANCH   4   6
ENDBRANCH   3   4
ENDBRANCH   2   3
TORSDOF 8
ENDMDL
MODEL      149
REMARK 921   NORMALIZED FREE ENERGY PREDICTED BY IDOCK:   -3.96 KCAL/MOL
REMARK 922        TOTAL FREE ENERGY PREDICTED BY IDOCK:   -6.52 KCAL/MOL
REMARK 923 INTER-LIGAND FREE ENERGY PREDICTED BY IDOCK:   -5.05 KCAL/MOL
REMARK 924 INTRA-LIGAND FREE ENERGY PREDICTED BY IDOCK:   -1.48 KCAL/MOL
REMARK 927      BINDING AFFINITY PREDICTED BY RF-SCORE:    0.00 PKD
ROOT
HETATM    1  C   UNL     1      -5.799   7.261  72.280  1.00  0.00    -0.037 C  
HETATM    2  C   UNL     1      -7.077   7.778  71.629  1.00  0.00    -0.064 C  
ENDROOT
BRANCH   2   3
HETATM    3  C   UNL     1      -7.476   6.883  70.455  1.00  0.00    -0.086 C  
BRANCH   3   4
HETATM    4  N   UNL     1      -7.801   7.679  69.263  1.00  0.00    -0.118 NA 
HETATM    5  H   UNL     1      -7.035   7.672  68.588  1.00  0.00     0.000 HD 
BRANCH   4   6
HETATM    6  C   UNL     1      -9.081   7.231  68.642  1.00  0.00    -0.133 C  
HETATM    7  C   UNL     1      -9.706   6.033  69.364  1.00  0.00    -0.176 C  
BRANCH   6   8
HETATM    8  C   UNL     1     -10.091   8.373  68.779  1.00  0.00    -0.196 C  
HETATM    9  O   UNL     1     -11.086   8.266  67.866  1.00  0.00    -0.469 OA 
HETATM   10  H   UNL     1     -11.713   8.975  67.951  1.00  0.00     0.000 HD 
BRANCH   8  11
HETATM   11  N   UNL     1      -9.954   9.313  69.655  1.00  0.00    -0.182 NA 
HETATM   12  H   UNL     1      -9.069   9.812  69.753  1.00  0.00     0.000 HD 
BRANCH  11  13
HETATM   13  C   UNL     1     -11.057   9.630  70.472  1.00  0.00    -0.308 A  
HETATM   14  C   UNL     1     -11.853  10.741  70.213  1.00  0.00    -0.349 A  
HETATM   15  C   UNL     1     -10.667   7.845  72.367  1.00  0.00    -0.367 C  
HETATM   16  S   UNL     1     -13.018  10.965  71.454  1.00  0.00    -0.387 SA 
HETATM   17  C   UNL     1     -12.453   9.620  72.327  1.00  0.00    -0.174 A  
HETATM   18  C   UNL     1     -11.370   9.000  71.731  1.00  0.00    -0.447 A  
BRANCH  14  19
HETATM   19  C   UNL     1     -11.844  11.712  69.136  1.00  0.00    -0.326 C  
HETATM   20  O   UNL     1     -11.739  12.930  69.267  1.00  0.00    -0.290 OA 
BRANCH  19  21
HETATM   21  O   UNL     1     -12.025  11.107  67.921  1.00  0.00    -0.624 OA 
HETATM   22  C   UNL     1     -11.232  11.669  66.875  1.00  0.00    -0.313 C  
ENDBRANCH  19  21
ENDBRANCH  14  19
ENDBRANCH  11  13
ENDBRANCH   8  11
ENDBRANCH   6   8
ENDBRANCH   4   6
ENDBRANCH   3   4
ENDBRANCH   2   3
TORSDOF 8
ENDMDL
MODEL      150
REMARK 921   NORMALIZED FREE ENERGY PREDICTED BY IDOCK:   -3.95 KCAL/MOL
REMARK 922        TOTAL FREE ENERGY PREDICTED BY IDOCK:   -6.50 KCAL/MOL
REMARK 923 INTER-LIGAND FREE ENERGY PREDICTED BY IDOCK:   -5.44 KCAL/MOL
REMARK 924 INTRA-LIGAND FREE ENERGY PREDICTED BY IDOCK:   -1.07 KCAL/MOL
REMARK 927      BINDING AFFINITY PREDICTED BY RF-SCORE:    0.00 PKD
ROOT
HETATM    1  C   UNL     1      -9.044  11.397  68.521  1.00  0.00    -0.169 C  
HETATM    2  C   UNL     1      -9.834  11.676  67.248  1.00  0.00    -0.203 C  
ENDROOT
BRANCH   2   3
HETATM    3  C   UNL     1     -10.238  10.363  66.574  1.00  0.00    -0.229 C  
BRANCH   3   4
HETATM    4  N   UNL     1     -10.984   9.496  67.497  1.00  0.00    -0.433 NA 
HETATM    5  H   UNL     1     -11.990   9.655  67.427  1.00  0.00     0.000 HD 
BRANCH   4   6
HETATM    6  C   UNL     1     -10.641   8.060  67.291  1.00  0.00    -0.290 C  
HETATM    7  C   UNL     1      -9.356   7.864  66.480  1.00  0.00    -0.255 C  
BRANCH   6   8
HETATM    8  C   UNL     1     -10.365   7.445  68.665  1.00  0.00    -0.198 C  
HETATM    9  O   UNL     1      -9.057   7.554  69.003  1.00  0.00    -0.141 OA 
HETATM   10  H   UNL     1      -8.886   7.172  69.855  1.00  0.00     0.000 HD 
BRANCH   8  11
HETATM   11  N   UNL     1     -11.292   6.879  69.365  1.00  0.00    -0.531 NA 
HETATM   12  H   UNL     1     -12.191   6.640  68.948  1.00  0.00     0.000 HD 
BRANCH  11  13
HETATM   13  C   UNL     1     -11.027   6.600  70.721  1.00  0.00    -0.270 A  
HETATM   14  C   UNL     1     -11.298   7.532  71.717  1.00  0.00    -0.254 A  
HETATM   15  C   UNL     1      -9.757   4.315  70.410  1.00  0.00    -0.280 C  
HETATM   16  S   UNL     1     -10.731   6.984  73.242  1.00  0.00    -0.334 SA 
HETATM   17  C   UNL     1     -10.116   5.545  72.578  1.00  0.00    -0.177 A  
HETATM   18  C   UNL     1     -10.291   5.460  71.209  1.00  0.00    -0.296 A  
BRANCH  14  19
HETATM   19  C   UNL     1     -11.925   8.839  71.679  1.00  0.00    -0.332 C  
HETATM   20  O   UNL     1     -12.883   9.197  72.363  1.00  0.00    -0.396 OA 
BRANCH  19  21
HETATM   21  O   UNL     1     -11.349   9.638  70.728  1.00  0.00    -0.285 OA 
HETATM   22  C   UNL     1     -11.976  10.914  70.593  1.00  0.00    -0.368 C  
ENDBRANCH  19  21
ENDBRANCH  14  19
ENDBRANCH  11  13
ENDBRANCH   8  11
ENDBRANCH   6   8
ENDBRANCH   4   6
ENDBRANCH   3   4
ENDBRANCH   2   3
TORSDOF 8
ENDMDL
MODEL      151
REMARK 921   NORMALIZED FREE ENERGY PREDICTED BY IDOCK:   -3.95 KCAL/MOL
REMARK 922        TOTAL FREE ENERGY PREDICTED BY IDOCK:   -6.50 KCAL/MOL
REMARK 923 INTER-LIGAND FREE ENERGY PREDICTED BY IDOCK:   -5.33 KCAL/MOL
REMARK 924 INTRA-LIGAND FREE ENERGY PREDICTED BY IDOCK:   -1.17 KCAL/MOL
REMARK 927      BINDING AFFINITY PREDICTED BY RF-SCORE:    0.00 PKD
ROOT
HETATM    1  C   UNL     1     -11.133  11.723  63.587  1.00  0.00    -0.518 C  
HETATM    2  C   UNL     1     -12.300  12.691  63.738  1.00  0.00    -0.568 C  
ENDROOT
BRANCH   2   3
HETATM    3  C   UNL     1     -12.346  13.252  65.161  1.00  0.00    -0.466 C  
BRANCH   3   4
HETATM    4  N   UNL     1     -12.076  12.205  66.156  1.00  0.00    -0.590 NA 
HETATM    5  H   UNL     1     -11.886  11.306  65.711  1.00  0.00     0.000 HD 
BRANCH   4   6
HETATM    6  C   UNL     1     -10.973  12.603  67.077  1.00  0.00    -0.265 C  
HETATM    7  C   UNL     1     -11.266  13.904  67.832  1.00  0.00    -0.302 C  
BRANCH   6   8
HETATM    8  C   UNL     1     -10.848  11.519  68.151  1.00  0.00    -0.215 C  
HETATM    9  O   UNL     1     -11.802  10.568  68.008  1.00  0.00    -0.765 OA 
HETATM   10  H   UNL     1     -11.724   9.895  68.675  1.00  0.00     0.000 HD 
BRANCH   8  11
HETATM   11  N   UNL     1      -9.943  11.563  69.072  1.00  0.00    -0.402 NA 
HETATM   12  H   UNL     1     -10.185  11.818  70.031  1.00  0.00     0.000 HD 
BRANCH  11  13
HETATM   13  C   UNL     1      -8.616  11.251  68.719  1.00  0.00    -0.108 A  
HETATM   14  C   UNL     1      -8.170   9.935  68.674  1.00  0.00    -0.108 A  
HETATM   15  C   UNL     1      -7.643  13.697  68.651  1.00  0.00    -0.115 C  
HETATM   16  S   UNL     1      -6.481   9.867  68.370  1.00  0.00    -0.054 SA 
HETATM   17  C   UNL     1      -6.348  11.561  68.325  1.00  0.00    -0.046 A  
HETATM   18  C   UNL     1      -7.547  12.208  68.567  1.00  0.00    -0.124 A  
BRANCH  14  19
HETATM   19  C   UNL     1      -8.856   8.671  68.859  1.00  0.00    -0.138 C  
HETATM   20  O   UNL     1      -8.664   7.646  68.206  1.00  0.00    -0.124 OA 
BRANCH  19  21
HETATM   21  O   UNL     1      -9.809   8.762  69.838  1.00  0.00    -0.177 OA 
HETATM   22  C   UNL     1     -10.725   7.667  69.852  1.00  0.00    -0.249 C  
ENDBRANCH  19  21
ENDBRANCH  14  19
ENDBRANCH  11  13
ENDBRANCH   8  11
ENDBRANCH   6   8
ENDBRANCH   4   6
ENDBRANCH   3   4
ENDBRANCH   2   3
TORSDOF 8
ENDMDL
MODEL      152
REMARK 921   NORMALIZED FREE ENERGY PREDICTED BY IDOCK:   -3.94 KCAL/MOL
REMARK 922        TOTAL FREE ENERGY PREDICTED BY IDOCK:   -6.49 KCAL/MOL
REMARK 923 INTER-LIGAND FREE ENERGY PREDICTED BY IDOCK:   -5.57 KCAL/MOL
REMARK 924 INTRA-LIGAND FREE ENERGY PREDICTED BY IDOCK:   -0.92 KCAL/MOL
REMARK 927      BINDING AFFINITY PREDICTED BY RF-SCORE:    0.00 PKD
ROOT
HETATM    1  C   UNL     1     -10.951  10.556  67.014  1.00  0.00    -0.247 C  
HETATM    2  C   UNL     1     -11.200  11.118  68.408  1.00  0.00    -0.325 C  
ENDROOT
BRANCH   2   3
HETATM    3  C   UNL     1     -10.911  12.620  68.437  1.00  0.00    -0.245 C  
BRANCH   3   4
HETATM    4  N   UNL     1      -9.835  12.974  67.499  1.00  0.00    -0.205 NA 
HETATM    5  H   UNL     1     -10.155  13.645  66.800  1.00  0.00     0.000 HD 
BRANCH   4   6
HETATM    6  C   UNL     1      -8.628  13.470  68.221  1.00  0.00    -0.168 C  
HETATM    7  C   UNL     1      -7.760  12.337  68.780  1.00  0.00    -0.016 C  
BRANCH   6   8
HETATM    8  C   UNL     1      -7.748  14.206  67.207  1.00  0.00    -0.108 C  
HETATM    9  O   UNL     1      -6.460  13.791  67.275  1.00  0.00    -0.417 OA 
HETATM   10  H   UNL     1      -5.914  14.248  66.646  1.00  0.00     0.000 HD 
BRANCH   8  11
HETATM   11  N   UNL     1      -8.217  15.121  66.424  1.00  0.00    -0.320 NA 
HETATM   12  H   UNL     1      -8.059  15.080  65.417  1.00  0.00     0.000 HD 
BRANCH  11  13
HETATM   13  C   UNL     1      -8.952  16.177  66.998  1.00  0.00    -0.211 A  
HETATM   14  C   UNL     1     -10.138  16.627  66.428  1.00  0.00    -0.315 A  
HETATM   15  C   UNL     1      -7.226  16.892  68.853  1.00  0.00    -0.231 C  
HETATM   16  S   UNL     1     -10.727  18.016  67.248  1.00  0.00    -0.211 SA 
HETATM   17  C   UNL     1      -9.412  18.027  68.325  1.00  0.00    -0.302 A  
HETATM   18  C   UNL     1      -8.496  17.021  68.076  1.00  0.00    -0.216 A  
BRANCH  14  19
HETATM   19  C   UNL     1     -10.908  16.158  65.292  1.00  0.00    -0.336 C  
HETATM   20  O   UNL     1     -11.301  16.850  64.354  1.00  0.00    -1.133 OA 
BRANCH  19  21
HETATM   21  O   UNL     1     -11.205  14.826  65.411  1.00  0.00    -0.325 OA 
HETATM   22  C   UNL     1     -12.564  14.512  65.107  1.00  0.00    -0.238 C  
ENDBRANCH  19  21
ENDBRANCH  14  19
ENDBRANCH  11  13
ENDBRANCH   8  11
ENDBRANCH   6   8
ENDBRANCH   4   6
ENDBRANCH   3   4
ENDBRANCH   2   3
TORSDOF 8
ENDMDL
MODEL      153
REMARK 921   NORMALIZED FREE ENERGY PREDICTED BY IDOCK:   -3.93 KCAL/MOL
REMARK 922        TOTAL FREE ENERGY PREDICTED BY IDOCK:   -6.48 KCAL/MOL
REMARK 923 INTER-LIGAND FREE ENERGY PREDICTED BY IDOCK:   -5.57 KCAL/MOL
REMARK 924 INTRA-LIGAND FREE ENERGY PREDICTED BY IDOCK:   -0.91 KCAL/MOL
REMARK 927      BINDING AFFINITY PREDICTED BY RF-SCORE:    0.00 PKD
ROOT
HETATM    1  C   UNL     1      -5.715   9.280  66.641  1.00  0.00    -0.054 C  
HETATM    2  C   UNL     1      -6.187   9.386  68.086  1.00  0.00    -0.053 C  
ENDROOT
BRANCH   2   3
HETATM    3  C   UNL     1      -7.191  10.531  68.235  1.00  0.00    -0.083 C  
BRANCH   3   4
HETATM    4  N   UNL     1      -8.554  10.021  68.444  1.00  0.00    -0.111 NA 
HETATM    5  H   UNL     1      -8.815  10.045  69.430  1.00  0.00     0.000 HD 
BRANCH   4   6
HETATM    6  C   UNL     1      -9.542  10.751  67.599  1.00  0.00    -0.158 C  
HETATM    7  C   UNL     1      -9.236  10.648  66.100  1.00  0.00    -0.196 C  
BRANCH   6   8
HETATM    8  C   UNL     1     -10.905  10.082  67.792  1.00  0.00    -0.282 C  
HETATM    9  O   UNL     1     -10.801   8.732  67.779  1.00  0.00    -0.466 OA 
HETATM   10  H   UNL     1     -11.647   8.317  67.899  1.00  0.00     0.000 HD 
BRANCH   8  11
HETATM   11  N   UNL     1     -11.995  10.765  67.920  1.00  0.00    -0.707 NA 
HETATM   12  H   UNL     1     -12.875  10.424  67.531  1.00  0.00     0.000 HD 
BRANCH  11  13
HETATM   13  C   UNL     1     -11.937  11.991  68.612  1.00  0.00    -0.235 A  
HETATM   14  C   UNL     1     -12.226  12.070  69.970  1.00  0.00    -0.206 A  
HETATM   15  C   UNL     1     -11.549  13.584  66.553  1.00  0.00    -0.391 C  
HETATM   16  S   UNL     1     -12.228  13.701  70.505  1.00  0.00    -0.343 SA 
HETATM   17  C   UNL     1     -11.872  14.287  68.950  1.00  0.00    -0.336 A  
HETATM   18  C   UNL     1     -11.778  13.287  67.999  1.00  0.00    -0.394 A  
BRANCH  14  19
HETATM   19  C   UNL     1     -12.541  11.054  70.956  1.00  0.00    -0.411 C  
HETATM   20  O   UNL     1     -13.128  11.242  72.020  1.00  0.00    -0.495 OA 
BRANCH  19  21
HETATM   21  O   UNL     1     -12.049   9.831  70.583  1.00  0.00    -0.274 OA 
HETATM   22  C   UNL     1     -10.956   9.383  71.386  1.00  0.00    -0.373 C  
ENDBRANCH  19  21
ENDBRANCH  14  19
ENDBRANCH  11  13
ENDBRANCH   8  11
ENDBRANCH   6   8
ENDBRANCH   4   6
ENDBRANCH   3   4
ENDBRANCH   2   3
TORSDOF 8
ENDMDL
MODEL      154
REMARK 921   NORMALIZED FREE ENERGY PREDICTED BY IDOCK:   -3.92 KCAL/MOL
REMARK 922        TOTAL FREE ENERGY PREDICTED BY IDOCK:   -6.47 KCAL/MOL
REMARK 923 INTER-LIGAND FREE ENERGY PREDICTED BY IDOCK:   -5.21 KCAL/MOL
REMARK 924 INTRA-LIGAND FREE ENERGY PREDICTED BY IDOCK:   -1.26 KCAL/MOL
REMARK 927      BINDING AFFINITY PREDICTED BY RF-SCORE:    0.00 PKD
ROOT
HETATM    1  C   UNL     1     -12.645  11.983  63.464  1.00  0.00    -0.625 C  
HETATM    2  C   UNL     1     -11.958  13.242  63.979  1.00  0.00    -0.525 C  
ENDROOT
BRANCH   2   3
HETATM    3  C   UNL     1     -12.545  13.654  65.331  1.00  0.00    -0.491 C  
BRANCH   3   4
HETATM    4  N   UNL     1     -11.890  12.940  66.436  1.00  0.00    -0.400 NA 
HETATM    5  H   UNL     1     -11.590  12.007  66.153  1.00  0.00     0.000 HD 
BRANCH   4   6
HETATM    6  C   UNL     1     -10.757  13.732  66.998  1.00  0.00    -0.283 C  
HETATM    7  C   UNL     1     -11.019  15.241  66.982  1.00  0.00    -0.324 C  
BRANCH   6   8
HETATM    8  C   UNL     1     -10.607  13.350  68.472  1.00  0.00    -0.253 C  
HETATM    9  O   UNL     1     -11.415  14.098  69.262  1.00  0.00    -0.259 OA 
HETATM   10  H   UNL     1     -11.322  13.862  70.178  1.00  0.00     0.000 HD 
BRANCH   8  11
HETATM   11  N   UNL     1      -9.780  12.440  68.868  1.00  0.00    -0.413 NA 
HETATM   12  H   UNL     1     -10.022  11.809  69.633  1.00  0.00     0.000 HD 
BRANCH  11  13
HETATM   13  C   UNL     1      -8.535  12.341  68.215  1.00  0.00    -0.173 A  
HETATM   14  C   UNL     1      -8.205  11.227  67.452  1.00  0.00    -0.135 A  
HETATM   15  C   UNL     1      -7.387  14.478  69.238  1.00  0.00    -0.126 C  
HETATM   16  S   UNL     1      -6.578  11.312  66.912  1.00  0.00    -0.138 SA 
HETATM   17  C   UNL     1      -6.317  12.794  67.701  1.00  0.00    -0.153 A  
HETATM   18  C   UNL     1      -7.421  13.236  68.407  1.00  0.00    -0.124 A  
BRANCH  14  19
HETATM   19  C   UNL     1      -8.962  10.048  67.078  1.00  0.00    -0.138 C  
HETATM   20  O   UNL     1      -8.678   8.888  67.374  1.00  0.00    -0.124 OA 
BRANCH  19  21
HETATM   21  O   UNL     1     -10.032  10.374  66.289  1.00  0.00    -0.207 OA 
HETATM   22  C   UNL     1      -9.827  10.104  64.902  1.00  0.00    -0.319 C  
ENDBRANCH  19  21
ENDBRANCH  14  19
ENDBRANCH  11  13
ENDBRANCH   8  11
ENDBRANCH   6   8
ENDBRANCH   4   6
ENDBRANCH   3   4
ENDBRANCH   2   3
TORSDOF 8
ENDMDL
MODEL      155
REMARK 921   NORMALIZED FREE ENERGY PREDICTED BY IDOCK:   -3.92 KCAL/MOL
REMARK 922        TOTAL FREE ENERGY PREDICTED BY IDOCK:   -6.47 KCAL/MOL
REMARK 923 INTER-LIGAND FREE ENERGY PREDICTED BY IDOCK:   -5.41 KCAL/MOL
REMARK 924 INTRA-LIGAND FREE ENERGY PREDICTED BY IDOCK:   -1.06 KCAL/MOL
REMARK 927      BINDING AFFINITY PREDICTED BY RF-SCORE:    0.00 PKD
ROOT
HETATM    1  C   UNL     1      -5.437  13.408  69.080  1.00  0.00    -0.073 C  
HETATM    2  C   UNL     1      -6.658  13.890  68.306  1.00  0.00    -0.110 C  
ENDROOT
BRANCH   2   3
HETATM    3  C   UNL     1      -7.033  12.880  67.220  1.00  0.00    -0.058 C  
BRANCH   3   4
HETATM    4  N   UNL     1      -8.442  13.019  66.825  1.00  0.00    -0.419 NA 
HETATM    5  H   UNL     1      -8.536  13.531  65.948  1.00  0.00     0.000 HD 
BRANCH   4   6
HETATM    6  C   UNL     1      -9.120  11.693  66.759  1.00  0.00    -0.186 C  
HETATM    7  C   UNL     1      -8.135  10.519  66.741  1.00  0.00    -0.123 C  
BRANCH   6   8
HETATM    8  C   UNL     1      -9.944  11.526  68.039  1.00  0.00    -0.189 C  
HETATM    9  O   UNL     1      -9.156  11.224  69.099  1.00  0.00    -0.394 OA 
HETATM   10  H   UNL     1      -9.667  11.120  69.893  1.00  0.00     0.000 HD 
BRANCH   8  11
HETATM   11  N   UNL     1     -11.230  11.642  68.050  1.00  0.00    -0.242 NA 
HETATM   12  H   UNL     1     -11.807  11.136  67.377  1.00  0.00     0.000 HD 
BRANCH  11  13
HETATM   13  C   UNL     1     -11.815  12.483  69.017  1.00  0.00    -0.296 A  
HETATM   14  C   UNL     1     -11.916  13.856  68.815  1.00  0.00    -0.358 A  
HETATM   15  C   UNL     1     -12.112  10.717  70.946  1.00  0.00    -0.489 C  
HETATM   16  S   UNL     1     -12.524  14.640  70.216  1.00  0.00    -0.329 SA 
HETATM   17  C   UNL     1     -12.627  13.179  71.078  1.00  0.00    -0.312 A  
HETATM   18  C   UNL     1     -12.182  12.088  70.354  1.00  0.00    -0.379 A  
BRANCH  14  19
HETATM   19  C   UNL     1     -11.581  14.698  67.683  1.00  0.00    -0.361 C  
HETATM   20  O   UNL     1     -11.070  15.815  67.743  1.00  0.00    -0.331 OA 
BRANCH  19  21
HETATM   21  O   UNL     1     -11.959  14.115  66.502  1.00  0.00    -0.406 OA 
HETATM   22  C   UNL     1     -11.386  14.730  65.349  1.00  0.00    -0.356 C  
ENDBRANCH  19  21
ENDBRANCH  14  19
ENDBRANCH  11  13
ENDBRANCH   8  11
ENDBRANCH   6   8
ENDBRANCH   4   6
ENDBRANCH   3   4
ENDBRANCH   2   3
TORSDOF 8
ENDMDL
MODEL      156
REMARK 921   NORMALIZED FREE ENERGY PREDICTED BY IDOCK:   -3.92 KCAL/MOL
REMARK 922        TOTAL FREE ENERGY PREDICTED BY IDOCK:   -6.46 KCAL/MOL
REMARK 923 INTER-LIGAND FREE ENERGY PREDICTED BY IDOCK:   -5.07 KCAL/MOL
REMARK 924 INTRA-LIGAND FREE ENERGY PREDICTED BY IDOCK:   -1.39 KCAL/MOL
REMARK 927      BINDING AFFINITY PREDICTED BY RF-SCORE:    0.00 PKD
ROOT
HETATM    1  C   UNL     1     -10.933   6.751  67.432  1.00  0.00    -0.407 C  
HETATM    2  C   UNL     1      -9.421   6.931  67.381  1.00  0.00    -0.151 C  
ENDROOT
BRANCH   2   3
HETATM    3  C   UNL     1      -9.036   7.882  66.246  1.00  0.00    -0.171 C  
BRANCH   3   4
HETATM    4  N   UNL     1     -10.106   8.853  65.977  1.00  0.00    -0.416 NA 
HETATM    5  H   UNL     1     -10.871   8.761  66.647  1.00  0.00     0.000 HD 
BRANCH   4   6
HETATM    6  C   UNL     1      -9.578  10.247  65.938  1.00  0.00    -0.209 C  
HETATM    7  C   UNL     1      -9.815  10.937  64.591  1.00  0.00    -0.350 C  
BRANCH   6   8
HETATM    8  C   UNL     1     -10.354  11.069  66.970  1.00  0.00    -0.228 C  
HETATM    9  O   UNL     1     -11.584  11.405  66.512  1.00  0.00    -0.408 OA 
HETATM   10  H   UNL     1     -12.065  11.916  67.152  1.00  0.00     0.000 HD 
BRANCH   8  11
HETATM   11  N   UNL     1      -9.846  11.398  68.111  1.00  0.00    -0.184 NA 
HETATM   12  H   UNL     1      -9.546  12.356  68.294  1.00  0.00     0.000 HD 
BRANCH  11  13
HETATM   13  C   UNL     1      -9.718  10.400  69.098  1.00  0.00    -0.220 A  
HETATM   14  C   UNL     1     -10.755  10.119  69.981  1.00  0.00    -0.305 A  
HETATM   15  C   UNL     1      -7.165   9.848  68.766  1.00  0.00    -0.076 C  
HETATM   16  S   UNL     1     -10.262   8.976  71.163  1.00  0.00    -0.318 SA 
HETATM   17  C   UNL     1      -8.692   8.879  70.520  1.00  0.00    -0.186 A  
HETATM   18  C   UNL     1      -8.495   9.717  69.437  1.00  0.00    -0.156 A  
BRANCH  14  19
HETATM   19  C   UNL     1     -12.109  10.628  70.082  1.00  0.00    -0.333 C  
HETATM   20  O   UNL     1     -12.762  11.122  69.165  1.00  0.00    -0.255 OA 
BRANCH  19  21
HETATM   21  O   UNL     1     -12.576  10.544  71.367  1.00  0.00    -0.369 OA 
HETATM   22  C   UNL     1     -13.237  11.726  71.817  1.00  0.00    -0.329 C  
ENDBRANCH  19  21
ENDBRANCH  14  19
ENDBRANCH  11  13
ENDBRANCH   8  11
ENDBRANCH   6   8
ENDBRANCH   4   6
ENDBRANCH   3   4
ENDBRANCH   2   3
TORSDOF 8
ENDMDL
MODEL      157
REMARK 921   NORMALIZED FREE ENERGY PREDICTED BY IDOCK:   -3.92 KCAL/MOL
REMARK 922        TOTAL FREE ENERGY PREDICTED BY IDOCK:   -6.46 KCAL/MOL
REMARK 923 INTER-LIGAND FREE ENERGY PREDICTED BY IDOCK:   -5.54 KCAL/MOL
REMARK 924 INTRA-LIGAND FREE ENERGY PREDICTED BY IDOCK:   -0.92 KCAL/MOL
REMARK 927      BINDING AFFINITY PREDICTED BY RF-SCORE:    0.00 PKD
ROOT
HETATM    1  C   UNL     1     -11.176  11.730  63.643  1.00  0.00    -0.519 C  
HETATM    2  C   UNL     1      -9.966  11.497  64.539  1.00  0.00    -0.306 C  
ENDROOT
BRANCH   2   3
HETATM    3  C   UNL     1     -10.220  10.318  65.482  1.00  0.00    -0.238 C  
BRANCH   3   4
HETATM    4  N   UNL     1     -10.548  10.781  66.838  1.00  0.00    -0.253 NA 
HETATM    5  H   UNL     1     -11.392  11.354  66.843  1.00  0.00     0.000 HD 
BRANCH   4   6
HETATM    6  C   UNL     1     -10.655   9.639  67.790  1.00  0.00    -0.264 C  
HETATM    7  C   UNL     1     -10.419   8.280  67.121  1.00  0.00    -0.386 C  
BRANCH   6   8
HETATM    8  C   UNL     1      -9.542   9.791  68.829  1.00  0.00    -0.154 C  
HETATM    9  O   UNL     1      -8.333   9.463  68.312  1.00  0.00    -0.117 OA 
HETATM   10  H   UNL     1      -7.642   9.557  68.957  1.00  0.00     0.000 HD 
BRANCH   8  11
HETATM   11  N   UNL     1      -9.779  10.164  70.043  1.00  0.00    -0.404 NA 
HETATM   12  H   UNL     1      -9.884  11.151  70.277  1.00  0.00     0.000 HD 
BRANCH  11  13
HETATM   13  C   UNL     1      -9.889   9.170  71.036  1.00  0.00    -0.296 A  
HETATM   14  C   UNL     1     -11.124   8.802  71.558  1.00  0.00    -0.307 A  
HETATM   15  C   UNL     1      -7.325   8.821  71.525  1.00  0.00    -0.109 C  
HETATM   16  S   UNL     1     -10.938   7.691  72.854  1.00  0.00    -0.392 SA 
HETATM   17  C   UNL     1      -9.243   7.722  72.732  1.00  0.00    -0.195 A  
HETATM   18  C   UNL     1      -8.783   8.581  71.751  1.00  0.00    -0.266 A  
BRANCH  14  19
HETATM   19  C   UNL     1     -12.477   9.203  71.225  1.00  0.00    -0.300 C  
HETATM   20  O   UNL     1     -13.484   8.507  71.345  1.00  0.00    -0.305 OA 
BRANCH  19  21
HETATM   21  O   UNL     1     -12.504  10.466  70.694  1.00  0.00    -0.313 OA 
HETATM   22  C   UNL     1     -13.005  11.456  71.592  1.00  0.00    -0.418 C  
ENDBRANCH  19  21
ENDBRANCH  14  19
ENDBRANCH  11  13
ENDBRANCH   8  11
ENDBRANCH   6   8
ENDBRANCH   4   6
ENDBRANCH   3   4
ENDBRANCH   2   3
TORSDOF 8
ENDMDL
MODEL      158
REMARK 921   NORMALIZED FREE ENERGY PREDICTED BY IDOCK:   -3.92 KCAL/MOL
REMARK 922        TOTAL FREE ENERGY PREDICTED BY IDOCK:   -6.46 KCAL/MOL
REMARK 923 INTER-LIGAND FREE ENERGY PREDICTED BY IDOCK:   -5.22 KCAL/MOL
REMARK 924 INTRA-LIGAND FREE ENERGY PREDICTED BY IDOCK:   -1.23 KCAL/MOL
REMARK 927      BINDING AFFINITY PREDICTED BY RF-SCORE:    0.00 PKD
ROOT
HETATM    1  C   UNL     1     -12.720  11.980  63.495  1.00  0.00    -0.567 C  
HETATM    2  C   UNL     1     -11.255  11.685  63.793  1.00  0.00    -0.498 C  
ENDROOT
BRANCH   2   3
HETATM    3  C   UNL     1     -10.457  12.987  63.882  1.00  0.00    -0.212 C  
BRANCH   3   4
HETATM    4  N   UNL     1     -10.122  13.314  65.276  1.00  0.00    -0.448 NA 
HETATM    5  H   UNL     1      -9.122  13.217  65.452  1.00  0.00     0.000 HD 
BRANCH   4   6
HETATM    6  C   UNL     1     -10.614  14.671  65.648  1.00  0.00    -0.332 C  
HETATM    7  C   UNL     1     -11.432  15.336  64.535  1.00  0.00    -0.318 C  
BRANCH   6   8
HETATM    8  C   UNL     1     -11.574  14.511  66.830  1.00  0.00    -0.385 C  
HETATM    9  O   UNL     1     -12.847  14.316  66.412  1.00  0.00    -0.479 OA 
HETATM   10  H   UNL     1     -13.443  14.217  67.146  1.00  0.00     0.000 HD 
BRANCH   8  11
HETATM   11  N   UNL     1     -11.174  14.588  68.057  1.00  0.00    -0.279 NA 
HETATM   12  H   UNL     1     -11.788  14.315  68.825  1.00  0.00     0.000 HD 
BRANCH  11  13
HETATM   13  C   UNL     1      -9.869  15.056  68.305  1.00  0.00    -0.219 A  
HETATM   14  C   UNL     1      -8.818  14.178  68.542  1.00  0.00    -0.173 A  
HETATM   15  C   UNL     1     -10.402  17.630  68.467  1.00  0.00    -0.370 C  
HETATM   16  S   UNL     1      -7.388  15.029  68.966  1.00  0.00    -0.164 SA 
HETATM   17  C   UNL     1      -8.167  16.536  68.858  1.00  0.00    -0.241 A  
HETATM   18  C   UNL     1      -9.509  16.433  68.538  1.00  0.00    -0.227 A  
BRANCH  14  19
HETATM   19  C   UNL     1      -8.738  12.730  68.518  1.00  0.00    -0.045 C  
HETATM   20  O   UNL     1      -9.593  11.970  68.067  1.00  0.00    -0.186 OA 
BRANCH  19  21
HETATM   21  O   UNL     1      -7.592  12.286  69.123  1.00  0.00     0.033 OA 
HETATM   22  C   UNL     1      -7.331  10.899  68.910  1.00  0.00    -0.111 C  
ENDBRANCH  19  21
ENDBRANCH  14  19
ENDBRANCH  11  13
ENDBRANCH   8  11
ENDBRANCH   6   8
ENDBRANCH   4   6
ENDBRANCH   3   4
ENDBRANCH   2   3
TORSDOF 8
ENDMDL
MODEL      159
REMARK 921   NORMALIZED FREE ENERGY PREDICTED BY IDOCK:   -3.91 KCAL/MOL
REMARK 922        TOTAL FREE ENERGY PREDICTED BY IDOCK:   -6.44 KCAL/MOL
REMARK 923 INTER-LIGAND FREE ENERGY PREDICTED BY IDOCK:   -5.22 KCAL/MOL
REMARK 924 INTRA-LIGAND FREE ENERGY PREDICTED BY IDOCK:   -1.22 KCAL/MOL
REMARK 927      BINDING AFFINITY PREDICTED BY RF-SCORE:    0.00 PKD
ROOT
HETATM    1  C   UNL     1     -10.289  11.517  63.603  1.00  0.00    -0.467 C  
HETATM    2  C   UNL     1      -9.711  10.786  64.809  1.00  0.00    -0.338 C  
ENDROOT
BRANCH   2   3
HETATM    3  C   UNL     1      -9.497  11.761  65.969  1.00  0.00    -0.230 C  
BRANCH   3   4
HETATM    4  N   UNL     1      -9.342  11.046  67.245  1.00  0.00    -0.156 NA 
HETATM    5  H   UNL     1      -8.384  11.105  67.592  1.00  0.00     0.000 HD 
BRANCH   4   6
HETATM    6  C   UNL     1     -10.322  11.528  68.260  1.00  0.00    -0.197 C  
HETATM    7  C   UNL     1     -11.767  11.512  67.749  1.00  0.00    -0.299 C  
BRANCH   6   8
HETATM    8  C   UNL     1     -10.287  10.556  69.441  1.00  0.00    -0.234 C  
HETATM    9  O   UNL     1     -11.100  10.966  70.445  1.00  0.00    -0.464 OA 
HETATM   10  H   UNL     1     -11.078  10.362  71.178  1.00  0.00     0.000 HD 
BRANCH   8  11
HETATM   11  N   UNL     1      -9.539   9.503  69.444  1.00  0.00    -0.170 NA 
HETATM   12  H   UNL     1      -8.527   9.580  69.338  1.00  0.00     0.000 HD 
BRANCH  11  13
HETATM   13  C   UNL     1     -10.157   8.246  69.599  1.00  0.00    -0.199 A  
HETATM   14  C   UNL     1     -10.204   7.611  70.835  1.00  0.00    -0.199 A  
HETATM   15  C   UNL     1     -10.622   7.724  67.061  1.00  0.00    -0.396 C  
HETATM   16  S   UNL     1     -10.873   6.036  70.692  1.00  0.00    -0.299 SA 
HETATM   17  C   UNL     1     -11.071   6.195  69.011  1.00  0.00    -0.367 A  
HETATM   18  C   UNL     1     -10.615   7.405  68.521  1.00  0.00    -0.188 A  
BRANCH  14  19
HETATM   19  C   UNL     1      -9.777   8.026  72.157  1.00  0.00    -0.221 C  
HETATM   20  O   UNL     1     -10.372   7.799  73.209  1.00  0.00    -0.334 OA 
BRANCH  19  21
HETATM   21  O   UNL     1      -8.628   8.769  72.097  1.00  0.00    -0.355 OA 
HETATM   22  C   UNL     1      -7.461   8.058  72.511  1.00  0.00    -0.111 C  
ENDBRANCH  19  21
ENDBRANCH  14  19
ENDBRANCH  11  13
ENDBRANCH   8  11
ENDBRANCH   6   8
ENDBRANCH   4   6
ENDBRANCH   3   4
ENDBRANCH   2   3
TORSDOF 8
ENDMDL
MODEL      160
REMARK 921   NORMALIZED FREE ENERGY PREDICTED BY IDOCK:   -3.90 KCAL/MOL
REMARK 922        TOTAL FREE ENERGY PREDICTED BY IDOCK:   -6.43 KCAL/MOL
REMARK 923 INTER-LIGAND FREE ENERGY PREDICTED BY IDOCK:   -5.47 KCAL/MOL
REMARK 924 INTRA-LIGAND FREE ENERGY PREDICTED BY IDOCK:   -0.96 KCAL/MOL
REMARK 927      BINDING AFFINITY PREDICTED BY RF-SCORE:    0.00 PKD
ROOT
HETATM    1  C   UNL     1      -7.876   7.309  71.685  1.00  0.00    -0.091 C  
HETATM    2  C   UNL     1      -8.212   8.663  71.072  1.00  0.00    -0.179 C  
ENDROOT
BRANCH   2   3
HETATM    3  C   UNL     1      -9.697   8.978  71.257  1.00  0.00    -0.301 C  
BRANCH   3   4
HETATM    4  N   UNL     1     -10.059  10.247  70.608  1.00  0.00    -0.238 NA 
HETATM    5  H   UNL     1      -9.511  10.403  69.762  1.00  0.00     0.000 HD 
BRANCH   4   6
HETATM    6  C   UNL     1     -11.522  10.319  70.334  1.00  0.00    -0.335 C  
HETATM    7  C   UNL     1     -12.343  10.699  71.570  1.00  0.00    -0.414 C  
BRANCH   6   8
HETATM    8  C   UNL     1     -11.752  11.441  69.320  1.00  0.00    -0.337 C  
HETATM    9  O   UNL     1     -11.540  12.660  69.873  1.00  0.00    -0.460 OA 
HETATM   10  H   UNL     1     -11.683  13.357  69.244  1.00  0.00     0.000 HD 
BRANCH   8  11
HETATM   11  N   UNL     1     -12.127  11.207  68.105  1.00  0.00    -0.737 NA 
HETATM   12  H   UNL     1     -13.024  10.760  67.911  1.00  0.00     0.000 HD 
BRANCH  11  13
HETATM   13  C   UNL     1     -11.266  11.586  67.057  1.00  0.00    -0.300 A  
HETATM   14  C   UNL     1     -10.253  10.744  66.612  1.00  0.00    -0.233 A  
HETATM   15  C   UNL     1     -12.057  14.083  66.784  1.00  0.00    -0.480 C  
HETATM   16  S   UNL     1      -9.271  11.528  65.441  1.00  0.00    -0.040 SA 
HETATM   17  C   UNL     1     -10.169  12.967  65.546  1.00  0.00    -0.287 A  
HETATM   18  C   UNL     1     -11.192  12.904  66.475  1.00  0.00    -0.340 A  
BRANCH  14  19
HETATM   19  C   UNL     1      -9.887   9.389  66.977  1.00  0.00    -0.201 C  
HETATM   20  O   UNL     1     -10.532   8.643  67.712  1.00  0.00    -0.235 OA 
BRANCH  19  21
HETATM   21  O   UNL     1      -8.678   9.039  66.438  1.00  0.00    -0.124 OA 
HETATM   22  C   UNL     1      -8.494   7.630  66.304  1.00  0.00    -0.139 C  
ENDBRANCH  19  21
ENDBRANCH  14  19
ENDBRANCH  11  13
ENDBRANCH   8  11
ENDBRANCH   6   8
ENDBRANCH   4   6
ENDBRANCH   3   4
ENDBRANCH   2   3
TORSDOF 8
ENDMDL
MODEL      161
REMARK 921   NORMALIZED FREE ENERGY PREDICTED BY IDOCK:   -3.88 KCAL/MOL
REMARK 922        TOTAL FREE ENERGY PREDICTED BY IDOCK:   -6.40 KCAL/MOL
REMARK 923 INTER-LIGAND FREE ENERGY PREDICTED BY IDOCK:   -5.15 KCAL/MOL
REMARK 924 INTRA-LIGAND FREE ENERGY PREDICTED BY IDOCK:   -1.25 KCAL/MOL
REMARK 927      BINDING AFFINITY PREDICTED BY RF-SCORE:    0.00 PKD
ROOT
HETATM    1  C   UNL     1     -10.682   5.578  66.580  1.00  0.00    -0.309 C  
HETATM    2  C   UNL     1     -10.716   6.890  67.354  1.00  0.00    -0.396 C  
ENDROOT
BRANCH   2   3
HETATM    3  C   UNL     1      -9.545   7.783  66.938  1.00  0.00    -0.198 C  
BRANCH   3   4
HETATM    4  N   UNL     1      -9.363   8.897  67.880  1.00  0.00    -0.141 NA 
HETATM    5  H   UNL     1      -8.736   9.608  67.501  1.00  0.00     0.000 HD 
BRANCH   4   6
HETATM    6  C   UNL     1     -10.672   9.483  68.287  1.00  0.00    -0.194 C  
HETATM    7  C   UNL     1     -10.743   9.801  69.785  1.00  0.00    -0.283 C  
BRANCH   6   8
HETATM    8  C   UNL     1     -10.826  10.825  67.569  1.00  0.00    -0.288 C  
HETATM    9  O   UNL     1     -12.063  11.347  67.753  1.00  0.00    -0.637 OA 
HETATM   10  H   UNL     1     -12.159  12.180  67.307  1.00  0.00     0.000 HD 
BRANCH   8  11
HETATM   11  N   UNL     1      -9.875  11.343  66.864  1.00  0.00    -0.191 NA 
HETATM   12  H   UNL     1      -9.560  10.897  66.002  1.00  0.00     0.000 HD 
BRANCH  11  13
HETATM   13  C   UNL     1      -9.284  12.539  67.318  1.00  0.00    -0.190 A  
HETATM   14  C   UNL     1      -9.685  13.776  66.825  1.00  0.00    -0.275 A  
HETATM   15  C   UNL     1      -7.358  11.495  68.778  1.00  0.00    -0.115 C  
HETATM   16  S   UNL     1      -8.690  15.034  67.438  1.00  0.00    -0.207 SA 
HETATM   17  C   UNL     1      -7.732  13.944  68.322  1.00  0.00    -0.136 A  
HETATM   18  C   UNL     1      -8.112  12.625  68.153  1.00  0.00    -0.164 A  
BRANCH  14  19
HETATM   19  C   UNL     1     -10.735  14.159  65.902  1.00  0.00    -0.298 C  
HETATM   20  O   UNL     1     -10.579  14.781  64.852  1.00  0.00    -0.414 OA 
BRANCH  19  21
HETATM   21  O   UNL     1     -11.968  13.787  66.370  1.00  0.00    -0.389 OA 
HETATM   22  C   UNL     1     -13.001  13.859  65.387  1.00  0.00    -0.326 C  
ENDBRANCH  19  21
ENDBRANCH  14  19
ENDBRANCH  11  13
ENDBRANCH   8  11
ENDBRANCH   6   8
ENDBRANCH   4   6
ENDBRANCH   3   4
ENDBRANCH   2   3
TORSDOF 8
ENDMDL
MODEL      162
REMARK 921   NORMALIZED FREE ENERGY PREDICTED BY IDOCK:   -3.88 KCAL/MOL
REMARK 922        TOTAL FREE ENERGY PREDICTED BY IDOCK:   -6.40 KCAL/MOL
REMARK 923 INTER-LIGAND FREE ENERGY PREDICTED BY IDOCK:   -5.49 KCAL/MOL
REMARK 924 INTRA-LIGAND FREE ENERGY PREDICTED BY IDOCK:   -0.91 KCAL/MOL
REMARK 927      BINDING AFFINITY PREDICTED BY RF-SCORE:    0.00 PKD
ROOT
HETATM    1  C   UNL     1      -6.337  15.881  67.780  1.00  0.00    -0.172 C  
HETATM    2  C   UNL     1      -7.133  14.997  68.733  1.00  0.00    -0.114 C  
ENDROOT
BRANCH   2   3
HETATM    3  C   UNL     1      -8.591  14.903  68.280  1.00  0.00    -0.160 C  
BRANCH   3   4
HETATM    4  N   UNL     1      -9.290  13.802  68.958  1.00  0.00    -0.390 NA 
HETATM    5  H   UNL     1     -10.179  14.111  69.353  1.00  0.00     0.000 HD 
BRANCH   4   6
HETATM    6  C   UNL     1      -9.472  12.633  68.051  1.00  0.00    -0.209 C  
HETATM    7  C   UNL     1      -8.698  11.394  68.513  1.00  0.00    -0.149 C  
BRANCH   6   8
HETATM    8  C   UNL     1     -10.950  12.239  68.087  1.00  0.00    -0.231 C  
HETATM    9  O   UNL     1     -11.598  12.841  69.113  1.00  0.00    -0.282 OA 
HETATM   10  H   UNL     1     -12.516  12.596  69.136  1.00  0.00     0.000 HD 
BRANCH   8  11
HETATM   11  N   UNL     1     -11.463  11.410  67.239  1.00  0.00    -0.504 NA 
HETATM   12  H   UNL     1     -11.984  10.592  67.556  1.00  0.00     0.000 HD 
BRANCH  11  13
HETATM   13  C   UNL     1     -11.283  11.665  65.865  1.00  0.00    -0.238 A  
HETATM   14  C   UNL     1     -10.401  10.911  65.099  1.00  0.00    -0.278 A  
HETATM   15  C   UNL     1     -12.703  13.875  65.688  1.00  0.00    -0.534 C  
HETATM   16  S   UNL     1     -10.272  11.544  63.508  1.00  0.00    -0.450 SA 
HETATM   17  C   UNL     1     -11.354  12.810  63.847  1.00  0.00    -0.442 A  
HETATM   18  C   UNL     1     -11.805  12.806  65.154  1.00  0.00    -0.428 A  
BRANCH  14  19
HETATM   19  C   UNL     1      -9.589   9.751  65.413  1.00  0.00    -0.292 C  
HETATM   20  O   UNL     1      -8.453   9.534  64.995  1.00  0.00    -0.136 OA 
BRANCH  19  21
HETATM   21  O   UNL     1     -10.269   8.870  66.210  1.00  0.00    -0.284 OA 
HETATM   22  C   UNL     1      -9.458   7.811  66.719  1.00  0.00    -0.197 C  
ENDBRANCH  19  21
ENDBRANCH  14  19
ENDBRANCH  11  13
ENDBRANCH   8  11
ENDBRANCH   6   8
ENDBRANCH   4   6
ENDBRANCH   3   4
ENDBRANCH   2   3
TORSDOF 8
ENDMDL
MODEL      163
REMARK 921   NORMALIZED FREE ENERGY PREDICTED BY IDOCK:   -3.87 KCAL/MOL
REMARK 922        TOTAL FREE ENERGY PREDICTED BY IDOCK:   -6.38 KCAL/MOL
REMARK 923 INTER-LIGAND FREE ENERGY PREDICTED BY IDOCK:   -5.54 KCAL/MOL
REMARK 924 INTRA-LIGAND FREE ENERGY PREDICTED BY IDOCK:   -0.85 KCAL/MOL
REMARK 927      BINDING AFFINITY PREDICTED BY RF-SCORE:    0.00 PKD
ROOT
HETATM    1  C   UNL     1      -8.730  10.157  62.933  1.00  0.00    -0.209 C  
HETATM    2  C   UNL     1      -8.816   9.651  64.368  1.00  0.00    -0.263 C  
ENDROOT
BRANCH   2   3
HETATM    3  C   UNL     1      -9.156  10.800  65.319  1.00  0.00    -0.195 C  
BRANCH   3   4
HETATM    4  N   UNL     1      -7.939  11.427  65.855  1.00  0.00    -0.370 NA 
HETATM    5  H   UNL     1      -7.705  12.282  65.348  1.00  0.00     0.000 HD 
BRANCH   4   6
HETATM    6  C   UNL     1      -8.056  11.675  67.321  1.00  0.00    -0.160 C  
HETATM    7  C   UNL     1      -6.857  11.143  68.113  1.00  0.00    -0.067 C  
BRANCH   6   8
HETATM    8  C   UNL     1      -8.061  13.189  67.539  1.00  0.00    -0.181 C  
HETATM    9  O   UNL     1      -6.893  13.751  67.144  1.00  0.00    -0.419 OA 
HETATM   10  H   UNL     1      -6.896  14.691  67.280  1.00  0.00     0.000 HD 
BRANCH   8  11
HETATM   11  N   UNL     1      -9.068  13.807  68.064  1.00  0.00    -0.184 NA 
HETATM   12  H   UNL     1      -9.064  14.071  69.049  1.00  0.00     0.000 HD 
BRANCH  11  13
HETATM   13  C   UNL     1     -10.171  14.104  67.239  1.00  0.00    -0.256 A  
HETATM   14  C   UNL     1     -11.308  13.305  67.234  1.00  0.00    -0.314 A  
HETATM   15  C   UNL     1      -9.102  16.072  65.853  1.00  0.00    -0.292 C  
HETATM   16  S   UNL     1     -12.415  13.816  66.026  1.00  0.00    -0.409 SA 
HETATM   17  C   UNL     1     -11.384  15.064  65.507  1.00  0.00    -0.312 A  
HETATM   18  C   UNL     1     -10.187  15.103  66.198  1.00  0.00    -0.310 A  
BRANCH  14  19
HETATM   19  C   UNL     1     -11.684  12.148  68.024  1.00  0.00    -0.344 C  
HETATM   20  O   UNL     1     -11.819  11.001  67.600  1.00  0.00    -0.599 OA 
BRANCH  19  21
HETATM   21  O   UNL     1     -11.932  12.494  69.325  1.00  0.00    -0.296 OA 
HETATM   22  C   UNL     1     -12.119  11.376  70.192  1.00  0.00    -0.357 C  
ENDBRANCH  19  21
ENDBRANCH  14  19
ENDBRANCH  11  13
ENDBRANCH   8  11
ENDBRANCH   6   8
ENDBRANCH   4   6
ENDBRANCH   3   4
ENDBRANCH   2   3
TORSDOF 8
ENDMDL
MODEL      164
REMARK 921   NORMALIZED FREE ENERGY PREDICTED BY IDOCK:   -3.85 KCAL/MOL
REMARK 922        TOTAL FREE ENERGY PREDICTED BY IDOCK:   -6.37 KCAL/MOL
REMARK 923 INTER-LIGAND FREE ENERGY PREDICTED BY IDOCK:   -5.36 KCAL/MOL
REMARK 924 INTRA-LIGAND FREE ENERGY PREDICTED BY IDOCK:   -1.00 KCAL/MOL
REMARK 927      BINDING AFFINITY PREDICTED BY RF-SCORE:    0.00 PKD
ROOT
HETATM    1  C   UNL     1     -12.653  12.819  70.915  1.00  0.00    -0.342 C  
HETATM    2  C   UNL     1     -13.170  11.840  71.963  1.00  0.00    -0.460 C  
ENDROOT
BRANCH   2   3
HETATM    3  C   UNL     1     -13.230  10.425  71.385  1.00  0.00    -0.364 C  
BRANCH   3   4
HETATM    4  N   UNL     1     -12.404  10.307  70.175  1.00  0.00    -0.493 NA 
HETATM    5  H   UNL     1     -12.405  11.174  69.636  1.00  0.00     0.000 HD 
BRANCH   4   6
HETATM    6  C   UNL     1     -11.017   9.870  70.504  1.00  0.00    -0.326 C  
HETATM    7  C   UNL     1     -10.978   8.721  71.517  1.00  0.00    -0.377 C  
BRANCH   6   8
HETATM    8  C   UNL     1     -10.385   9.319  69.224  1.00  0.00    -0.215 C  
HETATM    9  O   UNL     1      -9.068   9.051  69.397  1.00  0.00    -0.141 OA 
HETATM   10  H   UNL     1      -8.676   8.709  68.602  1.00  0.00     0.000 HD 
BRANCH   8  11
HETATM   11  N   UNL     1     -11.059   9.169  68.132  1.00  0.00    -0.482 NA 
HETATM   12  H   UNL     1     -11.924   8.629  68.121  1.00  0.00     0.000 HD 
BRANCH  11  13
HETATM   13  C   UNL     1     -10.568   9.773  66.957  1.00  0.00    -0.199 A  
HETATM   14  C   UNL     1      -9.689   9.103  66.113  1.00  0.00    -0.287 A  
HETATM   15  C   UNL     1     -11.533  12.194  67.328  1.00  0.00    -0.413 C  
HETATM   16  S   UNL     1      -9.140  10.133  64.854  1.00  0.00    -0.238 SA 
HETATM   17  C   UNL     1     -10.040  11.450  65.441  1.00  0.00    -0.261 A  
HETATM   18  C   UNL     1     -10.738  11.159  66.599  1.00  0.00    -0.322 A  
BRANCH  14  19
HETATM   19  C   UNL     1      -9.161   7.752  66.135  1.00  0.00    -0.128 C  
HETATM   20  O   UNL     1      -9.294   6.943  67.052  1.00  0.00    -0.134 OA 
BRANCH  19  21
HETATM   21  O   UNL     1      -8.430   7.487  65.008  1.00  0.00    -0.103 OA 
HETATM   22  C   UNL     1      -7.280   6.675  65.247  1.00  0.00    -0.077 C  
ENDBRANCH  19  21
ENDBRANCH  14  19
ENDBRANCH  11  13
ENDBRANCH   8  11
ENDBRANCH   6   8
ENDBRANCH   4   6
ENDBRANCH   3   4
ENDBRANCH   2   3
TORSDOF 8
ENDMDL
MODEL      165
REMARK 921   NORMALIZED FREE ENERGY PREDICTED BY IDOCK:   -3.84 KCAL/MOL
REMARK 922        TOTAL FREE ENERGY PREDICTED BY IDOCK:   -6.34 KCAL/MOL
REMARK 923 INTER-LIGAND FREE ENERGY PREDICTED BY IDOCK:   -5.48 KCAL/MOL
REMARK 924 INTRA-LIGAND FREE ENERGY PREDICTED BY IDOCK:   -0.86 KCAL/MOL
REMARK 927      BINDING AFFINITY PREDICTED BY RF-SCORE:    0.00 PKD
ROOT
HETATM    1  C   UNL     1      -8.248   6.342  65.537  1.00  0.00    -0.142 C  
HETATM    2  C   UNL     1      -8.660   5.014  66.160  1.00  0.00    -0.118 C  
ENDROOT
BRANCH   2   3
HETATM    3  C   UNL     1     -10.141   5.043  66.545  1.00  0.00    -0.248 C  
BRANCH   3   4
HETATM    4  N   UNL     1     -10.658   6.418  66.574  1.00  0.00    -0.493 NA 
HETATM    5  H   UNL     1     -11.485   6.519  65.984  1.00  0.00     0.000 HD 
BRANCH   4   6
HETATM    6  C   UNL     1     -10.923   6.869  67.970  1.00  0.00    -0.166 C  
HETATM    7  C   UNL     1     -10.194   6.023  69.019  1.00  0.00    -0.245 C  
BRANCH   6   8
HETATM    8  C   UNL     1     -10.364   8.286  68.117  1.00  0.00    -0.202 C  
HETATM    9  O   UNL     1     -10.241   8.897  66.914  1.00  0.00    -0.243 OA 
HETATM   10  H   UNL     1      -9.893   9.777  67.005  1.00  0.00     0.000 HD 
BRANCH   8  11
HETATM   11  N   UNL     1     -10.039   8.784  69.264  1.00  0.00    -0.198 NA 
HETATM   12  H   UNL     1      -9.090   8.688  69.627  1.00  0.00     0.000 HD 
BRANCH  11  13
HETATM   13  C   UNL     1     -11.030   9.462  70.001  1.00  0.00    -0.239 A  
HETATM   14  C   UNL     1     -11.425  10.752  69.667  1.00  0.00    -0.305 A  
HETATM   15  C   UNL     1     -11.317   7.726  71.960  1.00  0.00    -0.332 C  
HETATM   16  S   UNL     1     -12.525  11.380  70.826  1.00  0.00    -0.327 SA 
HETATM   17  C   UNL     1     -12.455   9.964  71.765  1.00  0.00    -0.397 A  
HETATM   18  C   UNL     1     -11.590   9.014  71.253  1.00  0.00    -0.387 A  
BRANCH  14  19
HETATM   19  C   UNL     1     -11.057  11.626  68.569  1.00  0.00    -0.235 C  
HETATM   20  O   UNL     1     -10.229  12.534  68.619  1.00  0.00    -0.220 OA 
BRANCH  19  21
HETATM   21  O   UNL     1     -11.797  11.354  67.449  1.00  0.00    -0.609 OA 
HETATM   22  C   UNL     1     -11.515  12.220  66.350  1.00  0.00    -0.378 C  
ENDBRANCH  19  21
ENDBRANCH  14  19
ENDBRANCH  11  13
ENDBRANCH   8  11
ENDBRANCH   6   8
ENDBRANCH   4   6
ENDBRANCH   3   4
ENDBRANCH   2   3
TORSDOF 8
ENDMDL
MODEL      166
REMARK 921   NORMALIZED FREE ENERGY PREDICTED BY IDOCK:   -3.83 KCAL/MOL
REMARK 922        TOTAL FREE ENERGY PREDICTED BY IDOCK:   -6.33 KCAL/MOL
REMARK 923 INTER-LIGAND FREE ENERGY PREDICTED BY IDOCK:   -5.00 KCAL/MOL
REMARK 924 INTRA-LIGAND FREE ENERGY PREDICTED BY IDOCK:   -1.33 KCAL/MOL
REMARK 927      BINDING AFFINITY PREDICTED BY RF-SCORE:    0.00 PKD
ROOT
HETATM    1  C   UNL     1     -11.493  10.955  67.998  1.00  0.00    -0.356 C  
HETATM    2  C   UNL     1     -11.214  11.814  69.225  1.00  0.00    -0.318 C  
ENDROOT
BRANCH   2   3
HETATM    3  C   UNL     1     -12.327  11.642  70.260  1.00  0.00    -0.258 C  
BRANCH   3   4
HETATM    4  N   UNL     1     -12.798  10.250  70.311  1.00  0.00    -0.564 NA 
HETATM    5  H   UNL     1     -12.692   9.787  69.408  1.00  0.00     0.000 HD 
BRANCH   4   6
HETATM    6  C   UNL     1     -12.122   9.488  71.400  1.00  0.00    -0.378 C  
HETATM    7  C   UNL     1     -13.109   8.772  72.328  1.00  0.00    -0.458 C  
BRANCH   6   8
HETATM    8  C   UNL     1     -11.288   8.383  70.748  1.00  0.00    -0.265 C  
HETATM    9  O   UNL     1     -12.047   7.302  70.447  1.00  0.00    -0.535 OA 
HETATM   10  H   UNL     1     -11.529   6.615  70.042  1.00  0.00     0.000 HD 
BRANCH   8  11
HETATM   11  N   UNL     1     -10.016   8.503  70.554  1.00  0.00    -0.184 NA 
HETATM   12  H   UNL     1      -9.628   9.348  70.134  1.00  0.00     0.000 HD 
BRANCH  11  13
HETATM   13  C   UNL     1      -9.179   7.437  70.939  1.00  0.00    -0.154 A  
HETATM   14  C   UNL     1      -8.704   6.519  70.009  1.00  0.00    -0.140 A  
HETATM   15  C   UNL     1      -9.318   7.753  73.549  1.00  0.00    -0.351 C  
HETATM   16  S   UNL     1      -7.844   5.249  70.782  1.00  0.00    -0.095 SA 
HETATM   17  C   UNL     1      -8.124   5.903  72.326  1.00  0.00    -0.107 A  
HETATM   18  C   UNL     1      -8.887   7.056  72.298  1.00  0.00    -0.143 A  
BRANCH  14  19
HETATM   19  C   UNL     1      -8.831   6.444  68.566  1.00  0.00    -0.119 C  
HETATM   20  O   UNL     1      -7.905   6.304  67.769  1.00  0.00    -0.103 OA 
BRANCH  19  21
HETATM   21  O   UNL     1     -10.133   6.605  68.174  1.00  0.00    -0.145 OA 
HETATM   22  C   UNL     1     -10.294   7.490  67.065  1.00  0.00    -0.324 C  
ENDBRANCH  19  21
ENDBRANCH  14  19
ENDBRANCH  11  13
ENDBRANCH   8  11
ENDBRANCH   6   8
ENDBRANCH   4   6
ENDBRANCH   3   4
ENDBRANCH   2   3
TORSDOF 8
ENDMDL
MODEL      167
REMARK 921   NORMALIZED FREE ENERGY PREDICTED BY IDOCK:   -3.82 KCAL/MOL
REMARK 922        TOTAL FREE ENERGY PREDICTED BY IDOCK:   -6.32 KCAL/MOL
REMARK 923 INTER-LIGAND FREE ENERGY PREDICTED BY IDOCK:   -5.63 KCAL/MOL
REMARK 924 INTRA-LIGAND FREE ENERGY PREDICTED BY IDOCK:   -0.69 KCAL/MOL
REMARK 927      BINDING AFFINITY PREDICTED BY RF-SCORE:    0.00 PKD
ROOT
HETATM    1  C   UNL     1     -10.063  19.383  68.260  1.00  0.00    -0.531 C  
HETATM    2  C   UNL     1     -10.581  18.916  66.905  1.00  0.00    -0.495 C  
ENDROOT
BRANCH   2   3
HETATM    3  C   UNL     1     -10.252  17.437  66.690  1.00  0.00    -0.324 C  
BRANCH   3   4
HETATM    4  N   UNL     1     -10.377  16.675  67.941  1.00  0.00    -0.298 NA 
HETATM    5  H   UNL     1     -11.313  16.761  68.338  1.00  0.00     0.000 HD 
BRANCH   4   6
HETATM    6  C   UNL     1      -9.994  15.247  67.747  1.00  0.00    -0.224 C  
HETATM    7  C   UNL     1      -8.851  14.807  68.669  1.00  0.00    -0.180 C  
BRANCH   6   8
HETATM    8  C   UNL     1     -11.197  14.384  68.134  1.00  0.00    -0.281 C  
HETATM    9  O   UNL     1     -12.211  15.138  68.623  1.00  0.00    -0.578 OA 
HETATM   10  H   UNL     1     -12.958  14.603  68.863  1.00  0.00     0.000 HD 
BRANCH   8  11
HETATM   11  N   UNL     1     -11.189  13.098  68.014  1.00  0.00    -0.262 NA 
HETATM   12  H   UNL     1     -11.381  12.496  68.815  1.00  0.00     0.000 HD 
BRANCH  11  13
HETATM   13  C   UNL     1     -10.909  12.548  66.747  1.00  0.00    -0.249 A  
HETATM   14  C   UNL     1      -9.828  11.696  66.552  1.00  0.00    -0.204 A  
HETATM   15  C   UNL     1     -12.673  13.899  65.335  1.00  0.00    -0.525 C  
HETATM   16  S   UNL     1      -9.641  11.310  64.889  1.00  0.00    -0.215 SA 
HETATM   17  C   UNL     1     -10.962  12.281  64.441  1.00  0.00    -0.329 A  
HETATM   18  C   UNL     1     -11.545  12.934  65.512  1.00  0.00    -0.395 A  
BRANCH  14  19
HETATM   19  C   UNL     1      -8.861  11.128  67.471  1.00  0.00    -0.139 C  
HETATM   20  O   UNL     1      -9.068  10.847  68.651  1.00  0.00    -0.162 OA 
BRANCH  19  21
HETATM   21  O   UNL     1      -7.635  10.985  66.877  1.00  0.00    -0.119 OA 
HETATM   22  C   UNL     1      -6.630  11.843  67.418  1.00  0.00    -0.124 C  
ENDBRANCH  19  21
ENDBRANCH  14  19
ENDBRANCH  11  13
ENDBRANCH   8  11
ENDBRANCH   6   8
ENDBRANCH   4   6
ENDBRANCH   3   4
ENDBRANCH   2   3
TORSDOF 8
ENDMDL
MODEL      168
REMARK 921   NORMALIZED FREE ENERGY PREDICTED BY IDOCK:   -3.82 KCAL/MOL
REMARK 922        TOTAL FREE ENERGY PREDICTED BY IDOCK:   -6.32 KCAL/MOL
REMARK 923 INTER-LIGAND FREE ENERGY PREDICTED BY IDOCK:   -5.24 KCAL/MOL
REMARK 924 INTRA-LIGAND FREE ENERGY PREDICTED BY IDOCK:   -1.08 KCAL/MOL
REMARK 927      BINDING AFFINITY PREDICTED BY RF-SCORE:    0.00 PKD
ROOT
HETATM    1  C   UNL     1     -11.878   8.467  71.090  1.00  0.00    -0.322 C  
HETATM    2  C   UNL     1     -12.021   9.950  71.409  1.00  0.00    -0.489 C  
ENDROOT
BRANCH   2   3
HETATM    3  C   UNL     1     -12.381  10.735  70.145  1.00  0.00    -0.325 C  
BRANCH   3   4
HETATM    4  N   UNL     1     -11.433  11.833  69.911  1.00  0.00    -0.478 NA 
HETATM    5  H   UNL     1     -10.563  11.692  70.425  1.00  0.00     0.000 HD 
BRANCH   4   6
HETATM    6  C   UNL     1     -11.182  12.033  68.455  1.00  0.00    -0.262 C  
HETATM    7  C   UNL     1     -11.976  13.204  67.867  1.00  0.00    -0.347 C  
BRANCH   6   8
HETATM    8  C   UNL     1      -9.706  12.401  68.282  1.00  0.00    -0.218 C  
HETATM    9  O   UNL     1      -9.387  13.511  68.989  1.00  0.00    -0.389 OA 
HETATM   10  H   UNL     1      -8.471  13.740  68.882  1.00  0.00     0.000 HD 
BRANCH   8  11
HETATM   11  N   UNL     1      -8.911  11.721  67.524  1.00  0.00    -0.163 NA 
HETATM   12  H   UNL     1      -8.176  12.184  66.988  1.00  0.00     0.000 HD 
BRANCH  11  13
HETATM   13  C   UNL     1      -9.085  10.324  67.456  1.00  0.00    -0.137 A  
HETATM   14  C   UNL     1      -9.602   9.714  66.319  1.00  0.00    -0.221 A  
HETATM   15  C   UNL     1      -8.515   9.739  69.959  1.00  0.00    -0.229 C  
HETATM   16  S   UNL     1      -9.847   8.034  66.580  1.00  0.00    -0.237 SA 
HETATM   17  C   UNL     1      -9.296   8.130  68.185  1.00  0.00    -0.133 A  
HETATM   18  C   UNL     1      -8.951   9.414  68.567  1.00  0.00    -0.128 A  
BRANCH  14  19
HETATM   19  C   UNL     1      -9.978  10.239  65.021  1.00  0.00    -0.323 C  
HETATM   20  O   UNL     1      -9.447   9.953  63.949  1.00  0.00    -0.273 OA 
BRANCH  19  21
HETATM   21  O   UNL     1     -10.985  11.160  65.131  1.00  0.00    -0.201 OA 
HETATM   22  C   UNL     1     -10.924  12.198  64.153  1.00  0.00    -0.361 C  
ENDBRANCH  19  21
ENDBRANCH  14  19
ENDBRANCH  11  13
ENDBRANCH   8  11
ENDBRANCH   6   8
ENDBRANCH   4   6
ENDBRANCH   3   4
ENDBRANCH   2   3
TORSDOF 8
ENDMDL
MODEL      169
REMARK 921   NORMALIZED FREE ENERGY PREDICTED BY IDOCK:   -3.82 KCAL/MOL
REMARK 922        TOTAL FREE ENERGY PREDICTED BY IDOCK:   -6.31 KCAL/MOL
REMARK 923 INTER-LIGAND FREE ENERGY PREDICTED BY IDOCK:   -5.03 KCAL/MOL
REMARK 924 INTRA-LIGAND FREE ENERGY PREDICTED BY IDOCK:   -1.28 KCAL/MOL
REMARK 927      BINDING AFFINITY PREDICTED BY RF-SCORE:    0.00 PKD
ROOT
HETATM    1  C   UNL     1      -9.610  10.562  63.438  1.00  0.00    -0.376 C  
HETATM    2  C   UNL     1     -10.018  11.879  64.087  1.00  0.00    -0.288 C  
ENDROOT
BRANCH   2   3
HETATM    3  C   UNL     1     -11.514  12.130  63.887  1.00  0.00    -0.440 C  
BRANCH   3   4
HETATM    4  N   UNL     1     -12.108  12.778  65.065  1.00  0.00    -0.415 NA 
HETATM    5  H   UNL     1     -12.435  12.091  65.745  1.00  0.00     0.000 HD 
BRANCH   4   6
HETATM    6  C   UNL     1     -11.163  13.753  65.683  1.00  0.00    -0.302 C  
HETATM    7  C   UNL     1     -11.150  15.107  64.967  1.00  0.00    -0.428 C  
BRANCH   6   8
HETATM    8  C   UNL     1     -11.652  14.038  67.105  1.00  0.00    -0.372 C  
HETATM    9  O   UNL     1     -12.642  14.963  67.113  1.00  0.00    -0.250 OA 
HETATM   10  H   UNL     1     -12.945  15.140  67.996  1.00  0.00     0.000 HD 
BRANCH   8  11
HETATM   11  N   UNL     1     -11.134  13.463  68.140  1.00  0.00    -0.247 NA 
HETATM   12  H   UNL     1     -11.692  13.286  68.975  1.00  0.00     0.000 HD 
BRANCH  11  13
HETATM   13  C   UNL     1      -9.777  13.085  68.084  1.00  0.00    -0.228 A  
HETATM   14  C   UNL     1      -9.402  11.775  67.810  1.00  0.00    -0.181 A  
HETATM   15  C   UNL     1      -8.709  15.338  68.930  1.00  0.00    -0.208 C  
HETATM   16  S   UNL     1      -7.703  11.577  67.961  1.00  0.00    -0.127 SA 
HETATM   17  C   UNL     1      -7.481  13.203  68.405  1.00  0.00    -0.124 A  
HETATM   18  C   UNL     1      -8.665  13.913  68.482  1.00  0.00    -0.134 A  
BRANCH  14  19
HETATM   19  C   UNL     1     -10.172  10.597  67.462  1.00  0.00    -0.199 C  
HETATM   20  O   UNL     1     -11.390  10.559  67.289  1.00  0.00    -0.359 OA 
BRANCH  19  21
HETATM   21  O   UNL     1      -9.376   9.484  67.397  1.00  0.00    -0.129 OA 
HETATM   22  C   UNL     1     -10.094   8.256  67.517  1.00  0.00    -0.225 C  
ENDBRANCH  19  21
ENDBRANCH  14  19
ENDBRANCH  11  13
ENDBRANCH   8  11
ENDBRANCH   6   8
ENDBRANCH   4   6
ENDBRANCH   3   4
ENDBRANCH   2   3
TORSDOF 8
ENDMDL
MODEL      170
REMARK 921   NORMALIZED FREE ENERGY PREDICTED BY IDOCK:   -3.82 KCAL/MOL
REMARK 922        TOTAL FREE ENERGY PREDICTED BY IDOCK:   -6.31 KCAL/MOL
REMARK 923 INTER-LIGAND FREE ENERGY PREDICTED BY IDOCK:   -5.57 KCAL/MOL
REMARK 924 INTRA-LIGAND FREE ENERGY PREDICTED BY IDOCK:   -0.74 KCAL/MOL
REMARK 927      BINDING AFFINITY PREDICTED BY RF-SCORE:    0.00 PKD
ROOT
HETATM    1  C   UNL     1      -9.888  18.477  68.697  1.00  0.00    -0.419 C  
HETATM    2  C   UNL     1      -9.632  17.027  68.306  1.00  0.00    -0.273 C  
ENDROOT
BRANCH   2   3
HETATM    3  C   UNL     1     -10.957  16.280  68.137  1.00  0.00    -0.343 C  
BRANCH   3   4
HETATM    4  N   UNL     1     -10.786  15.068  67.323  1.00  0.00    -0.291 NA 
HETATM    5  H   UNL     1      -9.941  14.558  67.585  1.00  0.00     0.000 HD 
BRANCH   4   6
HETATM    6  C   UNL     1     -11.993  14.195  67.389  1.00  0.00    -0.404 C  
HETATM    7  C   UNL     1     -12.651  13.983  66.021  1.00  0.00    -0.452 C  
BRANCH   6   8
HETATM    8  C   UNL     1     -11.542  12.808  67.853  1.00  0.00    -0.351 C  
HETATM    9  O   UNL     1     -12.115  11.828  67.115  1.00  0.00    -0.592 OA 
HETATM   10  H   UNL     1     -11.835  10.967  67.403  1.00  0.00     0.000 HD 
BRANCH   8  11
HETATM   11  N   UNL     1     -10.734  12.644  68.848  1.00  0.00    -0.375 NA 
HETATM   12  H   UNL     1     -10.161  13.416  69.191  1.00  0.00     0.000 HD 
BRANCH  11  13
HETATM   13  C   UNL     1     -10.664  11.371  69.447  1.00  0.00    -0.104 A  
HETATM   14  C   UNL     1      -9.776  10.404  68.991  1.00  0.00    -0.206 A  
HETATM   15  C   UNL     1     -12.733  11.585  71.062  1.00  0.00    -0.426 C  
HETATM   16  S   UNL     1     -10.022   8.910  69.801  1.00  0.00    -0.198 SA 
HETATM   17  C   UNL     1     -11.303   9.539  70.724  1.00  0.00    -0.321 A  
HETATM   18  C   UNL     1     -11.593  10.858  70.424  1.00  0.00    -0.418 A  
BRANCH  14  19
HETATM   19  C   UNL     1      -8.744  10.437  67.972  1.00  0.00    -0.123 C  
HETATM   20  O   UNL     1      -8.894  10.808  66.809  1.00  0.00    -0.138 OA 
BRANCH  19  21
HETATM   21  O   UNL     1      -7.559   9.943  68.449  1.00  0.00    -0.082 OA 
HETATM   22  C   UNL     1      -6.575  10.947  68.695  1.00  0.00    -0.057 C  
ENDBRANCH  19  21
ENDBRANCH  14  19
ENDBRANCH  11  13
ENDBRANCH   8  11
ENDBRANCH   6   8
ENDBRANCH   4   6
ENDBRANCH   3   4
ENDBRANCH   2   3
TORSDOF 8
ENDMDL
MODEL      171
REMARK 921   NORMALIZED FREE ENERGY PREDICTED BY IDOCK:   -3.82 KCAL/MOL
REMARK 922        TOTAL FREE ENERGY PREDICTED BY IDOCK:   -6.31 KCAL/MOL
REMARK 923 INTER-LIGAND FREE ENERGY PREDICTED BY IDOCK:   -5.53 KCAL/MOL
REMARK 924 INTRA-LIGAND FREE ENERGY PREDICTED BY IDOCK:   -0.78 KCAL/MOL
REMARK 927      BINDING AFFINITY PREDICTED BY RF-SCORE:    0.00 PKD
ROOT
HETATM    1  C   UNL     1      -6.207   9.739  66.925  1.00  0.00    -0.064 C  
HETATM    2  C   UNL     1      -7.498   9.852  67.727  1.00  0.00    -0.090 C  
ENDROOT
BRANCH   2   3
HETATM    3  C   UNL     1      -7.478  11.111  68.595  1.00  0.00    -0.119 C  
BRANCH   3   4
HETATM    4  N   UNL     1      -8.808  11.734  68.663  1.00  0.00    -0.336 NA 
HETATM    5  H   UNL     1      -9.184  11.709  69.612  1.00  0.00     0.000 HD 
BRANCH   4   6
HETATM    6  C   UNL     1      -8.786  13.122  68.120  1.00  0.00    -0.194 C  
HETATM    7  C   UNL     1      -7.446  13.489  67.473  1.00  0.00    -0.177 C  
BRANCH   6   8
HETATM    8  C   UNL     1      -9.825  13.200  66.998  1.00  0.00    -0.244 C  
HETATM    9  O   UNL     1      -9.368  12.627  65.859  1.00  0.00    -0.426 OA 
HETATM   10  H   UNL     1     -10.013  12.676  65.163  1.00  0.00     0.000 HD 
BRANCH   8  11
HETATM   11  N   UNL     1     -10.971  13.776  67.160  1.00  0.00    -0.286 NA 
HETATM   12  H   UNL     1     -11.580  13.960  66.362  1.00  0.00     0.000 HD 
BRANCH  11  13
HETATM   13  C   UNL     1     -11.355  14.141  68.465  1.00  0.00    -0.283 A  
HETATM   14  C   UNL     1     -11.902  13.214  69.344  1.00  0.00    -0.326 A  
HETATM   15  C   UNL     1     -11.013  16.744  68.259  1.00  0.00    -0.327 C  
HETATM   16  S   UNL     1     -12.417  13.972  70.796  1.00  0.00    -0.382 SA 
HETATM   17  C   UNL     1     -11.941  15.509  70.248  1.00  0.00    -0.374 A  
HETATM   18  C   UNL     1     -11.422  15.492  68.966  1.00  0.00    -0.361 A  
BRANCH  14  19
HETATM   19  C   UNL     1     -12.123  11.785  69.234  1.00  0.00    -0.229 C  
HETATM   20  O   UNL     1     -12.115  11.134  68.190  1.00  0.00    -0.633 OA 
BRANCH  19  21
HETATM   21  O   UNL     1     -12.406  11.231  70.454  1.00  0.00    -0.320 OA 
HETATM   22  C   UNL     1     -11.643  10.059  70.744  1.00  0.00    -0.360 C  
ENDBRANCH  19  21
ENDBRANCH  14  19
ENDBRANCH  11  13
ENDBRANCH   8  11
ENDBRANCH   6   8
ENDBRANCH   4   6
ENDBRANCH   3   4
ENDBRANCH   2   3
TORSDOF 8
ENDMDL
MODEL      172
REMARK 921   NORMALIZED FREE ENERGY PREDICTED BY IDOCK:   -3.81 KCAL/MOL
REMARK 922        TOTAL FREE ENERGY PREDICTED BY IDOCK:   -6.31 KCAL/MOL
REMARK 923 INTER-LIGAND FREE ENERGY PREDICTED BY IDOCK:   -5.63 KCAL/MOL
REMARK 924 INTRA-LIGAND FREE ENERGY PREDICTED BY IDOCK:   -0.68 KCAL/MOL
REMARK 927      BINDING AFFINITY PREDICTED BY RF-SCORE:    0.00 PKD
ROOT
HETATM    1  C   UNL     1      -9.700  19.867  68.194  1.00  0.00    -0.497 C  
HETATM    2  C   UNL     1      -9.663  19.060  66.902  1.00  0.00    -0.372 C  
ENDROOT
BRANCH   2   3
HETATM    3  C   UNL     1      -8.496  18.070  66.926  1.00  0.00    -0.249 C  
BRANCH   3   4
HETATM    4  N   UNL     1      -8.652  17.036  65.892  1.00  0.00    -0.525 NA 
HETATM    5  H   UNL     1      -7.798  16.489  65.779  1.00  0.00     0.000 HD 
BRANCH   4   6
HETATM    6  C   UNL     1      -9.828  16.163  66.171  1.00  0.00    -0.333 C  
HETATM    7  C   UNL     1     -10.773  16.034  64.972  1.00  0.00    -0.400 C  
BRANCH   6   8
HETATM    8  C   UNL     1      -9.306  14.751  66.445  1.00  0.00    -0.291 C  
HETATM    9  O   UNL     1      -9.379  13.973  65.337  1.00  0.00    -0.480 OA 
HETATM   10  H   UNL     1      -9.055  13.096  65.507  1.00  0.00     0.000 HD 
BRANCH   8  11
HETATM   11  N   UNL     1      -8.884  14.385  67.610  1.00  0.00    -0.184 NA 
HETATM   12  H   UNL     1      -8.702  15.074  68.340  1.00  0.00     0.000 HD 
BRANCH  11  13
HETATM   13  C   UNL     1      -8.683  13.011  67.846  1.00  0.00    -0.189 A  
HETATM   14  C   UNL     1      -9.723  12.190  68.267  1.00  0.00    -0.216 A  
HETATM   15  C   UNL     1      -6.065  12.948  67.579  1.00  0.00    -0.143 C  
HETATM   16  S   UNL     1      -9.153  10.610  68.623  1.00  0.00    -0.176 SA 
HETATM   17  C   UNL     1      -7.549  11.025  68.244  1.00  0.00    -0.106 A  
HETATM   18  C   UNL     1      -7.402  12.350  67.878  1.00  0.00    -0.112 A  
BRANCH  14  19
HETATM   19  C   UNL     1     -11.136  12.441  68.474  1.00  0.00    -0.258 C  
HETATM   20  O   UNL     1     -11.617  13.177  69.334  1.00  0.00    -0.280 OA 
BRANCH  19  21
HETATM   21  O   UNL     1     -11.903  11.703  67.612  1.00  0.00    -0.575 OA 
HETATM   22  C   UNL     1     -11.876  12.180  66.267  1.00  0.00    -0.246 C  
ENDBRANCH  19  21
ENDBRANCH  14  19
ENDBRANCH  11  13
ENDBRANCH   8  11
ENDBRANCH   6   8
ENDBRANCH   4   6
ENDBRANCH   3   4
ENDBRANCH   2   3
TORSDOF 8
ENDMDL
MODEL      173
REMARK 921   NORMALIZED FREE ENERGY PREDICTED BY IDOCK:   -3.81 KCAL/MOL
REMARK 922        TOTAL FREE ENERGY PREDICTED BY IDOCK:   -6.30 KCAL/MOL
REMARK 923 INTER-LIGAND FREE ENERGY PREDICTED BY IDOCK:   -5.36 KCAL/MOL
REMARK 924 INTRA-LIGAND FREE ENERGY PREDICTED BY IDOCK:   -0.94 KCAL/MOL
REMARK 927      BINDING AFFINITY PREDICTED BY RF-SCORE:    0.00 PKD
ROOT
HETATM    1  C   UNL     1     -10.641   5.517  67.308  1.00  0.00    -0.294 C  
HETATM    2  C   UNL     1     -11.128   6.960  67.345  1.00  0.00    -0.322 C  
ENDROOT
BRANCH   2   3
HETATM    3  C   UNL     1     -10.012   7.910  66.904  1.00  0.00    -0.262 C  
BRANCH   3   4
HETATM    4  N   UNL     1     -10.319   9.300  67.270  1.00  0.00    -0.250 NA 
HETATM    5  H   UNL     1     -11.146   9.642  66.779  1.00  0.00     0.000 HD 
BRANCH   4   6
HETATM    6  C   UNL     1     -10.456   9.456  68.746  1.00  0.00    -0.212 C  
HETATM    7  C   UNL     1      -9.106   9.529  69.467  1.00  0.00    -0.193 C  
BRANCH   6   8
HETATM    8  C   UNL     1     -11.143  10.797  69.013  1.00  0.00    -0.253 C  
HETATM    9  O   UNL     1     -12.478  10.723  68.790  1.00  0.00    -0.793 OA 
HETATM   10  H   UNL     1     -12.904  11.556  68.955  1.00  0.00     0.000 HD 
BRANCH   8  11
HETATM   11  N   UNL     1     -10.486  11.848  69.377  1.00  0.00    -0.427 NA 
HETATM   12  H   UNL     1      -9.952  11.856  70.247  1.00  0.00     0.000 HD 
BRANCH  11  13
HETATM   13  C   UNL     1     -10.524  12.982  68.542  1.00  0.00    -0.249 A  
HETATM   14  C   UNL     1      -9.624  13.139  67.494  1.00  0.00    -0.208 A  
HETATM   15  C   UNL     1     -12.321  14.381  69.864  1.00  0.00    -0.365 C  
HETATM   16  S   UNL     1      -9.805  14.677  66.753  1.00  0.00    -0.264 SA 
HETATM   17  C   UNL     1     -11.043  15.129  67.827  1.00  0.00    -0.313 A  
HETATM   18  C   UNL     1     -11.321  14.161  68.774  1.00  0.00    -0.308 A  
BRANCH  14  19
HETATM   19  C   UNL     1      -8.589  12.272  66.965  1.00  0.00    -0.191 C  
HETATM   20  O   UNL     1      -7.400  12.299  67.278  1.00  0.00    -0.141 OA 
BRANCH  19  21
HETATM   21  O   UNL     1      -9.088  11.429  66.008  1.00  0.00    -0.205 OA 
HETATM   22  C   UNL     1      -8.090  10.637  65.363  1.00  0.00    -0.106 C  
ENDBRANCH  19  21
ENDBRANCH  14  19
ENDBRANCH  11  13
ENDBRANCH   8  11
ENDBRANCH   6   8
ENDBRANCH   4   6
ENDBRANCH   3   4
ENDBRANCH   2   3
TORSDOF 8
ENDMDL
MODEL      174
REMARK 921   NORMALIZED FREE ENERGY PREDICTED BY IDOCK:   -3.80 KCAL/MOL
REMARK 922        TOTAL FREE ENERGY PREDICTED BY IDOCK:   -6.29 KCAL/MOL
REMARK 923 INTER-LIGAND FREE ENERGY PREDICTED BY IDOCK:   -5.01 KCAL/MOL
REMARK 924 INTRA-LIGAND FREE ENERGY PREDICTED BY IDOCK:   -1.28 KCAL/MOL
REMARK 927      BINDING AFFINITY PREDICTED BY RF-SCORE:    0.00 PKD
ROOT
HETATM    1  C   UNL     1     -12.605  13.814  65.815  1.00  0.00    -0.525 C  
HETATM    2  C   UNL     1     -11.477  14.569  66.509  1.00  0.00    -0.366 C  
ENDROOT
BRANCH   2   3
HETATM    3  C   UNL     1     -10.136  13.881  66.248  1.00  0.00    -0.300 C  
BRANCH   3   4
HETATM    4  N   UNL     1     -10.267  12.418  66.309  1.00  0.00    -0.234 NA 
HETATM    5  H   UNL     1     -10.605  12.036  65.424  1.00  0.00     0.000 HD 
BRANCH   4   6
HETATM    6  C   UNL     1      -8.989  11.775  66.729  1.00  0.00    -0.196 C  
HETATM    7  C   UNL     1      -8.315  12.498  67.901  1.00  0.00    -0.167 C  
BRANCH   6   8
HETATM    8  C   UNL     1      -9.318  10.371  67.240  1.00  0.00    -0.146 C  
HETATM    9  O   UNL     1      -8.211   9.591  67.296  1.00  0.00    -0.113 OA 
HETATM   10  H   UNL     1      -8.416   8.719  67.613  1.00  0.00     0.000 HD 
BRANCH   8  11
HETATM   11  N   UNL     1     -10.522  10.013  67.543  1.00  0.00    -0.236 NA 
HETATM   12  H   UNL     1     -11.232   9.898  66.818  1.00  0.00     0.000 HD 
BRANCH  11  13
HETATM   13  C   UNL     1     -10.829   9.785  68.899  1.00  0.00    -0.192 A  
HETATM   14  C   UNL     1     -10.678   8.528  69.474  1.00  0.00    -0.174 A  
HETATM   15  C   UNL     1     -11.904  12.123  69.454  1.00  0.00    -0.370 C  
HETATM   16  S   UNL     1     -11.273   8.512  71.084  1.00  0.00    -0.280 SA 
HETATM   17  C   UNL     1     -11.744  10.144  71.003  1.00  0.00    -0.382 A  
HETATM   18  C   UNL     1     -11.498  10.720  69.770  1.00  0.00    -0.386 A  
BRANCH  14  19
HETATM   19  C   UNL     1     -10.151   7.281  68.955  1.00  0.00    -0.186 C  
HETATM   20  O   UNL     1      -8.966   6.953  68.935  1.00  0.00    -0.132 OA 
BRANCH  19  21
HETATM   21  O   UNL     1     -11.147   6.505  68.423  1.00  0.00    -0.293 OA 
HETATM   22  C   UNL     1     -11.139   6.458  66.996  1.00  0.00    -0.329 C  
ENDBRANCH  19  21
ENDBRANCH  14  19
ENDBRANCH  11  13
ENDBRANCH   8  11
ENDBRANCH   6   8
ENDBRANCH   4   6
ENDBRANCH   3   4
ENDBRANCH   2   3
TORSDOF 8
ENDMDL
MODEL      175
REMARK 921   NORMALIZED FREE ENERGY PREDICTED BY IDOCK:   -3.79 KCAL/MOL
REMARK 922        TOTAL FREE ENERGY PREDICTED BY IDOCK:   -6.28 KCAL/MOL
REMARK 923 INTER-LIGAND FREE ENERGY PREDICTED BY IDOCK:   -5.51 KCAL/MOL
REMARK 924 INTRA-LIGAND FREE ENERGY PREDICTED BY IDOCK:   -0.77 KCAL/MOL
REMARK 927      BINDING AFFINITY PREDICTED BY RF-SCORE:    0.00 PKD
ROOT
HETATM    1  C   UNL     1      -9.360   7.728  71.127  1.00  0.00    -0.164 C  
HETATM    2  C   UNL     1      -9.051   9.193  70.844  1.00  0.00    -0.316 C  
ENDROOT
BRANCH   2   3
HETATM    3  C   UNL     1     -10.055   9.765  69.842  1.00  0.00    -0.251 C  
BRANCH   3   4
HETATM    4  N   UNL     1      -9.644  11.097  69.375  1.00  0.00    -0.408 NA 
HETATM    5  H   UNL     1      -8.729  11.356  69.744  1.00  0.00     0.000 HD 
BRANCH   4   6
HETATM    6  C   UNL     1      -9.678  11.185  67.887  1.00  0.00    -0.174 C  
HETATM    7  C   UNL     1     -11.082  10.976  67.309  1.00  0.00    -0.359 C  
BRANCH   6   8
HETATM    8  C   UNL     1      -9.274  12.608  67.494  1.00  0.00    -0.190 C  
HETATM    9  O   UNL     1      -8.359  12.605  66.495  1.00  0.00    -0.411 OA 
HETATM   10  H   UNL     1      -8.108  13.488  66.251  1.00  0.00     0.000 HD 
BRANCH   8  11
HETATM   11  N   UNL     1      -9.754  13.650  68.089  1.00  0.00    -0.224 NA 
HETATM   12  H   UNL     1     -10.515  13.563  68.764  1.00  0.00     0.000 HD 
BRANCH  11  13
HETATM   13  C   UNL     1      -9.198  14.908  67.783  1.00  0.00    -0.186 A  
HETATM   14  C   UNL     1      -9.673  15.669  66.721  1.00  0.00    -0.241 A  
HETATM   15  C   UNL     1      -7.170  14.859  69.461  1.00  0.00    -0.184 C  
HETATM   16  S   UNL     1      -8.710  17.071  66.490  1.00  0.00    -0.274 SA 
HETATM   17  C   UNL     1      -7.669  16.655  67.768  1.00  0.00    -0.163 A  
HETATM   18  C   UNL     1      -7.998  15.453  68.368  1.00  0.00    -0.131 A  
BRANCH  14  19
HETATM   19  C   UNL     1     -10.776  15.470  65.800  1.00  0.00    -0.353 C  
HETATM   20  O   UNL     1     -10.888  15.987  64.690  1.00  0.00    -0.608 OA 
BRANCH  19  21
HETATM   21  O   UNL     1     -11.736  14.658  66.344  1.00  0.00    -0.369 OA 
HETATM   22  C   UNL     1     -12.445  13.881  65.380  1.00  0.00    -0.501 C  
ENDBRANCH  19  21
ENDBRANCH  14  19
ENDBRANCH  11  13
ENDBRANCH   8  11
ENDBRANCH   6   8
ENDBRANCH   4   6
ENDBRANCH   3   4
ENDBRANCH   2   3
TORSDOF 8
ENDMDL
MODEL      176
REMARK 921   NORMALIZED FREE ENERGY PREDICTED BY IDOCK:   -3.78 KCAL/MOL
REMARK 922        TOTAL FREE ENERGY PREDICTED BY IDOCK:   -6.25 KCAL/MOL
REMARK 923 INTER-LIGAND FREE ENERGY PREDICTED BY IDOCK:   -4.99 KCAL/MOL
REMARK 924 INTRA-LIGAND FREE ENERGY PREDICTED BY IDOCK:   -1.26 KCAL/MOL
REMARK 927      BINDING AFFINITY PREDICTED BY RF-SCORE:    0.00 PKD
ROOT
HETATM    1  C   UNL     1      -7.026   7.267  69.396  1.00  0.00    -0.062 C  
HETATM    2  C   UNL     1      -7.229   8.692  68.896  1.00  0.00    -0.077 C  
ENDROOT
BRANCH   2   3
HETATM    3  C   UNL     1      -8.668   9.146  69.149  1.00  0.00    -0.138 C  
BRANCH   3   4
HETATM    4  N   UNL     1      -9.079  10.178  68.187  1.00  0.00    -0.127 NA 
HETATM    5  H   UNL     1      -8.477  11.000  68.242  1.00  0.00     0.000 HD 
BRANCH   4   6
HETATM    6  C   UNL     1      -9.138   9.635  66.800  1.00  0.00    -0.146 C  
HETATM    7  C   UNL     1     -10.122   8.469  66.657  1.00  0.00    -0.364 C  
BRANCH   6   8
HETATM    8  C   UNL     1      -9.671  10.743  65.887  1.00  0.00    -0.224 C  
HETATM    9  O   UNL     1      -8.782  11.050  64.912  1.00  0.00    -0.332 OA 
HETATM   10  H   UNL     1      -9.113  11.738  64.345  1.00  0.00     0.000 HD 
BRANCH   8  11
HETATM   11  N   UNL     1     -10.819  11.302  66.081  1.00  0.00    -0.253 NA 
HETATM   12  H   UNL     1     -11.602  10.770  66.463  1.00  0.00     0.000 HD 
BRANCH  11  13
HETATM   13  C   UNL     1     -10.962  12.664  65.750  1.00  0.00    -0.280 A  
HETATM   14  C   UNL     1     -10.670  13.665  66.669  1.00  0.00    -0.280 A  
HETATM   15  C   UNL     1     -12.114  12.378  63.400  1.00  0.00    -0.620 C  
HETATM   16  S   UNL     1     -11.084  15.211  66.047  1.00  0.00    -0.273 SA 
HETATM   17  C   UNL     1     -11.662  14.550  64.591  1.00  0.00    -0.431 A  
HETATM   18  C   UNL     1     -11.589  13.170  64.554  1.00  0.00    -0.406 A  
BRANCH  14  19
HETATM   19  C   UNL     1     -10.126  13.622  68.013  1.00  0.00    -0.250 C  
HETATM   20  O   UNL     1      -9.189  14.298  68.432  1.00  0.00    -0.188 OA 
BRANCH  19  21
HETATM   21  O   UNL     1     -10.758  12.674  68.773  1.00  0.00    -0.235 OA 
HETATM   22  C   UNL     1     -11.752  13.208  69.648  1.00  0.00    -0.303 C  
ENDBRANCH  19  21
ENDBRANCH  14  19
ENDBRANCH  11  13
ENDBRANCH   8  11
ENDBRANCH   6   8
ENDBRANCH   4   6
ENDBRANCH   3   4
ENDBRANCH   2   3
TORSDOF 8
ENDMDL
MODEL      177
REMARK 921   NORMALIZED FREE ENERGY PREDICTED BY IDOCK:   -3.78 KCAL/MOL
REMARK 922        TOTAL FREE ENERGY PREDICTED BY IDOCK:   -6.25 KCAL/MOL
REMARK 923 INTER-LIGAND FREE ENERGY PREDICTED BY IDOCK:   -5.20 KCAL/MOL
REMARK 924 INTRA-LIGAND FREE ENERGY PREDICTED BY IDOCK:   -1.05 KCAL/MOL
REMARK 927      BINDING AFFINITY PREDICTED BY RF-SCORE:    0.00 PKD
ROOT
HETATM    1  C   UNL     1      -7.439   5.811  70.138  1.00  0.00    -0.081 C  
HETATM    2  C   UNL     1      -8.539   6.618  69.459  1.00  0.00    -0.132 C  
ENDROOT
BRANCH   2   3
HETATM    3  C   UNL     1      -9.622   6.999  70.470  1.00  0.00    -0.169 C  
BRANCH   3   4
HETATM    4  N   UNL     1     -10.085   8.379  70.263  1.00  0.00    -0.186 NA 
HETATM    5  H   UNL     1     -10.014   8.653  69.282  1.00  0.00     0.000 HD 
BRANCH   4   6
HETATM    6  C   UNL     1     -11.467   8.573  70.787  1.00  0.00    -0.253 C  
HETATM    7  C   UNL     1     -11.544   8.480  72.315  1.00  0.00    -0.444 C  
BRANCH   6   8
HETATM    8  C   UNL     1     -11.905   9.996  70.434  1.00  0.00    -0.262 C  
HETATM    9  O   UNL     1     -13.253  10.091  70.340  1.00  0.00    -0.603 OA 
HETATM   10  H   UNL     1     -13.525  10.974  70.121  1.00  0.00     0.000 HD 
BRANCH   8  11
HETATM   11  N   UNL     1     -11.055  10.948  70.233  1.00  0.00    -0.467 NA 
HETATM   12  H   UNL     1     -10.112  10.898  70.619  1.00  0.00     0.000 HD 
BRANCH  11  13
HETATM   13  C   UNL     1     -11.465  12.057  69.466  1.00  0.00    -0.282 A  
HETATM   14  C   UNL     1     -11.144  12.162  68.117  1.00  0.00    -0.248 A  
HETATM   15  C   UNL     1     -12.448  13.535  71.410  1.00  0.00    -0.347 C  
HETATM   16  S   UNL     1     -11.635  13.681  67.484  1.00  0.00    -0.372 SA 
HETATM   17  C   UNL     1     -12.241  14.192  68.988  1.00  0.00    -0.239 A  
HETATM   18  C   UNL     1     -12.060  13.260  69.993  1.00  0.00    -0.385 A  
BRANCH  14  19
HETATM   19  C   UNL     1     -10.471  11.257  67.206  1.00  0.00    -0.214 C  
HETATM   20  O   UNL     1     -10.712  11.132  66.007  1.00  0.00    -0.259 OA 
BRANCH  19  21
HETATM   21  O   UNL     1      -9.542  10.493  67.862  1.00  0.00    -0.148 OA 
HETATM   22  C   UNL     1      -8.198  10.746  67.454  1.00  0.00    -0.116 C  
ENDBRANCH  19  21
ENDBRANCH  14  19
ENDBRANCH  11  13
ENDBRANCH   8  11
ENDBRANCH   6   8
ENDBRANCH   4   6
ENDBRANCH   3   4
ENDBRANCH   2   3
TORSDOF 8
ENDMDL
MODEL      178
REMARK 921   NORMALIZED FREE ENERGY PREDICTED BY IDOCK:   -3.78 KCAL/MOL
REMARK 922        TOTAL FREE ENERGY PREDICTED BY IDOCK:   -6.25 KCAL/MOL
REMARK 923 INTER-LIGAND FREE ENERGY PREDICTED BY IDOCK:   -5.25 KCAL/MOL
REMARK 924 INTRA-LIGAND FREE ENERGY PREDICTED BY IDOCK:   -1.00 KCAL/MOL
REMARK 927      BINDING AFFINITY PREDICTED BY RF-SCORE:    0.00 PKD
ROOT
HETATM    1  C   UNL     1     -13.090  10.301  71.721  1.00  0.00    -0.570 C  
HETATM    2  C   UNL     1     -13.454   9.036  72.488  1.00  0.00    -0.485 C  
ENDROOT
BRANCH   2   3
HETATM    3  C   UNL     1     -12.822   7.811  71.825  1.00  0.00    -0.327 C  
BRANCH   3   4
HETATM    4  N   UNL     1     -12.211   8.158  70.534  1.00  0.00    -0.469 NA 
HETATM    5  H   UNL     1     -12.198   9.168  70.387  1.00  0.00     0.000 HD 
BRANCH   4   6
HETATM    6  C   UNL     1     -10.847   7.569  70.403  1.00  0.00    -0.244 C  
HETATM    7  C   UNL     1     -10.271   7.094  71.741  1.00  0.00    -0.212 C  
BRANCH   6   8
HETATM    8  C   UNL     1     -10.963   6.316  69.532  1.00  0.00    -0.379 C  
HETATM    9  O   UNL     1     -10.593   5.204  70.212  1.00  0.00    -0.262 OA 
HETATM   10  H   UNL     1     -10.664   4.426  69.671  1.00  0.00     0.000 HD 
BRANCH   8  11
HETATM   11  N   UNL     1     -11.345   6.367  68.298  1.00  0.00    -0.520 NA 
HETATM   12  H   UNL     1     -12.295   6.106  68.033  1.00  0.00     0.000 HD 
BRANCH  11  13
HETATM   13  C   UNL     1     -10.415   6.794  67.329  1.00  0.00    -0.282 A  
HETATM   14  C   UNL     1      -9.516   5.906  66.749  1.00  0.00    -0.142 A  
HETATM   15  C   UNL     1     -10.850   9.386  67.485  1.00  0.00    -0.208 C  
HETATM   16  S   UNL     1      -8.409   6.730  65.728  1.00  0.00    -0.144 SA 
HETATM   17  C   UNL     1      -9.103   8.242  66.075  1.00  0.00    -0.176 A  
HETATM   18  C   UNL     1     -10.147   8.167  66.980  1.00  0.00    -0.350 A  
BRANCH  14  19
HETATM   19  C   UNL     1      -9.349   4.471  66.878  1.00  0.00    -0.145 C  
HETATM   20  O   UNL     1      -9.522   3.643  65.984  1.00  0.00    -0.171 OA 
BRANCH  19  21
HETATM   21  O   UNL     1      -9.018   4.123  68.160  1.00  0.00    -0.104 OA 
HETATM   22  C   UNL     1      -7.677   3.653  68.300  1.00  0.00    -0.061 C  
ENDBRANCH  19  21
ENDBRANCH  14  19
ENDBRANCH  11  13
ENDBRANCH   8  11
ENDBRANCH   6   8
ENDBRANCH   4   6
ENDBRANCH   3   4
ENDBRANCH   2   3
TORSDOF 8
ENDMDL
MODEL      179
REMARK 921   NORMALIZED FREE ENERGY PREDICTED BY IDOCK:   -3.77 KCAL/MOL
REMARK 922        TOTAL FREE ENERGY PREDICTED BY IDOCK:   -6.25 KCAL/MOL
REMARK 923 INTER-LIGAND FREE ENERGY PREDICTED BY IDOCK:   -5.14 KCAL/MOL
REMARK 924 INTRA-LIGAND FREE ENERGY PREDICTED BY IDOCK:   -1.10 KCAL/MOL
REMARK 927      BINDING AFFINITY PREDICTED BY RF-SCORE:    0.00 PKD
ROOT
HETATM    1  C   UNL     1     -11.270  15.853  70.106  1.00  0.00    -0.368 C  
HETATM    2  C   UNL     1     -11.288  14.347  70.341  1.00  0.00    -0.148 C  
ENDROOT
BRANCH   2   3
HETATM    3  C   UNL     1     -12.114  13.650  69.258  1.00  0.00    -0.314 C  
BRANCH   3   4
HETATM    4  N   UNL     1     -12.358  14.542  68.115  1.00  0.00    -0.588 NA 
HETATM    5  H   UNL     1     -12.011  15.484  68.296  1.00  0.00     0.000 HD 
BRANCH   4   6
HETATM    6  C   UNL     1     -11.789  13.981  66.857  1.00  0.00    -0.430 C  
HETATM    7  C   UNL     1     -12.765  14.050  65.678  1.00  0.00    -0.515 C  
BRANCH   6   8
HETATM    8  C   UNL     1     -10.592  14.848  66.459  1.00  0.00    -0.306 C  
HETATM    9  O   UNL     1     -10.875  16.168  66.582  1.00  0.00    -0.268 OA 
HETATM   10  H   UNL     1     -10.132  16.706  66.334  1.00  0.00     0.000 HD 
BRANCH   8  11
HETATM   11  N   UNL     1      -9.482  14.339  66.038  1.00  0.00    -0.499 NA 
HETATM   12  H   UNL     1      -9.105  14.588  65.123  1.00  0.00     0.000 HD 
BRANCH  11  13
HETATM   13  C   UNL     1      -8.805  13.432  66.877  1.00  0.00    -0.176 A  
HETATM   14  C   UNL     1      -7.844  13.863  67.784  1.00  0.00    -0.168 A  
HETATM   15  C   UNL     1      -9.711  11.189  65.838  1.00  0.00    -0.268 C  
HETATM   16  S   UNL     1      -7.080  12.531  68.552  1.00  0.00    -0.112 SA 
HETATM   17  C   UNL     1      -7.999  11.404  67.672  1.00  0.00    -0.123 A  
HETATM   18  C   UNL     1      -8.865  11.995  66.769  1.00  0.00    -0.198 A  
BRANCH  14  19
HETATM   19  C   UNL     1      -7.381  15.188  68.152  1.00  0.00    -0.112 C  
HETATM   20  O   UNL     1      -7.350  15.648  69.292  1.00  0.00    -0.177 OA 
BRANCH  19  21
HETATM   21  O   UNL     1      -7.022  15.913  67.046  1.00  0.00    -0.205 OA 
HETATM   22  C   UNL     1      -5.909  16.779  67.264  1.00  0.00    -0.170 C  
ENDBRANCH  19  21
ENDBRANCH  14  19
ENDBRANCH  11  13
ENDBRANCH   8  11
ENDBRANCH   6   8
ENDBRANCH   4   6
ENDBRANCH   3   4
ENDBRANCH   2   3
TORSDOF 8
ENDMDL
MODEL      180
REMARK 921   NORMALIZED FREE ENERGY PREDICTED BY IDOCK:   -3.77 KCAL/MOL
REMARK 922        TOTAL FREE ENERGY PREDICTED BY IDOCK:   -6.24 KCAL/MOL
REMARK 923 INTER-LIGAND FREE ENERGY PREDICTED BY IDOCK:   -5.22 KCAL/MOL
REMARK 924 INTRA-LIGAND FREE ENERGY PREDICTED BY IDOCK:   -1.02 KCAL/MOL
REMARK 927      BINDING AFFINITY PREDICTED BY RF-SCORE:    0.00 PKD
ROOT
HETATM    1  C   UNL     1     -10.833  15.472  70.451  1.00  0.00    -0.356 C  
HETATM    2  C   UNL     1     -11.550  14.127  70.437  1.00  0.00    -0.236 C  
ENDROOT
BRANCH   2   3
HETATM    3  C   UNL     1     -12.487  14.035  69.231  1.00  0.00    -0.010 C  
BRANCH   3   4
HETATM    4  N   UNL     1     -11.933  14.747  68.070  1.00  0.00    -0.543 NA 
HETATM    5  H   UNL     1     -11.428  15.588  68.353  1.00  0.00     0.000 HD 
BRANCH   4   6
HETATM    6  C   UNL     1     -11.080  13.850  67.239  1.00  0.00    -0.299 C  
HETATM    7  C   UNL     1     -11.871  12.711  66.586  1.00  0.00    -0.449 C  
BRANCH   6   8
HETATM    8  C   UNL     1     -10.515  14.681  66.084  1.00  0.00    -0.302 C  
HETATM    9  O   UNL     1     -11.480  15.005  65.190  1.00  0.00    -0.360 OA 
HETATM   10  H   UNL     1     -11.129  15.521  64.473  1.00  0.00     0.000 HD 
BRANCH   8  11
HETATM   11  N   UNL     1      -9.263  14.987  66.004  1.00  0.00    -0.472 NA 
HETATM   12  H   UNL     1      -8.823  15.160  65.099  1.00  0.00     0.000 HD 
BRANCH  11  13
HETATM   13  C   UNL     1      -8.519  15.075  67.197  1.00  0.00    -0.218 A  
HETATM   14  C   UNL     1      -8.282  16.298  67.814  1.00  0.00    -0.149 A  
HETATM   15  C   UNL     1      -7.715  12.572  67.343  1.00  0.00    -0.167 C  
HETATM   16  S   UNL     1      -7.224  16.118  69.154  1.00  0.00    -0.217 SA 
HETATM   17  C   UNL     1      -7.070  14.444  68.898  1.00  0.00    -0.116 A  
HETATM   18  C   UNL     1      -7.774  13.995  67.796  1.00  0.00    -0.178 A  
BRANCH  14  19
HETATM   19  C   UNL     1      -8.736  17.642  67.510  1.00  0.00    -0.234 C  
HETATM   20  O   UNL     1      -8.040  18.656  67.521  1.00  0.00    -0.246 OA 
BRANCH  19  21
HETATM   21  O   UNL     1     -10.081  17.666  67.254  1.00  0.00    -0.307 OA 
HETATM   22  C   UNL     1     -10.423  18.333  66.039  1.00  0.00    -0.361 C  
ENDBRANCH  19  21
ENDBRANCH  14  19
ENDBRANCH  11  13
ENDBRANCH   8  11
ENDBRANCH   6   8
ENDBRANCH   4   6
ENDBRANCH   3   4
ENDBRANCH   2   3
TORSDOF 8
ENDMDL
MODEL      181
REMARK 921   NORMALIZED FREE ENERGY PREDICTED BY IDOCK:   -3.77 KCAL/MOL
REMARK 922        TOTAL FREE ENERGY PREDICTED BY IDOCK:   -6.24 KCAL/MOL
REMARK 923 INTER-LIGAND FREE ENERGY PREDICTED BY IDOCK:   -5.23 KCAL/MOL
REMARK 924 INTRA-LIGAND FREE ENERGY PREDICTED BY IDOCK:   -1.02 KCAL/MOL
REMARK 927      BINDING AFFINITY PREDICTED BY RF-SCORE:    0.00 PKD
ROOT
HETATM    1  C   UNL     1      -7.080  13.046  67.404  1.00  0.00    -0.124 C  
HETATM    2  C   UNL     1      -6.686  11.579  67.516  1.00  0.00    -0.087 C  
ENDROOT
BRANCH   2   3
HETATM    3  C   UNL     1      -7.933  10.702  67.655  1.00  0.00    -0.106 C  
BRANCH   3   4
HETATM    4  N   UNL     1      -9.028  11.431  68.311  1.00  0.00    -0.169 NA 
HETATM    5  H   UNL     1      -9.120  12.378  67.942  1.00  0.00     0.000 HD 
BRANCH   4   6
HETATM    6  C   UNL     1     -10.312  10.680  68.218  1.00  0.00    -0.177 C  
HETATM    7  C   UNL     1     -10.209   9.251  68.761  1.00  0.00    -0.223 C  
BRANCH   6   8
HETATM    8  C   UNL     1     -11.334  11.391  69.108  1.00  0.00    -0.288 C  
HETATM    9  O   UNL     1     -11.218  11.004  70.402  1.00  0.00    -0.461 OA 
HETATM   10  H   UNL     1     -11.852  11.445  70.955  1.00  0.00     0.000 HD 
BRANCH   8  11
HETATM   11  N   UNL     1     -12.197  12.227  68.634  1.00  0.00    -0.162 NA 
HETATM   12  H   UNL     1     -12.954  11.911  68.027  1.00  0.00     0.000 HD 
BRANCH  11  13
HETATM   13  C   UNL     1     -12.066  13.587  68.978  1.00  0.00    -0.291 A  
HETATM   14  C   UNL     1     -11.366  14.474  68.168  1.00  0.00    -0.298 A  
HETATM   15  C   UNL     1     -13.123  13.485  71.388  1.00  0.00    -0.385 C  
HETATM   16  S   UNL     1     -11.238  16.017  68.911  1.00  0.00    -0.362 SA 
HETATM   17  C   UNL     1     -12.080  15.500  70.294  1.00  0.00    -0.386 A  
HETATM   18  C   UNL     1     -12.443  14.166  70.244  1.00  0.00    -0.416 A  
BRANCH  14  19
HETATM   19  C   UNL     1     -10.731  14.313  66.874  1.00  0.00    -0.290 C  
HETATM   20  O   UNL     1     -10.547  13.246  66.291  1.00  0.00    -0.283 OA 
BRANCH  19  21
HETATM   21  O   UNL     1     -10.298  15.515  66.381  1.00  0.00    -0.276 OA 
HETATM   22  C   UNL     1     -10.796  15.815  65.077  1.00  0.00    -0.443 C  
ENDBRANCH  19  21
ENDBRANCH  14  19
ENDBRANCH  11  13
ENDBRANCH   8  11
ENDBRANCH   6   8
ENDBRANCH   4   6
ENDBRANCH   3   4
ENDBRANCH   2   3
TORSDOF 8
ENDMDL
MODEL      182
REMARK 921   NORMALIZED FREE ENERGY PREDICTED BY IDOCK:   -3.77 KCAL/MOL
REMARK 922        TOTAL FREE ENERGY PREDICTED BY IDOCK:   -6.24 KCAL/MOL
REMARK 923 INTER-LIGAND FREE ENERGY PREDICTED BY IDOCK:   -5.60 KCAL/MOL
REMARK 924 INTRA-LIGAND FREE ENERGY PREDICTED BY IDOCK:   -0.64 KCAL/MOL
REMARK 927      BINDING AFFINITY PREDICTED BY RF-SCORE:    0.00 PKD
ROOT
HETATM    1  C   UNL     1      -6.178  10.657  67.492  1.00  0.00    -0.056 C  
HETATM    2  C   UNL     1      -7.486   9.928  67.776  1.00  0.00    -0.090 C  
ENDROOT
BRANCH   2   3
HETATM    3  C   UNL     1      -8.628  10.548  66.967  1.00  0.00    -0.127 C  
BRANCH   3   4
HETATM    4  N   UNL     1      -8.580  12.016  67.015  1.00  0.00    -0.181 NA 
HETATM    5  H   UNL     1      -8.083  12.400  66.210  1.00  0.00     0.000 HD 
BRANCH   4   6
HETATM    6  C   UNL     1      -9.945  12.600  67.145  1.00  0.00    -0.217 C  
HETATM    7  C   UNL     1     -10.706  12.642  65.815  1.00  0.00    -0.295 C  
BRANCH   6   8
HETATM    8  C   UNL     1     -10.759  11.684  68.062  1.00  0.00    -0.208 C  
HETATM    9  O   UNL     1     -11.810  11.134  67.406  1.00  0.00    -0.570 OA 
HETATM   10  H   UNL     1     -12.315  10.565  67.975  1.00  0.00     0.000 HD 
BRANCH   8  11
HETATM   11  N   UNL     1     -10.458  11.511  69.306  1.00  0.00    -0.421 NA 
HETATM   12  H   UNL     1      -9.576  11.858  69.684  1.00  0.00     0.000 HD 
BRANCH  11  13
HETATM   13  C   UNL     1     -11.379  10.829  70.126  1.00  0.00    -0.309 A  
HETATM   14  C   UNL     1     -12.320  11.518  70.884  1.00  0.00    -0.359 A  
HETATM   15  C   UNL     1     -10.399   8.398  69.880  1.00  0.00    -0.210 C  
HETATM   16  S   UNL     1     -13.197  10.445  71.898  1.00  0.00    -0.356 SA 
HETATM   17  C   UNL     1     -12.319   9.096  71.352  1.00  0.00    -0.333 A  
HETATM   18  C   UNL     1     -11.339   9.421  70.432  1.00  0.00    -0.295 A  
BRANCH  14  19
HETATM   19  C   UNL     1     -12.649  12.927  70.976  1.00  0.00    -0.287 C  
HETATM   20  O   UNL     1     -12.294  13.802  70.188  1.00  0.00    -0.335 OA 
BRANCH  19  21
HETATM   21  O   UNL     1     -13.378  13.194  72.104  1.00  0.00    -0.482 OA 
HETATM   22  C   UNL     1     -13.296  14.553  72.534  1.00  0.00    -0.472 C  
ENDBRANCH  19  21
ENDBRANCH  14  19
ENDBRANCH  11  13
ENDBRANCH   8  11
ENDBRANCH   6   8
ENDBRANCH   4   6
ENDBRANCH   3   4
ENDBRANCH   2   3
TORSDOF 8
ENDMDL
MODEL      183
REMARK 921   NORMALIZED FREE ENERGY PREDICTED BY IDOCK:   -3.76 KCAL/MOL
REMARK 922        TOTAL FREE ENERGY PREDICTED BY IDOCK:   -6.23 KCAL/MOL
REMARK 923 INTER-LIGAND FREE ENERGY PREDICTED BY IDOCK:   -5.19 KCAL/MOL
REMARK 924 INTRA-LIGAND FREE ENERGY PREDICTED BY IDOCK:   -1.05 KCAL/MOL
REMARK 927      BINDING AFFINITY PREDICTED BY RF-SCORE:    0.00 PKD
ROOT
HETATM    1  C   UNL     1     -13.160  13.051  71.507  1.00  0.00    -0.400 C  
HETATM    2  C   UNL     1     -12.898  11.551  71.555  1.00  0.00    -0.485 C  
ENDROOT
BRANCH   2   3
HETATM    3  C   UNL     1     -12.476  11.040  70.176  1.00  0.00    -0.269 C  
BRANCH   3   4
HETATM    4  N   UNL     1     -11.207  11.644  69.747  1.00  0.00    -0.470 NA 
HETATM    5  H   UNL     1     -10.446  10.964  69.759  1.00  0.00     0.000 HD 
BRANCH   4   6
HETATM    6  C   UNL     1     -11.339  12.296  68.412  1.00  0.00    -0.292 C  
HETATM    7  C   UNL     1     -10.777  13.721  68.386  1.00  0.00    -0.266 C  
BRANCH   6   8
HETATM    8  C   UNL     1     -10.493  11.497  67.418  1.00  0.00    -0.209 C  
HETATM    9  O   UNL     1      -9.170  11.726  67.596  1.00  0.00    -0.172 OA 
HETATM   10  H   UNL     1      -8.645  11.230  66.978  1.00  0.00     0.000 HD 
BRANCH   8  11
HETATM   11  N   UNL     1     -11.023  10.732  66.521  1.00  0.00    -0.141 NA 
HETATM   12  H   UNL     1     -11.825  10.142  66.744  1.00  0.00     0.000 HD 
BRANCH  11  13
HETATM   13  C   UNL     1     -10.465  10.735  65.228  1.00  0.00    -0.212 A  
HETATM   14  C   UNL     1      -9.434   9.869  64.882  1.00  0.00    -0.291 A  
HETATM   15  C   UNL     1     -11.703  12.854  64.273  1.00  0.00    -0.445 C  
HETATM   16  S   UNL     1      -8.852  10.204  63.302  1.00  0.00    -0.256 SA 
HETATM   17  C   UNL     1      -9.940  11.493  63.097  1.00  0.00    -0.377 A  
HETATM   18  C   UNL     1     -10.731  11.720  64.208  1.00  0.00    -0.395 A  
BRANCH  14  19
HETATM   19  C   UNL     1      -8.781   8.798  65.611  1.00  0.00    -0.184 C  
HETATM   20  O   UNL     1      -8.591   8.767  66.825  1.00  0.00    -0.113 OA 
BRANCH  19  21
HETATM   21  O   UNL     1      -8.337   7.819  64.762  1.00  0.00    -0.130 OA 
HETATM   22  C   UNL     1      -7.384   6.936  65.353  1.00  0.00    -0.080 C  
ENDBRANCH  19  21
ENDBRANCH  14  19
ENDBRANCH  11  13
ENDBRANCH   8  11
ENDBRANCH   6   8
ENDBRANCH   4   6
ENDBRANCH   3   4
ENDBRANCH   2   3
TORSDOF 8
ENDMDL
MODEL      184
REMARK 921   NORMALIZED FREE ENERGY PREDICTED BY IDOCK:   -3.76 KCAL/MOL
REMARK 922        TOTAL FREE ENERGY PREDICTED BY IDOCK:   -6.23 KCAL/MOL
REMARK 923 INTER-LIGAND FREE ENERGY PREDICTED BY IDOCK:   -5.58 KCAL/MOL
REMARK 924 INTRA-LIGAND FREE ENERGY PREDICTED BY IDOCK:   -0.65 KCAL/MOL
REMARK 927      BINDING AFFINITY PREDICTED BY RF-SCORE:    0.00 PKD
ROOT
HETATM    1  C   UNL     1     -12.219  14.749  64.341  1.00  0.00    -0.447 C  
HETATM    2  C   UNL     1     -12.623  13.824  65.482  1.00  0.00    -0.551 C  
ENDROOT
BRANCH   2   3
HETATM    3  C   UNL     1     -11.521  12.797  65.751  1.00  0.00    -0.348 C  
BRANCH   3   4
HETATM    4  N   UNL     1     -11.913  11.859  66.812  1.00  0.00    -0.583 NA 
HETATM    5  H   UNL     1     -11.921  10.895  66.475  1.00  0.00     0.000 HD 
BRANCH   4   6
HETATM    6  C   UNL     1     -11.048  12.010  68.017  1.00  0.00    -0.241 C  
HETATM    7  C   UNL     1     -11.729  12.792  69.145  1.00  0.00    -0.375 C  
BRANCH   6   8
HETATM    8  C   UNL     1     -10.784  10.611  68.580  1.00  0.00    -0.207 C  
HETATM    9  O   UNL     1     -10.024  10.664  69.701  1.00  0.00    -0.402 OA 
HETATM   10  H   UNL     1      -9.860   9.796  70.050  1.00  0.00     0.000 HD 
BRANCH   8  11
HETATM   11  N   UNL     1     -11.230   9.542  68.008  1.00  0.00    -0.509 NA 
HETATM   12  H   UNL     1     -12.214   9.458  67.751  1.00  0.00     0.000 HD 
BRANCH  11  13
HETATM   13  C   UNL     1     -10.322   8.497  67.747  1.00  0.00    -0.237 A  
HETATM   14  C   UNL     1      -9.441   8.555  66.673  1.00  0.00    -0.207 A  
HETATM   15  C   UNL     1     -11.201   6.764  69.523  1.00  0.00    -0.319 C  
HETATM   16  S   UNL     1      -8.571   7.084  66.511  1.00  0.00    -0.135 SA 
HETATM   17  C   UNL     1      -9.374   6.379  67.833  1.00  0.00    -0.114 A  
HETATM   18  C   UNL     1     -10.324   7.210  68.398  1.00  0.00    -0.220 A  
BRANCH  14  19
HETATM   19  C   UNL     1      -9.168   9.592  65.697  1.00  0.00    -0.223 C  
HETATM   20  O   UNL     1      -9.016  10.788  65.941  1.00  0.00    -0.171 OA 
BRANCH  19  21
HETATM   21  O   UNL     1      -9.149   9.083  64.425  1.00  0.00    -0.087 OA 
HETATM   22  C   UNL     1      -8.587   9.971  63.459  1.00  0.00    -0.208 C  
ENDBRANCH  19  21
ENDBRANCH  14  19
ENDBRANCH  11  13
ENDBRANCH   8  11
ENDBRANCH   6   8
ENDBRANCH   4   6
ENDBRANCH   3   4
ENDBRANCH   2   3
TORSDOF 8
ENDMDL
MODEL      185
REMARK 921   NORMALIZED FREE ENERGY PREDICTED BY IDOCK:   -3.76 KCAL/MOL
REMARK 922        TOTAL FREE ENERGY PREDICTED BY IDOCK:   -6.23 KCAL/MOL
REMARK 923 INTER-LIGAND FREE ENERGY PREDICTED BY IDOCK:   -5.58 KCAL/MOL
REMARK 924 INTRA-LIGAND FREE ENERGY PREDICTED BY IDOCK:   -0.65 KCAL/MOL
REMARK 927      BINDING AFFINITY PREDICTED BY RF-SCORE:    0.00 PKD
ROOT
HETATM    1  C   UNL     1     -12.682  11.723  63.454  1.00  0.00    -0.395 C  
HETATM    2  C   UNL     1     -11.519  11.772  64.438  1.00  0.00    -0.349 C  
ENDROOT
BRANCH   2   3
HETATM    3  C   UNL     1     -10.584  12.934  64.099  1.00  0.00    -0.416 C  
BRANCH   3   4
HETATM    4  N   UNL     1      -9.775  13.325  65.262  1.00  0.00    -0.518 NA 
HETATM    5  H   UNL     1      -8.829  12.947  65.204  1.00  0.00     0.000 HD 
BRANCH   4   6
HETATM    6  C   UNL     1      -9.762  14.805  65.442  1.00  0.00    -0.158 C  
HETATM    7  C   UNL     1     -11.008  15.487  64.865  1.00  0.00    -0.452 C  
BRANCH   6   8
HETATM    8  C   UNL     1      -9.788  15.093  66.945  1.00  0.00    -0.237 C  
HETATM    9  O   UNL     1     -10.816  14.455  67.554  1.00  0.00    -0.274 OA 
HETATM   10  H   UNL     1     -10.832  14.633  68.487  1.00  0.00     0.000 HD 
BRANCH   8  11
HETATM   11  N   UNL     1      -8.930  15.876  67.511  1.00  0.00    -0.192 NA 
HETATM   12  H   UNL     1      -7.981  15.557  67.710  1.00  0.00     0.000 HD 
BRANCH  11  13
HETATM   13  C   UNL     1      -9.340  17.182  67.847  1.00  0.00    -0.249 A  
HETATM   14  C   UNL     1      -8.737  18.298  67.278  1.00  0.00    -0.255 A  
HETATM   15  C   UNL     1     -10.996  16.581  69.803  1.00  0.00    -0.292 C  
HETATM   16  S   UNL     1      -9.328  19.746  67.988  1.00  0.00    -0.342 SA 
HETATM   17  C   UNL     1     -10.349  18.895  69.047  1.00  0.00     0.015 A  
HETATM   18  C   UNL     1     -10.245  17.522  68.917  1.00  0.00    -0.353 A  
BRANCH  14  19
HETATM   19  C   UNL     1      -7.719  18.435  66.254  1.00  0.00    -0.247 C  
HETATM   20  O   UNL     1      -7.365  17.556  65.470  1.00  0.00    -0.355 OA 
BRANCH  19  21
HETATM   21  O   UNL     1      -7.141  19.676  66.292  1.00  0.00    -0.221 OA 
HETATM   22  C   UNL     1      -6.599  20.097  65.040  1.00  0.00    -0.285 C  
ENDBRANCH  19  21
ENDBRANCH  14  19
ENDBRANCH  11  13
ENDBRANCH   8  11
ENDBRANCH   6   8
ENDBRANCH   4   6
ENDBRANCH   3   4
ENDBRANCH   2   3
TORSDOF 8
ENDMDL
MODEL      186
REMARK 921   NORMALIZED FREE ENERGY PREDICTED BY IDOCK:   -3.75 KCAL/MOL
REMARK 922        TOTAL FREE ENERGY PREDICTED BY IDOCK:   -6.21 KCAL/MOL
REMARK 923 INTER-LIGAND FREE ENERGY PREDICTED BY IDOCK:   -5.14 KCAL/MOL
REMARK 924 INTRA-LIGAND FREE ENERGY PREDICTED BY IDOCK:   -1.08 KCAL/MOL
REMARK 927      BINDING AFFINITY PREDICTED BY RF-SCORE:    0.00 PKD
ROOT
HETATM    1  C   UNL     1     -10.975  11.457  67.041  1.00  0.00    -0.347 C  
HETATM    2  C   UNL     1     -11.907  11.881  68.169  1.00  0.00    -0.338 C  
ENDROOT
BRANCH   2   3
HETATM    3  C   UNL     1     -11.406  11.335  69.508  1.00  0.00    -0.294 C  
BRANCH   3   4
HETATM    4  N   UNL     1     -11.944   9.994  69.773  1.00  0.00    -0.475 NA 
HETATM    5  H   UNL     1     -11.412   9.274  69.283  1.00  0.00     0.000 HD 
BRANCH   4   6
HETATM    6  C   UNL     1     -12.019   9.718  71.236  1.00  0.00    -0.386 C  
HETATM    7  C   UNL     1     -13.335  10.188  71.866  1.00  0.00    -0.505 C  
BRANCH   6   8
HETATM    8  C   UNL     1     -11.985   8.200  71.427  1.00  0.00    -0.298 C  
HETATM    9  O   UNL     1     -13.126   7.747  72.001  1.00  0.00    -0.425 OA 
HETATM   10  H   UNL     1     -13.105   6.805  72.120  1.00  0.00     0.000 HD 
BRANCH   8  11
HETATM   11  N   UNL     1     -10.962   7.486  71.091  1.00  0.00    -0.243 NA 
HETATM   12  H   UNL     1     -10.908   7.049  70.170  1.00  0.00     0.000 HD 
BRANCH  11  13
HETATM   13  C   UNL     1      -9.923   7.326  72.029  1.00  0.00    -0.162 A  
HETATM   14  C   UNL     1      -8.732   8.034  71.916  1.00  0.00    -0.138 A  
HETATM   15  C   UNL     1     -10.934   5.317  73.396  1.00  0.00    -0.372 C  
HETATM   16  S   UNL     1      -7.598   7.525  73.100  1.00  0.00    -0.102 SA 
HETATM   17  C   UNL     1      -8.670   6.367  73.732  1.00  0.00    -0.124 A  
HETATM   18  C   UNL     1      -9.875   6.315  73.056  1.00  0.00    -0.175 A  
BRANCH  14  19
HETATM   19  C   UNL     1      -8.298   9.063  70.990  1.00  0.00    -0.189 C  
HETATM   20  O   UNL     1      -8.872   9.383  69.950  1.00  0.00    -0.163 OA 
BRANCH  19  21
HETATM   21  O   UNL     1      -7.111   9.620  71.387  1.00  0.00    -0.324 OA 
HETATM   22  C   UNL     1      -6.187   9.825  70.318  1.00  0.00    -0.074 C  
ENDBRANCH  19  21
ENDBRANCH  14  19
ENDBRANCH  11  13
ENDBRANCH   8  11
ENDBRANCH   6   8
ENDBRANCH   4   6
ENDBRANCH   3   4
ENDBRANCH   2   3
TORSDOF 8
ENDMDL
MODEL      187
REMARK 921   NORMALIZED FREE ENERGY PREDICTED BY IDOCK:   -3.74 KCAL/MOL
REMARK 922        TOTAL FREE ENERGY PREDICTED BY IDOCK:   -6.20 KCAL/MOL
REMARK 923 INTER-LIGAND FREE ENERGY PREDICTED BY IDOCK:   -5.29 KCAL/MOL
REMARK 924 INTRA-LIGAND FREE ENERGY PREDICTED BY IDOCK:   -0.91 KCAL/MOL
REMARK 927      BINDING AFFINITY PREDICTED BY RF-SCORE:    0.00 PKD
ROOT
HETATM    1  C   UNL     1      -5.881  10.290  67.803  1.00  0.00    -0.045 C  
HETATM    2  C   UNL     1      -7.017  10.421  68.811  1.00  0.00    -0.068 C  
ENDROOT
BRANCH   2   3
HETATM    3  C   UNL     1      -8.133  11.301  68.244  1.00  0.00    -0.137 C  
BRANCH   3   4
HETATM    4  N   UNL     1      -9.435  10.623  68.312  1.00  0.00    -0.154 NA 
HETATM    5  H   UNL     1      -9.945  10.878  69.158  1.00  0.00     0.000 HD 
BRANCH   4   6
HETATM    6  C   UNL     1     -10.245  10.877  67.087  1.00  0.00    -0.210 C  
HETATM    7  C   UNL     1     -10.454   9.619  66.238  1.00  0.00    -0.149 C  
BRANCH   6   8
HETATM    8  C   UNL     1     -11.642  11.315  67.534  1.00  0.00    -0.175 C  
HETATM    9  O   UNL     1     -12.049  10.629  68.629  1.00  0.00    -0.777 OA 
HETATM   10  H   UNL     1     -12.916  10.900  68.906  1.00  0.00     0.000 HD 
BRANCH   8  11
HETATM   11  N   UNL     1     -12.319  12.212  66.897  1.00  0.00    -0.156 NA 
HETATM   12  H   UNL     1     -13.339  12.178  66.873  1.00  0.00     0.000 HD 
BRANCH  11  13
HETATM   13  C   UNL     1     -11.613  13.237  66.238  1.00  0.00    -0.346 A  
HETATM   14  C   UNL     1     -11.296  14.428  66.883  1.00  0.00    -0.348 A  
HETATM   15  C   UNL     1     -11.610  12.213  63.812  1.00  0.00    -0.557 C  
HETATM   16  S   UNL     1     -10.579  15.545  65.794  1.00  0.00    -0.376 SA 
HETATM   17  C   UNL     1     -10.713  14.468  64.487  1.00  0.00    -0.174 A  
HETATM   18  C   UNL     1     -11.321  13.273  64.826  1.00  0.00    -0.350 A  
BRANCH  14  19
HETATM   19  C   UNL     1     -11.487  14.872  68.250  1.00  0.00    -0.324 C  
HETATM   20  O   UNL     1     -11.896  15.979  68.596  1.00  0.00    -0.367 OA 
BRANCH  19  21
HETATM   21  O   UNL     1     -11.098  13.909  69.143  1.00  0.00    -0.248 OA 
HETATM   22  C   UNL     1     -11.963  13.791  70.273  1.00  0.00    -0.326 C  
ENDBRANCH  19  21
ENDBRANCH  14  19
ENDBRANCH  11  13
ENDBRANCH   8  11
ENDBRANCH   6   8
ENDBRANCH   4   6
ENDBRANCH   3   4
ENDBRANCH   2   3
TORSDOF 8
ENDMDL
MODEL      188
REMARK 921   NORMALIZED FREE ENERGY PREDICTED BY IDOCK:   -3.74 KCAL/MOL
REMARK 922        TOTAL FREE ENERGY PREDICTED BY IDOCK:   -6.19 KCAL/MOL
REMARK 923 INTER-LIGAND FREE ENERGY PREDICTED BY IDOCK:   -5.39 KCAL/MOL
REMARK 924 INTRA-LIGAND FREE ENERGY PREDICTED BY IDOCK:   -0.81 KCAL/MOL
REMARK 927      BINDING AFFINITY PREDICTED BY RF-SCORE:    0.00 PKD
ROOT
HETATM    1  C   UNL     1      -6.212   9.723  70.771  1.00  0.00    -0.096 C  
HETATM    2  C   UNL     1      -7.176   8.709  70.166  1.00  0.00    -0.052 C  
ENDROOT
BRANCH   2   3
HETATM    3  C   UNL     1      -8.606   8.993  70.629  1.00  0.00    -0.210 C  
BRANCH   3   4
HETATM    4  N   UNL     1      -9.591   8.471  69.671  1.00  0.00    -0.169 NA 
HETATM    5  H   UNL     1     -10.539   8.523  70.044  1.00  0.00     0.000 HD 
BRANCH   4   6
HETATM    6  C   UNL     1      -9.484   9.160  68.353  1.00  0.00    -0.142 C  
HETATM    7  C   UNL     1     -10.337   8.501  67.264  1.00  0.00    -0.372 C  
BRANCH   6   8
HETATM    8  C   UNL     1     -10.043  10.575  68.519  1.00  0.00    -0.173 C  
HETATM    9  O   UNL     1      -9.067  11.458  68.842  1.00  0.00    -0.342 OA 
HETATM   10  H   UNL     1      -9.414  12.337  68.945  1.00  0.00     0.000 HD 
BRANCH   8  11
HETATM   11  N   UNL     1     -11.300  10.840  68.384  1.00  0.00    -0.288 NA 
HETATM   12  H   UNL     1     -11.866  10.353  67.688  1.00  0.00     0.000 HD 
BRANCH  11  13
HETATM   13  C   UNL     1     -11.869  11.818  69.224  1.00  0.00    -0.326 A  
HETATM   14  C   UNL     1     -11.923  13.154  68.844  1.00  0.00    -0.277 A  
HETATM   15  C   UNL     1     -12.247  10.328  71.361  1.00  0.00    -0.481 C  
HETATM   16  S   UNL     1     -12.522  14.133  70.121  1.00  0.00    -0.277 SA 
HETATM   17  C   UNL     1     -12.683  12.800  71.164  1.00  0.00    -0.263 A  
HETATM   18  C   UNL     1     -12.265  11.611  70.595  1.00  0.00    -0.461 A  
BRANCH  14  19
HETATM   19  C   UNL     1     -11.548  13.831  67.618  1.00  0.00    -0.347 C  
HETATM   20  O   UNL     1     -10.846  14.838  67.538  1.00  0.00    -0.274 OA 
BRANCH  19  21
HETATM   21  O   UNL     1     -12.124  13.237  66.527  1.00  0.00    -0.395 OA 
HETATM   22  C   UNL     1     -12.684  14.163  65.596  1.00  0.00    -0.441 C  
ENDBRANCH  19  21
ENDBRANCH  14  19
ENDBRANCH  11  13
ENDBRANCH   8  11
ENDBRANCH   6   8
ENDBRANCH   4   6
ENDBRANCH   3   4
ENDBRANCH   2   3
TORSDOF 8
ENDMDL
MODEL      189
REMARK 921   NORMALIZED FREE ENERGY PREDICTED BY IDOCK:   -3.72 KCAL/MOL
REMARK 922        TOTAL FREE ENERGY PREDICTED BY IDOCK:   -6.17 KCAL/MOL
REMARK 923 INTER-LIGAND FREE ENERGY PREDICTED BY IDOCK:   -5.34 KCAL/MOL
REMARK 924 INTRA-LIGAND FREE ENERGY PREDICTED BY IDOCK:   -0.84 KCAL/MOL
REMARK 927      BINDING AFFINITY PREDICTED BY RF-SCORE:    0.00 PKD
ROOT
HETATM    1  C   UNL     1     -13.870  15.516  72.376  1.00  0.00    -0.662 C  
HETATM    2  C   UNL     1     -13.237  14.237  72.910  1.00  0.00    -0.593 C  
ENDROOT
BRANCH   2   3
HETATM    3  C   UNL     1     -13.221  13.158  71.825  1.00  0.00    -0.403 C  
BRANCH   3   4
HETATM    4  N   UNL     1     -12.008  13.250  71.000  1.00  0.00    -0.409 NA 
HETATM    5  H   UNL     1     -11.427  12.416  71.096  1.00  0.00     0.000 HD 
BRANCH   4   6
HETATM    6  C   UNL     1     -12.342  13.522  69.572  1.00  0.00    -0.147 C  
HETATM    7  C   UNL     1     -11.952  14.935  69.127  1.00  0.00    -0.313 C  
BRANCH   6   8
HETATM    8  C   UNL     1     -11.513  12.569  68.709  1.00  0.00    -0.310 C  
HETATM    9  O   UNL     1     -11.959  12.544  67.429  1.00  0.00    -0.456 OA 
HETATM   10  H   UNL     1     -11.444  11.952  66.893  1.00  0.00     0.000 HD 
BRANCH   8  11
HETATM   11  N   UNL     1     -10.535  11.876  69.192  1.00  0.00    -0.421 NA 
HETATM   12  H   UNL     1     -10.466  11.696  70.194  1.00  0.00     0.000 HD 
BRANCH  11  13
HETATM   13  C   UNL     1      -9.567  11.375  68.298  1.00  0.00    -0.192 A  
HETATM   14  C   UNL     1      -8.444  12.120  67.957  1.00  0.00    -0.170 A  
HETATM   15  C   UNL     1     -10.830   9.194  67.536  1.00  0.00    -0.151 C  
HETATM   16  S   UNL     1      -7.528  11.329  66.739  1.00  0.00    -0.133 SA 
HETATM   17  C   UNL     1      -8.625  10.033  66.654  1.00  0.00    -0.125 A  
HETATM   18  C   UNL     1      -9.706  10.179  67.504  1.00  0.00    -0.190 A  
BRANCH  14  19
HETATM   19  C   UNL     1      -7.954  13.405  68.418  1.00  0.00    -0.139 C  
HETATM   20  O   UNL     1      -6.869  13.610  68.958  1.00  0.00    -0.107 OA 
BRANCH  19  21
HETATM   21  O   UNL     1      -8.888  14.389  68.226  1.00  0.00    -0.169 OA 
HETATM   22  C   UNL     1      -9.044  14.775  66.861  1.00  0.00    -0.248 C  
ENDBRANCH  19  21
ENDBRANCH  14  19
ENDBRANCH  11  13
ENDBRANCH   8  11
ENDBRANCH   6   8
ENDBRANCH   4   6
ENDBRANCH   3   4
ENDBRANCH   2   3
TORSDOF 8
ENDMDL
MODEL      190
REMARK 921   NORMALIZED FREE ENERGY PREDICTED BY IDOCK:   -3.72 KCAL/MOL
REMARK 922        TOTAL FREE ENERGY PREDICTED BY IDOCK:   -6.17 KCAL/MOL
REMARK 923 INTER-LIGAND FREE ENERGY PREDICTED BY IDOCK:   -5.16 KCAL/MOL
REMARK 924 INTRA-LIGAND FREE ENERGY PREDICTED BY IDOCK:   -1.01 KCAL/MOL
REMARK 927      BINDING AFFINITY PREDICTED BY RF-SCORE:    0.00 PKD
ROOT
HETATM    1  C   UNL     1     -11.386  11.731  66.541  1.00  0.00    -0.370 C  
HETATM    2  C   UNL     1     -10.987  12.670  67.673  1.00  0.00    -0.275 C  
ENDROOT
BRANCH   2   3
HETATM    3  C   UNL     1     -11.897  12.460  68.885  1.00  0.00    -0.301 C  
BRANCH   3   4
HETATM    4  N   UNL     1     -12.228  11.040  69.064  1.00  0.00    -0.669 NA 
HETATM    5  H   UNL     1     -11.745  10.454  68.382  1.00  0.00     0.000 HD 
BRANCH   4   6
HETATM    6  C   UNL     1     -11.958  10.591  70.459  1.00  0.00    -0.342 C  
HETATM    7  C   UNL     1     -13.029  11.053  71.453  1.00  0.00    -0.517 C  
BRANCH   6   8
HETATM    8  C   UNL     1     -12.007   9.061  70.475  1.00  0.00    -0.010 C  
HETATM    9  O   UNL     1     -13.075   8.607  71.174  1.00  0.00    -0.497 OA 
HETATM   10  H   UNL     1     -13.106   7.657  71.184  1.00  0.00     0.000 HD 
BRANCH   8  11
HETATM   11  N   UNL     1     -11.104   8.337  69.902  1.00  0.00    -0.416 NA 
HETATM   12  H   UNL     1     -11.261   7.941  68.975  1.00  0.00     0.000 HD 
BRANCH  11  13
HETATM   13  C   UNL     1      -9.896   8.108  70.591  1.00  0.00    -0.181 A  
HETATM   14  C   UNL     1      -9.800   7.134  71.578  1.00  0.00    -0.171 A  
HETATM   15  C   UNL     1      -8.511  10.133  69.635  1.00  0.00    -0.172 C  
HETATM   16  S   UNL     1      -8.265   7.187  72.347  1.00  0.00    -0.105 SA 
HETATM   17  C   UNL     1      -7.753   8.499  71.395  1.00  0.00    -0.109 A  
HETATM   18  C   UNL     1      -8.722   8.942  70.513  1.00  0.00    -0.213 A  
BRANCH  14  19
HETATM   19  C   UNL     1     -10.744   6.146  72.063  1.00  0.00    -0.233 C  
HETATM   20  O   UNL     1     -11.955   6.315  72.198  1.00  0.00    -0.329 OA 
BRANCH  19  21
HETATM   21  O   UNL     1     -10.111   4.984  72.416  1.00  0.00    -0.174 OA 
HETATM   22  C   UNL     1     -10.105   3.997  71.385  1.00  0.00    -0.077 C  
ENDBRANCH  19  21
ENDBRANCH  14  19
ENDBRANCH  11  13
ENDBRANCH   8  11
ENDBRANCH   6   8
ENDBRANCH   4   6
ENDBRANCH   3   4
ENDBRANCH   2   3
TORSDOF 8
ENDMDL
MODEL      191
REMARK 921   NORMALIZED FREE ENERGY PREDICTED BY IDOCK:   -3.72 KCAL/MOL
REMARK 922        TOTAL FREE ENERGY PREDICTED BY IDOCK:   -6.16 KCAL/MOL
REMARK 923 INTER-LIGAND FREE ENERGY PREDICTED BY IDOCK:   -5.16 KCAL/MOL
REMARK 924 INTRA-LIGAND FREE ENERGY PREDICTED BY IDOCK:   -1.00 KCAL/MOL
REMARK 927      BINDING AFFINITY PREDICTED BY RF-SCORE:    0.00 PKD
ROOT
HETATM    1  C   UNL     1      -7.005   6.308  71.199  1.00  0.00    -0.068 C  
HETATM    2  C   UNL     1      -7.347   7.790  71.101  1.00  0.00    -0.066 C  
ENDROOT
BRANCH   2   3
HETATM    3  C   UNL     1      -8.835   8.013  71.376  1.00  0.00    -0.141 C  
BRANCH   3   4
HETATM    4  N   UNL     1      -9.321   9.237  70.722  1.00  0.00    -0.259 NA 
HETATM    5  H   UNL     1      -8.626   9.619  70.080  1.00  0.00     0.000 HD 
BRANCH   4   6
HETATM    6  C   UNL     1     -10.627   9.008  70.041  1.00  0.00    -0.228 C  
HETATM    7  C   UNL     1     -11.828   9.207  70.972  1.00  0.00    -0.354 C  
BRANCH   6   8
HETATM    8  C   UNL     1     -10.772  10.062  68.942  1.00  0.00    -0.219 C  
HETATM    9  O   UNL     1     -10.366  11.282  69.369  1.00  0.00    -0.411 OA 
HETATM   10  H   UNL     1     -10.457  11.937  68.686  1.00  0.00     0.000 HD 
BRANCH   8  11
HETATM   11  N   UNL     1     -11.252   9.780  67.776  1.00  0.00    -0.476 NA 
HETATM   12  H   UNL     1     -12.172   9.348  67.679  1.00  0.00     0.000 HD 
BRANCH  11  13
HETATM   13  C   UNL     1     -10.473  10.085  66.642  1.00  0.00    -0.174 A  
HETATM   14  C   UNL     1     -10.691  11.244  65.905  1.00  0.00    -0.232 A  
HETATM   15  C   UNL     1      -9.132   7.826  66.470  1.00  0.00    -0.208 C  
HETATM   16  S   UNL     1      -9.706  11.273  64.499  1.00  0.00    -0.248 SA 
HETATM   17  C   UNL     1      -9.022   9.759  64.859  1.00  0.00    -0.216 A  
HETATM   18  C   UNL     1      -9.536   9.190  66.010  1.00  0.00    -0.321 A  
BRANCH  14  19
HETATM   19  C   UNL     1     -11.590  12.365  66.101  1.00  0.00    -0.396 C  
HETATM   20  O   UNL     1     -12.004  12.773  67.185  1.00  0.00    -0.372 OA 
BRANCH  19  21
HETATM   21  O   UNL     1     -11.982  12.902  64.904  1.00  0.00    -0.347 OA 
HETATM   22  C   UNL     1     -12.362  14.276  64.988  1.00  0.00    -0.428 C  
ENDBRANCH  19  21
ENDBRANCH  14  19
ENDBRANCH  11  13
ENDBRANCH   8  11
ENDBRANCH   6   8
ENDBRANCH   4   6
ENDBRANCH   3   4
ENDBRANCH   2   3
TORSDOF 8
ENDMDL
MODEL      192
REMARK 921   NORMALIZED FREE ENERGY PREDICTED BY IDOCK:   -3.71 KCAL/MOL
REMARK 922        TOTAL FREE ENERGY PREDICTED BY IDOCK:   -6.15 KCAL/MOL
REMARK 923 INTER-LIGAND FREE ENERGY PREDICTED BY IDOCK:   -5.42 KCAL/MOL
REMARK 924 INTRA-LIGAND FREE ENERGY PREDICTED BY IDOCK:   -0.73 KCAL/MOL
REMARK 927      BINDING AFFINITY PREDICTED BY RF-SCORE:    0.00 PKD
ROOT
HETATM    1  C   UNL     1     -11.413  12.531  63.456  1.00  0.00    -0.570 C  
HETATM    2  C   UNL     1     -12.004  12.875  64.818  1.00  0.00    -0.445 C  
ENDROOT
BRANCH   2   3
HETATM    3  C   UNL     1     -11.116  13.889  65.543  1.00  0.00    -0.304 C  
BRANCH   3   4
HETATM    4  N   UNL     1      -9.804  13.312  65.870  1.00  0.00    -0.389 NA 
HETATM    5  H   UNL     1      -9.054  13.773  65.353  1.00  0.00     0.000 HD 
BRANCH   4   6
HETATM    6  C   UNL     1      -9.552  13.337  67.339  1.00  0.00    -0.223 C  
HETATM    7  C   UNL     1      -9.255  11.949  67.917  1.00  0.00    -0.187 C  
BRANCH   6   8
HETATM    8  C   UNL     1      -8.289  14.167  67.582  1.00  0.00    -0.182 C  
HETATM    9  O   UNL     1      -7.251  13.720  66.835  1.00  0.00    -0.329 OA 
HETATM   10  H   UNL     1      -6.467  14.235  66.986  1.00  0.00     0.000 HD 
BRANCH   8  11
HETATM   11  N   UNL     1      -8.260  15.147  68.424  1.00  0.00    -0.139 NA 
HETATM   12  H   UNL     1      -7.814  15.040  69.336  1.00  0.00     0.000 HD 
BRANCH  11  13
HETATM   13  C   UNL     1      -8.860  16.365  68.051  1.00  0.00    -0.184 A  
HETATM   14  C   UNL     1     -10.141  16.700  68.473  1.00  0.00    -0.266 A  
HETATM   15  C   UNL     1      -7.039  17.189  66.337  1.00  0.00    -0.310 C  
HETATM   16  S   UNL     1     -10.669  18.161  67.741  1.00  0.00    -0.239 SA 
HETATM   17  C   UNL     1      -9.224  18.326  66.861  1.00  0.00    -0.282 A  
HETATM   18  C   UNL     1      -8.338  17.285  67.069  1.00  0.00    -0.231 A  
BRANCH  14  19
HETATM   19  C   UNL     1     -11.073  16.038  69.366  1.00  0.00    -0.331 C  
HETATM   20  O   UNL     1     -11.110  16.163  70.589  1.00  0.00    -0.349 OA 
BRANCH  19  21
HETATM   21  O   UNL     1     -11.900  15.189  68.679  1.00  0.00    -0.339 OA 
HETATM   22  C   UNL     1     -12.464  14.157  69.488  1.00  0.00    -0.123 C  
ENDBRANCH  19  21
ENDBRANCH  14  19
ENDBRANCH  11  13
ENDBRANCH   8  11
ENDBRANCH   6   8
ENDBRANCH   4   6
ENDBRANCH   3   4
ENDBRANCH   2   3
TORSDOF 8
ENDMDL
MODEL      193
REMARK 921   NORMALIZED FREE ENERGY PREDICTED BY IDOCK:   -3.70 KCAL/MOL
REMARK 922        TOTAL FREE ENERGY PREDICTED BY IDOCK:   -6.13 KCAL/MOL
REMARK 923 INTER-LIGAND FREE ENERGY PREDICTED BY IDOCK:   -5.21 KCAL/MOL
REMARK 924 INTRA-LIGAND FREE ENERGY PREDICTED BY IDOCK:   -0.92 KCAL/MOL
REMARK 927      BINDING AFFINITY PREDICTED BY RF-SCORE:    0.00 PKD
ROOT
HETATM    1  C   UNL     1     -11.131   2.151  62.871  1.00  0.00    -0.242 C  
HETATM    2  C   UNL     1     -11.016   3.615  63.281  1.00  0.00    -0.079 C  
ENDROOT
BRANCH   2   3
HETATM    3  C   UNL     1     -10.214   3.743  64.578  1.00  0.00    -0.204 C  
BRANCH   3   4
HETATM    4  N   UNL     1     -10.861   4.672  65.515  1.00  0.00    -0.794 NA 
HETATM    5  H   UNL     1     -11.705   4.266  65.920  1.00  0.00     0.000 HD 
BRANCH   4   6
HETATM    6  C   UNL     1      -9.912   5.126  66.571  1.00  0.00    -0.212 C  
HETATM    7  C   UNL     1      -8.494   5.358  66.039  1.00  0.00    -0.123 C  
BRANCH   6   8
HETATM    8  C   UNL     1     -10.394   6.487  67.078  1.00  0.00    -0.253 C  
HETATM    9  O   UNL     1     -11.730   6.635  66.905  1.00  0.00    -0.580 OA 
HETATM   10  H   UNL     1     -12.029   7.480  67.220  1.00  0.00     0.000 HD 
BRANCH   8  11
HETATM   11  N   UNL     1      -9.586   7.362  67.577  1.00  0.00    -0.136 NA 
HETATM   12  H   UNL     1      -8.621   7.116  67.801  1.00  0.00     0.000 HD 
BRANCH  11  13
HETATM   13  C   UNL     1     -10.071   8.666  67.804  1.00  0.00    -0.211 A  
HETATM   14  C   UNL     1     -10.677   9.013  69.006  1.00  0.00    -0.141 A  
HETATM   15  C   UNL     1      -9.728   9.637  65.381  1.00  0.00    -0.365 C  
HETATM   16  S   UNL     1     -11.306  10.610  68.939  1.00  0.00    -0.268 SA 
HETATM   17  C   UNL     1     -10.798  10.819  67.330  1.00  0.00    -0.290 A  
HETATM   18  C   UNL     1     -10.183   9.698  66.803  1.00  0.00    -0.308 A  
BRANCH  14  19
HETATM   19  C   UNL     1     -10.882   8.277  70.238  1.00  0.00    -0.240 C  
HETATM   20  O   UNL     1     -10.491   8.619  71.353  1.00  0.00    -0.217 OA 
BRANCH  19  21
HETATM   21  O   UNL     1     -11.533   7.095  70.008  1.00  0.00    -0.241 OA 
HETATM   22  C   UNL     1     -10.945   5.976  70.671  1.00  0.00    -0.307 C  
ENDBRANCH  19  21
ENDBRANCH  14  19
ENDBRANCH  11  13
ENDBRANCH   8  11
ENDBRANCH   6   8
ENDBRANCH   4   6
ENDBRANCH   3   4
ENDBRANCH   2   3
TORSDOF 8
ENDMDL
MODEL      194
REMARK 921   NORMALIZED FREE ENERGY PREDICTED BY IDOCK:   -3.70 KCAL/MOL
REMARK 922        TOTAL FREE ENERGY PREDICTED BY IDOCK:   -6.13 KCAL/MOL
REMARK 923 INTER-LIGAND FREE ENERGY PREDICTED BY IDOCK:   -5.07 KCAL/MOL
REMARK 924 INTRA-LIGAND FREE ENERGY PREDICTED BY IDOCK:   -1.06 KCAL/MOL
REMARK 927      BINDING AFFINITY PREDICTED BY RF-SCORE:    0.00 PKD
ROOT
HETATM    1  C   UNL     1     -10.712   5.313  73.294  1.00  0.00    -0.325 C  
HETATM    2  C   UNL     1     -11.924   5.594  72.414  1.00  0.00    -0.105 C  
ENDROOT
BRANCH   2   3
HETATM    3  C   UNL     1     -11.889   7.036  71.903  1.00  0.00    -0.305 C  
BRANCH   3   4
HETATM    4  N   UNL     1     -12.086   7.091  70.447  1.00  0.00    -0.599 NA 
HETATM    5  H   UNL     1     -12.688   7.871  70.181  1.00  0.00     0.000 HD 
BRANCH   4   6
HETATM    6  C   UNL     1     -10.783   7.135  69.724  1.00  0.00    -0.239 C  
HETATM    7  C   UNL     1     -10.677   6.076  68.621  1.00  0.00    -0.363 C  
BRANCH   6   8
HETATM    8  C   UNL     1     -10.689   8.487  69.013  1.00  0.00    -0.092 C  
HETATM    9  O   UNL     1     -10.824   8.352  67.672  1.00  0.00    -0.483 OA 
HETATM   10  H   UNL     1     -10.765   9.192  67.230  1.00  0.00     0.000 HD 
BRANCH   8  11
HETATM   11  N   UNL     1     -10.480   9.590  69.654  1.00  0.00    -0.211 NA 
HETATM   12  H   UNL     1     -11.073   9.859  70.440  1.00  0.00     0.000 HD 
BRANCH  11  13
HETATM   13  C   UNL     1      -9.412  10.410  69.240  1.00  0.00    -0.198 A  
HETATM   14  C   UNL     1      -9.597  11.420  68.302  1.00  0.00    -0.192 A  
HETATM   15  C   UNL     1      -7.451   9.140  70.453  1.00  0.00    -0.107 C  
HETATM   16  S   UNL     1      -8.100  12.146  67.877  1.00  0.00    -0.165 SA 
HETATM   17  C   UNL     1      -7.225  11.115  68.906  1.00  0.00    -0.106 A  
HETATM   18  C   UNL     1      -8.023  10.193  69.559  1.00  0.00    -0.170 A  
BRANCH  14  19
HETATM   19  C   UNL     1     -10.783  11.919  67.635  1.00  0.00    -0.215 C  
HETATM   20  O   UNL     1     -11.738  11.240  67.260  1.00  0.00    -0.566 OA 
BRANCH  19  21
HETATM   21  O   UNL     1     -10.697  13.268  67.412  1.00  0.00    -0.254 OA 
HETATM   22  C   UNL     1     -11.795  14.010  67.945  1.00  0.00    -0.376 C  
ENDBRANCH  19  21
ENDBRANCH  14  19
ENDBRANCH  11  13
ENDBRANCH   8  11
ENDBRANCH   6   8
ENDBRANCH   4   6
ENDBRANCH   3   4
ENDBRANCH   2   3
TORSDOF 8
ENDMDL
MODEL      195
REMARK 921   NORMALIZED FREE ENERGY PREDICTED BY IDOCK:   -3.69 KCAL/MOL
REMARK 922        TOTAL FREE ENERGY PREDICTED BY IDOCK:   -6.13 KCAL/MOL
REMARK 923 INTER-LIGAND FREE ENERGY PREDICTED BY IDOCK:   -4.94 KCAL/MOL
REMARK 924 INTRA-LIGAND FREE ENERGY PREDICTED BY IDOCK:   -1.19 KCAL/MOL
REMARK 927      BINDING AFFINITY PREDICTED BY RF-SCORE:    0.00 PKD
ROOT
HETATM    1  C   UNL     1     -10.967   6.752  67.048  1.00  0.00    -0.439 C  
HETATM    2  C   UNL     1      -9.451   6.602  66.995  1.00  0.00    -0.170 C  
ENDROOT
BRANCH   2   3
HETATM    3  C   UNL     1      -8.854   7.585  65.986  1.00  0.00    -0.150 C  
BRANCH   3   4
HETATM    4  N   UNL     1      -9.426   8.930  66.148  1.00  0.00    -0.234 NA 
HETATM    5  H   UNL     1      -9.933   9.017  67.029  1.00  0.00     0.000 HD 
BRANCH   4   6
HETATM    6  C   UNL     1      -8.381   9.985  66.011  1.00  0.00    -0.125 C  
HETATM    7  C   UNL     1      -7.946  10.208  64.559  1.00  0.00    -0.147 C  
BRANCH   6   8
HETATM    8  C   UNL     1      -8.993  11.310  66.471  1.00  0.00    -0.184 C  
HETATM    9  O   UNL     1      -9.517  12.002  65.431  1.00  0.00    -0.387 OA 
HETATM   10  H   UNL     1      -9.897  12.824  65.717  1.00  0.00     0.000 HD 
BRANCH   8  11
HETATM   11  N   UNL     1      -8.964  11.690  67.706  1.00  0.00    -0.164 NA 
HETATM   12  H   UNL     1      -8.220  12.297  68.050  1.00  0.00     0.000 HD 
BRANCH  11  13
HETATM   13  C   UNL     1      -9.988  11.243  68.565  1.00  0.00    -0.202 A  
HETATM   14  C   UNL     1     -11.169  11.960  68.718  1.00  0.00    -0.259 A  
HETATM   15  C   UNL     1      -8.709   9.232  69.684  1.00  0.00    -0.155 C  
HETATM   16  S   UNL     1     -12.158  11.265  69.938  1.00  0.00    -0.334 SA 
HETATM   17  C   UNL     1     -11.019  10.047  70.268  1.00  0.00    -0.316 A  
HETATM   18  C   UNL     1      -9.872  10.153  69.503  1.00  0.00    -0.255 A  
BRANCH  14  19
HETATM   19  C   UNL     1     -11.668  13.158  68.070  1.00  0.00    -0.355 C  
HETATM   20  O   UNL     1     -11.669  13.372  66.859  1.00  0.00    -0.347 OA 
BRANCH  19  21
HETATM   21  O   UNL     1     -12.103  14.075  68.989  1.00  0.00    -0.346 OA 
HETATM   22  C   UNL     1     -11.586  15.389  68.777  1.00  0.00    -0.368 C  
ENDBRANCH  19  21
ENDBRANCH  14  19
ENDBRANCH  11  13
ENDBRANCH   8  11
ENDBRANCH   6   8
ENDBRANCH   4   6
ENDBRANCH   3   4
ENDBRANCH   2   3
TORSDOF 8
ENDMDL
MODEL      196
REMARK 921   NORMALIZED FREE ENERGY PREDICTED BY IDOCK:   -3.69 KCAL/MOL
REMARK 922        TOTAL FREE ENERGY PREDICTED BY IDOCK:   -6.13 KCAL/MOL
REMARK 923 INTER-LIGAND FREE ENERGY PREDICTED BY IDOCK:   -5.04 KCAL/MOL
REMARK 924 INTRA-LIGAND FREE ENERGY PREDICTED BY IDOCK:   -1.08 KCAL/MOL
REMARK 927      BINDING AFFINITY PREDICTED BY RF-SCORE:    0.00 PKD
ROOT
HETATM    1  C   UNL     1      -9.855  10.923  63.782  1.00  0.00    -0.391 C  
HETATM    2  C   UNL     1      -9.152   9.694  64.345  1.00  0.00    -0.279 C  
ENDROOT
BRANCH   2   3
HETATM    3  C   UNL     1      -8.229  10.090  65.499  1.00  0.00    -0.146 C  
BRANCH   3   4
HETATM    4  N   UNL     1      -8.436  11.492  65.890  1.00  0.00    -0.373 NA 
HETATM    5  H   UNL     1      -9.362  11.823  65.617  1.00  0.00     0.000 HD 
BRANCH   4   6
HETATM    6  C   UNL     1      -8.193  11.691  67.348  1.00  0.00    -0.153 C  
HETATM    7  C   UNL     1      -7.412  12.974  67.653  1.00  0.00    -0.156 C  
BRANCH   6   8
HETATM    8  C   UNL     1      -9.553  11.858  68.030  1.00  0.00    -0.193 C  
HETATM    9  O   UNL     1      -9.566  11.282  69.256  1.00  0.00    -0.410 OA 
HETATM   10  H   UNL     1     -10.411  11.387  69.679  1.00  0.00     0.000 HD 
BRANCH   8  11
HETATM   11  N   UNL     1     -10.542  12.459  67.455  1.00  0.00    -0.216 NA 
HETATM   12  H   UNL     1     -11.135  11.969  66.786  1.00  0.00     0.000 HD 
BRANCH  11  13
HETATM   13  C   UNL     1     -10.780  13.810  67.779  1.00  0.00    -0.246 A  
HETATM   14  C   UNL     1     -11.576  14.165  68.862  1.00  0.00    -0.310 A  
HETATM   15  C   UNL     1      -9.652  14.921  65.675  1.00  0.00    -0.258 C  
HETATM   16  S   UNL     1     -11.816  15.864  68.919  1.00  0.00    -0.178 SA 
HETATM   17  C   UNL     1     -10.895  16.114  67.513  1.00  0.00    -0.284 A  
HETATM   18  C   UNL     1     -10.420  14.939  66.957  1.00  0.00    -0.272 A  
BRANCH  14  19
HETATM   19  C   UNL     1     -12.230  13.374  69.886  1.00  0.00    -0.271 C  
HETATM   20  O   UNL     1     -12.147  12.153  70.015  1.00  0.00    -0.313 OA 
BRANCH  19  21
HETATM   21  O   UNL     1     -13.020  14.155  70.688  1.00  0.00    -0.319 OA 
HETATM   22  C   UNL     1     -12.678  14.085  72.073  1.00  0.00    -0.277 C  
ENDBRANCH  19  21
ENDBRANCH  14  19
ENDBRANCH  11  13
ENDBRANCH   8  11
ENDBRANCH   6   8
ENDBRANCH   4   6
ENDBRANCH   3   4
ENDBRANCH   2   3
TORSDOF 8
ENDMDL
MODEL      197
REMARK 921   NORMALIZED FREE ENERGY PREDICTED BY IDOCK:   -3.69 KCAL/MOL
REMARK 922        TOTAL FREE ENERGY PREDICTED BY IDOCK:   -6.13 KCAL/MOL
REMARK 923 INTER-LIGAND FREE ENERGY PREDICTED BY IDOCK:   -5.42 KCAL/MOL
REMARK 924 INTRA-LIGAND FREE ENERGY PREDICTED BY IDOCK:   -0.71 KCAL/MOL
REMARK 927      BINDING AFFINITY PREDICTED BY RF-SCORE:    0.00 PKD
ROOT
HETATM    1  C   UNL     1      -8.669   9.368  63.218  1.00  0.00    -0.220 C  
HETATM    2  C   UNL     1      -8.396   9.645  64.692  1.00  0.00    -0.162 C  
ENDROOT
BRANCH   2   3
HETATM    3  C   UNL     1      -9.711   9.831  65.451  1.00  0.00    -0.313 C  
BRANCH   3   4
HETATM    4  N   UNL     1      -9.472  10.247  66.840  1.00  0.00    -0.165 NA 
HETATM    5  H   UNL     1      -9.800  11.199  67.007  1.00  0.00     0.000 HD 
BRANCH   4   6
HETATM    6  C   UNL     1     -10.072   9.284  67.806  1.00  0.00    -0.204 C  
HETATM    7  C   UNL     1      -9.050   8.293  68.374  1.00  0.00    -0.136 C  
BRANCH   6   8
HETATM    8  C   UNL     1     -10.586  10.084  69.005  1.00  0.00    -0.214 C  
HETATM    9  O   UNL     1      -9.608  10.290  69.920  1.00  0.00    -0.375 OA 
HETATM   10  H   UNL     1      -9.927  10.787  70.664  1.00  0.00     0.000 HD 
BRANCH   8  11
HETATM   11  N   UNL     1     -11.816  10.471  69.100  1.00  0.00    -0.512 NA 
HETATM   12  H   UNL     1     -12.523  10.131  68.447  1.00  0.00     0.000 HD 
BRANCH  11  13
HETATM   13  C   UNL     1     -12.154  11.372  70.128  1.00  0.00    -0.357 A  
HETATM   14  C   UNL     1     -12.814  10.946  71.275  1.00  0.00    -0.433 A  
HETATM   15  C   UNL     1     -11.488  13.614  68.918  1.00  0.00    -0.344 C  
HETATM   16  S   UNL     1     -13.233  12.278  72.275  1.00  0.00     0.021 SA 
HETATM   17  C   UNL     1     -12.568  13.398  71.184  1.00  0.00    -0.345 A  
HETATM   18  C   UNL     1     -12.052  12.808  70.044  1.00  0.00    -0.355 A  
BRANCH  14  19
HETATM   19  C   UNL     1     -13.213   9.629  71.734  1.00  0.00    -0.430 C  
HETATM   20  O   UNL     1     -14.150   8.967  71.291  1.00  0.00    -0.302 OA 
BRANCH  19  21
HETATM   21  O   UNL     1     -12.437   9.213  72.783  1.00  0.00    -0.183 OA 
HETATM   22  C   UNL     1     -11.398   8.309  72.407  1.00  0.00    -0.388 C  
ENDBRANCH  19  21
ENDBRANCH  14  19
ENDBRANCH  11  13
ENDBRANCH   8  11
ENDBRANCH   6   8
ENDBRANCH   4   6
ENDBRANCH   3   4
ENDBRANCH   2   3
TORSDOF 8
ENDMDL
MODEL      198
REMARK 921   NORMALIZED FREE ENERGY PREDICTED BY IDOCK:   -3.68 KCAL/MOL
REMARK 922        TOTAL FREE ENERGY PREDICTED BY IDOCK:   -6.11 KCAL/MOL
REMARK 923 INTER-LIGAND FREE ENERGY PREDICTED BY IDOCK:   -5.13 KCAL/MOL
REMARK 924 INTRA-LIGAND FREE ENERGY PREDICTED BY IDOCK:   -0.99 KCAL/MOL
REMARK 927      BINDING AFFINITY PREDICTED BY RF-SCORE:    0.00 PKD
ROOT
HETATM    1  C   UNL     1      -9.600  10.568  63.191  1.00  0.00    -0.375 C  
HETATM    2  C   UNL     1      -9.038   9.789  64.374  1.00  0.00    -0.296 C  
ENDROOT
BRANCH   2   3
HETATM    3  C   UNL     1      -8.623  10.747  65.493  1.00  0.00    -0.176 C  
BRANCH   3   4
HETATM    4  N   UNL     1      -9.474  11.945  65.513  1.00  0.00    -0.377 NA 
HETATM    5  H   UNL     1     -10.463  11.702  65.452  1.00  0.00     0.000 HD 
BRANCH   4   6
HETATM    6  C   UNL     1      -9.191  12.792  66.706  1.00  0.00    -0.225 C  
HETATM    7  C   UNL     1      -9.985  14.102  66.710  1.00  0.00    -0.267 C  
BRANCH   6   8
HETATM    8  C   UNL     1      -9.652  12.022  67.946  1.00  0.00    -0.196 C  
HETATM    9  O   UNL     1      -8.652  11.895  68.851  1.00  0.00    -0.361 OA 
HETATM   10  H   UNL     1      -8.939  11.417  69.620  1.00  0.00     0.000 HD 
BRANCH   8  11
HETATM   11  N   UNL     1     -10.849  11.548  68.056  1.00  0.00    -0.201 NA 
HETATM   12  H   UNL     1     -11.423  11.376  67.230  1.00  0.00     0.000 HD 
BRANCH  11  13
HETATM   13  C   UNL     1     -11.342  11.274  69.348  1.00  0.00    -0.292 A  
HETATM   14  C   UNL     1     -11.310   9.989  69.876  1.00  0.00    -0.250 A  
HETATM   15  C   UNL     1     -12.401  13.627  69.869  1.00  0.00    -0.310 C  
HETATM   16  S   UNL     1     -12.115   9.927  71.392  1.00  0.00    -0.420 SA 
HETATM   17  C   UNL     1     -12.515  11.577  71.328  1.00  0.00    -0.293 A  
HETATM   18  C   UNL     1     -12.088  12.196  70.167  1.00  0.00    -0.368 A  
BRANCH  14  19
HETATM   19  C   UNL     1     -10.762   8.744  69.372  1.00  0.00    -0.169 C  
HETATM   20  O   UNL     1     -10.653   8.435  68.186  1.00  0.00    -0.197 OA 
BRANCH  19  21
HETATM   21  O   UNL     1     -10.417   7.903  70.395  1.00  0.00    -0.210 OA 
HETATM   22  C   UNL     1      -9.010   7.824  70.625  1.00  0.00    -0.145 C  
ENDBRANCH  19  21
ENDBRANCH  14  19
ENDBRANCH  11  13
ENDBRANCH   8  11
ENDBRANCH   6   8
ENDBRANCH   4   6
ENDBRANCH   3   4
ENDBRANCH   2   3
TORSDOF 8
ENDMDL
MODEL      199
REMARK 921   NORMALIZED FREE ENERGY PREDICTED BY IDOCK:   -3.67 KCAL/MOL
REMARK 922        TOTAL FREE ENERGY PREDICTED BY IDOCK:   -6.10 KCAL/MOL
REMARK 923 INTER-LIGAND FREE ENERGY PREDICTED BY IDOCK:   -4.98 KCAL/MOL
REMARK 924 INTRA-LIGAND FREE ENERGY PREDICTED BY IDOCK:   -1.12 KCAL/MOL
REMARK 927      BINDING AFFINITY PREDICTED BY RF-SCORE:    0.00 PKD
ROOT
HETATM    1  C   UNL     1     -14.079   8.638  71.952  1.00  0.00    -0.512 C  
HETATM    2  C   UNL     1     -12.563   8.586  72.101  1.00  0.00    -0.431 C  
ENDROOT
BRANCH   2   3
HETATM    3  C   UNL     1     -12.033   7.215  71.677  1.00  0.00    -0.318 C  
BRANCH   3   4
HETATM    4  N   UNL     1     -12.166   7.016  70.227  1.00  0.00    -0.622 NA 
HETATM    5  H   UNL     1     -12.823   7.680  69.817  1.00  0.00     0.000 HD 
BRANCH   4   6
HETATM    6  C   UNL     1     -10.840   7.069  69.548  1.00  0.00    -0.238 C  
HETATM    7  C   UNL     1     -10.653   5.952  68.516  1.00  0.00    -0.317 C  
BRANCH   6   8
HETATM    8  C   UNL     1     -10.771   8.379  68.760  1.00  0.00    -0.051 C  
HETATM    9  O   UNL     1     -10.985   8.175  67.438  1.00  0.00    -0.505 OA 
HETATM   10  H   UNL     1     -10.942   8.988  66.949  1.00  0.00     0.000 HD 
BRANCH   8  11
HETATM   11  N   UNL     1     -10.511   9.511  69.327  1.00  0.00    -0.205 NA 
HETATM   12  H   UNL     1     -11.263  10.112  69.666  1.00  0.00     0.000 HD 
BRANCH  11  13
HETATM   13  C   UNL     1      -9.162   9.893  69.466  1.00  0.00    -0.223 A  
HETATM   14  C   UNL     1      -8.488  10.553  68.444  1.00  0.00    -0.128 A  
HETATM   15  C   UNL     1      -8.650   8.696  71.755  1.00  0.00    -0.240 C  
HETATM   16  S   UNL     1      -6.827  10.750  68.830  1.00  0.00    -0.076 SA 
HETATM   17  C   UNL     1      -7.003   9.951  70.320  1.00  0.00    -0.146 A  
HETATM   18  C   UNL     1      -8.290   9.494  70.543  1.00  0.00    -0.203 A  
BRANCH  14  19
HETATM   19  C   UNL     1      -8.928  11.052  67.156  1.00  0.00    -0.143 C  
HETATM   20  O   UNL     1      -8.328  10.919  66.090  1.00  0.00    -0.162 OA 
BRANCH  19  21
HETATM   21  O   UNL     1     -10.096  11.757  67.269  1.00  0.00    -0.191 OA 
HETATM   22  C   UNL     1     -11.012  11.529  66.198  1.00  0.00    -0.266 C  
ENDBRANCH  19  21
ENDBRANCH  14  19
ENDBRANCH  11  13
ENDBRANCH   8  11
ENDBRANCH   6   8
ENDBRANCH   4   6
ENDBRANCH   3   4
ENDBRANCH   2   3
TORSDOF 8
ENDMDL
MODEL      200
REMARK 921   NORMALIZED FREE ENERGY PREDICTED BY IDOCK:   -3.66 KCAL/MOL
REMARK 922        TOTAL FREE ENERGY PREDICTED BY IDOCK:   -6.08 KCAL/MOL
REMARK 923 INTER-LIGAND FREE ENERGY PREDICTED BY IDOCK:   -5.15 KCAL/MOL
REMARK 924 INTRA-LIGAND FREE ENERGY PREDICTED BY IDOCK:   -0.92 KCAL/MOL
REMARK 927      BINDING AFFINITY PREDICTED BY RF-SCORE:    0.00 PKD
ROOT
HETATM    1  C   UNL     1     -12.140  14.637  64.358  1.00  0.00    -0.481 C  
HETATM    2  C   UNL     1     -12.701  13.563  65.282  1.00  0.00    -0.481 C  
ENDROOT
BRANCH   2   3
HETATM    3  C   UNL     1     -12.003  13.615  66.643  1.00  0.00    -0.415 C  
BRANCH   3   4
HETATM    4  N   UNL     1     -11.877  12.273  67.229  1.00  0.00    -0.555 NA 
HETATM    5  H   UNL     1     -12.779  11.799  67.275  1.00  0.00     0.000 HD 
BRANCH   4   6
HETATM    6  C   UNL     1     -10.866  11.454  66.499  1.00  0.00    -0.283 C  
HETATM    7  C   UNL     1      -9.522  12.171  66.338  1.00  0.00    -0.238 C  
BRANCH   6   8
HETATM    8  C   UNL     1     -10.576  10.210  67.342  1.00  0.00    -0.272 C  
HETATM    9  O   UNL     1     -11.567   9.976  68.236  1.00  0.00    -0.592 OA 
HETATM   10  H   UNL     1     -11.387   9.203  68.759  1.00  0.00     0.000 HD 
BRANCH   8  11
HETATM   11  N   UNL     1      -9.495   9.518  67.198  1.00  0.00    -0.145 NA 
HETATM   12  H   UNL     1      -8.971   9.540  66.323  1.00  0.00     0.000 HD 
BRANCH  11  13
HETATM   13  C   UNL     1      -9.058   8.732  68.283  1.00  0.00    -0.141 A  
HETATM   14  C   UNL     1      -9.547   7.448  68.490  1.00  0.00    -0.146 A  
HETATM   15  C   UNL     1      -7.630  10.556  69.536  1.00  0.00    -0.148 C  
HETATM   16  S   UNL     1      -8.959   6.795  69.965  1.00  0.00    -0.141 SA 
HETATM   17  C   UNL     1      -8.088   8.209  70.327  1.00  0.00    -0.109 A  
HETATM   18  C   UNL     1      -8.245   9.203  69.378  1.00  0.00    -0.118 A  
BRANCH  14  19
HETATM   19  C   UNL     1     -10.452   6.618  67.719  1.00  0.00    -0.225 C  
HETATM   20  O   UNL     1     -11.237   7.016  66.859  1.00  0.00    -0.302 OA 
BRANCH  19  21
HETATM   21  O   UNL     1     -10.373   5.306  68.104  1.00  0.00    -0.169 OA 
HETATM   22  C   UNL     1      -9.908   4.432  67.075  1.00  0.00    -0.194 C  
ENDBRANCH  19  21
ENDBRANCH  14  19
ENDBRANCH  11  13
ENDBRANCH   8  11
ENDBRANCH   6   8
ENDBRANCH   4   6
ENDBRANCH   3   4
ENDBRANCH   2   3
TORSDOF 8
ENDMDL
MODEL      201
REMARK 921   NORMALIZED FREE ENERGY PREDICTED BY IDOCK:   -3.66 KCAL/MOL
REMARK 922        TOTAL FREE ENERGY PREDICTED BY IDOCK:   -6.07 KCAL/MOL
REMARK 923 INTER-LIGAND FREE ENERGY PREDICTED BY IDOCK:   -4.87 KCAL/MOL
REMARK 924 INTRA-LIGAND FREE ENERGY PREDICTED BY IDOCK:   -1.20 KCAL/MOL
REMARK 927      BINDING AFFINITY PREDICTED BY RF-SCORE:    0.00 PKD
ROOT
HETATM    1  C   UNL     1      -9.881  20.104  67.636  1.00  0.00    -0.567 C  
HETATM    2  C   UNL     1      -9.020  19.109  68.404  1.00  0.00    -0.392 C  
ENDROOT
BRANCH   2   3
HETATM    3  C   UNL     1      -9.706  17.742  68.458  1.00  0.00    -0.343 C  
BRANCH   3   4
HETATM    4  N   UNL     1      -8.877  16.704  67.828  1.00  0.00    -0.204 NA 
HETATM    5  H   UNL     1      -8.321  16.199  68.518  1.00  0.00     0.000 HD 
BRANCH   4   6
HETATM    6  C   UNL     1      -9.705  15.774  67.007  1.00  0.00    -0.228 C  
HETATM    7  C   UNL     1     -10.254  16.429  65.734  1.00  0.00    -0.370 C  
BRANCH   6   8
HETATM    8  C   UNL     1      -8.796  14.638  66.531  1.00  0.00    -0.155 C  
HETATM    9  O   UNL     1      -7.490  14.920  66.757  1.00  0.00    -0.282 OA 
HETATM   10  H   UNL     1      -6.926  14.214  66.462  1.00  0.00     0.000 HD 
BRANCH   8  11
HETATM   11  N   UNL     1      -9.263  13.573  65.967  1.00  0.00    -0.483 NA 
HETATM   12  H   UNL     1      -9.372  13.523  64.953  1.00  0.00     0.000 HD 
BRANCH  11  13
HETATM   13  C   UNL     1      -9.616  12.483  66.787  1.00  0.00    -0.231 A  
HETATM   14  C   UNL     1      -8.733  11.433  67.014  1.00  0.00    -0.160 A  
HETATM   15  C   UNL     1     -12.150  13.086  67.168  1.00  0.00    -0.325 C  
HETATM   16  S   UNL     1      -9.486  10.181  67.917  1.00  0.00    -0.141 SA 
HETATM   17  C   UNL     1     -10.965  11.017  67.980  1.00  0.00    -0.258 A  
HETATM   18  C   UNL     1     -10.937  12.224  67.305  1.00  0.00    -0.301 A  
BRANCH  14  19
HETATM   19  C   UNL     1      -7.357  11.217  66.611  1.00  0.00    -0.145 C  
HETATM   20  O   UNL     1      -6.922  10.213  66.049  1.00  0.00    -0.102 OA 
BRANCH  19  21
HETATM   21  O   UNL     1      -6.560  12.266  66.985  1.00  0.00    -0.136 OA 
HETATM   22  C   UNL     1      -5.771  12.002  68.146  1.00  0.00    -0.050 C  
ENDBRANCH  19  21
ENDBRANCH  14  19
ENDBRANCH  11  13
ENDBRANCH   8  11
ENDBRANCH   6   8
ENDBRANCH   4   6
ENDBRANCH   3   4
ENDBRANCH   2   3
TORSDOF 8
ENDMDL
MODEL      202
REMARK 921   NORMALIZED FREE ENERGY PREDICTED BY IDOCK:   -3.65 KCAL/MOL
REMARK 922        TOTAL FREE ENERGY PREDICTED BY IDOCK:   -6.06 KCAL/MOL
REMARK 923 INTER-LIGAND FREE ENERGY PREDICTED BY IDOCK:   -4.95 KCAL/MOL
REMARK 924 INTRA-LIGAND FREE ENERGY PREDICTED BY IDOCK:   -1.11 KCAL/MOL
REMARK 927      BINDING AFFINITY PREDICTED BY RF-SCORE:    0.00 PKD
ROOT
HETATM    1  C   UNL     1     -12.038  12.591  63.993  1.00  0.00    -0.557 C  
HETATM    2  C   UNL     1     -12.873  13.594  64.779  1.00  0.00    -0.176 C  
ENDROOT
BRANCH   2   3
HETATM    3  C   UNL     1     -12.277  13.808  66.172  1.00  0.00    -0.459 C  
BRANCH   3   4
HETATM    4  N   UNL     1     -12.125  12.534  66.889  1.00  0.00    -0.533 NA 
HETATM    5  H   UNL     1     -12.427  11.745  66.316  1.00  0.00     0.000 HD 
BRANCH   4   6
HETATM    6  C   UNL     1     -10.729  12.351  67.380  1.00  0.00    -0.229 C  
HETATM    7  C   UNL     1     -10.380  13.282  68.546  1.00  0.00    -0.244 C  
BRANCH   6   8
HETATM    8  C   UNL     1     -10.613  10.929  67.934  1.00  0.00    -0.207 C  
HETATM    9  O   UNL     1     -11.815  10.455  68.341  1.00  0.00    -0.723 OA 
HETATM   10  H   UNL     1     -11.743   9.572  68.684  1.00  0.00     0.000 HD 
BRANCH   8  11
HETATM   11  N   UNL     1      -9.481  10.309  68.008  1.00  0.00    -0.145 NA 
HETATM   12  H   UNL     1      -8.746  10.635  68.636  1.00  0.00     0.000 HD 
BRANCH  11  13
HETATM   13  C   UNL     1      -9.290   9.172  67.199  1.00  0.00    -0.143 A  
HETATM   14  C   UNL     1      -9.391   7.887  67.721  1.00  0.00    -0.140 A  
HETATM   15  C   UNL     1      -8.474  10.383  65.008  1.00  0.00    -0.180 C  
HETATM   16  S   UNL     1      -8.956   6.710  66.549  1.00  0.00    -0.147 SA 
HETATM   17  C   UNL     1      -8.618   7.896  65.379  1.00  0.00    -0.095 A  
HETATM   18  C   UNL     1      -8.790   9.186  65.846  1.00  0.00    -0.209 A  
BRANCH  14  19
HETATM   19  C   UNL     1      -9.758   7.400  69.037  1.00  0.00    -0.160 C  
HETATM   20  O   UNL     1      -9.063   6.690  69.761  1.00  0.00    -0.142 OA 
BRANCH  19  21
HETATM   21  O   UNL     1     -11.029   7.787  69.373  1.00  0.00    -0.165 OA 
HETATM   22  C   UNL     1     -11.623   6.984  70.392  1.00  0.00    -0.295 C  
ENDBRANCH  19  21
ENDBRANCH  14  19
ENDBRANCH  11  13
ENDBRANCH   8  11
ENDBRANCH   6   8
ENDBRANCH   4   6
ENDBRANCH   3   4
ENDBRANCH   2   3
TORSDOF 8
ENDMDL
MODEL      203
REMARK 921   NORMALIZED FREE ENERGY PREDICTED BY IDOCK:   -3.65 KCAL/MOL
REMARK 922        TOTAL FREE ENERGY PREDICTED BY IDOCK:   -6.06 KCAL/MOL
REMARK 923 INTER-LIGAND FREE ENERGY PREDICTED BY IDOCK:   -5.24 KCAL/MOL
REMARK 924 INTRA-LIGAND FREE ENERGY PREDICTED BY IDOCK:   -0.83 KCAL/MOL
REMARK 927      BINDING AFFINITY PREDICTED BY RF-SCORE:    0.00 PKD
ROOT
HETATM    1  C   UNL     1     -10.514   5.293  66.540  1.00  0.00    -0.354 C  
HETATM    2  C   UNL     1     -10.599   5.775  67.983  1.00  0.00    -0.295 C  
ENDROOT
BRANCH   2   3
HETATM    3  C   UNL     1     -10.615   7.304  68.034  1.00  0.00    -0.189 C  
BRANCH   3   4
HETATM    4  N   UNL     1     -10.346   7.796  69.393  1.00  0.00    -0.215 NA 
HETATM    5  H   UNL     1      -9.354   7.734  69.623  1.00  0.00     0.000 HD 
BRANCH   4   6
HETATM    6  C   UNL     1     -10.867   9.180  69.583  1.00  0.00    -0.197 C  
HETATM    7  C   UNL     1     -11.685   9.339  70.869  1.00  0.00    -0.360 C  
BRANCH   6   8
HETATM    8  C   UNL     1      -9.665  10.114  69.735  1.00  0.00    -0.196 C  
HETATM    9  O   UNL     1      -8.864   9.728  70.758  1.00  0.00    -0.347 OA 
HETATM   10  H   UNL     1      -8.117  10.308  70.852  1.00  0.00     0.000 HD 
BRANCH   8  11
HETATM   11  N   UNL     1      -9.492  11.145  68.976  1.00  0.00    -0.379 NA 
HETATM   12  H   UNL     1      -9.439  12.084  69.372  1.00  0.00     0.000 HD 
BRANCH  11  13
HETATM   13  C   UNL     1      -9.380  10.939  67.586  1.00  0.00    -0.156 A  
HETATM   14  C   UNL     1     -10.369  11.369  66.709  1.00  0.00    -0.234 A  
HETATM   15  C   UNL     1      -7.231   9.418  67.589  1.00  0.00    -0.083 C  
HETATM   16  S   UNL     1     -10.041  10.845  65.107  1.00  0.00    -0.308 SA 
HETATM   17  C   UNL     1      -8.621  10.041  65.584  1.00  0.00    -0.155 A  
HETATM   18  C   UNL     1      -8.382  10.119  66.944  1.00  0.00    -0.122 A  
BRANCH  14  19
HETATM   19  C   UNL     1     -11.588  12.127  66.916  1.00  0.00    -0.341 C  
HETATM   20  O   UNL     1     -12.318  12.571  66.031  1.00  0.00    -0.615 OA 
BRANCH  19  21
HETATM   21  O   UNL     1     -11.815  12.347  68.249  1.00  0.00    -0.326 OA 
HETATM   22  C   UNL     1     -12.020  13.721  68.577  1.00  0.00    -0.367 C  
ENDBRANCH  19  21
ENDBRANCH  14  19
ENDBRANCH  11  13
ENDBRANCH   8  11
ENDBRANCH   6   8
ENDBRANCH   4   6
ENDBRANCH   3   4
ENDBRANCH   2   3
TORSDOF 8
ENDMDL
MODEL      204
REMARK 921   NORMALIZED FREE ENERGY PREDICTED BY IDOCK:   -3.63 KCAL/MOL
REMARK 922        TOTAL FREE ENERGY PREDICTED BY IDOCK:   -6.03 KCAL/MOL
REMARK 923 INTER-LIGAND FREE ENERGY PREDICTED BY IDOCK:   -5.24 KCAL/MOL
REMARK 924 INTRA-LIGAND FREE ENERGY PREDICTED BY IDOCK:   -0.80 KCAL/MOL
REMARK 927      BINDING AFFINITY PREDICTED BY RF-SCORE:    0.00 PKD
ROOT
HETATM    1  C   UNL     1      -9.813  20.447  67.501  1.00  0.00    -0.564 C  
HETATM    2  C   UNL     1     -10.788  19.296  67.278  1.00  0.00    -0.554 C  
ENDROOT
BRANCH   2   3
HETATM    3  C   UNL     1     -10.248  18.011  67.909  1.00  0.00    -0.378 C  
BRANCH   3   4
HETATM    4  N   UNL     1     -11.140  16.873  67.647  1.00  0.00    -0.153 NA 
HETATM    5  H   UNL     1     -11.422  16.837  66.667  1.00  0.00     0.000 HD 
BRANCH   4   6
HETATM    6  C   UNL     1     -10.523  15.588  68.085  1.00  0.00    -0.259 C  
HETATM    7  C   UNL     1     -11.144  15.036  69.373  1.00  0.00    -0.290 C  
BRANCH   6   8
HETATM    8  C   UNL     1     -10.806  14.542  67.004  1.00  0.00    -0.297 C  
HETATM    9  O   UNL     1     -12.079  14.084  67.079  1.00  0.00    -0.427 OA 
HETATM   10  H   UNL     1     -12.254  13.435  66.408  1.00  0.00     0.000 HD 
BRANCH   8  11
HETATM   11  N   UNL     1      -9.902  14.157  66.165  1.00  0.00    -0.303 NA 
HETATM   12  H   UNL     1      -9.508  14.808  65.485  1.00  0.00     0.000 HD 
BRANCH  11  13
HETATM   13  C   UNL     1      -9.476  12.815  66.213  1.00  0.00    -0.196 A  
HETATM   14  C   UNL     1      -8.297  12.452  66.854  1.00  0.00    -0.117 A  
HETATM   15  C   UNL     1     -11.276  11.775  64.596  1.00  0.00    -0.349 C  
HETATM   16  S   UNL     1      -7.954  10.787  66.618  1.00  0.00    -0.145 SA 
HETATM   17  C   UNL     1      -9.340  10.564  65.659  1.00  0.00    -0.200 A  
HETATM   18  C   UNL     1     -10.064  11.727  65.470  1.00  0.00    -0.285 A  
BRANCH  14  19
HETATM   19  C   UNL     1      -7.339  13.217  67.630  1.00  0.00    -0.161 C  
HETATM   20  O   UNL     1      -6.172  13.439  67.314  1.00  0.00    -0.313 OA 
BRANCH  19  21
HETATM   21  O   UNL     1      -7.881  13.633  68.817  1.00  0.00    -0.123 OA 
HETATM   22  C   UNL     1      -7.066  14.567  69.525  1.00  0.00    -0.125 C  
ENDBRANCH  19  21
ENDBRANCH  14  19
ENDBRANCH  11  13
ENDBRANCH   8  11
ENDBRANCH   6   8
ENDBRANCH   4   6
ENDBRANCH   3   4
ENDBRANCH   2   3
TORSDOF 8
ENDMDL
MODEL      205
REMARK 921   NORMALIZED FREE ENERGY PREDICTED BY IDOCK:   -3.61 KCAL/MOL
REMARK 922        TOTAL FREE ENERGY PREDICTED BY IDOCK:   -6.01 KCAL/MOL
REMARK 923 INTER-LIGAND FREE ENERGY PREDICTED BY IDOCK:   -4.94 KCAL/MOL
REMARK 924 INTRA-LIGAND FREE ENERGY PREDICTED BY IDOCK:   -1.07 KCAL/MOL
REMARK 927      BINDING AFFINITY PREDICTED BY RF-SCORE:    0.00 PKD
ROOT
HETATM    1  C   UNL     1      -9.757   2.787  63.302  1.00  0.00    -0.099 C  
HETATM    2  C   UNL     1     -10.728   3.755  63.968  1.00  0.00    -0.256 C  
ENDROOT
BRANCH   2   3
HETATM    3  C   UNL     1     -10.168   4.231  65.310  1.00  0.00    -0.217 C  
BRANCH   3   4
HETATM    4  N   UNL     1     -11.046   5.234  65.929  1.00  0.00    -0.800 NA 
HETATM    5  H   UNL     1     -12.027   4.960  65.868  1.00  0.00     0.000 HD 
BRANCH   4   6
HETATM    6  C   UNL     1     -10.643   5.515  67.337  1.00  0.00    -0.199 C  
HETATM    7  C   UNL     1      -9.421   4.703  67.780  1.00  0.00    -0.190 C  
BRANCH   6   8
HETATM    8  C   UNL     1     -10.219   6.983  67.417  1.00  0.00    -0.215 C  
HETATM    9  O   UNL     1     -10.446   7.629  66.248  1.00  0.00    -0.418 OA 
HETATM   10  H   UNL     1     -10.183   8.540  66.297  1.00  0.00     0.000 HD 
BRANCH   8  11
HETATM   11  N   UNL     1      -9.689   7.490  68.481  1.00  0.00    -0.154 NA 
HETATM   12  H   UNL     1      -8.677   7.496  68.610  1.00  0.00     0.000 HD 
BRANCH  11  13
HETATM   13  C   UNL     1     -10.546   8.035  69.457  1.00  0.00    -0.214 A  
HETATM   14  C   UNL     1     -10.917   9.375  69.428  1.00  0.00    -0.145 A  
HETATM   15  C   UNL     1     -10.669   5.959  71.072  1.00  0.00    -0.331 C  
HETATM   16  S   UNL     1     -11.833   9.790  70.820  1.00  0.00    -0.323 SA 
HETATM   17  C   UNL     1     -11.714   8.219  71.456  1.00  0.00    -0.292 A  
HETATM   18  C   UNL     1     -10.966   7.366  70.664  1.00  0.00    -0.274 A  
BRANCH  14  19
HETATM   19  C   UNL     1     -10.648  10.436  68.477  1.00  0.00    -0.209 C  
HETATM   20  O   UNL     1     -11.009  10.457  67.302  1.00  0.00    -0.288 OA 
BRANCH  19  21
HETATM   21  O   UNL     1      -9.875  11.419  69.036  1.00  0.00    -0.153 OA 
HETATM   22  C   UNL     1      -8.756  11.796  68.234  1.00  0.00    -0.167 C  
ENDBRANCH  19  21
ENDBRANCH  14  19
ENDBRANCH  11  13
ENDBRANCH   8  11
ENDBRANCH   6   8
ENDBRANCH   4   6
ENDBRANCH   3   4
ENDBRANCH   2   3
TORSDOF 8
ENDMDL
MODEL      206
REMARK 921   NORMALIZED FREE ENERGY PREDICTED BY IDOCK:   -3.61 KCAL/MOL
REMARK 922        TOTAL FREE ENERGY PREDICTED BY IDOCK:   -6.00 KCAL/MOL
REMARK 923 INTER-LIGAND FREE ENERGY PREDICTED BY IDOCK:   -5.20 KCAL/MOL
REMARK 924 INTRA-LIGAND FREE ENERGY PREDICTED BY IDOCK:   -0.80 KCAL/MOL
REMARK 927      BINDING AFFINITY PREDICTED BY RF-SCORE:    0.00 PKD
ROOT
HETATM    1  C   UNL     1     -10.903   5.546  66.722  1.00  0.00    -0.252 C  
HETATM    2  C   UNL     1     -10.874   6.927  67.365  1.00  0.00    -0.396 C  
ENDROOT
BRANCH   2   3
HETATM    3  C   UNL     1      -9.838   7.815  66.672  1.00  0.00    -0.225 C  
BRANCH   3   4
HETATM    4  N   UNL     1      -9.030   8.556  67.651  1.00  0.00    -0.135 NA 
HETATM    5  H   UNL     1      -9.375   9.508  67.775  1.00  0.00     0.000 HD 
BRANCH   4   6
HETATM    6  C   UNL     1      -8.950   7.829  68.951  1.00  0.00    -0.141 C  
HETATM    7  C   UNL     1      -7.888   6.725  68.952  1.00  0.00    -0.111 C  
BRANCH   6   8
HETATM    8  C   UNL     1      -8.510   8.832  70.020  1.00  0.00    -0.133 C  
HETATM    9  O   UNL     1      -7.337   8.464  70.591  1.00  0.00    -0.050 OA 
HETATM   10  H   UNL     1      -7.064   9.087  71.254  1.00  0.00     0.000 HD 
BRANCH   8  11
HETATM   11  N   UNL     1      -9.216   9.870  70.323  1.00  0.00    -0.375 NA 
HETATM   12  H   UNL     1      -8.813  10.807  70.286  1.00  0.00     0.000 HD 
BRANCH  11  13
HETATM   13  C   UNL     1     -10.558   9.675  70.706  1.00  0.00    -0.322 A  
HETATM   14  C   UNL     1     -11.594  10.369  70.091  1.00  0.00    -0.312 A  
HETATM   15  C   UNL     1     -10.147   8.139  72.805  1.00  0.00    -0.367 C  
HETATM   16  S   UNL     1     -13.094  10.049  70.864  1.00  0.00    -0.229 SA 
HETATM   17  C   UNL     1     -12.367   9.024  72.008  1.00  0.00    -0.384 A  
HETATM   18  C   UNL     1     -10.996   8.926  71.859  1.00  0.00    -0.439 A  
BRANCH  14  19
HETATM   19  C   UNL     1     -11.614  11.297  68.976  1.00  0.00    -0.319 C  
HETATM   20  O   UNL     1     -12.161  11.106  67.892  1.00  0.00    -0.627 OA 
BRANCH  19  21
HETATM   21  O   UNL     1     -10.887  12.423  69.256  1.00  0.00    -0.150 OA 
HETATM   22  C   UNL     1      -9.995  12.806  68.208  1.00  0.00    -0.230 C  
ENDBRANCH  19  21
ENDBRANCH  14  19
ENDBRANCH  11  13
ENDBRANCH   8  11
ENDBRANCH   6   8
ENDBRANCH   4   6
ENDBRANCH   3   4
ENDBRANCH   2   3
TORSDOF 8
ENDMDL
MODEL      207
REMARK 921   NORMALIZED FREE ENERGY PREDICTED BY IDOCK:   -3.59 KCAL/MOL
REMARK 922        TOTAL FREE ENERGY PREDICTED BY IDOCK:   -5.98 KCAL/MOL
REMARK 923 INTER-LIGAND FREE ENERGY PREDICTED BY IDOCK:   -5.09 KCAL/MOL
REMARK 924 INTRA-LIGAND FREE ENERGY PREDICTED BY IDOCK:   -0.89 KCAL/MOL
REMARK 927      BINDING AFFINITY PREDICTED BY RF-SCORE:    0.00 PKD
ROOT
HETATM    1  C   UNL     1      -9.980   3.361  64.213  1.00  0.00    -0.181 C  
HETATM    2  C   UNL     1      -9.444   4.515  65.053  1.00  0.00    -0.156 C  
ENDROOT
BRANCH   2   3
HETATM    3  C   UNL     1     -10.079   4.500  66.445  1.00  0.00    -0.244 C  
BRANCH   3   4
HETATM    4  N   UNL     1     -10.569   5.834  66.822  1.00  0.00    -0.291 NA 
HETATM    5  H   UNL     1     -11.583   5.899  66.727  1.00  0.00     0.000 HD 
BRANCH   4   6
HETATM    6  C   UNL     1     -10.122   6.208  68.194  1.00  0.00    -0.157 C  
HETATM    7  C   UNL     1      -8.615   6.019  68.403  1.00  0.00    -0.111 C  
BRANCH   6   8
HETATM    8  C   UNL     1     -10.383   7.705  68.377  1.00  0.00    -0.194 C  
HETATM    9  O   UNL     1     -11.032   8.229  67.309  1.00  0.00    -0.474 OA 
HETATM   10  H   UNL     1     -11.194   9.158  67.423  1.00  0.00     0.000 HD 
BRANCH   8  11
HETATM   11  N   UNL     1      -9.991   8.350  69.426  1.00  0.00    -0.186 NA 
HETATM   12  H   UNL     1      -9.032   8.264  69.764  1.00  0.00     0.000 HD 
BRANCH  11  13
HETATM   13  C   UNL     1     -10.921   9.173  70.090  1.00  0.00    -0.239 A  
HETATM   14  C   UNL     1     -11.848   8.645  70.982  1.00  0.00    -0.265 A  
HETATM   15  C   UNL     1     -10.422  11.427  68.823  1.00  0.00    -0.228 C  
HETATM   16  S   UNL     1     -12.947   9.852  71.514  1.00  0.00    -0.455 SA 
HETATM   17  C   UNL     1     -12.213  11.047  70.553  1.00  0.00    -0.381 A  
HETATM   18  C   UNL     1     -11.160  10.565  69.796  1.00  0.00    -0.354 A  
BRANCH  14  19
HETATM   19  C   UNL     1     -12.049   7.302  71.491  1.00  0.00    -0.331 C  
HETATM   20  O   UNL     1     -13.136   6.758  71.676  1.00  0.00    -0.328 OA 
BRANCH  19  21
HETATM   21  O   UNL     1     -10.856   6.707  71.805  1.00  0.00    -0.224 OA 
HETATM   22  C   UNL     1     -10.622   6.593  73.209  1.00  0.00    -0.291 C  
ENDBRANCH  19  21
ENDBRANCH  14  19
ENDBRANCH  11  13
ENDBRANCH   8  11
ENDBRANCH   6   8
ENDBRANCH   4   6
ENDBRANCH   3   4
ENDBRANCH   2   3
TORSDOF 8
ENDMDL
MODEL      208
REMARK 921   NORMALIZED FREE ENERGY PREDICTED BY IDOCK:   -3.59 KCAL/MOL
REMARK 922        TOTAL FREE ENERGY PREDICTED BY IDOCK:   -5.98 KCAL/MOL
REMARK 923 INTER-LIGAND FREE ENERGY PREDICTED BY IDOCK:   -5.02 KCAL/MOL
REMARK 924 INTRA-LIGAND FREE ENERGY PREDICTED BY IDOCK:   -0.96 KCAL/MOL
REMARK 927      BINDING AFFINITY PREDICTED BY RF-SCORE:    0.00 PKD
ROOT
HETATM    1  C   UNL     1      -6.851   7.651  67.439  1.00  0.00    -0.069 C  
HETATM    2  C   UNL     1      -6.026   8.789  68.028  1.00  0.00    -0.046 C  
ENDROOT
BRANCH   2   3
HETATM    3  C   UNL     1      -6.258  10.079  67.238  1.00  0.00    -0.062 C  
BRANCH   3   4
HETATM    4  N   UNL     1      -7.533  10.709  67.608  1.00  0.00    -0.091 NA 
HETATM    5  H   UNL     1      -7.407  11.403  68.345  1.00  0.00     0.000 HD 
BRANCH   4   6
HETATM    6  C   UNL     1      -8.216  11.293  66.418  1.00  0.00    -0.150 C  
HETATM    7  C   UNL     1      -8.177  10.370  65.195  1.00  0.00    -0.158 C  
BRANCH   6   8
HETATM    8  C   UNL     1      -9.697  11.462  66.765  1.00  0.00    -0.198 C  
HETATM    9  O   UNL     1     -10.435  10.422  66.307  1.00  0.00    -0.222 OA 
HETATM   10  H   UNL     1     -11.354  10.527  66.523  1.00  0.00     0.000 HD 
BRANCH   8  11
HETATM   11  N   UNL     1     -10.143  12.498  67.396  1.00  0.00    -0.209 NA 
HETATM   12  H   UNL     1     -10.529  12.412  68.337  1.00  0.00     0.000 HD 
BRANCH  11  13
HETATM   13  C   UNL     1     -10.083  13.748  66.750  1.00  0.00    -0.265 A  
HETATM   14  C   UNL     1     -11.059  14.141  65.841  1.00  0.00    -0.306 A  
HETATM   15  C   UNL     1      -7.698  14.500  67.576  1.00  0.00    -0.208 C  
HETATM   16  S   UNL     1     -10.644  15.633  65.100  1.00  0.00    -0.387 SA 
HETATM   17  C   UNL     1      -9.182  15.737  65.960  1.00  0.00    -0.344 A  
HETATM   18  C   UNL     1      -8.959  14.651  66.787  1.00  0.00    -0.283 A  
BRANCH  14  19
HETATM   19  C   UNL     1     -12.296  13.516  65.414  1.00  0.00    -0.478 C  
HETATM   20  O   UNL     1     -13.424  13.986  65.552  1.00  0.00    -0.677 OA 
BRANCH  19  21
HETATM   21  O   UNL     1     -12.065  12.279  64.872  1.00  0.00    -0.396 OA 
HETATM   22  C   UNL     1     -11.469  12.323  63.576  1.00  0.00    -0.476 C  
ENDBRANCH  19  21
ENDBRANCH  14  19
ENDBRANCH  11  13
ENDBRANCH   8  11
ENDBRANCH   6   8
ENDBRANCH   4   6
ENDBRANCH   3   4
ENDBRANCH   2   3
TORSDOF 8
ENDMDL
MODEL      209
REMARK 921   NORMALIZED FREE ENERGY PREDICTED BY IDOCK:   -3.59 KCAL/MOL
REMARK 922        TOTAL FREE ENERGY PREDICTED BY IDOCK:   -5.98 KCAL/MOL
REMARK 923 INTER-LIGAND FREE ENERGY PREDICTED BY IDOCK:   -5.23 KCAL/MOL
REMARK 924 INTRA-LIGAND FREE ENERGY PREDICTED BY IDOCK:   -0.75 KCAL/MOL
REMARK 927      BINDING AFFINITY PREDICTED BY RF-SCORE:    0.00 PKD
ROOT
HETATM    1  C   UNL     1     -10.193  13.979  66.705  1.00  0.00    -0.275 C  
HETATM    2  C   UNL     1     -11.520  13.865  67.445  1.00  0.00    -0.374 C  
ENDROOT
BRANCH   2   3
HETATM    3  C   UNL     1     -11.712  12.442  67.975  1.00  0.00    -0.356 C  
BRANCH   3   4
HETATM    4  N   UNL     1     -10.536  11.991  68.732  1.00  0.00    -0.318 NA 
HETATM    5  H   UNL     1      -9.948  12.776  69.012  1.00  0.00     0.000 HD 
BRANCH   4   6
HETATM    6  C   UNL     1     -10.930  11.158  69.904  1.00  0.00    -0.092 C  
HETATM    7  C   UNL     1     -12.439  10.897  69.969  1.00  0.00    -0.332 C  
BRANCH   6   8
HETATM    8  C   UNL     1     -10.277   9.784  69.741  1.00  0.00    -0.242 C  
HETATM    9  O   UNL     1      -9.017   9.772  70.238  1.00  0.00    -0.275 OA 
HETATM   10  H   UNL     1      -8.611   8.919  70.137  1.00  0.00     0.000 HD 
BRANCH   8  11
HETATM   11  N   UNL     1     -10.883   8.796  69.169  1.00  0.00    -0.412 NA 
HETATM   12  H   UNL     1     -11.542   8.957  68.407  1.00  0.00     0.000 HD 
BRANCH  11  13
HETATM   13  C   UNL     1     -10.608   7.491  69.625  1.00  0.00    -0.239 A  
HETATM   14  C   UNL     1     -11.060   7.048  70.863  1.00  0.00    -0.267 A  
HETATM   15  C   UNL     1      -8.959   6.747  67.712  1.00  0.00    -0.116 C  
HETATM   16  S   UNL     1     -10.447   5.484  71.217  1.00  0.00    -0.229 SA 
HETATM   17  C   UNL     1      -9.578   5.415  69.758  1.00  0.00    -0.168 A  
HETATM   18  C   UNL     1      -9.701   6.563  68.997  1.00  0.00    -0.140 A  
BRANCH  14  19
HETATM   19  C   UNL     1     -11.901   7.668  71.869  1.00  0.00    -0.294 C  
HETATM   20  O   UNL     1     -11.535   8.035  72.984  1.00  0.00    -0.370 OA 
BRANCH  19  21
HETATM   21  O   UNL     1     -13.200   7.754  71.446  1.00  0.00    -0.322 OA 
HETATM   22  C   UNL     1     -13.998   8.651  72.218  1.00  0.00    -0.409 C  
ENDBRANCH  19  21
ENDBRANCH  14  19
ENDBRANCH  11  13
ENDBRANCH   8  11
ENDBRANCH   6   8
ENDBRANCH   4   6
ENDBRANCH   3   4
ENDBRANCH   2   3
TORSDOF 8
ENDMDL
MODEL      210
REMARK 921   NORMALIZED FREE ENERGY PREDICTED BY IDOCK:   -3.58 KCAL/MOL
REMARK 922        TOTAL FREE ENERGY PREDICTED BY IDOCK:   -5.96 KCAL/MOL
REMARK 923 INTER-LIGAND FREE ENERGY PREDICTED BY IDOCK:   -5.27 KCAL/MOL
REMARK 924 INTRA-LIGAND FREE ENERGY PREDICTED BY IDOCK:   -0.69 KCAL/MOL
REMARK 927      BINDING AFFINITY PREDICTED BY RF-SCORE:    0.00 PKD
ROOT
HETATM    1  C   UNL     1     -11.988  12.822  63.557  1.00  0.00    -0.633 C  
HETATM    2  C   UNL     1     -10.721  13.004  64.384  1.00  0.00    -0.414 C  
ENDROOT
BRANCH   2   3
HETATM    3  C   UNL     1     -10.571  14.464  64.816  1.00  0.00    -0.393 C  
BRANCH   3   4
HETATM    4  N   UNL     1     -10.392  14.574  66.270  1.00  0.00    -0.285 NA 
HETATM    5  H   UNL     1      -9.821  13.811  66.635  1.00  0.00     0.000 HD 
BRANCH   4   6
HETATM    6  C   UNL     1      -9.834  15.904  66.649  1.00  0.00    -0.254 C  
HETATM    7  C   UNL     1     -10.489  17.064  65.891  1.00  0.00    -0.282 C  
BRANCH   6   8
HETATM    8  C   UNL     1     -10.153  16.140  68.127  1.00  0.00    -0.237 C  
HETATM    9  O   UNL     1     -11.452  15.869  68.403  1.00  0.00    -0.365 OA 
HETATM   10  H   UNL     1     -11.650  16.015  69.321  1.00  0.00     0.000 HD 
BRANCH   8  11
HETATM   11  N   UNL     1      -9.267  16.571  68.963  1.00  0.00    -0.257 NA 
HETATM   12  H   UNL     1      -9.537  16.893  69.893  1.00  0.00     0.000 HD 
BRANCH  11  13
HETATM   13  C   UNL     1      -7.918  16.582  68.558  1.00  0.00    -0.216 A  
HETATM   14  C   UNL     1      -7.331  17.728  68.032  1.00  0.00    -0.220 A  
HETATM   15  C   UNL     1      -7.406  14.014  68.826  1.00  0.00    -0.127 C  
HETATM   16  S   UNL     1      -5.736  17.405  67.483  1.00  0.00    -0.141 SA 
HETATM   17  C   UNL     1      -5.841  15.766  67.918  1.00  0.00    -0.140 A  
HETATM   18  C   UNL     1      -7.071  15.421  68.448  1.00  0.00    -0.111 A  
BRANCH  14  19
HETATM   19  C   UNL     1      -7.827  19.079  67.852  1.00  0.00    -0.271 C  
HETATM   20  O   UNL     1      -8.852  19.540  68.352  1.00  0.00    -0.336 OA 
BRANCH  19  21
HETATM   21  O   UNL     1      -7.032  19.790  66.993  1.00  0.00    -0.206 OA 
HETATM   22  C   UNL     1      -6.635  21.064  67.500  1.00  0.00    -0.377 C  
ENDBRANCH  19  21
ENDBRANCH  14  19
ENDBRANCH  11  13
ENDBRANCH   8  11
ENDBRANCH   6   8
ENDBRANCH   4   6
ENDBRANCH   3   4
ENDBRANCH   2   3
TORSDOF 8
ENDMDL
MODEL      211
REMARK 921   NORMALIZED FREE ENERGY PREDICTED BY IDOCK:   -3.57 KCAL/MOL
REMARK 922        TOTAL FREE ENERGY PREDICTED BY IDOCK:   -5.96 KCAL/MOL
REMARK 923 INTER-LIGAND FREE ENERGY PREDICTED BY IDOCK:   -4.91 KCAL/MOL
REMARK 924 INTRA-LIGAND FREE ENERGY PREDICTED BY IDOCK:   -1.05 KCAL/MOL
REMARK 927      BINDING AFFINITY PREDICTED BY RF-SCORE:    0.00 PKD
ROOT
HETATM    1  C   UNL     1      -9.927  16.911  65.832  1.00  0.00    -0.274 C  
HETATM    2  C   UNL     1     -10.680  15.639  65.462  1.00  0.00    -0.403 C  
ENDROOT
BRANCH   2   3
HETATM    3  C   UNL     1     -11.401  15.072  66.687  1.00  0.00    -0.289 C  
BRANCH   3   4
HETATM    4  N   UNL     1     -10.514  15.036  67.859  1.00  0.00    -0.245 NA 
HETATM    5  H   UNL     1     -10.733  15.785  68.516  1.00  0.00     0.000 HD 
BRANCH   4   6
HETATM    6  C   UNL     1     -10.545  13.701  68.522  1.00  0.00    -0.250 C  
HETATM    7  C   UNL     1     -11.964  13.140  68.669  1.00  0.00    -0.319 C  
BRANCH   6   8
HETATM    8  C   UNL     1      -9.799  12.714  67.620  1.00  0.00    -0.210 C  
HETATM    9  O   UNL     1      -8.494  13.053  67.489  1.00  0.00    -0.167 OA 
HETATM   10  H   UNL     1      -8.031  12.440  66.929  1.00  0.00     0.000 HD 
BRANCH   8  11
HETATM   11  N   UNL     1     -10.391  11.714  67.056  1.00  0.00    -0.212 NA 
HETATM   12  H   UNL     1     -11.397  11.575  67.159  1.00  0.00     0.000 HD 
BRANCH  11  13
HETATM   13  C   UNL     1      -9.611  10.821  66.294  1.00  0.00    -0.195 A  
HETATM   14  C   UNL     1      -9.634  10.845  64.904  1.00  0.00    -0.248 A  
HETATM   15  C   UNL     1      -8.727   9.303  68.256  1.00  0.00    -0.129 C  
HETATM   16  S   UNL     1      -8.714   9.550  64.252  1.00  0.00    -0.201 SA 
HETATM   17  C   UNL     1      -8.315   8.960  65.795  1.00  0.00    -0.134 A  
HETATM   18  C   UNL     1      -8.884   9.692  66.821  1.00  0.00    -0.148 A  
BRANCH  14  19
HETATM   19  C   UNL     1     -10.297  11.722  63.959  1.00  0.00    -0.356 C  
HETATM   20  O   UNL     1      -9.869  12.040  62.851  1.00  0.00    -0.307 OA 
BRANCH  19  21
HETATM   21  O   UNL     1     -11.466  12.215  64.476  1.00  0.00    -0.318 OA 
HETATM   22  C   UNL     1     -12.234  12.972  63.540  1.00  0.00    -0.501 C  
ENDBRANCH  19  21
ENDBRANCH  14  19
ENDBRANCH  11  13
ENDBRANCH   8  11
ENDBRANCH   6   8
ENDBRANCH   4   6
ENDBRANCH   3   4
ENDBRANCH   2   3
TORSDOF 8
ENDMDL
MODEL      212
REMARK 921   NORMALIZED FREE ENERGY PREDICTED BY IDOCK:   -3.56 KCAL/MOL
REMARK 922        TOTAL FREE ENERGY PREDICTED BY IDOCK:   -5.93 KCAL/MOL
REMARK 923 INTER-LIGAND FREE ENERGY PREDICTED BY IDOCK:   -4.95 KCAL/MOL
REMARK 924 INTRA-LIGAND FREE ENERGY PREDICTED BY IDOCK:   -0.98 KCAL/MOL
REMARK 927      BINDING AFFINITY PREDICTED BY RF-SCORE:    0.00 PKD
ROOT
HETATM    1  C   UNL     1     -12.111  12.445  64.866  1.00  0.00    -0.470 C  
HETATM    2  C   UNL     1     -11.136  13.131  65.816  1.00  0.00    -0.293 C  
ENDROOT
BRANCH   2   3
HETATM    3  C   UNL     1      -9.947  12.214  66.112  1.00  0.00    -0.233 C  
BRANCH   3   4
HETATM    4  N   UNL     1     -10.385  10.831  66.347  1.00  0.00    -0.246 NA 
HETATM    5  H   UNL     1     -11.167  10.579  65.741  1.00  0.00     0.000 HD 
BRANCH   4   6
HETATM    6  C   UNL     1      -9.252   9.871  66.206  1.00  0.00    -0.168 C  
HETATM    7  C   UNL     1      -8.205  10.019  67.315  1.00  0.00    -0.117 C  
BRANCH   6   8
HETATM    8  C   UNL     1      -9.818   8.457  66.353  1.00  0.00    -0.240 C  
HETATM    9  O   UNL     1      -9.133   7.568  65.594  1.00  0.00    -0.371 OA 
HETATM   10  H   UNL     1      -9.484   6.690  65.685  1.00  0.00     0.000 HD 
BRANCH   8  11
HETATM   11  N   UNL     1     -10.840   8.198  67.100  1.00  0.00    -0.465 NA 
HETATM   12  H   UNL     1     -11.759   8.583  66.881  1.00  0.00     0.000 HD 
BRANCH  11  13
HETATM   13  C   UNL     1     -10.651   7.370  68.224  1.00  0.00    -0.157 A  
HETATM   14  C   UNL     1     -10.495   7.904  69.498  1.00  0.00    -0.226 A  
HETATM   15  C   UNL     1     -10.395   5.066  66.975  1.00  0.00    -0.242 C  
HETATM   16  S   UNL     1     -10.128   6.676  70.640  1.00  0.00    -0.185 SA 
HETATM   17  C   UNL     1     -10.155   5.462  69.451  1.00  0.00    -0.234 A  
HETATM   18  C   UNL     1     -10.404   5.950  68.181  1.00  0.00    -0.259 A  
BRANCH  14  19
HETATM   19  C   UNL     1     -10.560   9.265  69.995  1.00  0.00    -0.228 C  
HETATM   20  O   UNL     1     -10.080   9.668  71.053  1.00  0.00    -0.268 OA 
BRANCH  19  21
HETATM   21  O   UNL     1     -11.283  10.067  69.152  1.00  0.00    -0.216 OA 
HETATM   22  C   UNL     1     -11.617  11.337  69.713  1.00  0.00    -0.333 C  
ENDBRANCH  19  21
ENDBRANCH  14  19
ENDBRANCH  11  13
ENDBRANCH   8  11
ENDBRANCH   6   8
ENDBRANCH   4   6
ENDBRANCH   3   4
ENDBRANCH   2   3
TORSDOF 8
ENDMDL
MODEL      213
REMARK 921   NORMALIZED FREE ENERGY PREDICTED BY IDOCK:   -3.56 KCAL/MOL
REMARK 922        TOTAL FREE ENERGY PREDICTED BY IDOCK:   -5.93 KCAL/MOL
REMARK 923 INTER-LIGAND FREE ENERGY PREDICTED BY IDOCK:   -4.86 KCAL/MOL
REMARK 924 INTRA-LIGAND FREE ENERGY PREDICTED BY IDOCK:   -1.07 KCAL/MOL
REMARK 927      BINDING AFFINITY PREDICTED BY RF-SCORE:    0.00 PKD
ROOT
HETATM    1  C   UNL     1     -10.780   5.755  66.917  1.00  0.00    -0.381 C  
HETATM    2  C   UNL     1     -10.879   6.773  68.046  1.00  0.00    -0.306 C  
ENDROOT
BRANCH   2   3
HETATM    3  C   UNL     1     -10.444   8.156  67.555  1.00  0.00    -0.256 C  
BRANCH   3   4
HETATM    4  N   UNL     1      -9.996   9.002  68.671  1.00  0.00    -0.167 NA 
HETATM    5  H   UNL     1     -10.785   9.339  69.224  1.00  0.00     0.000 HD 
BRANCH   4   6
HETATM    6  C   UNL     1      -8.995   8.295  69.520  1.00  0.00    -0.150 C  
HETATM    7  C   UNL     1      -7.638   8.128  68.829  1.00  0.00    -0.105 C  
BRANCH   6   8
HETATM    8  C   UNL     1      -8.731   9.165  70.752  1.00  0.00    -0.236 C  
HETATM    9  O   UNL     1      -7.831  10.141  70.485  1.00  0.00    -0.424 OA 
HETATM   10  H   UNL     1      -7.667  10.681  71.249  1.00  0.00     0.000 HD 
BRANCH   8  11
HETATM   11  N   UNL     1      -9.300   8.939  71.889  1.00  0.00    -0.352 NA 
HETATM   12  H   UNL     1      -9.449   9.694  72.559  1.00  0.00     0.000 HD 
BRANCH  11  13
HETATM   13  C   UNL     1      -9.711   7.623  72.180  1.00  0.00    -0.173 A  
HETATM   14  C   UNL     1     -11.055   7.265  72.169  1.00  0.00    -0.246 A  
HETATM   15  C   UNL     1      -7.386   6.645  72.935  1.00  0.00    -0.081 C  
HETATM   16  S   UNL     1     -11.266   5.650  72.712  1.00  0.00    -0.291 SA 
HETATM   17  C   UNL     1      -9.600   5.445  72.976  1.00  0.00    -0.146 A  
HETATM   18  C   UNL     1      -8.861   6.580  72.699  1.00  0.00    -0.126 A  
BRANCH  14  19
HETATM   19  C   UNL     1     -12.253   8.004  71.820  1.00  0.00    -0.316 C  
HETATM   20  O   UNL     1     -13.305   7.516  71.410  1.00  0.00    -0.351 OA 
BRANCH  19  21
HETATM   21  O   UNL     1     -12.060   9.354  71.951  1.00  0.00    -0.367 OA 
HETATM   22  C   UNL     1     -12.785  10.133  71.000  1.00  0.00    -0.386 C  
ENDBRANCH  19  21
ENDBRANCH  14  19
ENDBRANCH  11  13
ENDBRANCH   8  11
ENDBRANCH   6   8
ENDBRANCH   4   6
ENDBRANCH   3   4
ENDBRANCH   2   3
TORSDOF 8
ENDMDL
MODEL      214
REMARK 921   NORMALIZED FREE ENERGY PREDICTED BY IDOCK:   -3.55 KCAL/MOL
REMARK 922        TOTAL FREE ENERGY PREDICTED BY IDOCK:   -5.92 KCAL/MOL
REMARK 923 INTER-LIGAND FREE ENERGY PREDICTED BY IDOCK:   -4.88 KCAL/MOL
REMARK 924 INTRA-LIGAND FREE ENERGY PREDICTED BY IDOCK:   -1.04 KCAL/MOL
REMARK 927      BINDING AFFINITY PREDICTED BY RF-SCORE:    0.00 PKD
ROOT
HETATM    1  C   UNL     1     -12.436  14.110  65.183  1.00  0.00    -0.453 C  
HETATM    2  C   UNL     1     -11.841  13.563  66.475  1.00  0.00    -0.441 C  
ENDROOT
BRANCH   2   3
HETATM    3  C   UNL     1     -10.355  13.250  66.286  1.00  0.00    -0.290 C  
BRANCH   3   4
HETATM    4  N   UNL     1      -9.672  13.106  67.580  1.00  0.00    -0.209 NA 
HETATM    5  H   UNL     1     -10.331  13.150  68.357  1.00  0.00     0.000 HD 
BRANCH   4   6
HETATM    6  C   UNL     1      -8.853  11.861  67.626  1.00  0.00    -0.169 C  
HETATM    7  C   UNL     1      -7.467  12.081  68.240  1.00  0.00    -0.106 C  
BRANCH   6   8
HETATM    8  C   UNL     1      -9.565  10.868  68.548  1.00  0.00    -0.187 C  
HETATM    9  O   UNL     1      -8.969  10.806  69.763  1.00  0.00    -0.367 OA 
HETATM   10  H   UNL     1      -9.411  10.190  70.336  1.00  0.00     0.000 HD 
BRANCH   8  11
HETATM   11  N   UNL     1     -10.587  10.179  68.161  1.00  0.00    -0.207 NA 
HETATM   12  H   UNL     1     -11.515  10.601  68.115  1.00  0.00     0.000 HD 
BRANCH  11  13
HETATM   13  C   UNL     1     -10.386   8.831  67.805  1.00  0.00    -0.237 A  
HETATM   14  C   UNL     1     -10.569   7.805  68.725  1.00  0.00    -0.135 A  
HETATM   15  C   UNL     1      -9.387   9.207  65.399  1.00  0.00    -0.258 C  
HETATM   16  S   UNL     1     -10.103   6.292  68.060  1.00  0.00    -0.169 SA 
HETATM   17  C   UNL     1      -9.647   7.000  66.584  1.00  0.00    -0.167 A  
HETATM   18  C   UNL     1      -9.800   8.374  66.569  1.00  0.00    -0.338 A  
BRANCH  14  19
HETATM   19  C   UNL     1     -11.037   7.803  70.098  1.00  0.00    -0.209 C  
HETATM   20  O   UNL     1     -10.861   8.702  70.919  1.00  0.00    -0.222 OA 
BRANCH  19  21
HETATM   21  O   UNL     1     -11.673   6.629  70.404  1.00  0.00    -0.379 OA 
HETATM   22  C   UNL     1     -12.097   6.543  71.764  1.00  0.00    -0.342 C  
ENDBRANCH  19  21
ENDBRANCH  14  19
ENDBRANCH  11  13
ENDBRANCH   8  11
ENDBRANCH   6   8
ENDBRANCH   4   6
ENDBRANCH   3   4
ENDBRANCH   2   3
TORSDOF 8
ENDMDL
MODEL      215
REMARK 921   NORMALIZED FREE ENERGY PREDICTED BY IDOCK:   -3.55 KCAL/MOL
REMARK 922        TOTAL FREE ENERGY PREDICTED BY IDOCK:   -5.92 KCAL/MOL
REMARK 923 INTER-LIGAND FREE ENERGY PREDICTED BY IDOCK:   -4.92 KCAL/MOL
REMARK 924 INTRA-LIGAND FREE ENERGY PREDICTED BY IDOCK:   -1.00 KCAL/MOL
REMARK 927      BINDING AFFINITY PREDICTED BY RF-SCORE:    0.00 PKD
ROOT
HETATM    1  C   UNL     1     -12.761   7.393  71.499  1.00  0.00    -0.409 C  
HETATM    2  C   UNL     1     -11.958   6.230  72.069  1.00  0.00    -0.353 C  
ENDROOT
BRANCH   2   3
HETATM    3  C   UNL     1     -10.788   5.887  71.144  1.00  0.00    -0.269 C  
BRANCH   3   4
HETATM    4  N   UNL     1     -10.089   7.101  70.697  1.00  0.00    -0.191 NA 
HETATM    5  H   UNL     1      -9.199   7.219  71.181  1.00  0.00     0.000 HD 
BRANCH   4   6
HETATM    6  C   UNL     1      -9.912   7.111  69.216  1.00  0.00    -0.168 C  
HETATM    7  C   UNL     1     -10.859   6.145  68.496  1.00  0.00    -0.389 C  
BRANCH   6   8
HETATM    8  C   UNL     1     -10.279   8.508  68.712  1.00  0.00    -0.200 C  
HETATM    9  O   UNL     1     -11.052   8.447  67.601  1.00  0.00    -0.478 OA 
HETATM   10  H   UNL     1     -11.280   9.315  67.288  1.00  0.00     0.000 HD 
BRANCH   8  11
HETATM   11  N   UNL     1      -9.856   9.583  69.292  1.00  0.00    -0.173 NA 
HETATM   12  H   UNL     1      -9.147   9.538  70.024  1.00  0.00     0.000 HD 
BRANCH  11  13
HETATM   13  C   UNL     1     -10.400  10.818  68.885  1.00  0.00    -0.202 A  
HETATM   14  C   UNL     1      -9.682  11.694  68.079  1.00  0.00    -0.182 A  
HETATM   15  C   UNL     1     -12.590  10.780  70.346  1.00  0.00    -0.395 C  
HETATM   16  S   UNL     1     -10.526  13.175  67.877  1.00  0.00    -0.245 SA 
HETATM   17  C   UNL     1     -11.810  12.662  68.865  1.00  0.00    -0.302 A  
HETATM   18  C   UNL     1     -11.621  11.396  69.389  1.00  0.00    -0.391 A  
BRANCH  14  19
HETATM   19  C   UNL     1      -8.387  11.581  67.435  1.00  0.00    -0.148 C  
HETATM   20  O   UNL     1      -7.558  12.482  67.326  1.00  0.00    -0.152 OA 
BRANCH  19  21
HETATM   21  O   UNL     1      -8.208  10.335  66.897  1.00  0.00    -0.121 OA 
HETATM   22  C   UNL     1      -7.949  10.347  65.493  1.00  0.00    -0.153 C  
ENDBRANCH  19  21
ENDBRANCH  14  19
ENDBRANCH  11  13
ENDBRANCH   8  11
ENDBRANCH   6   8
ENDBRANCH   4   6
ENDBRANCH   3   4
ENDBRANCH   2   3
TORSDOF 8
ENDMDL
MODEL      216
REMARK 921   NORMALIZED FREE ENERGY PREDICTED BY IDOCK:   -3.55 KCAL/MOL
REMARK 922        TOTAL FREE ENERGY PREDICTED BY IDOCK:   -5.91 KCAL/MOL
REMARK 923 INTER-LIGAND FREE ENERGY PREDICTED BY IDOCK:   -4.93 KCAL/MOL
REMARK 924 INTRA-LIGAND FREE ENERGY PREDICTED BY IDOCK:   -0.98 KCAL/MOL
REMARK 927      BINDING AFFINITY PREDICTED BY RF-SCORE:    0.00 PKD
ROOT
HETATM    1  C   UNL     1     -12.418  12.196  63.774  1.00  0.00    -0.620 C  
HETATM    2  C   UNL     1     -11.875  13.463  64.422  1.00  0.00    -0.452 C  
ENDROOT
BRANCH   2   3
HETATM    3  C   UNL     1     -12.407  13.603  65.849  1.00  0.00    -0.471 C  
BRANCH   3   4
HETATM    4  N   UNL     1     -11.917  12.517  66.710  1.00  0.00    -0.559 NA 
HETATM    5  H   UNL     1     -12.253  11.608  66.392  1.00  0.00     0.000 HD 
BRANCH   4   6
HETATM    6  C   UNL     1     -10.430  12.543  66.822  1.00  0.00    -0.225 C  
HETATM    7  C   UNL     1      -9.940  13.219  68.107  1.00  0.00    -0.234 C  
BRANCH   6   8
HETATM    8  C   UNL     1      -9.943  11.094  66.902  1.00  0.00    -0.198 C  
HETATM    9  O   UNL     1      -9.087  10.915  67.937  1.00  0.00    -0.143 OA 
HETATM   10  H   UNL     1      -8.785  10.016  67.986  1.00  0.00     0.000 HD 
BRANCH   8  11
HETATM   11  N   UNL     1     -10.311  10.196  66.049  1.00  0.00    -0.205 NA 
HETATM   12  H   UNL     1     -11.194  10.282  65.546  1.00  0.00     0.000 HD 
BRANCH  11  13
HETATM   13  C   UNL     1      -9.460   9.094  65.832  1.00  0.00    -0.259 A  
HETATM   14  C   UNL     1      -8.682   8.996  64.684  1.00  0.00    -0.135 A  
HETATM   15  C   UNL     1     -10.213   7.610  67.873  1.00  0.00    -0.250 C  
HETATM   16  S   UNL     1      -7.871   7.484  64.617  1.00  0.00    -0.126 SA 
HETATM   17  C   UNL     1      -8.564   6.966  66.081  1.00  0.00    -0.143 A  
HETATM   18  C   UNL     1      -9.434   7.891  66.628  1.00  0.00    -0.270 A  
BRANCH  14  19
HETATM   19  C   UNL     1      -8.475   9.902  63.571  1.00  0.00    -0.183 C  
HETATM   20  O   UNL     1      -9.057  10.972  63.397  1.00  0.00    -0.213 OA 
BRANCH  19  21
HETATM   21  O   UNL     1      -7.569   9.394  62.679  1.00  0.00    -0.109 OA 
HETATM   22  C   UNL     1      -6.463  10.261  62.427  1.00  0.00    -0.130 C  
ENDBRANCH  19  21
ENDBRANCH  14  19
ENDBRANCH  11  13
ENDBRANCH   8  11
ENDBRANCH   6   8
ENDBRANCH   4   6
ENDBRANCH   3   4
ENDBRANCH   2   3
TORSDOF 8
ENDMDL
MODEL      217
REMARK 921   NORMALIZED FREE ENERGY PREDICTED BY IDOCK:   -3.53 KCAL/MOL
REMARK 922        TOTAL FREE ENERGY PREDICTED BY IDOCK:   -5.90 KCAL/MOL
REMARK 923 INTER-LIGAND FREE ENERGY PREDICTED BY IDOCK:   -4.64 KCAL/MOL
REMARK 924 INTRA-LIGAND FREE ENERGY PREDICTED BY IDOCK:   -1.26 KCAL/MOL
REMARK 927      BINDING AFFINITY PREDICTED BY RF-SCORE:    0.00 PKD
ROOT
HETATM    1  C   UNL     1      -6.288  10.445  65.381  1.00  0.00    -0.122 C  
HETATM    2  C   UNL     1      -7.390   9.935  66.301  1.00  0.00    -0.102 C  
ENDROOT
BRANCH   2   3
HETATM    3  C   UNL     1      -8.610  10.856  66.233  1.00  0.00    -0.164 C  
BRANCH   3   4
HETATM    4  N   UNL     1      -8.641  11.786  67.370  1.00  0.00    -0.154 NA 
HETATM    5  H   UNL     1      -8.505  12.751  67.068  1.00  0.00     0.000 HD 
BRANCH   4   6
HETATM    6  C   UNL     1      -9.894  11.632  68.163  1.00  0.00    -0.191 C  
HETATM    7  C   UNL     1     -11.112  11.296  67.295  1.00  0.00    -0.367 C  
BRANCH   6   8
HETATM    8  C   UNL     1      -9.709  10.438  69.102  1.00  0.00    -0.220 C  
HETATM    9  O   UNL     1      -8.560  10.540  69.813  1.00  0.00    -0.387 OA 
HETATM   10  H   UNL     1      -8.445   9.799  70.396  1.00  0.00     0.000 HD 
BRANCH   8  11
HETATM   11  N   UNL     1     -10.557   9.465  69.155  1.00  0.00    -0.220 NA 
HETATM   12  H   UNL     1     -10.924   9.043  68.301  1.00  0.00     0.000 HD 
BRANCH  11  13
HETATM   13  C   UNL     1     -10.962   9.000  70.422  1.00  0.00    -0.247 A  
HETATM   14  C   UNL     1     -10.377   7.881  71.003  1.00  0.00    -0.201 A  
HETATM   15  C   UNL     1     -13.030  10.591  70.778  1.00  0.00    -0.413 C  
HETATM   16  S   UNL     1     -11.173   7.460  72.465  1.00  0.00    -0.330 SA 
HETATM   17  C   UNL     1     -12.289   8.733  72.309  1.00  0.00    -0.378 A  
HETATM   18  C   UNL     1     -12.112   9.473  71.154  1.00  0.00    -0.429 A  
BRANCH  14  19
HETATM   19  C   UNL     1      -9.277   7.034  70.586  1.00  0.00    -0.158 C  
HETATM   20  O   UNL     1      -8.205   7.422  70.126  1.00  0.00    -0.128 OA 
BRANCH  19  21
HETATM   21  O   UNL     1      -9.595   5.708  70.715  1.00  0.00    -0.161 OA 
HETATM   22  C   UNL     1     -10.276   5.167  69.582  1.00  0.00    -0.267 C  
ENDBRANCH  19  21
ENDBRANCH  14  19
ENDBRANCH  11  13
ENDBRANCH   8  11
ENDBRANCH   6   8
ENDBRANCH   4   6
ENDBRANCH   3   4
ENDBRANCH   2   3
TORSDOF 8
ENDMDL
MODEL      218
REMARK 921   NORMALIZED FREE ENERGY PREDICTED BY IDOCK:   -3.53 KCAL/MOL
REMARK 922        TOTAL FREE ENERGY PREDICTED BY IDOCK:   -5.90 KCAL/MOL
REMARK 923 INTER-LIGAND FREE ENERGY PREDICTED BY IDOCK:   -5.28 KCAL/MOL
REMARK 924 INTRA-LIGAND FREE ENERGY PREDICTED BY IDOCK:   -0.62 KCAL/MOL
REMARK 927      BINDING AFFINITY PREDICTED BY RF-SCORE:    0.00 PKD
ROOT
HETATM    1  C   UNL     1      -9.541  20.462  67.665  1.00  0.00    -0.517 C  
HETATM    2  C   UNL     1     -10.574  19.632  66.914  1.00  0.00    -0.603 C  
ENDROOT
BRANCH   2   3
HETATM    3  C   UNL     1     -10.037  18.223  66.652  1.00  0.00    -0.375 C  
BRANCH   3   4
HETATM    4  N   UNL     1     -10.817  17.211  67.379  1.00  0.00    -0.233 NA 
HETATM    5  H   UNL     1     -11.793  17.206  67.080  1.00  0.00     0.000 HD 
BRANCH   4   6
HETATM    6  C   UNL     1     -10.200  15.859  67.256  1.00  0.00    -0.278 C  
HETATM    7  C   UNL     1      -9.038  15.822  66.258  1.00  0.00    -0.373 C  
BRANCH   6   8
HETATM    8  C   UNL     1      -9.595  15.497  68.614  1.00  0.00    -0.203 C  
HETATM    9  O   UNL     1      -9.585  16.562  69.452  1.00  0.00    -0.211 OA 
HETATM   10  H   UNL     1      -9.209  16.337  70.295  1.00  0.00     0.000 HD 
BRANCH   8  11
HETATM   11  N   UNL     1      -9.139  14.316  68.872  1.00  0.00    -0.366 NA 
HETATM   12  H   UNL     1      -8.214  14.191  69.285  1.00  0.00     0.000 HD 
BRANCH  11  13
HETATM   13  C   UNL     1      -9.952  13.206  68.569  1.00  0.00    -0.180 A  
HETATM   14  C   UNL     1      -9.555  12.250  67.642  1.00  0.00    -0.191 A  
HETATM   15  C   UNL     1     -12.100  13.916  69.918  1.00  0.00    -0.406 C  
HETATM   16  S   UNL     1     -10.805  11.107  67.362  1.00  0.00    -0.283 SA 
HETATM   17  C   UNL     1     -11.861  11.890  68.440  1.00  0.00    -0.289 A  
HETATM   18  C   UNL     1     -11.317  13.031  69.001  1.00  0.00    -0.340 A  
BRANCH  14  19
HETATM   19  C   UNL     1      -8.328  12.081  66.887  1.00  0.00    -0.159 C  
HETATM   20  O   UNL     1      -7.361  12.840  66.908  1.00  0.00     0.016 OA 
BRANCH  19  21
HETATM   21  O   UNL     1      -8.390  10.975  66.081  1.00  0.00    -0.166 OA 
HETATM   22  C   UNL     1      -7.115  10.527  65.621  1.00  0.00    -0.119 C  
ENDBRANCH  19  21
ENDBRANCH  14  19
ENDBRANCH  11  13
ENDBRANCH   8  11
ENDBRANCH   6   8
ENDBRANCH   4   6
ENDBRANCH   3   4
ENDBRANCH   2   3
TORSDOF 8
ENDMDL
MODEL      219
REMARK 921   NORMALIZED FREE ENERGY PREDICTED BY IDOCK:   -3.52 KCAL/MOL
REMARK 922        TOTAL FREE ENERGY PREDICTED BY IDOCK:   -5.88 KCAL/MOL
REMARK 923 INTER-LIGAND FREE ENERGY PREDICTED BY IDOCK:   -4.92 KCAL/MOL
REMARK 924 INTRA-LIGAND FREE ENERGY PREDICTED BY IDOCK:   -0.96 KCAL/MOL
REMARK 927      BINDING AFFINITY PREDICTED BY RF-SCORE:    0.00 PKD
ROOT
HETATM    1  C   UNL     1      -5.872  10.446  65.824  1.00  0.00    -0.108 C  
HETATM    2  C   UNL     1      -6.817  10.249  67.003  1.00  0.00    -0.084 C  
ENDROOT
BRANCH   2   3
HETATM    3  C   UNL     1      -6.380  11.116  68.186  1.00  0.00    -0.053 C  
BRANCH   3   4
HETATM    4  N   UNL     1      -7.540  11.637  68.923  1.00  0.00    -0.243 NA 
HETATM    5  H   UNL     1      -7.458  11.458  69.924  1.00  0.00     0.000 HD 
BRANCH   4   6
HETATM    6  C   UNL     1      -7.754  13.086  68.643  1.00  0.00    -0.069 C  
HETATM    7  C   UNL     1      -6.561  13.741  67.938  1.00  0.00    -0.164 C  
BRANCH   6   8
HETATM    8  C   UNL     1      -8.929  13.205  67.670  1.00  0.00    -0.192 C  
HETATM    9  O   UNL     1     -10.117  13.155  68.319  1.00  0.00    -0.237 OA 
HETATM   10  H   UNL     1     -10.847  13.229  67.715  1.00  0.00     0.000 HD 
BRANCH   8  11
HETATM   11  N   UNL     1      -8.758  13.310  66.393  1.00  0.00    -0.426 NA 
HETATM   12  H   UNL     1      -7.884  13.016  65.956  1.00  0.00     0.000 HD 
BRANCH  11  13
HETATM   13  C   UNL     1      -9.811  13.841  65.621  1.00  0.00    -0.192 A  
HETATM   14  C   UNL     1     -10.116  15.197  65.650  1.00  0.00    -0.363 A  
HETATM   15  C   UNL     1     -10.826  11.578  64.736  1.00  0.00    -0.360 C  
HETATM   16  S   UNL     1     -11.534  15.527  64.739  1.00  0.00    -0.236 SA 
HETATM   17  C   UNL     1     -11.744  13.890  64.337  1.00  0.00    -0.404 A  
HETATM   18  C   UNL     1     -10.787  13.064  64.897  1.00  0.00    -0.343 A  
BRANCH  14  19
HETATM   19  C   UNL     1      -9.484  16.320  66.314  1.00  0.00    -0.316 C  
HETATM   20  O   UNL     1      -8.888  17.241  65.758  1.00  0.00    -0.530 OA 
BRANCH  19  21
HETATM   21  O   UNL     1      -9.581  16.212  67.676  1.00  0.00    -0.221 OA 
HETATM   22  C   UNL     1     -10.709  16.891  68.227  1.00  0.00    -0.377 C  
ENDBRANCH  19  21
ENDBRANCH  14  19
ENDBRANCH  11  13
ENDBRANCH   8  11
ENDBRANCH   6   8
ENDBRANCH   4   6
ENDBRANCH   3   4
ENDBRANCH   2   3
TORSDOF 8
ENDMDL
MODEL      220
REMARK 921   NORMALIZED FREE ENERGY PREDICTED BY IDOCK:   -3.52 KCAL/MOL
REMARK 922        TOTAL FREE ENERGY PREDICTED BY IDOCK:   -5.87 KCAL/MOL
REMARK 923 INTER-LIGAND FREE ENERGY PREDICTED BY IDOCK:   -4.83 KCAL/MOL
REMARK 924 INTRA-LIGAND FREE ENERGY PREDICTED BY IDOCK:   -1.04 KCAL/MOL
REMARK 927      BINDING AFFINITY PREDICTED BY RF-SCORE:    0.00 PKD
ROOT
HETATM    1  C   UNL     1     -10.076  16.146  67.780  1.00  0.00    -0.250 C  
HETATM    2  C   UNL     1     -11.206  16.210  68.801  1.00  0.00    -0.365 C  
ENDROOT
BRANCH   2   3
HETATM    3  C   UNL     1     -11.889  14.847  68.925  1.00  0.00    -0.301 C  
BRANCH   3   4
HETATM    4  N   UNL     1     -11.062  13.780  68.343  1.00  0.00    -0.251 NA 
HETATM    5  H   UNL     1     -10.346  13.464  68.998  1.00  0.00     0.000 HD 
BRANCH   4   6
HETATM    6  C   UNL     1     -11.901  12.647  67.859  1.00  0.00    -0.332 C  
HETATM    7  C   UNL     1     -11.728  12.374  66.361  1.00  0.00    -0.453 C  
BRANCH   6   8
HETATM    8  C   UNL     1     -11.426  11.378  68.570  1.00  0.00    -0.297 C  
HETATM    9  O   UNL     1     -12.001  10.270  68.044  1.00  0.00    -0.625 OA 
HETATM   10  H   UNL     1     -11.706   9.482  68.486  1.00  0.00     0.000 HD 
BRANCH   8  11
HETATM   11  N   UNL     1     -10.598  11.412  69.562  1.00  0.00    -0.445 NA 
HETATM   12  H   UNL     1     -10.630  12.171  70.244  1.00  0.00     0.000 HD 
BRANCH  11  13
HETATM   13  C   UNL     1      -9.651  10.376  69.676  1.00  0.00    -0.109 A  
HETATM   14  C   UNL     1      -8.426  10.440  69.021  1.00  0.00    -0.155 A  
HETATM   15  C   UNL     1     -11.128   8.639  70.992  1.00  0.00    -0.316 C  
HETATM   16  S   UNL     1      -7.548   8.977  69.215  1.00  0.00    -0.080 SA 
HETATM   17  C   UNL     1      -8.790   8.269  70.133  1.00  0.00    -0.141 A  
HETATM   18  C   UNL     1      -9.891   9.091  70.286  1.00  0.00    -0.227 A  
BRANCH  14  19
HETATM   19  C   UNL     1      -7.808  11.476  68.216  1.00  0.00    -0.138 C  
HETATM   20  O   UNL     1      -8.376  12.163  67.369  1.00  0.00    -0.157 OA 
BRANCH  19  21
HETATM   21  O   UNL     1      -6.467  11.572  68.475  1.00  0.00    -0.050 OA 
HETATM   22  C   UNL     1      -5.754  12.366  67.527  1.00  0.00    -0.138 C  
ENDBRANCH  19  21
ENDBRANCH  14  19
ENDBRANCH  11  13
ENDBRANCH   8  11
ENDBRANCH   6   8
ENDBRANCH   4   6
ENDBRANCH   3   4
ENDBRANCH   2   3
TORSDOF 8
ENDMDL
MODEL      221
REMARK 921   NORMALIZED FREE ENERGY PREDICTED BY IDOCK:   -3.50 KCAL/MOL
REMARK 922        TOTAL FREE ENERGY PREDICTED BY IDOCK:   -5.85 KCAL/MOL
REMARK 923 INTER-LIGAND FREE ENERGY PREDICTED BY IDOCK:   -5.09 KCAL/MOL
REMARK 924 INTRA-LIGAND FREE ENERGY PREDICTED BY IDOCK:   -0.76 KCAL/MOL
REMARK 927      BINDING AFFINITY PREDICTED BY RF-SCORE:    0.00 PKD
ROOT
HETATM    1  C   UNL     1     -11.999   9.015  71.587  1.00  0.00    -0.426 C  
HETATM    2  C   UNL     1     -10.575   8.480  71.671  1.00  0.00    -0.353 C  
ENDROOT
BRANCH   2   3
HETATM    3  C   UNL     1      -9.656   9.262  70.731  1.00  0.00    -0.275 C  
BRANCH   3   4
HETATM    4  N   UNL     1     -10.274  10.527  70.310  1.00  0.00    -0.364 NA 
HETATM    5  H   UNL     1      -9.924  11.314  70.856  1.00  0.00     0.000 HD 
BRANCH   4   6
HETATM    6  C   UNL     1     -10.101  10.756  68.846  1.00  0.00    -0.205 C  
HETATM    7  C   UNL     1     -11.332  10.350  68.029  1.00  0.00    -0.277 C  
BRANCH   6   8
HETATM    8  C   UNL     1      -9.932  12.261  68.626  1.00  0.00    -0.118 C  
HETATM    9  O   UNL     1     -10.689  12.976  69.493  1.00  0.00    -0.435 OA 
HETATM   10  H   UNL     1     -10.584  13.911  69.356  1.00  0.00     0.000 HD 
BRANCH   8  11
HETATM   11  N   UNL     1      -9.172  12.740  67.698  1.00  0.00    -0.184 NA 
HETATM   12  H   UNL     1      -8.282  12.297  67.470  1.00  0.00     0.000 HD 
BRANCH  11  13
HETATM   13  C   UNL     1      -9.605  13.891  67.009  1.00  0.00    -0.254 A  
HETATM   14  C   UNL     1      -9.104  15.150  67.318  1.00  0.00    -0.198 A  
HETATM   15  C   UNL     1     -11.544  12.798  65.603  1.00  0.00    -0.410 C  
HETATM   16  S   UNL     1      -9.923  16.372  66.432  1.00  0.00    -0.321 SA 
HETATM   17  C   UNL     1     -10.939  15.242  65.672  1.00  0.00    -0.344 A  
HETATM   18  C   UNL     1     -10.712  13.942  66.085  1.00  0.00    -0.283 A  
BRANCH  14  19
HETATM   19  C   UNL     1      -8.074  15.586  68.241  1.00  0.00    -0.133 C  
HETATM   20  O   UNL     1      -8.212  15.736  69.454  1.00  0.00    -0.238 OA 
BRANCH  19  21
HETATM   21  O   UNL     1      -6.907  15.872  67.584  1.00  0.00    -0.135 OA 
HETATM   22  C   UNL     1      -5.849  14.956  67.866  1.00  0.00    -0.136 C  
ENDBRANCH  19  21
ENDBRANCH  14  19
ENDBRANCH  11  13
ENDBRANCH   8  11
ENDBRANCH   6   8
ENDBRANCH   4   6
ENDBRANCH   3   4
ENDBRANCH   2   3
TORSDOF 8
ENDMDL
MODEL      222
REMARK 921   NORMALIZED FREE ENERGY PREDICTED BY IDOCK:   -3.46 KCAL/MOL
REMARK 922        TOTAL FREE ENERGY PREDICTED BY IDOCK:   -5.78 KCAL/MOL
REMARK 923 INTER-LIGAND FREE ENERGY PREDICTED BY IDOCK:   -4.58 KCAL/MOL
REMARK 924 INTRA-LIGAND FREE ENERGY PREDICTED BY IDOCK:   -1.21 KCAL/MOL
REMARK 927      BINDING AFFINITY PREDICTED BY RF-SCORE:    0.00 PKD
ROOT
HETATM    1  C   UNL     1      -7.252   5.022  64.200  1.00  0.00    -0.050 C  
HETATM    2  C   UNL     1      -7.132   5.193  65.710  1.00  0.00    -0.068 C  
ENDROOT
BRANCH   2   3
HETATM    3  C   UNL     1      -8.501   5.500  66.321  1.00  0.00    -0.122 C  
BRANCH   3   4
HETATM    4  N   UNL     1      -8.474   5.367  67.785  1.00  0.00    -0.106 NA 
HETATM    5  H   UNL     1      -8.092   6.203  68.229  1.00  0.00     0.000 HD 
BRANCH   4   6
HETATM    6  C   UNL     1      -9.822   5.028  68.324  1.00  0.00    -0.150 C  
HETATM    7  C   UNL     1      -9.758   4.223  69.627  1.00  0.00    -0.284 C  
BRANCH   6   8
HETATM    8  C   UNL     1     -10.526   6.340  68.680  1.00  0.00    -0.231 C  
HETATM    9  O   UNL     1     -11.657   6.507  67.953  1.00  0.00    -0.623 OA 
HETATM   10  H   UNL     1     -12.094   7.322  68.174  1.00  0.00     0.000 HD 
BRANCH   8  11
HETATM   11  N   UNL     1     -10.047   7.164  69.552  1.00  0.00    -0.175 NA 
HETATM   12  H   UNL     1      -9.041   7.239  69.704  1.00  0.00     0.000 HD 
BRANCH  11  13
HETATM   13  C   UNL     1     -10.951   7.956  70.287  1.00  0.00    -0.248 A  
HETATM   14  C   UNL     1     -11.160   9.295  69.974  1.00  0.00    -0.205 A  
HETATM   15  C   UNL     1     -11.509   6.238  72.202  1.00  0.00    -0.354 C  
HETATM   16  S   UNL     1     -12.188  10.044  71.128  1.00  0.00    -0.411 SA 
HETATM   17  C   UNL     1     -12.329   8.614  72.036  1.00  0.00    -0.371 A  
HETATM   18  C   UNL     1     -11.591   7.565  71.519  1.00  0.00    -0.301 A  
BRANCH  14  19
HETATM   19  C   UNL     1     -10.655  10.131  68.902  1.00  0.00    -0.215 C  
HETATM   20  O   UNL     1     -10.097  11.218  69.040  1.00  0.00    -0.198 OA 
BRANCH  19  21
HETATM   21  O   UNL     1     -10.926   9.584  67.676  1.00  0.00    -0.248 OA 
HETATM   22  C   UNL     1      -9.809   9.583  66.787  1.00  0.00    -0.216 C  
ENDBRANCH  19  21
ENDBRANCH  14  19
ENDBRANCH  11  13
ENDBRANCH   8  11
ENDBRANCH   6   8
ENDBRANCH   4   6
ENDBRANCH   3   4
ENDBRANCH   2   3
TORSDOF 8
ENDMDL
MODEL      223
REMARK 921   NORMALIZED FREE ENERGY PREDICTED BY IDOCK:   -3.45 KCAL/MOL
REMARK 922        TOTAL FREE ENERGY PREDICTED BY IDOCK:   -5.77 KCAL/MOL
REMARK 923 INTER-LIGAND FREE ENERGY PREDICTED BY IDOCK:   -4.95 KCAL/MOL
REMARK 924 INTRA-LIGAND FREE ENERGY PREDICTED BY IDOCK:   -0.82 KCAL/MOL
REMARK 927      BINDING AFFINITY PREDICTED BY RF-SCORE:    0.00 PKD
ROOT
HETATM    1  C   UNL     1     -10.475   3.637  63.518  1.00  0.00    -0.255 C  
HETATM    2  C   UNL     1      -9.657   4.246  64.650  1.00  0.00    -0.160 C  
ENDROOT
BRANCH   2   3
HETATM    3  C   UNL     1     -10.539   4.478  65.879  1.00  0.00    -0.152 C  
BRANCH   3   4
HETATM    4  N   UNL     1      -9.938   5.464  66.789  1.00  0.00    -0.171 NA 
HETATM    5  H   UNL     1      -9.191   5.988  66.331  1.00  0.00     0.000 HD 
BRANCH   4   6
HETATM    6  C   UNL     1     -10.971   6.373  67.364  1.00  0.00    -0.376 C  
HETATM    7  C   UNL     1     -11.122   6.220  68.881  1.00  0.00    -0.434 C  
BRANCH   6   8
HETATM    8  C   UNL     1     -10.505   7.813  67.135  1.00  0.00    -0.343 C  
HETATM    9  O   UNL     1      -9.883   7.948  65.938  1.00  0.00    -0.434 OA 
HETATM   10  H   UNL     1      -9.594   8.842  65.796  1.00  0.00     0.000 HD 
BRANCH   8  11
HETATM   11  N   UNL     1     -10.682   8.742  68.014  1.00  0.00    -0.450 NA 
HETATM   12  H   UNL     1     -11.553   8.803  68.544  1.00  0.00     0.000 HD 
BRANCH  11  13
HETATM   13  C   UNL     1      -9.642   9.669  68.223  1.00  0.00    -0.140 A  
HETATM   14  C   UNL     1      -9.747  10.985  67.786  1.00  0.00    -0.170 A  
HETATM   15  C   UNL     1      -7.828   8.014  69.172  1.00  0.00    -0.108 C  
HETATM   16  S   UNL     1      -8.277  11.836  68.036  1.00  0.00    -0.160 SA 
HETATM   17  C   UNL     1      -7.513  10.467  68.693  1.00  0.00    -0.088 A  
HETATM   18  C   UNL     1      -8.323   9.346  68.708  1.00  0.00    -0.117 A  
BRANCH  14  19
HETATM   19  C   UNL     1     -10.831  11.716  67.157  1.00  0.00    -0.261 C  
HETATM   20  O   UNL     1     -12.024  11.427  67.220  1.00  0.00    -0.580 OA 
BRANCH  19  21
HETATM   21  O   UNL     1     -10.357  12.765  66.416  1.00  0.00    -0.251 OA 
HETATM   22  C   UNL     1     -10.955  14.019  66.747  1.00  0.00    -0.297 C  
ENDBRANCH  19  21
ENDBRANCH  14  19
ENDBRANCH  11  13
ENDBRANCH   8  11
ENDBRANCH   6   8
ENDBRANCH   4   6
ENDBRANCH   3   4
ENDBRANCH   2   3
TORSDOF 8
ENDMDL
MODEL      224
REMARK 921   NORMALIZED FREE ENERGY PREDICTED BY IDOCK:   -3.44 KCAL/MOL
REMARK 922        TOTAL FREE ENERGY PREDICTED BY IDOCK:   -5.76 KCAL/MOL
REMARK 923 INTER-LIGAND FREE ENERGY PREDICTED BY IDOCK:   -4.61 KCAL/MOL
REMARK 924 INTRA-LIGAND FREE ENERGY PREDICTED BY IDOCK:   -1.15 KCAL/MOL
REMARK 927      BINDING AFFINITY PREDICTED BY RF-SCORE:    0.00 PKD
ROOT
HETATM    1  C   UNL     1     -10.337  14.653  67.090  1.00  0.00    -0.265 C  
HETATM    2  C   UNL     1     -11.622  14.903  67.869  1.00  0.00    -0.364 C  
ENDROOT
BRANCH   2   3
HETATM    3  C   UNL     1     -12.059  13.630  68.599  1.00  0.00    -0.290 C  
BRANCH   3   4
HETATM    4  N   UNL     1     -10.909  12.940  69.201  1.00  0.00    -0.430 NA 
HETATM    5  H   UNL     1     -10.321  13.585  69.729  1.00  0.00     0.000 HD 
BRANCH   4   6
HETATM    6  C   UNL     1     -11.347  11.787  70.040  1.00  0.00    -0.045 C  
HETATM    7  C   UNL     1     -12.862  11.562  70.000  1.00  0.00     0.175 C  
BRANCH   6   8
HETATM    8  C   UNL     1     -10.722  10.519  69.452  1.00  0.00    -0.241 C  
HETATM    9  O   UNL     1      -9.450  10.347  69.887  1.00  0.00    -0.411 OA 
HETATM   10  H   UNL     1      -9.063   9.560  69.522  1.00  0.00     0.000 HD 
BRANCH   8  11
HETATM   11  N   UNL     1     -11.360   9.755  68.628  1.00  0.00    -0.493 NA 
HETATM   12  H   UNL     1     -12.378   9.689  68.656  1.00  0.00     0.000 HD 
BRANCH  11  13
HETATM   13  C   UNL     1     -10.613   9.016  67.690  1.00  0.00    -0.231 A  
HETATM   14  C   UNL     1     -10.202   7.715  67.956  1.00  0.00    -0.202 A  
HETATM   15  C   UNL     1     -10.179  10.933  65.938  1.00  0.00    -0.314 C  
HETATM   16  S   UNL     1      -9.182   7.124  66.707  1.00  0.00    -0.163 SA 
HETATM   17  C   UNL     1      -9.271   8.586  65.844  1.00  0.00    -0.182 A  
HETATM   18  C   UNL     1     -10.031   9.549  66.482  1.00  0.00    -0.329 A  
BRANCH  14  19
HETATM   19  C   UNL     1     -10.456   6.826  69.073  1.00  0.00    -0.206 C  
HETATM   20  O   UNL     1     -10.880   5.674  68.993  1.00  0.00    -0.265 OA 
BRANCH  19  21
HETATM   21  O   UNL     1     -10.214   7.449  70.268  1.00  0.00    -0.196 OA 
HETATM   22  C   UNL     1      -9.062   6.954  70.952  1.00  0.00    -0.153 C  
ENDBRANCH  19  21
ENDBRANCH  14  19
ENDBRANCH  11  13
ENDBRANCH   8  11
ENDBRANCH   6   8
ENDBRANCH   4   6
ENDBRANCH   3   4
ENDBRANCH   2   3
TORSDOF 8
ENDMDL
MODEL      225
REMARK 921   NORMALIZED FREE ENERGY PREDICTED BY IDOCK:   -3.44 KCAL/MOL
REMARK 922        TOTAL FREE ENERGY PREDICTED BY IDOCK:   -5.76 KCAL/MOL
REMARK 923 INTER-LIGAND FREE ENERGY PREDICTED BY IDOCK:   -4.80 KCAL/MOL
REMARK 924 INTRA-LIGAND FREE ENERGY PREDICTED BY IDOCK:   -0.95 KCAL/MOL
REMARK 927      BINDING AFFINITY PREDICTED BY RF-SCORE:    0.00 PKD
ROOT
HETATM    1  C   UNL     1      -8.205   4.609  64.908  1.00  0.00    -0.113 C  
HETATM    2  C   UNL     1      -9.126   5.482  65.752  1.00  0.00    -0.152 C  
ENDROOT
BRANCH   2   3
HETATM    3  C   UNL     1      -8.320   6.563  66.475  1.00  0.00    -0.116 C  
BRANCH   3   4
HETATM    4  N   UNL     1      -8.482   6.464  67.933  1.00  0.00    -0.118 NA 
HETATM    5  H   UNL     1      -8.307   7.360  68.389  1.00  0.00     0.000 HD 
BRANCH   4   6
HETATM    6  C   UNL     1      -9.821   5.919  68.295  1.00  0.00    -0.137 C  
HETATM    7  C   UNL     1      -9.738   4.670  69.179  1.00  0.00    -0.255 C  
BRANCH   6   8
HETATM    8  C   UNL     1     -10.545   6.975  69.132  1.00  0.00    -0.219 C  
HETATM    9  O   UNL     1     -11.829   6.619  69.378  1.00  0.00    -0.651 OA 
HETATM   10  H   UNL     1     -12.278   7.275  69.898  1.00  0.00     0.000 HD 
BRANCH   8  11
HETATM   11  N   UNL     1      -9.968   8.067  69.512  1.00  0.00    -0.182 NA 
HETATM   12  H   UNL     1      -8.967   8.090  69.707  1.00  0.00     0.000 HD 
BRANCH  11  13
HETATM   13  C   UNL     1     -10.758   9.226  69.648  1.00  0.00    -0.230 A  
HETATM   14  C   UNL     1     -10.840  10.170  68.631  1.00  0.00    -0.235 A  
HETATM   15  C   UNL     1     -11.418   8.953  72.182  1.00  0.00    -0.387 C  
HETATM   16  S   UNL     1     -11.742  11.541  69.134  1.00  0.00    -0.350 SA 
HETATM   17  C   UNL     1     -11.995  10.895  70.686  1.00  0.00    -0.368 A  
HETATM   18  C   UNL     1     -11.388   9.666  70.869  1.00  0.00    -0.431 A  
BRANCH  14  19
HETATM   19  C   UNL     1     -10.292  10.200  67.288  1.00  0.00    -0.237 C  
HETATM   20  O   UNL     1     -10.418   9.318  66.440  1.00  0.00    -0.208 OA 
BRANCH  19  21
HETATM   21  O   UNL     1      -9.550  11.332  67.080  1.00  0.00    -0.175 OA 
HETATM   22  C   UNL     1      -9.886  12.027  65.880  1.00  0.00    -0.238 C  
ENDBRANCH  19  21
ENDBRANCH  14  19
ENDBRANCH  11  13
ENDBRANCH   8  11
ENDBRANCH   6   8
ENDBRANCH   4   6
ENDBRANCH   3   4
ENDBRANCH   2   3
TORSDOF 8
ENDMDL
MODEL      226
REMARK 921   NORMALIZED FREE ENERGY PREDICTED BY IDOCK:   -3.43 KCAL/MOL
REMARK 922        TOTAL FREE ENERGY PREDICTED BY IDOCK:   -5.75 KCAL/MOL
REMARK 923 INTER-LIGAND FREE ENERGY PREDICTED BY IDOCK:   -4.87 KCAL/MOL
REMARK 924 INTRA-LIGAND FREE ENERGY PREDICTED BY IDOCK:   -0.88 KCAL/MOL
REMARK 927      BINDING AFFINITY PREDICTED BY RF-SCORE:    0.00 PKD
ROOT
HETATM    1  C   UNL     1      -9.188   5.532  67.569  1.00  0.00    -0.110 C  
HETATM    2  C   UNL     1      -9.995   6.572  66.801  1.00  0.00    -0.224 C  
ENDROOT
BRANCH   2   3
HETATM    3  C   UNL     1      -9.064   7.621  66.189  1.00  0.00    -0.144 C  
BRANCH   3   4
HETATM    4  N   UNL     1      -9.519   8.984  66.499  1.00  0.00    -0.187 NA 
HETATM    5  H   UNL     1      -9.390   9.205  67.487  1.00  0.00     0.000 HD 
BRANCH   4   6
HETATM    6  C   UNL     1      -8.855   9.991  65.622  1.00  0.00    -0.160 C  
HETATM    7  C   UNL     1      -9.768  10.499  64.501  1.00  0.00    -0.375 C  
BRANCH   6   8
HETATM    8  C   UNL     1      -8.530  11.216  66.481  1.00  0.00    -0.165 C  
HETATM    9  O   UNL     1      -7.962  10.859  67.658  1.00  0.00    -0.111 OA 
HETATM   10  H   UNL     1      -7.760  11.619  68.191  1.00  0.00     0.000 HD 
BRANCH   8  11
HETATM   11  N   UNL     1      -8.807  12.418  66.099  1.00  0.00    -0.420 NA 
HETATM   12  H   UNL     1      -8.737  12.685  65.116  1.00  0.00     0.000 HD 
BRANCH  11  13
HETATM   13  C   UNL     1      -9.210  13.352  67.074  1.00  0.00    -0.242 A  
HETATM   14  C   UNL     1     -10.551  13.663  67.267  1.00  0.00    -0.267 A  
HETATM   15  C   UNL     1      -6.830  14.225  67.786  1.00  0.00    -0.189 C  
HETATM   16  S   UNL     1     -10.730  14.938  68.404  1.00  0.00    -0.253 SA 
HETATM   17  C   UNL     1      -9.049  15.084  68.612  1.00  0.00    -0.191 A  
HETATM   18  C   UNL     1      -8.325  14.213  67.819  1.00  0.00    -0.175 A  
BRANCH  14  19
HETATM   19  C   UNL     1     -11.766  13.135  66.676  1.00  0.00    -0.375 C  
HETATM   20  O   UNL     1     -12.657  13.799  66.150  1.00  0.00    -0.438 OA 
BRANCH  19  21
HETATM   21  O   UNL     1     -11.837  11.775  66.821  1.00  0.00    -0.586 OA 
HETATM   22  C   UNL     1     -11.779  11.338  68.179  1.00  0.00    -0.253 C  
ENDBRANCH  19  21
ENDBRANCH  14  19
ENDBRANCH  11  13
ENDBRANCH   8  11
ENDBRANCH   6   8
ENDBRANCH   4   6
ENDBRANCH   3   4
ENDBRANCH   2   3
TORSDOF 8
ENDMDL
MODEL      227
REMARK 921   NORMALIZED FREE ENERGY PREDICTED BY IDOCK:   -3.43 KCAL/MOL
REMARK 922        TOTAL FREE ENERGY PREDICTED BY IDOCK:   -5.74 KCAL/MOL
REMARK 923 INTER-LIGAND FREE ENERGY PREDICTED BY IDOCK:   -4.81 KCAL/MOL
REMARK 924 INTRA-LIGAND FREE ENERGY PREDICTED BY IDOCK:   -0.93 KCAL/MOL
REMARK 927      BINDING AFFINITY PREDICTED BY RF-SCORE:    0.00 PKD
ROOT
HETATM    1  C   UNL     1      -8.247   4.247  66.252  1.00  0.00    -0.102 C  
HETATM    2  C   UNL     1      -9.376   5.226  65.953  1.00  0.00    -0.165 C  
ENDROOT
BRANCH   2   3
HETATM    3  C   UNL     1      -8.948   6.653  66.300  1.00  0.00    -0.152 C  
BRANCH   3   4
HETATM    4  N   UNL     1     -10.108   7.552  66.387  1.00  0.00    -0.476 NA 
HETATM    5  H   UNL     1     -10.892   7.105  66.864  1.00  0.00     0.000 HD 
BRANCH   4   6
HETATM    6  C   UNL     1      -9.745   8.848  67.028  1.00  0.00    -0.190 C  
HETATM    7  C   UNL     1     -10.569  10.027  66.499  1.00  0.00    -0.165 C  
BRANCH   6   8
HETATM    8  C   UNL     1     -10.078   8.741  68.518  1.00  0.00    -0.189 C  
HETATM    9  O   UNL     1      -9.166   9.395  69.277  1.00  0.00    -0.148 OA 
HETATM   10  H   UNL     1      -9.373   9.329  70.202  1.00  0.00     0.000 HD 
BRANCH   8  11
HETATM   11  N   UNL     1     -11.098   8.077  68.950  1.00  0.00    -0.407 NA 
HETATM   12  H   UNL     1     -11.912   7.921  68.354  1.00  0.00     0.000 HD 
BRANCH  11  13
HETATM   13  C   UNL     1     -11.057   7.573  70.265  1.00  0.00    -0.248 A  
HETATM   14  C   UNL     1     -11.679   8.239  71.315  1.00  0.00    -0.283 A  
HETATM   15  C   UNL     1      -9.364   5.595  69.873  1.00  0.00    -0.181 C  
HETATM   16  S   UNL     1     -11.332   7.481  72.816  1.00  0.00    -0.306 SA 
HETATM   17  C   UNL     1     -10.353   6.304  72.078  1.00  0.00    -0.202 A  
HETATM   18  C   UNL     1     -10.239   6.471  70.710  1.00  0.00    -0.218 A  
BRANCH  14  19
HETATM   19  C   UNL     1     -12.510   9.427  71.354  1.00  0.00    -0.352 C  
HETATM   20  O   UNL     1     -13.489   9.596  72.079  1.00  0.00    -0.410 OA 
BRANCH  19  21
HETATM   21  O   UNL     1     -12.103  10.348  70.426  1.00  0.00    -0.282 OA 
HETATM   22  C   UNL     1     -12.435  11.694  70.768  1.00  0.00    -0.330 C  
ENDBRANCH  19  21
ENDBRANCH  14  19
ENDBRANCH  11  13
ENDBRANCH   8  11
ENDBRANCH   6   8
ENDBRANCH   4   6
ENDBRANCH   3   4
ENDBRANCH   2   3
TORSDOF 8
ENDMDL
MODEL      228
REMARK 921   NORMALIZED FREE ENERGY PREDICTED BY IDOCK:   -3.42 KCAL/MOL
REMARK 922        TOTAL FREE ENERGY PREDICTED BY IDOCK:   -5.72 KCAL/MOL
REMARK 923 INTER-LIGAND FREE ENERGY PREDICTED BY IDOCK:   -4.51 KCAL/MOL
REMARK 924 INTRA-LIGAND FREE ENERGY PREDICTED BY IDOCK:   -1.21 KCAL/MOL
REMARK 927      BINDING AFFINITY PREDICTED BY RF-SCORE:    0.00 PKD
ROOT
HETATM    1  C   UNL     1      -7.763  14.009  67.782  1.00  0.00    -0.178 C  
HETATM    2  C   UNL     1      -9.201  14.512  67.747  1.00  0.00    -0.194 C  
ENDROOT
BRANCH   2   3
HETATM    3  C   UNL     1     -10.156  13.427  68.248  1.00  0.00    -0.247 C  
BRANCH   3   4
HETATM    4  N   UNL     1      -9.429  12.352  68.937  1.00  0.00    -0.391 NA 
HETATM    5  H   UNL     1      -9.327  12.548  69.933  1.00  0.00     0.000 HD 
BRANCH   4   6
HETATM    6  C   UNL     1     -10.071  11.026  68.704  1.00  0.00    -0.197 C  
HETATM    7  C   UNL     1     -11.585  11.125  68.494  1.00  0.00    -0.385 C  
BRANCH   6   8
HETATM    8  C   UNL     1      -9.506  10.457  67.400  1.00  0.00    -0.149 C  
HETATM    9  O   UNL     1      -8.157  10.568  67.354  1.00  0.00    -0.110 OA 
HETATM   10  H   UNL     1      -7.806  10.215  66.544  1.00  0.00     0.000 HD 
BRANCH   8  11
HETATM   11  N   UNL     1     -10.266   9.967  66.476  1.00  0.00    -0.233 NA 
HETATM   12  H   UNL     1     -11.013   9.311  66.706  1.00  0.00     0.000 HD 
BRANCH  11  13
HETATM   13  C   UNL     1     -10.035  10.363  65.144  1.00  0.00    -0.322 A  
HETATM   14  C   UNL     1      -9.126   9.688  64.336  1.00  0.00    -0.229 A  
HETATM   15  C   UNL     1     -11.445  12.586  65.146  1.00  0.00    -0.369 C  
HETATM   16  S   UNL     1      -8.938  10.483  62.826  1.00  0.00    -0.304 SA 
HETATM   17  C   UNL     1     -10.030  11.713  63.255  1.00  0.00    -0.419 A  
HETATM   18  C   UNL     1     -10.528  11.574  64.537  1.00  0.00    -0.369 A  
BRANCH  14  19
HETATM   19  C   UNL     1      -8.327   8.498  64.557  1.00  0.00    -0.128 C  
HETATM   20  O   UNL     1      -8.562   7.618  65.383  1.00  0.00    -0.129 OA 
BRANCH  19  21
HETATM   21  O   UNL     1      -7.217   8.490  63.755  1.00  0.00    -0.093 OA 
HETATM   22  C   UNL     1      -5.986   8.493  64.478  1.00  0.00    -0.065 C  
ENDBRANCH  19  21
ENDBRANCH  14  19
ENDBRANCH  11  13
ENDBRANCH   8  11
ENDBRANCH   6   8
ENDBRANCH   4   6
ENDBRANCH   3   4
ENDBRANCH   2   3
TORSDOF 8
ENDMDL
MODEL      229
REMARK 921   NORMALIZED FREE ENERGY PREDICTED BY IDOCK:   -3.41 KCAL/MOL
REMARK 922        TOTAL FREE ENERGY PREDICTED BY IDOCK:   -5.72 KCAL/MOL
REMARK 923 INTER-LIGAND FREE ENERGY PREDICTED BY IDOCK:   -4.71 KCAL/MOL
REMARK 924 INTRA-LIGAND FREE ENERGY PREDICTED BY IDOCK:   -1.01 KCAL/MOL
REMARK 927      BINDING AFFINITY PREDICTED BY RF-SCORE:    0.00 PKD
ROOT
HETATM    1  C   UNL     1      -7.885  10.298  67.535  1.00  0.00    -0.102 C  
HETATM    2  C   UNL     1      -7.663  11.778  67.245  1.00  0.00    -0.158 C  
ENDROOT
BRANCH   2   3
HETATM    3  C   UNL     1      -6.191  12.144  67.444  1.00  0.00    -0.142 C  
BRANCH   3   4
HETATM    4  N   UNL     1      -6.010  13.600  67.529  1.00  0.00    -0.344 NA 
HETATM    5  H   UNL     1      -6.034  14.035  66.606  1.00  0.00     0.000 HD 
BRANCH   4   6
HETATM    6  C   UNL     1      -7.006  14.218  68.451  1.00  0.00    -0.100 C  
HETATM    7  C   UNL     1      -6.600  14.111  69.925  1.00  0.00    -0.082 C  
BRANCH   6   8
HETATM    8  C   UNL     1      -7.062  15.716  68.142  1.00  0.00    -0.118 C  
HETATM    9  O   UNL     1      -6.517  15.993  66.933  1.00  0.00    -0.295 OA 
HETATM   10  H   UNL     1      -6.552  16.923  66.741  1.00  0.00     0.000 HD 
BRANCH   8  11
HETATM   11  N   UNL     1      -7.553  16.573  68.974  1.00  0.00    -0.232 NA 
HETATM   12  H   UNL     1      -7.280  16.564  69.958  1.00  0.00     0.000 HD 
BRANCH  11  13
HETATM   13  C   UNL     1      -8.475  17.521  68.489  1.00  0.00    -0.280 A  
HETATM   14  C   UNL     1      -9.798  17.178  68.233  1.00  0.00    -0.288 A  
HETATM   15  C   UNL     1      -6.803  19.507  68.054  1.00  0.00    -0.287 C  
HETATM   16  S   UNL     1     -10.643  18.483  67.505  1.00  0.00    -0.381 SA 
HETATM   17  C   UNL     1      -9.263  19.475  67.513  1.00  0.00    -0.315 A  
HETATM   18  C   UNL     1      -8.143  18.845  68.025  1.00  0.00    -0.321 A  
BRANCH  14  19
HETATM   19  C   UNL     1     -10.540  15.949  68.441  1.00  0.00    -0.266 C  
HETATM   20  O   UNL     1     -11.248  15.386  67.608  1.00  0.00    -0.320 OA 
BRANCH  19  21
HETATM   21  O   UNL     1     -10.403  15.498  69.727  1.00  0.00    -0.275 OA 
HETATM   22  C   UNL     1     -11.427  15.958  70.609  1.00  0.00    -0.400 C  
ENDBRANCH  19  21
ENDBRANCH  14  19
ENDBRANCH  11  13
ENDBRANCH   8  11
ENDBRANCH   6   8
ENDBRANCH   4   6
ENDBRANCH   3   4
ENDBRANCH   2   3
TORSDOF 8
ENDMDL
MODEL      230
REMARK 921   NORMALIZED FREE ENERGY PREDICTED BY IDOCK:   -3.40 KCAL/MOL
REMARK 922        TOTAL FREE ENERGY PREDICTED BY IDOCK:   -5.69 KCAL/MOL
REMARK 923 INTER-LIGAND FREE ENERGY PREDICTED BY IDOCK:   -4.83 KCAL/MOL
REMARK 924 INTRA-LIGAND FREE ENERGY PREDICTED BY IDOCK:   -0.86 KCAL/MOL
REMARK 927      BINDING AFFINITY PREDICTED BY RF-SCORE:    0.00 PKD
ROOT
HETATM    1  C   UNL     1     -13.964  15.498  72.249  1.00  0.00    -0.642 C  
HETATM    2  C   UNL     1     -13.037  14.353  72.640  1.00  0.00    -0.564 C  
ENDROOT
BRANCH   2   3
HETATM    3  C   UNL     1     -12.766  13.452  71.434  1.00  0.00    -0.322 C  
BRANCH   3   4
HETATM    4  N   UNL     1     -11.473  13.767  70.812  1.00  0.00    -0.417 NA 
HETATM    5  H   UNL     1     -10.747  13.113  71.107  1.00  0.00     0.000 HD 
BRANCH   4   6
HETATM    6  C   UNL     1     -11.585  13.827  69.326  1.00  0.00    -0.312 C  
HETATM    7  C   UNL     1     -12.600  14.870  68.846  1.00  0.00     0.260 C  
BRANCH   6   8
HETATM    8  C   UNL     1     -10.231  14.277  68.773  1.00  0.00    -0.226 C  
HETATM    9  O   UNL     1      -9.971  13.706  67.573  1.00  0.00    -0.225 OA 
HETATM   10  H   UNL     1      -9.130  13.986  67.229  1.00  0.00     0.000 HD 
BRANCH   8  11
HETATM   11  N   UNL     1      -9.456  15.083  69.421  1.00  0.00    -0.385 NA 
HETATM   12  H   UNL     1      -9.688  15.384  70.368  1.00  0.00     0.000 HD 
BRANCH  11  13
HETATM   13  C   UNL     1      -8.282  15.534  68.786  1.00  0.00    -0.177 A  
HETATM   14  C   UNL     1      -8.287  16.660  67.971  1.00  0.00    -0.187 A  
HETATM   15  C   UNL     1      -6.703  13.520  69.408  1.00  0.00    -0.051 C  
HETATM   16  S   UNL     1      -6.762  16.878  67.212  1.00  0.00    -0.188 SA 
HETATM   17  C   UNL     1      -6.120  15.483  67.941  1.00  0.00    -0.147 A  
HETATM   18  C   UNL     1      -7.033  14.813  68.734  1.00  0.00    -0.103 A  
BRANCH  14  19
HETATM   19  C   UNL     1      -9.325  17.619  67.648  1.00  0.00    -0.246 C  
HETATM   20  O   UNL     1     -10.534  17.393  67.632  1.00  0.00    -0.347 OA 
BRANCH  19  21
HETATM   21  O   UNL     1      -8.790  18.831  67.298  1.00  0.00    -0.270 OA 
HETATM   22  C   UNL     1      -9.191  19.903  68.151  1.00  0.00    -0.285 C  
ENDBRANCH  19  21
ENDBRANCH  14  19
ENDBRANCH  11  13
ENDBRANCH   8  11
ENDBRANCH   6   8
ENDBRANCH   4   6
ENDBRANCH   3   4
ENDBRANCH   2   3
TORSDOF 8
ENDMDL
MODEL      231
REMARK 921   NORMALIZED FREE ENERGY PREDICTED BY IDOCK:   -3.39 KCAL/MOL
REMARK 922        TOTAL FREE ENERGY PREDICTED BY IDOCK:   -5.69 KCAL/MOL
REMARK 923 INTER-LIGAND FREE ENERGY PREDICTED BY IDOCK:   -4.51 KCAL/MOL
REMARK 924 INTRA-LIGAND FREE ENERGY PREDICTED BY IDOCK:   -1.18 KCAL/MOL
REMARK 927      BINDING AFFINITY PREDICTED BY RF-SCORE:    0.00 PKD
ROOT
HETATM    1  C   UNL     1     -12.868  12.910  71.338  1.00  0.00    -0.377 C  
HETATM    2  C   UNL     1     -12.580  11.418  71.450  1.00  0.00    -0.439 C  
ENDROOT
BRANCH   2   3
HETATM    3  C   UNL     1     -12.246  10.835  70.076  1.00  0.00    -0.334 C  
BRANCH   3   4
HETATM    4  N   UNL     1     -10.862  11.142  69.687  1.00  0.00    -0.427 NA 
HETATM    5  H   UNL     1     -10.268  10.314  69.736  1.00  0.00     0.000 HD 
BRANCH   4   6
HETATM    6  C   UNL     1     -10.805  11.777  68.339  1.00  0.00    -0.223 C  
HETATM    7  C   UNL     1      -9.917  13.025  68.305  1.00  0.00    -0.235 C  
BRANCH   6   8
HETATM    8  C   UNL     1     -10.155  10.777  67.380  1.00  0.00    -0.193 C  
HETATM    9  O   UNL     1     -10.688  10.865  66.137  1.00  0.00    -0.235 OA 
HETATM   10  H   UNL     1     -10.285  10.245  65.541  1.00  0.00     0.000 HD 
BRANCH   8  11
HETATM   11  N   UNL     1      -9.235   9.954  67.761  1.00  0.00    -0.131 NA 
HETATM   12  H   UNL     1      -8.478  10.262  68.371  1.00  0.00     0.000 HD 
BRANCH  11  13
HETATM   13  C   UNL     1      -9.306   8.620  67.313  1.00  0.00    -0.152 A  
HETATM   14  C   UNL     1      -9.791   7.606  68.132  1.00  0.00    -0.164 A  
HETATM   15  C   UNL     1      -8.041   8.910  65.022  1.00  0.00    -0.137 C  
HETATM   16  S   UNL     1      -9.614   6.072  67.382  1.00  0.00    -0.116 SA 
HETATM   17  C   UNL     1      -8.884   6.749  66.004  1.00  0.00    -0.135 A  
HETATM   18  C   UNL     1      -8.729   8.121  66.089  1.00  0.00    -0.179 A  
BRANCH  14  19
HETATM   19  C   UNL     1     -10.367   7.625  69.463  1.00  0.00    -0.217 C  
HETATM   20  O   UNL     1      -9.989   8.327  70.400  1.00  0.00    -0.186 OA 
BRANCH  19  21
HETATM   21  O   UNL     1     -11.376   6.707  69.580  1.00  0.00    -0.323 OA 
HETATM   22  C   UNL     1     -11.768   6.453  70.929  1.00  0.00    -0.303 C  
ENDBRANCH  19  21
ENDBRANCH  14  19
ENDBRANCH  11  13
ENDBRANCH   8  11
ENDBRANCH   6   8
ENDBRANCH   4   6
ENDBRANCH   3   4
ENDBRANCH   2   3
TORSDOF 8
ENDMDL
MODEL      232
REMARK 921   NORMALIZED FREE ENERGY PREDICTED BY IDOCK:   -3.37 KCAL/MOL
REMARK 922        TOTAL FREE ENERGY PREDICTED BY IDOCK:   -5.66 KCAL/MOL
REMARK 923 INTER-LIGAND FREE ENERGY PREDICTED BY IDOCK:   -4.52 KCAL/MOL
REMARK 924 INTRA-LIGAND FREE ENERGY PREDICTED BY IDOCK:   -1.14 KCAL/MOL
REMARK 927      BINDING AFFINITY PREDICTED BY RF-SCORE:    0.00 PKD
ROOT
HETATM    1  C   UNL     1     -11.107  10.640  68.090  1.00  0.00    -0.343 C  
HETATM    2  C   UNL     1     -11.060  11.221  69.498  1.00  0.00    -0.299 C  
ENDROOT
BRANCH   2   3
HETATM    3  C   UNL     1     -12.366  10.928  70.239  1.00  0.00    -0.330 C  
BRANCH   3   4
HETATM    4  N   UNL     1     -12.597   9.482  70.362  1.00  0.00    -0.467 NA 
HETATM    5  H   UNL     1     -12.812   9.060  69.458  1.00  0.00     0.000 HD 
BRANCH   4   6
HETATM    6  C   UNL     1     -11.445   8.802  71.022  1.00  0.00    -0.285 C  
HETATM    7  C   UNL     1     -11.780   8.292  72.428  1.00  0.00    -0.463 C  
BRANCH   6   8
HETATM    8  C   UNL     1     -11.102   7.559  70.198  1.00  0.00    -0.231 C  
HETATM    9  O   UNL     1     -12.202   6.807  69.954  1.00  0.00    -0.634 OA 
HETATM   10  H   UNL     1     -11.989   6.035  69.443  1.00  0.00     0.000 HD 
BRANCH   8  11
HETATM   11  N   UNL     1      -9.894   7.290  69.828  1.00  0.00    -0.176 NA 
HETATM   12  H   UNL     1      -9.383   7.921  69.209  1.00  0.00     0.000 HD 
BRANCH  11  13
HETATM   13  C   UNL     1      -9.300   6.104  70.302  1.00  0.00    -0.160 A  
HETATM   14  C   UNL     1      -8.516   6.096  71.450  1.00  0.00    -0.128 A  
HETATM   15  C   UNL     1      -9.903   4.529  68.280  1.00  0.00    -0.153 C  
HETATM   16  S   UNL     1      -7.800   4.554  71.696  1.00  0.00    -0.094 SA 
HETATM   17  C   UNL     1      -8.506   3.922  70.285  1.00  0.00    -0.060 A  
HETATM   18  C   UNL     1      -9.258   4.851  69.589  1.00  0.00    -0.172 A  
BRANCH  14  19
HETATM   19  C   UNL     1      -8.194   7.131  72.413  1.00  0.00    -0.104 C  
HETATM   20  O   UNL     1      -8.094   8.333  72.171  1.00  0.00    -0.124 OA 
BRANCH  19  21
HETATM   21  O   UNL     1      -7.953   6.599  73.652  1.00  0.00    -0.099 OA 
HETATM   22  C   UNL     1      -9.046   6.740  74.560  1.00  0.00    -0.199 C  
ENDBRANCH  19  21
ENDBRANCH  14  19
ENDBRANCH  11  13
ENDBRANCH   8  11
ENDBRANCH   6   8
ENDBRANCH   4   6
ENDBRANCH   3   4
ENDBRANCH   2   3
TORSDOF 8
ENDMDL
MODEL      233
REMARK 921   NORMALIZED FREE ENERGY PREDICTED BY IDOCK:   -3.36 KCAL/MOL
REMARK 922        TOTAL FREE ENERGY PREDICTED BY IDOCK:   -5.65 KCAL/MOL
REMARK 923 INTER-LIGAND FREE ENERGY PREDICTED BY IDOCK:   -4.64 KCAL/MOL
REMARK 924 INTRA-LIGAND FREE ENERGY PREDICTED BY IDOCK:   -1.00 KCAL/MOL
REMARK 927      BINDING AFFINITY PREDICTED BY RF-SCORE:    0.00 PKD
ROOT
HETATM    1  C   UNL     1      -7.804   7.728  69.712  1.00  0.00    -0.106 C  
HETATM    2  C   UNL     1      -9.237   8.108  69.358  1.00  0.00    -0.155 C  
ENDROOT
BRANCH   2   3
HETATM    3  C   UNL     1      -9.410   9.628  69.402  1.00  0.00    -0.193 C  
BRANCH   3   4
HETATM    4  N   UNL     1     -10.126  10.118  68.216  1.00  0.00    -0.151 NA 
HETATM    5  H   UNL     1     -10.734  10.905  68.445  1.00  0.00     0.000 HD 
BRANCH   4   6
HETATM    6  C   UNL     1      -9.182  10.458  67.113  1.00  0.00    -0.143 C  
HETATM    7  C   UNL     1      -9.685  10.008  65.737  1.00  0.00    -0.321 C  
BRANCH   6   8
HETATM    8  C   UNL     1      -9.079  11.983  67.041  1.00  0.00    -0.191 C  
HETATM    9  O   UNL     1      -7.789  12.396  67.095  1.00  0.00    -0.197 OA 
HETATM   10  H   UNL     1      -7.725  13.342  67.050  1.00  0.00     0.000 HD 
BRANCH   8  11
HETATM   11  N   UNL     1     -10.122  12.742  66.966  1.00  0.00    -0.237 NA 
HETATM   12  H   UNL     1     -10.835  12.583  66.253  1.00  0.00     0.000 HD 
BRANCH  11  13
HETATM   13  C   UNL     1     -10.250  13.793  67.894  1.00  0.00    -0.245 A  
HETATM   14  C   UNL     1     -11.092  13.688  68.996  1.00  0.00    -0.255 A  
HETATM   15  C   UNL     1      -8.851  15.619  66.613  1.00  0.00    -0.327 C  
HETATM   16  S   UNL     1     -11.166  15.170  69.859  1.00  0.00    -0.303 SA 
HETATM   17  C   UNL     1     -10.113  15.940  68.769  1.00  0.00    -0.221 A  
HETATM   18  C   UNL     1      -9.715  15.122  67.727  1.00  0.00    -0.211 A  
BRANCH  14  19
HETATM   19  C   UNL     1     -11.903  12.594  69.497  1.00  0.00    -0.312 C  
HETATM   20  O   UNL     1     -12.294  11.630  68.841  1.00  0.00    -0.355 OA 
BRANCH  19  21
HETATM   21  O   UNL     1     -12.239  12.787  70.810  1.00  0.00    -0.367 OA 
HETATM   22  C   UNL     1     -12.796  11.632  71.436  1.00  0.00    -0.356 C  
ENDBRANCH  19  21
ENDBRANCH  14  19
ENDBRANCH  11  13
ENDBRANCH   8  11
ENDBRANCH   6   8
ENDBRANCH   4   6
ENDBRANCH   3   4
ENDBRANCH   2   3
TORSDOF 8
ENDMDL
MODEL      234
REMARK 921   NORMALIZED FREE ENERGY PREDICTED BY IDOCK:   -3.36 KCAL/MOL
REMARK 922        TOTAL FREE ENERGY PREDICTED BY IDOCK:   -5.64 KCAL/MOL
REMARK 923 INTER-LIGAND FREE ENERGY PREDICTED BY IDOCK:   -4.64 KCAL/MOL
REMARK 924 INTRA-LIGAND FREE ENERGY PREDICTED BY IDOCK:   -1.00 KCAL/MOL
REMARK 927      BINDING AFFINITY PREDICTED BY RF-SCORE:    0.00 PKD
ROOT
HETATM    1  C   UNL     1     -10.302  13.864  65.954  1.00  0.00    -0.318 C  
HETATM    2  C   UNL     1     -11.589  13.956  66.765  1.00  0.00    -0.398 C  
ENDROOT
BRANCH   2   3
HETATM    3  C   UNL     1     -11.807  12.672  67.567  1.00  0.00    -0.334 C  
BRANCH   3   4
HETATM    4  N   UNL     1     -10.541  12.162  68.113  1.00  0.00    -0.208 NA 
HETATM    5  H   UNL     1      -9.840  12.901  68.182  1.00  0.00     0.000 HD 
BRANCH   4   6
HETATM    6  C   UNL     1     -10.749  11.481  69.423  1.00  0.00    -0.068 C  
HETATM    7  C   UNL     1     -12.229  11.358  69.802  1.00  0.00    -0.332 C  
BRANCH   6   8
HETATM    8  C   UNL     1     -10.232  10.047  69.291  1.00  0.00    -0.214 C  
HETATM    9  O   UNL     1      -8.945   9.944  69.700  1.00  0.00    -0.190 OA 
HETATM   10  H   UNL     1      -8.624   9.054  69.618  1.00  0.00     0.000 HD 
BRANCH   8  11
HETATM   11  N   UNL     1     -10.963   9.092  68.816  1.00  0.00    -0.445 NA 
HETATM   12  H   UNL     1     -11.791   9.296  68.256  1.00  0.00     0.000 HD 
BRANCH  11  13
HETATM   13  C   UNL     1     -10.585   7.763  69.093  1.00  0.00    -0.183 A  
HETATM   14  C   UNL     1      -9.863   7.010  68.175  1.00  0.00    -0.139 A  
HETATM   15  C   UNL     1     -11.919   7.439  71.340  1.00  0.00    -0.340 C  
HETATM   16  S   UNL     1      -9.684   5.389  68.713  1.00  0.00    -0.153 SA 
HETATM   17  C   UNL     1     -10.573   5.686  70.131  1.00  0.00    -0.309 A  
HETATM   18  C   UNL     1     -11.047   6.983  70.215  1.00  0.00    -0.323 A  
BRANCH  14  19
HETATM   19  C   UNL     1      -9.287   7.342  66.886  1.00  0.00    -0.157 C  
HETATM   20  O   UNL     1      -9.055   6.548  65.976  1.00  0.00    -0.151 OA 
BRANCH  19  21
HETATM   21  O   UNL     1      -8.970   8.673  66.812  1.00  0.00    -0.131 OA 
HETATM   22  C   UNL     1      -9.404   9.300  65.605  1.00  0.00    -0.244 C  
ENDBRANCH  19  21
ENDBRANCH  14  19
ENDBRANCH  11  13
ENDBRANCH   8  11
ENDBRANCH   6   8
ENDBRANCH   4   6
ENDBRANCH   3   4
ENDBRANCH   2   3
TORSDOF 8
ENDMDL
MODEL      235
REMARK 921   NORMALIZED FREE ENERGY PREDICTED BY IDOCK:   -3.36 KCAL/MOL
REMARK 922        TOTAL FREE ENERGY PREDICTED BY IDOCK:   -5.64 KCAL/MOL
REMARK 923 INTER-LIGAND FREE ENERGY PREDICTED BY IDOCK:   -4.55 KCAL/MOL
REMARK 924 INTRA-LIGAND FREE ENERGY PREDICTED BY IDOCK:   -1.09 KCAL/MOL
REMARK 927      BINDING AFFINITY PREDICTED BY RF-SCORE:    0.00 PKD
ROOT
HETATM    1  C   UNL     1      -9.992   3.564  63.103  1.00  0.00    -0.146 C  
HETATM    2  C   UNL     1     -10.884   4.211  64.155  1.00  0.00    -0.065 C  
ENDROOT
BRANCH   2   3
HETATM    3  C   UNL     1     -10.115   4.397  65.465  1.00  0.00    -0.236 C  
BRANCH   3   4
HETATM    4  N   UNL     1     -10.753   5.408  66.320  1.00  0.00    -0.618 NA 
HETATM    5  H   UNL     1     -11.768   5.399  66.214  1.00  0.00     0.000 HD 
BRANCH   4   6
HETATM    6  C   UNL     1     -10.350   5.245  67.746  1.00  0.00    -0.133 C  
HETATM    7  C   UNL     1      -8.910   4.747  67.906  1.00  0.00    -0.114 C  
BRANCH   6   8
HETATM    8  C   UNL     1     -10.389   6.627  68.403  1.00  0.00    -0.193 C  
HETATM    9  O   UNL     1      -9.759   6.623  69.603  1.00  0.00    -0.154 OA 
HETATM   10  H   UNL     1      -9.783   7.481  70.010  1.00  0.00     0.000 HD 
BRANCH   8  11
HETATM   11  N   UNL     1     -10.983   7.634  67.854  1.00  0.00    -0.484 NA 
HETATM   12  H   UNL     1     -11.913   7.535  67.447  1.00  0.00     0.000 HD 
BRANCH  11  13
HETATM   13  C   UNL     1     -10.312   8.873  67.832  1.00  0.00    -0.230 A  
HETATM   14  C   UNL     1     -10.546   9.840  68.803  1.00  0.00    -0.219 A  
HETATM   15  C   UNL     1      -9.116   8.628  65.499  1.00  0.00    -0.190 C  
HETATM   16  S   UNL     1      -9.713  11.295  68.436  1.00  0.00    -0.198 SA 
HETATM   17  C   UNL     1      -9.075  10.652  66.998  1.00  0.00    -0.144 A  
HETATM   18  C   UNL     1      -9.494   9.358  66.747  1.00  0.00    -0.217 A  
BRANCH  14  19
HETATM   19  C   UNL     1     -11.360   9.833  70.004  1.00  0.00    -0.220 C  
HETATM   20  O   UNL     1     -11.688   8.835  70.644  1.00  0.00    -0.260 OA 
BRANCH  19  21
HETATM   21  O   UNL     1     -11.780  11.096  70.325  1.00  0.00    -0.311 OA 
HETATM   22  C   UNL     1     -12.689  11.136  71.425  1.00  0.00    -0.418 C  
ENDBRANCH  19  21
ENDBRANCH  14  19
ENDBRANCH  11  13
ENDBRANCH   8  11
ENDBRANCH   6   8
ENDBRANCH   4   6
ENDBRANCH   3   4
ENDBRANCH   2   3
TORSDOF 8
ENDMDL
MODEL      236
REMARK 921   NORMALIZED FREE ENERGY PREDICTED BY IDOCK:   -3.34 KCAL/MOL
REMARK 922        TOTAL FREE ENERGY PREDICTED BY IDOCK:   -5.62 KCAL/MOL
REMARK 923 INTER-LIGAND FREE ENERGY PREDICTED BY IDOCK:   -4.68 KCAL/MOL
REMARK 924 INTRA-LIGAND FREE ENERGY PREDICTED BY IDOCK:   -0.94 KCAL/MOL
REMARK 927      BINDING AFFINITY PREDICTED BY RF-SCORE:    0.00 PKD
ROOT
HETATM    1  C   UNL     1      -5.703   9.351  66.534  1.00  0.00    -0.054 C  
HETATM    2  C   UNL     1      -6.468   9.123  67.832  1.00  0.00    -0.056 C  
ENDROOT
BRANCH   2   3
HETATM    3  C   UNL     1      -6.803  10.461  68.495  1.00  0.00    -0.061 C  
BRANCH   3   4
HETATM    4  N   UNL     1      -8.254  10.689  68.534  1.00  0.00    -0.121 NA 
HETATM    5  H   UNL     1      -8.672  10.298  69.379  1.00  0.00     0.000 HD 
BRANCH   4   6
HETATM    6  C   UNL     1      -8.580  12.137  68.382  1.00  0.00    -0.141 C  
HETATM    7  C   UNL     1      -7.784  12.813  67.260  1.00  0.00    -0.129 C  
BRANCH   6   8
HETATM    8  C   UNL     1     -10.050  12.243  67.971  1.00  0.00    -0.206 C  
HETATM    9  O   UNL     1     -10.615  13.381  68.443  1.00  0.00    -0.236 OA 
HETATM   10  H   UNL     1     -11.528  13.447  68.187  1.00  0.00     0.000 HD 
BRANCH   8  11
HETATM   11  N   UNL     1     -10.642  11.324  67.282  1.00  0.00    -0.221 NA 
HETATM   12  H   UNL     1     -11.169  10.582  67.743  1.00  0.00     0.000 HD 
BRANCH  11  13
HETATM   13  C   UNL     1     -10.539  11.373  65.878  1.00  0.00    -0.263 A  
HETATM   14  C   UNL     1     -11.150  12.383  65.143  1.00  0.00    -0.309 A  
HETATM   15  C   UNL     1      -9.347   9.057  65.491  1.00  0.00    -0.255 C  
HETATM   16  S   UNL     1     -10.989  12.101  63.457  1.00  0.00    -0.438 SA 
HETATM   17  C   UNL     1     -10.142  10.648  63.708  1.00  0.00    -0.270 A  
HETATM   18  C   UNL     1      -9.992  10.330  65.045  1.00  0.00    -0.393 A  
BRANCH  14  19
HETATM   19  C   UNL     1     -11.889  13.564  65.544  1.00  0.00    -0.363 C  
HETATM   20  O   UNL     1     -12.619  13.655  66.530  1.00  0.00    -0.335 OA 
BRANCH  19  21
HETATM   21  O   UNL     1     -11.723  14.583  64.644  1.00  0.00    -0.400 OA 
HETATM   22  C   UNL     1     -10.884  15.637  65.118  1.00  0.00    -0.431 C  
ENDBRANCH  19  21
ENDBRANCH  14  19
ENDBRANCH  11  13
ENDBRANCH   8  11
ENDBRANCH   6   8
ENDBRANCH   4   6
ENDBRANCH   3   4
ENDBRANCH   2   3
TORSDOF 8
ENDMDL
MODEL      237
REMARK 921   NORMALIZED FREE ENERGY PREDICTED BY IDOCK:   -3.32 KCAL/MOL
REMARK 922        TOTAL FREE ENERGY PREDICTED BY IDOCK:   -5.59 KCAL/MOL
REMARK 923 INTER-LIGAND FREE ENERGY PREDICTED BY IDOCK:   -4.70 KCAL/MOL
REMARK 924 INTRA-LIGAND FREE ENERGY PREDICTED BY IDOCK:   -0.88 KCAL/MOL
REMARK 927      BINDING AFFINITY PREDICTED BY RF-SCORE:    0.00 PKD
ROOT
HETATM    1  C   UNL     1      -5.959   7.188  68.295  1.00  0.00    -0.030 C  
HETATM    2  C   UNL     1      -6.055   8.558  67.634  1.00  0.00    -0.048 C  
ENDROOT
BRANCH   2   3
HETATM    3  C   UNL     1      -7.293   8.632  66.738  1.00  0.00    -0.079 C  
BRANCH   3   4
HETATM    4  N   UNL     1      -8.530   8.576  67.531  1.00  0.00    -0.127 NA 
HETATM    5  H   UNL     1      -8.354   8.222  68.472  1.00  0.00     0.000 HD 
BRANCH   4   6
HETATM    6  C   UNL     1      -9.215   9.900  67.564  1.00  0.00    -0.134 C  
HETATM    7  C   UNL     1     -10.255  10.060  66.450  1.00  0.00    -0.290 C  
BRANCH   6   8
HETATM    8  C   UNL     1      -9.994   9.990  68.878  1.00  0.00    -0.192 C  
HETATM    9  O   UNL     1      -9.172  10.250  69.924  1.00  0.00    -0.389 OA 
HETATM   10  H   UNL     1      -9.656  10.307  70.739  1.00  0.00     0.000 HD 
BRANCH   8  11
HETATM   11  N   UNL     1     -11.271   9.808  68.935  1.00  0.00    -0.455 NA 
HETATM   12  H   UNL     1     -11.784   9.440  68.134  1.00  0.00     0.000 HD 
BRANCH  11  13
HETATM   13  C   UNL     1     -11.937  10.129  70.135  1.00  0.00    -0.185 A  
HETATM   14  C   UNL     1     -12.406   9.138  70.990  1.00  0.00    -0.214 A  
HETATM   15  C   UNL     1     -12.143  12.730  69.783  1.00  0.00    -0.305 C  
HETATM   16  S   UNL     1     -13.308   9.818  72.284  1.00  0.00    -0.282 SA 
HETATM   17  C   UNL     1     -13.095  11.399  71.697  1.00  0.00    -0.393 A  
HETATM   18  C   UNL     1     -12.380  11.448  70.514  1.00  0.00    -0.439 A  
BRANCH  14  19
HETATM   19  C   UNL     1     -12.288   7.693  70.958  1.00  0.00    -0.208 C  
HETATM   20  O   UNL     1     -13.185   6.893  71.218  1.00  0.00    -0.311 OA 
BRANCH  19  21
HETATM   21  O   UNL     1     -11.012   7.305  70.648  1.00  0.00    -0.244 OA 
HETATM   22  C   UNL     1     -10.935   6.016  70.040  1.00  0.00    -0.380 C  
ENDBRANCH  19  21
ENDBRANCH  14  19
ENDBRANCH  11  13
ENDBRANCH   8  11
ENDBRANCH   6   8
ENDBRANCH   4   6
ENDBRANCH   3   4
ENDBRANCH   2   3
TORSDOF 8
ENDMDL
MODEL      238
REMARK 921   NORMALIZED FREE ENERGY PREDICTED BY IDOCK:   -3.32 KCAL/MOL
REMARK 922        TOTAL FREE ENERGY PREDICTED BY IDOCK:   -5.58 KCAL/MOL
REMARK 923 INTER-LIGAND FREE ENERGY PREDICTED BY IDOCK:   -4.92 KCAL/MOL
REMARK 924 INTRA-LIGAND FREE ENERGY PREDICTED BY IDOCK:   -0.67 KCAL/MOL
REMARK 927      BINDING AFFINITY PREDICTED BY RF-SCORE:    0.00 PKD
ROOT
HETATM    1  C   UNL     1      -6.393  12.278  67.308  1.00  0.00    -0.150 C  
HETATM    2  C   UNL     1      -7.696  12.092  68.076  1.00  0.00    -0.132 C  
ENDROOT
BRANCH   2   3
HETATM    3  C   UNL     1      -8.742  11.409  67.193  1.00  0.00    -0.155 C  
BRANCH   3   4
HETATM    4  N   UNL     1      -8.747   9.954  67.398  1.00  0.00    -0.128 NA 
HETATM    5  H   UNL     1      -7.981   9.660  68.006  1.00  0.00     0.000 HD 
BRANCH   4   6
HETATM    6  C   UNL     1     -10.064   9.482  67.913  1.00  0.00    -0.191 C  
HETATM    7  C   UNL     1     -11.188  10.502  67.698  1.00  0.00    -0.338 C  
BRANCH   6   8
HETATM    8  C   UNL     1     -10.465   8.245  67.105  1.00  0.00    -0.316 C  
HETATM    9  O   UNL     1      -9.888   8.246  65.879  1.00  0.00    -0.466 OA 
HETATM   10  H   UNL     1     -10.136   7.478  65.378  1.00  0.00     0.000 HD 
BRANCH   8  11
HETATM   11  N   UNL     1     -11.276   7.353  67.568  1.00  0.00    -0.509 NA 
HETATM   12  H   UNL     1     -12.286   7.476  67.496  1.00  0.00     0.000 HD 
BRANCH  11  13
HETATM   13  C   UNL     1     -10.729   6.205  68.176  1.00  0.00    -0.294 A  
HETATM   14  C   UNL     1     -10.693   6.066  69.559  1.00  0.00    -0.335 A  
HETATM   15  C   UNL     1      -9.743   5.055  66.022  1.00  0.00    -0.194 C  
HETATM   16  S   UNL     1      -9.834   4.650  70.013  1.00  0.00    -0.226 SA 
HETATM   17  C   UNL     1      -9.500   4.248  68.395  1.00  0.00    -0.155 A  
HETATM   18  C   UNL     1      -9.990   5.172  67.492  1.00  0.00    -0.211 A  
BRANCH  14  19
HETATM   19  C   UNL     1     -11.210   6.894  70.631  1.00  0.00    -0.301 C  
HETATM   20  O   UNL     1     -11.497   8.086  70.545  1.00  0.00    -0.264 OA 
BRANCH  19  21
HETATM   21  O   UNL     1     -11.297   6.190  71.803  1.00  0.00    -0.275 OA 
HETATM   22  C   UNL     1     -10.988   6.964  72.962  1.00  0.00    -0.274 C  
ENDBRANCH  19  21
ENDBRANCH  14  19
ENDBRANCH  11  13
ENDBRANCH   8  11
ENDBRANCH   6   8
ENDBRANCH   4   6
ENDBRANCH   3   4
ENDBRANCH   2   3
TORSDOF 8
ENDMDL
MODEL      239
REMARK 921   NORMALIZED FREE ENERGY PREDICTED BY IDOCK:   -3.29 KCAL/MOL
REMARK 922        TOTAL FREE ENERGY PREDICTED BY IDOCK:   -5.54 KCAL/MOL
REMARK 923 INTER-LIGAND FREE ENERGY PREDICTED BY IDOCK:   -4.78 KCAL/MOL
REMARK 924 INTRA-LIGAND FREE ENERGY PREDICTED BY IDOCK:   -0.76 KCAL/MOL
REMARK 927      BINDING AFFINITY PREDICTED BY RF-SCORE:    0.00 PKD
ROOT
HETATM    1  C   UNL     1      -9.687   5.593  67.356  1.00  0.00    -0.138 C  
HETATM    2  C   UNL     1     -10.952   6.027  68.086  1.00  0.00    -0.340 C  
ENDROOT
BRANCH   2   3
HETATM    3  C   UNL     1     -10.668   7.244  68.968  1.00  0.00    -0.166 C  
BRANCH   3   4
HETATM    4  N   UNL     1     -11.745   7.460  69.944  1.00  0.00    -0.498 NA 
HETATM    5  H   UNL     1     -12.254   6.596  70.135  1.00  0.00     0.000 HD 
BRANCH   4   6
HETATM    6  C   UNL     1     -11.226   8.078  71.198  1.00  0.00    -0.261 C  
HETATM    7  C   UNL     1     -11.895   9.417  71.524  1.00  0.00    -0.456 C  
BRANCH   6   8
HETATM    8  C   UNL     1     -11.576   7.144  72.359  1.00  0.00    -0.253 C  
HETATM    9  O   UNL     1     -12.768   6.531  72.159  1.00  0.00    -0.537 OA 
HETATM   10  H   UNL     1     -12.986   5.951  72.880  1.00  0.00     0.000 HD 
BRANCH   8  11
HETATM   11  N   UNL     1     -10.811   7.010  73.391  1.00  0.00    -0.492 NA 
HETATM   12  H   UNL     1     -10.977   7.552  74.239  1.00  0.00     0.000 HD 
BRANCH  11  13
HETATM   13  C   UNL     1      -9.741   6.097  73.314  1.00  0.00    -0.157 A  
HETATM   14  C   UNL     1      -8.437   6.527  73.094  1.00  0.00    -0.117 A  
HETATM   15  C   UNL     1     -11.131   3.861  73.352  1.00  0.00    -0.329 C  
HETATM   16  S   UNL     1      -7.375   5.193  72.891  1.00  0.00    -0.092 SA 
HETATM   17  C   UNL     1      -8.637   4.069  73.070  1.00  0.00    -0.099 A  
HETATM   18  C   UNL     1      -9.873   4.662  73.251  1.00  0.00    -0.170 A  
BRANCH  14  19
HETATM   19  C   UNL     1      -7.857   7.852  72.985  1.00  0.00    -0.131 C  
HETATM   20  O   UNL     1      -8.087   8.801  73.732  1.00  0.00    -0.381 OA 
BRANCH  19  21
HETATM   21  O   UNL     1      -7.040   7.947  71.889  1.00  0.00    -0.063 OA 
HETATM   22  C   UNL     1      -7.478   8.907  70.928  1.00  0.00    -0.102 C  
ENDBRANCH  19  21
ENDBRANCH  14  19
ENDBRANCH  11  13
ENDBRANCH   8  11
ENDBRANCH   6   8
ENDBRANCH   4   6
ENDBRANCH   3   4
ENDBRANCH   2   3
TORSDOF 8
ENDMDL
MODEL      240
REMARK 921   NORMALIZED FREE ENERGY PREDICTED BY IDOCK:   -3.29 KCAL/MOL
REMARK 922        TOTAL FREE ENERGY PREDICTED BY IDOCK:   -5.54 KCAL/MOL
REMARK 923 INTER-LIGAND FREE ENERGY PREDICTED BY IDOCK:   -4.59 KCAL/MOL
REMARK 924 INTRA-LIGAND FREE ENERGY PREDICTED BY IDOCK:   -0.94 KCAL/MOL
REMARK 927      BINDING AFFINITY PREDICTED BY RF-SCORE:    0.00 PKD
ROOT
HETATM    1  C   UNL     1      -9.780  17.512  66.833  1.00  0.00    -0.291 C  
HETATM    2  C   UNL     1     -10.481  16.240  66.371  1.00  0.00    -0.297 C  
ENDROOT
BRANCH   2   3
HETATM    3  C   UNL     1     -11.275  15.621  67.523  1.00  0.00    -0.245 C  
BRANCH   3   4
HETATM    4  N   UNL     1     -10.392  15.227  68.629  1.00  0.00    -0.227 NA 
HETATM    5  H   UNL     1     -10.270  15.988  69.299  1.00  0.00     0.000 HD 
BRANCH   4   6
HETATM    6  C   UNL     1     -10.876  13.984  69.295  1.00  0.00    -0.160 C  
HETATM    7  C   UNL     1     -12.324  14.096  69.785  1.00  0.00    -0.350 C  
BRANCH   6   8
HETATM    8  C   UNL     1     -10.875  12.865  68.252  1.00  0.00    -0.242 C  
HETATM    9  O   UNL     1     -12.108  12.323  68.104  1.00  0.00    -0.407 OA 
HETATM   10  H   UNL     1     -12.107  11.628  67.456  1.00  0.00     0.000 HD 
BRANCH   8  11
HETATM   11  N   UNL     1      -9.800  12.500  67.634  1.00  0.00    -0.198 NA 
HETATM   12  H   UNL     1      -8.918  12.992  67.783  1.00  0.00     0.000 HD 
BRANCH  11  13
HETATM   13  C   UNL     1      -9.877  11.405  66.751  1.00  0.00    -0.206 A  
HETATM   14  C   UNL     1      -9.542  10.120  67.161  1.00  0.00    -0.169 A  
HETATM   15  C   UNL     1     -10.396  12.728  64.534  1.00  0.00    -0.373 C  
HETATM   16  S   UNL     1      -9.580   9.023  65.840  1.00  0.00    -0.208 SA 
HETATM   17  C   UNL     1     -10.013  10.247  64.743  1.00  0.00    -0.321 A  
HETATM   18  C   UNL     1     -10.104  11.496  65.329  1.00  0.00    -0.314 A  
BRANCH  14  19
HETATM   19  C   UNL     1      -9.156   9.582  68.451  1.00  0.00    -0.127 C  
HETATM   20  O   UNL     1      -9.618   8.570  68.976  1.00  0.00    -0.163 OA 
BRANCH  19  21
HETATM   21  O   UNL     1      -8.227  10.381  69.064  1.00  0.00    -0.121 OA 
HETATM   22  C   UNL     1      -7.689   9.821  70.262  1.00  0.00    -0.172 C  
ENDBRANCH  19  21
ENDBRANCH  14  19
ENDBRANCH  11  13
ENDBRANCH   8  11
ENDBRANCH   6   8
ENDBRANCH   4   6
ENDBRANCH   3   4
ENDBRANCH   2   3
TORSDOF 8
ENDMDL
MODEL      241
REMARK 921   NORMALIZED FREE ENERGY PREDICTED BY IDOCK:   -3.28 KCAL/MOL
REMARK 922        TOTAL FREE ENERGY PREDICTED BY IDOCK:   -5.53 KCAL/MOL
REMARK 923 INTER-LIGAND FREE ENERGY PREDICTED BY IDOCK:   -4.64 KCAL/MOL
REMARK 924 INTRA-LIGAND FREE ENERGY PREDICTED BY IDOCK:   -0.89 KCAL/MOL
REMARK 927      BINDING AFFINITY PREDICTED BY RF-SCORE:    0.00 PKD
ROOT
HETATM    1  C   UNL     1     -12.521  11.944  63.461  1.00  0.00    -0.609 C  
HETATM    2  C   UNL     1     -12.065  13.310  63.960  1.00  0.00    -0.508 C  
ENDROOT
BRANCH   2   3
HETATM    3  C   UNL     1     -12.515  13.526  65.406  1.00  0.00    -0.497 C  
BRANCH   3   4
HETATM    4  N   UNL     1     -11.701  12.736  66.342  1.00  0.00    -0.384 NA 
HETATM    5  H   UNL     1     -11.759  11.738  66.137  1.00  0.00     0.000 HD 
BRANCH   4   6
HETATM    6  C   UNL     1     -10.287  13.209  66.363  1.00  0.00    -0.287 C  
HETATM    7  C   UNL     1     -10.161  14.700  66.694  1.00  0.00    -0.277 C  
BRANCH   6   8
HETATM    8  C   UNL     1      -9.565  12.469  67.492  1.00  0.00    -0.187 C  
HETATM    9  O   UNL     1      -9.958  12.918  68.709  1.00  0.00    -0.391 OA 
HETATM   10  H   UNL     1      -9.510  12.459  69.410  1.00  0.00     0.000 HD 
BRANCH   8  11
HETATM   11  N   UNL     1      -8.680  11.556  67.263  1.00  0.00    -0.147 NA 
HETATM   12  H   UNL     1      -8.006  11.660  66.504  1.00  0.00     0.000 HD 
BRANCH  11  13
HETATM   13  C   UNL     1      -8.671  10.414  68.088  1.00  0.00    -0.125 A  
HETATM   14  C   UNL     1      -7.725  10.257  69.095  1.00  0.00    -0.119 A  
HETATM   15  C   UNL     1     -10.509   9.009  66.831  1.00  0.00    -0.293 C  
HETATM   16  S   UNL     1      -7.858   8.710  69.828  1.00  0.00    -0.096 SA 
HETATM   17  C   UNL     1      -9.136   8.255  68.804  1.00  0.00    -0.144 A  
HETATM   18  C   UNL     1      -9.465   9.229  67.878  1.00  0.00    -0.154 A  
BRANCH  14  19
HETATM   19  C   UNL     1      -6.677  11.130  69.587  1.00  0.00    -0.134 C  
HETATM   20  O   UNL     1      -5.718  10.784  70.275  1.00  0.00    -0.067 OA 
BRANCH  19  21
HETATM   21  O   UNL     1      -6.909  12.432  69.233  1.00  0.00    -0.095 OA 
HETATM   22  C   UNL     1      -6.118  13.374  69.958  1.00  0.00    -0.125 C  
ENDBRANCH  19  21
ENDBRANCH  14  19
ENDBRANCH  11  13
ENDBRANCH   8  11
ENDBRANCH   6   8
ENDBRANCH   4   6
ENDBRANCH   3   4
ENDBRANCH   2   3
TORSDOF 8
ENDMDL
MODEL      242
REMARK 921   NORMALIZED FREE ENERGY PREDICTED BY IDOCK:   -3.27 KCAL/MOL
REMARK 922        TOTAL FREE ENERGY PREDICTED BY IDOCK:   -5.52 KCAL/MOL
REMARK 923 INTER-LIGAND FREE ENERGY PREDICTED BY IDOCK:   -4.43 KCAL/MOL
REMARK 924 INTRA-LIGAND FREE ENERGY PREDICTED BY IDOCK:   -1.09 KCAL/MOL
REMARK 927      BINDING AFFINITY PREDICTED BY RF-SCORE:    0.00 PKD
ROOT
HETATM    1  C   UNL     1      -5.174  10.611  67.214  1.00  0.00    -0.040 C  
HETATM    2  C   UNL     1      -6.273   9.575  67.423  1.00  0.00    -0.060 C  
ENDROOT
BRANCH   2   3
HETATM    3  C   UNL     1      -7.016   9.314  66.111  1.00  0.00    -0.086 C  
BRANCH   3   4
HETATM    4  N   UNL     1      -7.035  10.514  65.261  1.00  0.00    -0.293 NA 
HETATM    5  H   UNL     1      -6.179  10.596  64.712  1.00  0.00     0.000 HD 
BRANCH   4   6
HETATM    6  C   UNL     1      -8.247  10.545  64.394  1.00  0.00    -0.068 C  
HETATM    7  C   UNL     1      -8.804   9.148  64.096  1.00  0.00    -0.127 C  
BRANCH   6   8
HETATM    8  C   UNL     1      -9.351  11.278  65.159  1.00  0.00    -0.189 C  
HETATM    9  O   UNL     1     -10.580  10.943  64.699  1.00  0.00    -0.334 OA 
HETATM   10  H   UNL     1     -11.265  11.399  65.174  1.00  0.00     0.000 HD 
BRANCH   8  11
HETATM   11  N   UNL     1      -9.091  12.123  66.101  1.00  0.00    -0.380 NA 
HETATM   12  H   UNL     1      -8.167  12.549  66.183  1.00  0.00     0.000 HD 
BRANCH  11  13
HETATM   13  C   UNL     1     -10.116  12.442  67.013  1.00  0.00    -0.214 A  
HETATM   14  C   UNL     1     -10.836  13.627  66.907  1.00  0.00    -0.283 A  
HETATM   15  C   UNL     1      -9.757  10.464  68.713  1.00  0.00    -0.184 C  
HETATM   16  S   UNL     1     -11.905  13.818  68.237  1.00  0.00    -0.371 SA 
HETATM   17  C   UNL     1     -11.398  12.360  68.947  1.00  0.00    -0.294 A  
HETATM   18  C   UNL     1     -10.404  11.722  68.229  1.00  0.00    -0.217 A  
BRANCH  14  19
HETATM   19  C   UNL     1     -10.814  14.691  65.922  1.00  0.00    -0.312 C  
HETATM   20  O   UNL     1     -10.672  14.546  64.709  1.00  0.00    -0.413 OA 
BRANCH  19  21
HETATM   21  O   UNL     1     -10.918  15.921  66.518  1.00  0.00    -0.252 OA 
HETATM   22  C   UNL     1      -9.891  16.834  66.133  1.00  0.00    -0.309 C  
ENDBRANCH  19  21
ENDBRANCH  14  19
ENDBRANCH  11  13
ENDBRANCH   8  11
ENDBRANCH   6   8
ENDBRANCH   4   6
ENDBRANCH   3   4
ENDBRANCH   2   3
TORSDOF 8
ENDMDL
MODEL      243
REMARK 921   NORMALIZED FREE ENERGY PREDICTED BY IDOCK:   -3.26 KCAL/MOL
REMARK 922        TOTAL FREE ENERGY PREDICTED BY IDOCK:   -5.49 KCAL/MOL
REMARK 923 INTER-LIGAND FREE ENERGY PREDICTED BY IDOCK:   -4.46 KCAL/MOL
REMARK 924 INTRA-LIGAND FREE ENERGY PREDICTED BY IDOCK:   -1.04 KCAL/MOL
REMARK 927      BINDING AFFINITY PREDICTED BY RF-SCORE:    0.00 PKD
ROOT
HETATM    1  C   UNL     1      -6.953  12.655  68.910  1.00  0.00    -0.086 C  
HETATM    2  C   UNL     1      -7.145  11.917  67.591  1.00  0.00    -0.112 C  
ENDROOT
BRANCH   2   3
HETATM    3  C   UNL     1      -6.600  10.491  67.694  1.00  0.00    -0.065 C  
BRANCH   3   4
HETATM    4  N   UNL     1      -7.685   9.500  67.657  1.00  0.00    -0.094 NA 
HETATM    5  H   UNL     1      -8.601   9.950  67.638  1.00  0.00     0.000 HD 
BRANCH   4   6
HETATM    6  C   UNL     1      -7.517   8.553  66.518  1.00  0.00    -0.088 C  
HETATM    7  C   UNL     1      -8.071   7.156  66.818  1.00  0.00    -0.113 C  
BRANCH   6   8
HETATM    8  C   UNL     1      -8.340   9.085  65.343  1.00  0.00    -0.144 C  
HETATM    9  O   UNL     1      -7.551   9.406  64.290  1.00  0.00    -0.107 OA 
HETATM   10  H   UNL     1      -8.062   9.736  63.560  1.00  0.00     0.000 HD 
BRANCH   8  11
HETATM   11  N   UNL     1      -9.624   9.217  65.406  1.00  0.00    -0.439 NA 
HETATM   12  H   UNL     1     -10.228   8.408  65.551  1.00  0.00     0.000 HD 
BRANCH  11  13
HETATM   13  C   UNL     1     -10.168  10.510  65.268  1.00  0.00    -0.282 A  
HETATM   14  C   UNL     1     -10.800  11.146  66.331  1.00  0.00    -0.225 A  
HETATM   15  C   UNL     1      -9.848  10.794  62.670  1.00  0.00    -0.166 C  
HETATM   16  S   UNL     1     -11.498  12.632  65.831  1.00  0.00    -0.384 SA 
HETATM   17  C   UNL     1     -10.986  12.416  64.225  1.00  0.00    -0.351 A  
HETATM   18  C   UNL     1     -10.317  11.223  64.023  1.00  0.00    -0.430 A  
BRANCH  14  19
HETATM   19  C   UNL     1     -10.983  10.767  67.719  1.00  0.00    -0.297 C  
HETATM   20  O   UNL     1     -10.415   9.838  68.291  1.00  0.00    -0.195 OA 
BRANCH  19  21
HETATM   21  O   UNL     1     -11.929  11.549  68.326  1.00  0.00    -0.544 OA 
HETATM   22  C   UNL     1     -11.699  11.751  69.720  1.00  0.00    -0.335 C  
ENDBRANCH  19  21
ENDBRANCH  14  19
ENDBRANCH  11  13
ENDBRANCH   8  11
ENDBRANCH   6   8
ENDBRANCH   4   6
ENDBRANCH   3   4
ENDBRANCH   2   3
TORSDOF 8
ENDMDL
MODEL      244
REMARK 921   NORMALIZED FREE ENERGY PREDICTED BY IDOCK:   -3.26 KCAL/MOL
REMARK 922        TOTAL FREE ENERGY PREDICTED BY IDOCK:   -5.49 KCAL/MOL
REMARK 923 INTER-LIGAND FREE ENERGY PREDICTED BY IDOCK:   -4.23 KCAL/MOL
REMARK 924 INTRA-LIGAND FREE ENERGY PREDICTED BY IDOCK:   -1.25 KCAL/MOL
REMARK 927      BINDING AFFINITY PREDICTED BY RF-SCORE:    0.00 PKD
ROOT
HETATM    1  C   UNL     1     -14.205   8.902  72.078  1.00  0.00    -0.444 C  
HETATM    2  C   UNL     1     -12.790   8.388  71.840  1.00  0.00    -0.384 C  
ENDROOT
BRANCH   2   3
HETATM    3  C   UNL     1     -12.818   6.904  71.471  1.00  0.00    -0.333 C  
BRANCH   3   4
HETATM    4  N   UNL     1     -11.669   6.541  70.630  1.00  0.00    -0.390 NA 
HETATM    5  H   UNL     1     -11.322   7.344  70.105  1.00  0.00     0.000 HD 
BRANCH   4   6
HETATM    6  C   UNL     1     -10.586   5.906  71.435  1.00  0.00    -0.252 C  
HETATM    7  C   UNL     1      -9.969   4.684  70.746  1.00  0.00    -0.284 C  
BRANCH   6   8
HETATM    8  C   UNL     1      -9.451   6.922  71.576  1.00  0.00    -0.155 C  
HETATM    9  O   UNL     1      -9.547   7.615  72.736  1.00  0.00    -0.163 OA 
HETATM   10  H   UNL     1      -8.842   8.246  72.823  1.00  0.00     0.000 HD 
BRANCH   8  11
HETATM   11  N   UNL     1      -8.552   7.082  70.661  1.00  0.00    -0.146 NA 
HETATM   12  H   UNL     1      -8.059   6.280  70.267  1.00  0.00     0.000 HD 
BRANCH  11  13
HETATM   13  C   UNL     1      -8.271   8.391  70.224  1.00  0.00    -0.121 A  
HETATM   14  C   UNL     1      -8.907   8.935  69.113  1.00  0.00    -0.136 A  
HETATM   15  C   UNL     1      -6.252   8.915  71.830  1.00  0.00    -0.069 C  
HETATM   16  S   UNL     1      -8.255  10.475  68.724  1.00  0.00    -0.142 SA 
HETATM   17  C   UNL     1      -7.133  10.403  69.999  1.00  0.00    -0.150 A  
HETATM   18  C   UNL     1      -7.199   9.222  70.715  1.00  0.00    -0.126 A  
BRANCH  14  19
HETATM   19  C   UNL     1      -9.959   8.430  68.253  1.00  0.00    -0.187 C  
HETATM   20  O   UNL     1     -10.857   9.099  67.746  1.00  0.00    -0.217 OA 
BRANCH  19  21
HETATM   21  O   UNL     1      -9.870   7.071  68.106  1.00  0.00    -0.135 OA 
HETATM   22  C   UNL     1     -10.811   6.530  67.178  1.00  0.00    -0.401 C  
ENDBRANCH  19  21
ENDBRANCH  14  19
ENDBRANCH  11  13
ENDBRANCH   8  11
ENDBRANCH   6   8
ENDBRANCH   4   6
ENDBRANCH   3   4
ENDBRANCH   2   3
TORSDOF 8
ENDMDL
MODEL      245
REMARK 921   NORMALIZED FREE ENERGY PREDICTED BY IDOCK:   -3.25 KCAL/MOL
REMARK 922        TOTAL FREE ENERGY PREDICTED BY IDOCK:   -5.48 KCAL/MOL
REMARK 923 INTER-LIGAND FREE ENERGY PREDICTED BY IDOCK:   -4.47 KCAL/MOL
REMARK 924 INTRA-LIGAND FREE ENERGY PREDICTED BY IDOCK:   -1.01 KCAL/MOL
REMARK 927      BINDING AFFINITY PREDICTED BY RF-SCORE:    0.00 PKD
ROOT
HETATM    1  C   UNL     1     -11.544  15.256  68.337  1.00  0.00    -0.365 C  
HETATM    2  C   UNL     1     -10.585  14.164  67.878  1.00  0.00    -0.244 C  
ENDROOT
BRANCH   2   3
HETATM    3  C   UNL     1     -11.337  13.094  67.084  1.00  0.00    -0.316 C  
BRANCH   3   4
HETATM    4  N   UNL     1     -10.612  12.732  65.858  1.00  0.00    -0.270 NA 
HETATM    5  H   UNL     1      -9.748  13.266  65.763  1.00  0.00     0.000 HD 
BRANCH   4   6
HETATM    6  C   UNL     1     -10.359  11.264  65.790  1.00  0.00    -0.258 C  
HETATM    7  C   UNL     1     -10.282  10.738  64.353  1.00  0.00    -0.432 C  
BRANCH   6   8
HETATM    8  C   UNL     1      -8.983  10.999  66.405  1.00  0.00    -0.181 C  
HETATM    9  O   UNL     1      -7.997  11.586  65.684  1.00  0.00    -0.349 OA 
HETATM   10  H   UNL     1      -7.143  11.421  66.066  1.00  0.00     0.000 HD 
BRANCH   8  11
HETATM   11  N   UNL     1      -8.830  10.277  67.466  1.00  0.00    -0.128 NA 
HETATM   12  H   UNL     1      -8.314  10.633  68.271  1.00  0.00     0.000 HD 
BRANCH  11  13
HETATM   13  C   UNL     1      -9.393   8.986  67.480  1.00  0.00    -0.135 A  
HETATM   14  C   UNL     1     -10.322   8.613  68.445  1.00  0.00    -0.201 A  
HETATM   15  C   UNL     1      -7.908   7.890  65.602  1.00  0.00    -0.109 C  
HETATM   16  S   UNL     1     -10.713   6.946  68.311  1.00  0.00    -0.194 SA 
HETATM   17  C   UNL     1      -9.645   6.727  67.007  1.00  0.00    -0.152 A  
HETATM   18  C   UNL     1      -8.955   7.877  66.669  1.00  0.00    -0.179 A  
BRANCH  14  19
HETATM   19  C   UNL     1     -10.964   9.355  69.513  1.00  0.00    -0.173 C  
HETATM   20  O   UNL     1     -11.410  10.498  69.427  1.00  0.00    -0.239 OA 
BRANCH  19  21
HETATM   21  O   UNL     1     -10.972   8.639  70.680  1.00  0.00    -0.230 OA 
HETATM   22  C   UNL     1      -9.884   8.949  71.551  1.00  0.00    -0.314 C  
ENDBRANCH  19  21
ENDBRANCH  14  19
ENDBRANCH  11  13
ENDBRANCH   8  11
ENDBRANCH   6   8
ENDBRANCH   4   6
ENDBRANCH   3   4
ENDBRANCH   2   3
TORSDOF 8
ENDMDL
MODEL      246
REMARK 921   NORMALIZED FREE ENERGY PREDICTED BY IDOCK:   -3.25 KCAL/MOL
REMARK 922        TOTAL FREE ENERGY PREDICTED BY IDOCK:   -5.48 KCAL/MOL
REMARK 923 INTER-LIGAND FREE ENERGY PREDICTED BY IDOCK:   -4.23 KCAL/MOL
REMARK 924 INTRA-LIGAND FREE ENERGY PREDICTED BY IDOCK:   -1.24 KCAL/MOL
REMARK 927      BINDING AFFINITY PREDICTED BY RF-SCORE:    0.00 PKD
ROOT
HETATM    1  C   UNL     1      -7.765  10.246  67.486  1.00  0.00    -0.094 C  
HETATM    2  C   UNL     1      -7.425  11.703  67.196  1.00  0.00    -0.146 C  
ENDROOT
BRANCH   2   3
HETATM    3  C   UNL     1      -5.909  11.910  67.215  1.00  0.00    -0.130 C  
BRANCH   3   4
HETATM    4  N   UNL     1      -5.566  13.322  67.433  1.00  0.00    -0.353 NA 
HETATM    5  H   UNL     1      -5.633  13.861  66.569  1.00  0.00     0.000 HD 
BRANCH   4   6
HETATM    6  C   UNL     1      -6.398  13.922  68.516  1.00  0.00    -0.093 C  
HETATM    7  C   UNL     1      -5.777  13.753  69.907  1.00  0.00    -0.118 C  
BRANCH   6   8
HETATM    8  C   UNL     1      -6.466  15.431  68.271  1.00  0.00    -0.116 C  
HETATM    9  O   UNL     1      -5.874  15.770  67.100  1.00  0.00    -0.334 OA 
HETATM   10  H   UNL     1      -5.916  16.707  66.948  1.00  0.00     0.000 HD 
BRANCH   8  11
HETATM   11  N   UNL     1      -7.007  16.243  69.118  1.00  0.00    -0.195 NA 
HETATM   12  H   UNL     1      -6.631  16.342  70.062  1.00  0.00     0.000 HD 
BRANCH  11  13
HETATM   13  C   UNL     1      -8.129  16.988  68.704  1.00  0.00    -0.254 A  
HETATM   14  C   UNL     1      -8.016  18.326  68.344  1.00  0.00    -0.306 A  
HETATM   15  C   UNL     1      -9.996  15.208  69.231  1.00  0.00    -0.243 C  
HETATM   16  S   UNL     1      -9.559  19.013  68.039  1.00  0.00    -0.347 SA 
HETATM   17  C   UNL     1     -10.359  17.559  68.404  1.00  0.00    -0.378 A  
HETATM   18  C   UNL     1      -9.499  16.547  68.790  1.00  0.00    -0.246 A  
BRANCH  14  19
HETATM   19  C   UNL     1      -6.868  19.204  68.217  1.00  0.00    -0.254 C  
HETATM   20  O   UNL     1      -6.774  20.337  68.685  1.00  0.00    -0.302 OA 
BRANCH  19  21
HETATM   21  O   UNL     1      -5.890  18.633  67.447  1.00  0.00    -0.158 OA 
HETATM   22  C   UNL     1      -5.994  18.948  66.058  1.00  0.00    -0.166 C  
ENDBRANCH  19  21
ENDBRANCH  14  19
ENDBRANCH  11  13
ENDBRANCH   8  11
ENDBRANCH   6   8
ENDBRANCH   4   6
ENDBRANCH   3   4
ENDBRANCH   2   3
TORSDOF 8
ENDMDL
MODEL      247
REMARK 921   NORMALIZED FREE ENERGY PREDICTED BY IDOCK:   -3.24 KCAL/MOL
REMARK 922        TOTAL FREE ENERGY PREDICTED BY IDOCK:   -5.46 KCAL/MOL
REMARK 923 INTER-LIGAND FREE ENERGY PREDICTED BY IDOCK:   -4.49 KCAL/MOL
REMARK 924 INTRA-LIGAND FREE ENERGY PREDICTED BY IDOCK:   -0.97 KCAL/MOL
REMARK 927      BINDING AFFINITY PREDICTED BY RF-SCORE:    0.00 PKD
ROOT
HETATM    1  C   UNL     1      -7.617   7.798  66.963  1.00  0.00    -0.100 C  
HETATM    2  C   UNL     1      -6.492   8.670  67.507  1.00  0.00    -0.058 C  
ENDROOT
BRANCH   2   3
HETATM    3  C   UNL     1      -5.645   9.224  66.360  1.00  0.00    -0.052 C  
BRANCH   3   4
HETATM    4  N   UNL     1      -6.113  10.555  65.947  1.00  0.00    -0.116 NA 
HETATM    5  H   UNL     1      -6.844  10.491  65.238  1.00  0.00     0.000 HD 
BRANCH   4   6
HETATM    6  C   UNL     1      -6.557  11.363  67.119  1.00  0.00    -0.118 C  
HETATM    7  C   UNL     1      -5.662  12.579  67.378  1.00  0.00    -0.124 C  
BRANCH   6   8
HETATM    8  C   UNL     1      -7.943  11.926  66.799  1.00  0.00    -0.087 C  
HETATM    9  O   UNL     1      -8.347  11.573  65.555  1.00  0.00    -0.374 OA 
HETATM   10  H   UNL     1      -9.208  11.923  65.357  1.00  0.00     0.000 HD 
BRANCH   8  11
HETATM   11  N   UNL     1      -8.596  12.664  67.635  1.00  0.00    -0.168 NA 
HETATM   12  H   UNL     1      -8.272  12.780  68.595  1.00  0.00     0.000 HD 
BRANCH  11  13
HETATM   13  C   UNL     1      -9.768  13.305  67.185  1.00  0.00    -0.236 A  
HETATM   14  C   UNL     1     -10.981  12.630  67.116  1.00  0.00    -0.261 A  
HETATM   15  C   UNL     1      -8.692  15.573  66.391  1.00  0.00    -0.333 C  
HETATM   16  S   UNL     1     -12.189  13.608  66.387  1.00  0.00    -0.397 SA 
HETATM   17  C   UNL     1     -11.105  14.896  66.149  1.00  0.00    -0.335 A  
HETATM   18  C   UNL     1      -9.821  14.611  66.576  1.00  0.00    -0.288 A  
BRANCH  14  19
HETATM   19  C   UNL     1     -11.370  11.290  67.512  1.00  0.00    -0.288 C  
HETATM   20  O   UNL     1     -10.905  10.244  67.063  1.00  0.00    -0.248 OA 
BRANCH  19  21
HETATM   21  O   UNL     1     -12.384  11.320  68.433  1.00  0.00    -0.545 OA 
HETATM   22  C   UNL     1     -11.931  11.308  69.786  1.00  0.00    -0.360 C  
ENDBRANCH  19  21
ENDBRANCH  14  19
ENDBRANCH  11  13
ENDBRANCH   8  11
ENDBRANCH   6   8
ENDBRANCH   4   6
ENDBRANCH   3   4
ENDBRANCH   2   3
TORSDOF 8
ENDMDL
MODEL      248
REMARK 921   NORMALIZED FREE ENERGY PREDICTED BY IDOCK:   -3.21 KCAL/MOL
REMARK 922        TOTAL FREE ENERGY PREDICTED BY IDOCK:   -5.42 KCAL/MOL
REMARK 923 INTER-LIGAND FREE ENERGY PREDICTED BY IDOCK:   -4.49 KCAL/MOL
REMARK 924 INTRA-LIGAND FREE ENERGY PREDICTED BY IDOCK:   -0.92 KCAL/MOL
REMARK 927      BINDING AFFINITY PREDICTED BY RF-SCORE:    0.00 PKD
ROOT
HETATM    1  C   UNL     1      -7.111  12.755  68.868  1.00  0.00    -0.067 C  
HETATM    2  C   UNL     1      -7.942  12.222  67.707  1.00  0.00    -0.154 C  
ENDROOT
BRANCH   2   3
HETATM    3  C   UNL     1      -7.502  10.801  67.347  1.00  0.00    -0.098 C  
BRANCH   3   4
HETATM    4  N   UNL     1      -8.533   9.816  67.706  1.00  0.00    -0.121 NA 
HETATM    5  H   UNL     1      -9.174  10.186  68.409  1.00  0.00     0.000 HD 
BRANCH   4   6
HETATM    6  C   UNL     1      -9.264   9.331  66.500  1.00  0.00    -0.161 C  
HETATM    7  C   UNL     1      -9.933   7.970  66.715  1.00  0.00    -0.344 C  
BRANCH   6   8
HETATM    8  C   UNL     1     -10.402  10.315  66.217  1.00  0.00    -0.186 C  
HETATM    9  O   UNL     1     -10.119  11.107  65.154  1.00  0.00    -0.248 OA 
HETATM   10  H   UNL     1     -10.826  11.717  64.979  1.00  0.00     0.000 HD 
BRANCH   8  11
HETATM   11  N   UNL     1     -11.467  10.363  66.946  1.00  0.00    -0.041 NA 
HETATM   12  H   UNL     1     -12.190   9.648  66.864  1.00  0.00     0.000 HD 
BRANCH  11  13
HETATM   13  C   UNL     1     -11.605  11.430  67.856  1.00  0.00    -0.266 A  
HETATM   14  C   UNL     1     -11.622  11.211  69.229  1.00  0.00    -0.318 A  
HETATM   15  C   UNL     1     -12.094  13.357  66.130  1.00  0.00    -0.481 C  
HETATM   16  S   UNL     1     -11.958  12.665  70.079  1.00  0.00    -0.234 SA 
HETATM   17  C   UNL     1     -12.100  13.558  68.641  1.00  0.00    -0.268 A  
HETATM   18  C   UNL     1     -11.933  12.789  67.503  1.00  0.00    -0.342 A  
BRANCH  14  19
HETATM   19  C   UNL     1     -11.440  10.012  70.024  1.00  0.00    -0.248 C  
HETATM   20  O   UNL     1     -10.858   8.991  69.661  1.00  0.00    -0.231 OA 
BRANCH  19  21
HETATM   21  O   UNL     1     -12.055  10.125  71.242  1.00  0.00    -0.348 OA 
HETATM   22  C   UNL     1     -12.922   9.034  71.552  1.00  0.00    -0.337 C  
ENDBRANCH  19  21
ENDBRANCH  14  19
ENDBRANCH  11  13
ENDBRANCH   8  11
ENDBRANCH   6   8
ENDBRANCH   4   6
ENDBRANCH   3   4
ENDBRANCH   2   3
TORSDOF 8
ENDMDL
MODEL      249
REMARK 921   NORMALIZED FREE ENERGY PREDICTED BY IDOCK:   -3.20 KCAL/MOL
REMARK 922        TOTAL FREE ENERGY PREDICTED BY IDOCK:   -5.41 KCAL/MOL
REMARK 923 INTER-LIGAND FREE ENERGY PREDICTED BY IDOCK:   -4.84 KCAL/MOL
REMARK 924 INTRA-LIGAND FREE ENERGY PREDICTED BY IDOCK:   -0.58 KCAL/MOL
REMARK 927      BINDING AFFINITY PREDICTED BY RF-SCORE:    0.00 PKD
ROOT
HETATM    1  C   UNL     1      -6.580  10.515  67.729  1.00  0.00    -0.061 C  
HETATM    2  C   UNL     1      -7.927   9.884  68.063  1.00  0.00    -0.100 C  
ENDROOT
BRANCH   2   3
HETATM    3  C   UNL     1      -9.015  10.431  67.137  1.00  0.00    -0.139 C  
BRANCH   3   4
HETATM    4  N   UNL     1      -8.925  11.893  67.014  1.00  0.00    -0.184 NA 
HETATM    5  H   UNL     1      -8.390  12.166  66.189  1.00  0.00     0.000 HD 
BRANCH   4   6
HETATM    6  C   UNL     1     -10.277  12.523  67.022  1.00  0.00    -0.221 C  
HETATM    7  C   UNL     1     -11.092  12.202  65.765  1.00  0.00    -0.362 C  
BRANCH   6   8
HETATM    8  C   UNL     1     -11.062  11.927  68.192  1.00  0.00    -0.242 C  
HETATM    9  O   UNL     1     -12.180  11.292  67.766  1.00  0.00    -0.504 OA 
HETATM   10  H   UNL     1     -12.668  10.922  68.492  1.00  0.00     0.000 HD 
BRANCH   8  11
HETATM   11  N   UNL     1     -10.680  12.062  69.419  1.00  0.00    -0.450 NA 
HETATM   12  H   UNL     1      -9.740  12.392  69.641  1.00  0.00     0.000 HD 
BRANCH  11  13
HETATM   13  C   UNL     1     -11.594  11.743  70.442  1.00  0.00    -0.015 A  
HETATM   14  C   UNL     1     -11.746  10.438  70.896  1.00  0.00    -0.360 A  
HETATM   15  C   UNL     1     -12.781  14.085  70.650  1.00  0.00    -0.373 C  
HETATM   16  S   UNL     1     -13.033  10.325  72.027  1.00  0.00    -0.320 SA 
HETATM   17  C   UNL     1     -13.392  11.980  71.892  1.00  0.00    -0.304 A  
HETATM   18  C   UNL     1     -12.587  12.640  70.982  1.00  0.00    -0.354 A  
BRANCH  14  19
HETATM   19  C   UNL     1     -11.049   9.209  70.568  1.00  0.00    -0.260 C  
HETATM   20  O   UNL     1     -11.510   8.273  69.917  1.00  0.00    -0.025 OA 
BRANCH  19  21
HETATM   21  O   UNL     1      -9.798   9.183  71.126  1.00  0.00    -0.270 OA 
HETATM   22  C   UNL     1      -9.687   8.305  72.246  1.00  0.00    -0.292 C  
ENDBRANCH  19  21
ENDBRANCH  14  19
ENDBRANCH  11  13
ENDBRANCH   8  11
ENDBRANCH   6   8
ENDBRANCH   4   6
ENDBRANCH   3   4
ENDBRANCH   2   3
TORSDOF 8
ENDMDL
MODEL      250
REMARK 921   NORMALIZED FREE ENERGY PREDICTED BY IDOCK:   -3.20 KCAL/MOL
REMARK 922        TOTAL FREE ENERGY PREDICTED BY IDOCK:   -5.41 KCAL/MOL
REMARK 923 INTER-LIGAND FREE ENERGY PREDICTED BY IDOCK:   -4.53 KCAL/MOL
REMARK 924 INTRA-LIGAND FREE ENERGY PREDICTED BY IDOCK:   -0.88 KCAL/MOL
REMARK 927      BINDING AFFINITY PREDICTED BY RF-SCORE:    0.00 PKD
ROOT
HETATM    1  C   UNL     1      -9.397   4.930  65.244  1.00  0.00    -0.129 C  
HETATM    2  C   UNL     1      -9.738   4.027  66.423  1.00  0.00    -0.206 C  
ENDROOT
BRANCH   2   3
HETATM    3  C   UNL     1     -10.498   4.813  67.493  1.00  0.00     0.100 C  
BRANCH   3   4
HETATM    4  N   UNL     1     -10.412   6.261  67.254  1.00  0.00    -0.215 NA 
HETATM    5  H   UNL     1     -11.011   6.547  66.479  1.00  0.00     0.000 HD 
BRANCH   4   6
HETATM    6  C   UNL     1     -10.712   7.035  68.492  1.00  0.00    -0.179 C  
HETATM    7  C   UNL     1     -11.119   6.142  69.670  1.00  0.00    -0.489 C  
BRANCH   6   8
HETATM    8  C   UNL     1      -9.423   7.736  68.928  1.00  0.00    -0.150 C  
HETATM    9  O   UNL     1      -8.360   7.317  68.199  1.00  0.00    -0.123 OA 
HETATM   10  H   UNL     1      -7.560   7.753  68.469  1.00  0.00     0.000 HD 
BRANCH   8  11
HETATM   11  N   UNL     1      -9.398   8.594  69.893  1.00  0.00    -0.157 NA 
HETATM   12  H   UNL     1      -8.876   8.405  70.749  1.00  0.00     0.000 HD 
BRANCH  11  13
HETATM   13  C   UNL     1     -10.111   9.799  69.733  1.00  0.00    -0.239 A  
HETATM   14  C   UNL     1     -11.285  10.044  70.436  1.00  0.00    -0.323 A  
HETATM   15  C   UNL     1      -8.730  10.807  67.731  1.00  0.00    -0.130 C  
HETATM   16  S   UNL     1     -12.013  11.513  69.926  1.00  0.00    -0.350 SA 
HETATM   17  C   UNL     1     -10.796  11.800  68.774  1.00  0.00    -0.227 A  
HETATM   18  C   UNL     1      -9.846  10.796  68.725  1.00  0.00    -0.200 A  
BRANCH  14  19
HETATM   19  C   UNL     1     -11.979   9.288  71.461  1.00  0.00    -0.368 C  
HETATM   20  O   UNL     1     -11.457   8.511  72.258  1.00  0.00    -0.355 OA 
BRANCH  19  21
HETATM   21  O   UNL     1     -13.331   9.500  71.404  1.00  0.00    -0.366 OA 
HETATM   22  C   UNL     1     -14.086   8.623  72.240  1.00  0.00    -0.420 C  
ENDBRANCH  19  21
ENDBRANCH  14  19
ENDBRANCH  11  13
ENDBRANCH   8  11
ENDBRANCH   6   8
ENDBRANCH   4   6
ENDBRANCH   3   4
ENDBRANCH   2   3
TORSDOF 8
ENDMDL
MODEL      251
REMARK 921   NORMALIZED FREE ENERGY PREDICTED BY IDOCK:   -3.20 KCAL/MOL
REMARK 922        TOTAL FREE ENERGY PREDICTED BY IDOCK:   -5.41 KCAL/MOL
REMARK 923 INTER-LIGAND FREE ENERGY PREDICTED BY IDOCK:   -4.64 KCAL/MOL
REMARK 924 INTRA-LIGAND FREE ENERGY PREDICTED BY IDOCK:   -0.77 KCAL/MOL
REMARK 927      BINDING AFFINITY PREDICTED BY RF-SCORE:    0.00 PKD
ROOT
HETATM    1  C   UNL     1      -7.341   7.914  63.405  1.00  0.00    -0.108 C  
HETATM    2  C   UNL     1      -7.401   7.275  64.787  1.00  0.00    -0.081 C  
ENDROOT
BRANCH   2   3
HETATM    3  C   UNL     1      -8.619   7.788  65.559  1.00  0.00    -0.105 C  
BRANCH   3   4
HETATM    4  N   UNL     1      -8.459   7.582  67.005  1.00  0.00    -0.120 NA 
HETATM    5  H   UNL     1      -7.757   8.210  67.397  1.00  0.00     0.000 HD 
BRANCH   4   6
HETATM    6  C   UNL     1      -9.763   7.707  67.718  1.00  0.00    -0.148 C  
HETATM    7  C   UNL     1      -9.754   7.042  69.099  1.00  0.00    -0.156 C  
BRANCH   6   8
HETATM    8  C   UNL     1     -10.015   9.194  67.973  1.00  0.00    -0.178 C  
HETATM    9  O   UNL     1      -8.896   9.818  68.414  1.00  0.00    -0.119 OA 
HETATM   10  H   UNL     1      -9.052  10.742  68.572  1.00  0.00     0.000 HD 
BRANCH   8  11
HETATM   11  N   UNL     1     -11.176   9.736  67.801  1.00  0.00    -0.476 NA 
HETATM   12  H   UNL     1     -12.016   9.162  67.733  1.00  0.00     0.000 HD 
BRANCH  11  13
HETATM   13  C   UNL     1     -11.249  11.140  67.711  1.00  0.00    -0.294 A  
HETATM   14  C   UNL     1     -11.789  11.904  68.740  1.00  0.00    -0.313 A  
HETATM   15  C   UNL     1     -10.483  11.412  65.207  1.00  0.00    -0.340 C  
HETATM   16  S   UNL     1     -11.892  13.557  68.290  1.00  0.00    -0.352 SA 
HETATM   17  C   UNL     1     -11.251  13.252  66.746  1.00  0.00    -0.304 A  
HETATM   18  C   UNL     1     -10.980  11.914  66.525  1.00  0.00    -0.337 A  
BRANCH  14  19
HETATM   19  C   UNL     1     -12.282  11.548  70.057  1.00  0.00    -0.278 C  
HETATM   20  O   UNL     1     -12.442  12.323  70.998  1.00  0.00    -0.370 OA 
BRANCH  19  21
HETATM   21  O   UNL     1     -12.508  10.201  70.156  1.00  0.00    -0.171 OA 
HETATM   22  C   UNL     1     -12.161   9.652  71.427  1.00  0.00    -0.385 C  
ENDBRANCH  19  21
ENDBRANCH  14  19
ENDBRANCH  11  13
ENDBRANCH   8  11
ENDBRANCH   6   8
ENDBRANCH   4   6
ENDBRANCH   3   4
ENDBRANCH   2   3
TORSDOF 8
ENDMDL
MODEL      252
REMARK 921   NORMALIZED FREE ENERGY PREDICTED BY IDOCK:   -3.17 KCAL/MOL
REMARK 922        TOTAL FREE ENERGY PREDICTED BY IDOCK:   -5.36 KCAL/MOL
REMARK 923 INTER-LIGAND FREE ENERGY PREDICTED BY IDOCK:   -4.60 KCAL/MOL
REMARK 924 INTRA-LIGAND FREE ENERGY PREDICTED BY IDOCK:   -0.76 KCAL/MOL
REMARK 927      BINDING AFFINITY PREDICTED BY RF-SCORE:    0.00 PKD
ROOT
HETATM    1  C   UNL     1     -11.291  15.310  68.264  1.00  0.00    -0.344 C  
HETATM    2  C   UNL     1     -10.973  14.198  67.272  1.00  0.00    -0.304 C  
ENDROOT
BRANCH   2   3
HETATM    3  C   UNL     1     -12.263  13.542  66.775  1.00  0.00    -0.340 C  
BRANCH   3   4
HETATM    4  N   UNL     1     -12.307  13.499  65.306  1.00  0.00    -0.439 NA 
HETATM    5  H   UNL     1     -11.872  14.325  64.895  1.00  0.00     0.000 HD 
BRANCH   4   6
HETATM    6  C   UNL     1     -11.700  12.242  64.781  1.00  0.00    -0.358 C  
HETATM    7  C   UNL     1     -12.239  11.851  63.401  1.00  0.00    -0.561 C  
BRANCH   6   8
HETATM    8  C   UNL     1     -10.203  12.492  64.589  1.00  0.00    -0.290 C  
HETATM    9  O   UNL     1      -9.978  13.529  63.746  1.00  0.00    -0.508 OA 
HETATM   10  H   UNL     1      -9.048  13.684  63.627  1.00  0.00     0.000 HD 
BRANCH   8  11
HETATM   11  N   UNL     1      -9.303  11.761  65.160  1.00  0.00    -0.424 NA 
HETATM   12  H   UNL     1      -8.725  12.136  65.913  1.00  0.00     0.000 HD 
BRANCH  11  13
HETATM   13  C   UNL     1      -9.143  10.434  64.717  1.00  0.00    -0.213 A  
HETATM   14  C   UNL     1      -9.386   9.355  65.560  1.00  0.00    -0.251 A  
HETATM   15  C   UNL     1      -8.070  10.933  62.365  1.00  0.00    -0.231 C  
HETATM   16  S   UNL     1      -8.959   7.874  64.803  1.00  0.00     0.734 SA 
HETATM   17  C   UNL     1      -8.440   8.663  63.390  1.00  0.00    -0.074 A  
HETATM   18  C   UNL     1      -8.543  10.040  63.466  1.00  0.00    -0.209 A  
BRANCH  14  19
HETATM   19  C   UNL     1      -9.889   9.279  66.918  1.00  0.00    -0.214 C  
HETATM   20  O   UNL     1     -10.838   9.916  67.370  1.00  0.00    -0.280 OA 
BRANCH  19  21
HETATM   21  O   UNL     1      -9.131   8.430  67.681  1.00  0.00    -0.134 OA 
HETATM   22  C   UNL     1      -9.780   7.998  68.877  1.00  0.00    -0.159 C  
ENDBRANCH  19  21
ENDBRANCH  14  19
ENDBRANCH  11  13
ENDBRANCH   8  11
ENDBRANCH   6   8
ENDBRANCH   4   6
ENDBRANCH   3   4
ENDBRANCH   2   3
TORSDOF 8
ENDMDL
MODEL      253
REMARK 921   NORMALIZED FREE ENERGY PREDICTED BY IDOCK:   -3.16 KCAL/MOL
REMARK 922        TOTAL FREE ENERGY PREDICTED BY IDOCK:   -5.35 KCAL/MOL
REMARK 923 INTER-LIGAND FREE ENERGY PREDICTED BY IDOCK:   -4.90 KCAL/MOL
REMARK 924 INTRA-LIGAND FREE ENERGY PREDICTED BY IDOCK:   -0.45 KCAL/MOL
REMARK 927      BINDING AFFINITY PREDICTED BY RF-SCORE:    0.00 PKD
ROOT
HETATM    1  C   UNL     1     -11.068  11.454  63.609  1.00  0.00    -0.411 C  
HETATM    2  C   UNL     1     -11.032  11.664  65.118  1.00  0.00    -0.326 C  
ENDROOT
BRANCH   2   3
HETATM    3  C   UNL     1      -9.716  12.326  65.531  1.00  0.00    -0.161 C  
BRANCH   3   4
HETATM    4  N   UNL     1      -8.993  11.508  66.515  1.00  0.00    -0.185 NA 
HETATM    5  H   UNL     1      -8.036  11.321  66.214  1.00  0.00     0.000 HD 
BRANCH   4   6
HETATM    6  C   UNL     1      -9.029  12.129  67.870  1.00  0.00    -0.184 C  
HETATM    7  C   UNL     1      -7.734  11.910  68.661  1.00  0.00    -0.113 C  
BRANCH   6   8
HETATM    8  C   UNL     1      -9.154  13.643  67.686  1.00  0.00    -0.207 C  
HETATM    9  O   UNL     1      -7.938  14.240  67.656  1.00  0.00    -0.151 OA 
HETATM   10  H   UNL     1      -8.015  15.181  67.541  1.00  0.00     0.000 HD 
BRANCH   8  11
HETATM   11  N   UNL     1     -10.299  14.235  67.602  1.00  0.00    -0.246 NA 
HETATM   12  H   UNL     1     -10.728  14.418  66.694  1.00  0.00     0.000 HD 
BRANCH  11  13
HETATM   13  C   UNL     1     -10.940  14.620  68.796  1.00  0.00    -0.258 A  
HETATM   14  C   UNL     1     -10.633  15.821  69.426  1.00  0.00    -0.255 A  
HETATM   15  C   UNL     1     -12.260  12.392  69.268  1.00  0.00    -0.088 C  
HETATM   16  S   UNL     1     -11.448  15.951  70.932  1.00  0.00    -0.418 SA 
HETATM   17  C   UNL     1     -12.175  14.425  70.753  1.00  0.00    -0.343 A  
HETATM   18  C   UNL     1     -11.801  13.778  69.589  1.00  0.00    -0.393 A  
BRANCH  14  19
HETATM   19  C   UNL     1      -9.759  16.917  69.055  1.00  0.00    -0.231 C  
HETATM   20  O   UNL     1      -8.580  16.814  68.718  1.00  0.00    -0.249 OA 
BRANCH  19  21
HETATM   21  O   UNL     1     -10.396  18.123  69.176  1.00  0.00    -0.296 OA 
HETATM   22  C   UNL     1     -10.306  18.940  68.009  1.00  0.00    -0.389 C  
ENDBRANCH  19  21
ENDBRANCH  14  19
ENDBRANCH  11  13
ENDBRANCH   8  11
ENDBRANCH   6   8
ENDBRANCH   4   6
ENDBRANCH   3   4
ENDBRANCH   2   3
TORSDOF 8
ENDMDL
MODEL      254
REMARK 921   NORMALIZED FREE ENERGY PREDICTED BY IDOCK:   -3.15 KCAL/MOL
REMARK 922        TOTAL FREE ENERGY PREDICTED BY IDOCK:   -5.33 KCAL/MOL
REMARK 923 INTER-LIGAND FREE ENERGY PREDICTED BY IDOCK:   -4.64 KCAL/MOL
REMARK 924 INTRA-LIGAND FREE ENERGY PREDICTED BY IDOCK:   -0.70 KCAL/MOL
REMARK 927      BINDING AFFINITY PREDICTED BY RF-SCORE:    0.00 PKD
ROOT
HETATM    1  C   UNL     1      -5.503   7.506  71.558  1.00  0.00    -0.035 C  
HETATM    2  C   UNL     1      -6.702   8.424  71.763  1.00  0.00    -0.076 C  
ENDROOT
BRANCH   2   3
HETATM    3  C   UNL     1      -7.668   8.311  70.582  1.00  0.00    -0.083 C  
BRANCH   3   4
HETATM    4  N   UNL     1      -7.983   9.632  70.021  1.00  0.00    -0.155 NA 
HETATM    5  H   UNL     1      -7.295   9.915  69.323  1.00  0.00     0.000 HD 
BRANCH   4   6
HETATM    6  C   UNL     1      -9.369   9.673  69.473  1.00  0.00    -0.200 C  
HETATM    7  C   UNL     1     -10.444   9.629  70.564  1.00  0.00    -0.367 C  
BRANCH   6   8
HETATM    8  C   UNL     1      -9.550  11.017  68.763  1.00  0.00    -0.187 C  
HETATM    9  O   UNL     1      -8.510  11.850  69.006  1.00  0.00    -0.366 OA 
HETATM   10  H   UNL     1      -8.623  12.684  68.565  1.00  0.00     0.000 HD 
BRANCH   8  11
HETATM   11  N   UNL     1     -10.596  11.285  68.053  1.00  0.00    -0.186 NA 
HETATM   12  H   UNL     1     -11.533  11.192  68.445  1.00  0.00     0.000 HD 
BRANCH  11  13
HETATM   13  C   UNL     1     -10.408  11.711  66.723  1.00  0.00    -0.222 A  
HETATM   14  C   UNL     1     -10.734  13.002  66.324  1.00  0.00    -0.276 A  
HETATM   15  C   UNL     1      -9.748   9.394  65.661  1.00  0.00    -0.336 C  
HETATM   16  S   UNL     1     -10.547  13.187  64.627  1.00  0.00    -0.405 SA 
HETATM   17  C   UNL     1     -10.065  11.569  64.431  1.00  0.00    -0.282 A  
HETATM   18  C   UNL     1     -10.065  10.854  65.615  1.00  0.00    -0.318 A  
BRANCH  14  19
HETATM   19  C   UNL     1     -11.209  14.156  67.062  1.00  0.00    -0.318 C  
HETATM   20  O   UNL     1     -12.213  14.191  67.772  1.00  0.00    -0.334 OA 
BRANCH  19  21
HETATM   21  O   UNL     1     -10.421  15.252  66.833  1.00  0.00    -0.277 OA 
HETATM   22  C   UNL     1      -9.846  15.805  68.017  1.00  0.00    -0.217 C  
ENDBRANCH  19  21
ENDBRANCH  14  19
ENDBRANCH  11  13
ENDBRANCH   8  11
ENDBRANCH   6   8
ENDBRANCH   4   6
ENDBRANCH   3   4
ENDBRANCH   2   3
TORSDOF 8
ENDMDL
MODEL      255
REMARK 921   NORMALIZED FREE ENERGY PREDICTED BY IDOCK:   -3.15 KCAL/MOL
REMARK 922        TOTAL FREE ENERGY PREDICTED BY IDOCK:   -5.33 KCAL/MOL
REMARK 923 INTER-LIGAND FREE ENERGY PREDICTED BY IDOCK:   -4.52 KCAL/MOL
REMARK 924 INTRA-LIGAND FREE ENERGY PREDICTED BY IDOCK:   -0.81 KCAL/MOL
REMARK 927      BINDING AFFINITY PREDICTED BY RF-SCORE:    0.00 PKD
ROOT
HETATM    1  C   UNL     1     -10.232  11.023  65.124  1.00  0.00    -0.352 C  
HETATM    2  C   UNL     1      -9.120   9.981  65.139  1.00  0.00    -0.247 C  
ENDROOT
BRANCH   2   3
HETATM    3  C   UNL     1      -9.521   8.788  66.010  1.00  0.00    -0.233 C  
BRANCH   3   4
HETATM    4  N   UNL     1      -8.599   8.621  67.143  1.00  0.00    -0.120 NA 
HETATM    5  H   UNL     1      -7.732   9.141  66.999  1.00  0.00     0.000 HD 
BRANCH   4   6
HETATM    6  C   UNL     1      -9.250   8.990  68.432  1.00  0.00    -0.136 C  
HETATM    7  C   UNL     1      -9.192  10.494  68.722  1.00  0.00    -0.177 C  
BRANCH   6   8
HETATM    8  C   UNL     1     -10.737   8.645  68.319  1.00  0.00    -0.052 C  
HETATM    9  O   UNL     1     -11.505   9.761  68.312  1.00  0.00    -0.519 OA 
HETATM   10  H   UNL     1     -12.428   9.547  68.242  1.00  0.00     0.000 HD 
BRANCH   8  11
HETATM   11  N   UNL     1     -11.159   7.425  68.268  1.00  0.00    -0.449 NA 
HETATM   12  H   UNL     1     -11.767   7.113  67.510  1.00  0.00     0.000 HD 
BRANCH  11  13
HETATM   13  C   UNL     1     -10.757   6.537  69.285  1.00  0.00    -0.280 A  
HETATM   14  C   UNL     1      -9.913   5.465  69.017  1.00  0.00    -0.190 A  
HETATM   15  C   UNL     1     -12.300   7.434  71.220  1.00  0.00    -0.380 C  
HETATM   16  S   UNL     1      -9.723   4.470  70.403  1.00  0.00    -0.227 SA 
HETATM   17  C   UNL     1     -10.765   5.440  71.331  1.00  0.00    -0.188 A  
HETATM   18  C   UNL     1     -11.299   6.500  70.621  1.00  0.00    -0.409 A  
BRANCH  14  19
HETATM   19  C   UNL     1      -9.222   5.051  67.811  1.00  0.00    -0.118 C  
HETATM   20  O   UNL     1      -8.280   5.641  67.283  1.00  0.00    -0.102 OA 
BRANCH  19  21
HETATM   21  O   UNL     1      -9.787   3.923  67.277  1.00  0.00    -0.182 OA 
HETATM   22  C   UNL     1      -9.573   3.783  65.873  1.00  0.00    -0.160 C  
ENDBRANCH  19  21
ENDBRANCH  14  19
ENDBRANCH  11  13
ENDBRANCH   8  11
ENDBRANCH   6   8
ENDBRANCH   4   6
ENDBRANCH   3   4
ENDBRANCH   2   3
TORSDOF 8
ENDMDL
MODEL      256
REMARK 921   NORMALIZED FREE ENERGY PREDICTED BY IDOCK:   -3.15 KCAL/MOL
REMARK 922        TOTAL FREE ENERGY PREDICTED BY IDOCK:   -5.33 KCAL/MOL
REMARK 923 INTER-LIGAND FREE ENERGY PREDICTED BY IDOCK:   -4.14 KCAL/MOL
REMARK 924 INTRA-LIGAND FREE ENERGY PREDICTED BY IDOCK:   -1.18 KCAL/MOL
REMARK 927      BINDING AFFINITY PREDICTED BY RF-SCORE:    0.00 PKD
ROOT
HETATM    1  C   UNL     1      -6.742   8.495  68.744  1.00  0.00    -0.058 C  
HETATM    2  C   UNL     1      -6.748   9.886  69.368  1.00  0.00    -0.057 C  
ENDROOT
BRANCH   2   3
HETATM    3  C   UNL     1      -8.155  10.487  69.314  1.00  0.00    -0.148 C  
BRANCH   3   4
HETATM    4  N   UNL     1      -8.119  11.888  68.870  1.00  0.00    -0.350 NA 
HETATM    5  H   UNL     1      -7.170  12.261  68.886  1.00  0.00     0.000 HD 
BRANCH   4   6
HETATM    6  C   UNL     1      -8.748  12.048  67.528  1.00  0.00    -0.166 C  
HETATM    7  C   UNL     1      -9.978  11.155  67.334  1.00  0.00    -0.204 C  
BRANCH   6   8
HETATM    8  C   UNL     1      -9.257  13.488  67.419  1.00  0.00    -0.223 C  
HETATM    9  O   UNL     1     -10.455  13.637  68.034  1.00  0.00    -0.237 OA 
HETATM   10  H   UNL     1     -10.771  14.530  67.966  1.00  0.00     0.000 HD 
BRANCH   8  11
HETATM   11  N   UNL     1      -8.601  14.404  66.788  1.00  0.00    -0.409 NA 
HETATM   12  H   UNL     1      -8.524  14.386  65.770  1.00  0.00     0.000 HD 
BRANCH  11  13
HETATM   13  C   UNL     1      -7.996  15.430  67.540  1.00  0.00    -0.170 A  
HETATM   14  C   UNL     1      -8.618  16.660  67.719  1.00  0.00    -0.192 A  
HETATM   15  C   UNL     1      -5.648  14.301  67.922  1.00  0.00    -0.101 C  
HETATM   16  S   UNL     1      -7.585  17.759  68.540  1.00  0.00    -0.281 SA 
HETATM   17  C   UNL     1      -6.327  16.620  68.631  1.00  0.00    -0.148 A  
HETATM   18  C   UNL     1      -6.638  15.416  68.026  1.00  0.00    -0.160 A  
BRANCH  14  19
HETATM   19  C   UNL     1      -9.922  17.155  67.322  1.00  0.00    -0.274 C  
HETATM   20  O   UNL     1     -10.853  16.471  66.900  1.00  0.00    -0.225 OA 
BRANCH  19  21
HETATM   21  O   UNL     1      -9.986  18.520  67.420  1.00  0.00    -0.305 OA 
HETATM   22  C   UNL     1     -10.560  19.152  66.276  1.00  0.00    -0.434 C  
ENDBRANCH  19  21
ENDBRANCH  14  19
ENDBRANCH  11  13
ENDBRANCH   8  11
ENDBRANCH   6   8
ENDBRANCH   4   6
ENDBRANCH   3   4
ENDBRANCH   2   3
TORSDOF 8
ENDMDL
MODEL      257
REMARK 921   NORMALIZED FREE ENERGY PREDICTED BY IDOCK:   -3.14 KCAL/MOL
REMARK 922        TOTAL FREE ENERGY PREDICTED BY IDOCK:   -5.32 KCAL/MOL
REMARK 923 INTER-LIGAND FREE ENERGY PREDICTED BY IDOCK:   -4.32 KCAL/MOL
REMARK 924 INTRA-LIGAND FREE ENERGY PREDICTED BY IDOCK:   -1.00 KCAL/MOL
REMARK 927      BINDING AFFINITY PREDICTED BY RF-SCORE:    0.00 PKD
ROOT
HETATM    1  C   UNL     1      -5.354   6.261  71.186  1.00  0.00    -0.018 C  
HETATM    2  C   UNL     1      -6.646   7.005  70.870  1.00  0.00    -0.048 C  
ENDROOT
BRANCH   2   3
HETATM    3  C   UNL     1      -7.491   6.206  69.876  1.00  0.00    -0.080 C  
BRANCH   3   4
HETATM    4  N   UNL     1      -7.970   7.057  68.777  1.00  0.00    -0.118 NA 
HETATM    5  H   UNL     1      -7.403   6.937  67.937  1.00  0.00     0.000 HD 
BRANCH   4   6
HETATM    6  C   UNL     1      -9.416   6.823  68.499  1.00  0.00    -0.131 C  
HETATM    7  C   UNL     1     -10.229   6.537  69.767  1.00  0.00    -0.221 C  
BRANCH   6   8
HETATM    8  C   UNL     1      -9.995   8.114  67.916  1.00  0.00    -0.182 C  
HETATM    9  O   UNL     1     -11.000   7.857  67.044  1.00  0.00    -0.465 OA 
HETATM   10  H   UNL     1     -11.359   8.658  66.682  1.00  0.00     0.000 HD 
BRANCH   8  11
HETATM   11  N   UNL     1      -9.531   9.279  68.227  1.00  0.00    -0.138 NA 
HETATM   12  H   UNL     1      -8.542   9.408  68.442  1.00  0.00     0.000 HD 
BRANCH  11  13
HETATM   13  C   UNL     1     -10.427  10.366  68.262  1.00  0.00    -0.191 A  
HETATM   14  C   UNL     1     -10.518  11.263  67.204  1.00  0.00    -0.222 A  
HETATM   15  C   UNL     1     -11.240  10.122  70.755  1.00  0.00    -0.414 C  
HETATM   16  S   UNL     1     -11.570  12.564  67.589  1.00  0.00    -0.361 SA 
HETATM   17  C   UNL     1     -11.876  11.951  69.144  1.00  0.00    -0.311 A  
HETATM   18  C   UNL     1     -11.179  10.789  69.418  1.00  0.00    -0.337 A  
BRANCH  14  19
HETATM   19  C   UNL     1      -9.880  11.295  65.902  1.00  0.00    -0.232 C  
HETATM   20  O   UNL     1      -8.803  10.775  65.615  1.00  0.00    -0.180 OA 
BRANCH  19  21
HETATM   21  O   UNL     1     -10.608  12.040  65.011  1.00  0.00    -0.268 OA 
HETATM   22  C   UNL     1     -10.739  11.432  63.726  1.00  0.00    -0.403 C  
ENDBRANCH  19  21
ENDBRANCH  14  19
ENDBRANCH  11  13
ENDBRANCH   8  11
ENDBRANCH   6   8
ENDBRANCH   4   6
ENDBRANCH   3   4
ENDBRANCH   2   3
TORSDOF 8
ENDMDL
MODEL      258
REMARK 921   NORMALIZED FREE ENERGY PREDICTED BY IDOCK:   -3.12 KCAL/MOL
REMARK 922        TOTAL FREE ENERGY PREDICTED BY IDOCK:   -5.30 KCAL/MOL
REMARK 923 INTER-LIGAND FREE ENERGY PREDICTED BY IDOCK:   -5.09 KCAL/MOL
REMARK 924 INTRA-LIGAND FREE ENERGY PREDICTED BY IDOCK:   -0.21 KCAL/MOL
REMARK 927      BINDING AFFINITY PREDICTED BY RF-SCORE:    0.00 PKD
ROOT
HETATM    1  C   UNL     1     -10.148  19.718  68.143  1.00  0.00    -0.574 C  
HETATM    2  C   UNL     1     -10.059  19.585  66.627  1.00  0.00    -0.523 C  
ENDROOT
BRANCH   2   3
HETATM    3  C   UNL     1     -10.094  18.111  66.219  1.00  0.00    -0.371 C  
BRANCH   3   4
HETATM    4  N   UNL     1     -10.144  17.232  67.397  1.00  0.00    -0.297 NA 
HETATM    5  H   UNL     1     -10.177  17.770  68.263  1.00  0.00     0.000 HD 
BRANCH   4   6
HETATM    6  C   UNL     1     -11.278  16.269  67.307  1.00  0.00     0.052 C  
HETATM    7  C   UNL     1     -11.105  15.247  66.178  1.00  0.00    -0.280 C  
BRANCH   6   8
HETATM    8  C   UNL     1     -11.303  15.456  68.604  1.00  0.00    -0.330 C  
HETATM    9  O   UNL     1     -12.553  15.385  69.120  1.00  0.00    -0.590 OA 
HETATM   10  H   UNL     1     -12.569  14.880  69.925  1.00  0.00     0.000 HD 
BRANCH   8  11
HETATM   11  N   UNL     1     -10.233  14.943  69.116  1.00  0.00    -0.242 NA 
HETATM   12  H   UNL     1      -9.775  15.379  69.917  1.00  0.00     0.000 HD 
BRANCH  11  13
HETATM   13  C   UNL     1      -9.716  13.766  68.540  1.00  0.00    -0.193 A  
HETATM   14  C   UNL     1      -8.430  13.724  68.012  1.00  0.00    -0.176 A  
HETATM   15  C   UNL     1     -11.910  12.312  68.584  1.00  0.00    -0.354 C  
HETATM   16  S   UNL     1      -8.130  12.219  67.242  1.00  0.00    -0.178 SA 
HETATM   17  C   UNL     1      -9.694  11.649  67.588  1.00  0.00    -0.180 A  
HETATM   18  C   UNL     1     -10.477  12.576  68.251  1.00  0.00    -0.243 A  
BRANCH  14  19
HETATM   19  C   UNL     1      -7.361  14.703  67.981  1.00  0.00    -0.135 C  
HETATM   20  O   UNL     1      -6.562  14.866  67.060  1.00  0.00    -0.178 OA 
BRANCH  19  21
HETATM   21  O   UNL     1      -7.304  15.414  69.150  1.00  0.00    -0.144 OA 
HETATM   22  C   UNL     1      -6.083  15.239  69.870  1.00  0.00    -0.151 C  
ENDBRANCH  19  21
ENDBRANCH  14  19
ENDBRANCH  11  13
ENDBRANCH   8  11
ENDBRANCH   6   8
ENDBRANCH   4   6
ENDBRANCH   3   4
ENDBRANCH   2   3
TORSDOF 8
ENDMDL
MODEL      259
REMARK 921   NORMALIZED FREE ENERGY PREDICTED BY IDOCK:   -3.12 KCAL/MOL
REMARK 922        TOTAL FREE ENERGY PREDICTED BY IDOCK:   -5.29 KCAL/MOL
REMARK 923 INTER-LIGAND FREE ENERGY PREDICTED BY IDOCK:   -4.46 KCAL/MOL
REMARK 924 INTRA-LIGAND FREE ENERGY PREDICTED BY IDOCK:   -0.83 KCAL/MOL
REMARK 927      BINDING AFFINITY PREDICTED BY RF-SCORE:    0.00 PKD
ROOT
HETATM    1  C   UNL     1      -5.964  15.738  67.433  1.00  0.00    -0.089 C  
HETATM    2  C   UNL     1      -6.124  14.681  68.520  1.00  0.00    -0.091 C  
ENDROOT
BRANCH   2   3
HETATM    3  C   UNL     1      -7.606  14.411  68.786  1.00  0.00    -0.131 C  
BRANCH   3   4
HETATM    4  N   UNL     1      -7.866  12.974  68.953  1.00  0.00    -0.328 NA 
HETATM    5  H   UNL     1      -8.346  12.781  69.833  1.00  0.00     0.000 HD 
BRANCH   4   6
HETATM    6  C   UNL     1      -8.611  12.417  67.788  1.00  0.00    -0.172 C  
HETATM    7  C   UNL     1      -7.865  11.273  67.094  1.00  0.00    -0.151 C  
BRANCH   6   8
HETATM    8  C   UNL     1      -9.912  11.807  68.316  1.00  0.00    -0.200 C  
HETATM    9  O   UNL     1      -9.669  10.771  69.155  1.00  0.00    -0.254 OA 
HETATM   10  H   UNL     1     -10.476  10.392  69.482  1.00  0.00     0.000 HD 
BRANCH   8  11
HETATM   11  N   UNL     1     -11.074  12.243  67.955  1.00  0.00    -0.228 NA 
HETATM   12  H   UNL     1     -11.790  11.602  67.611  1.00  0.00     0.000 HD 
BRANCH  11  13
HETATM   13  C   UNL     1     -11.326  13.626  68.050  1.00  0.00    -0.285 A  
HETATM   14  C   UNL     1     -11.120  14.474  66.967  1.00  0.00    -0.322 A  
HETATM   15  C   UNL     1     -11.806  13.760  70.635  1.00  0.00    -0.261 C  
HETATM   16  S   UNL     1     -11.357  16.114  67.417  1.00  0.00     0.174 SA 
HETATM   17  C   UNL     1     -11.703  15.697  69.028  1.00  0.00    -0.395 A  
HETATM   18  C   UNL     1     -11.617  14.338  69.269  1.00  0.00    -0.350 A  
BRANCH  14  19
HETATM   19  C   UNL     1     -10.730  14.219  65.594  1.00  0.00    -0.316 C  
HETATM   20  O   UNL     1     -10.294  15.054  64.803  1.00  0.00    -0.349 OA 
BRANCH  19  21
HETATM   21  O   UNL     1     -10.958  12.914  65.248  1.00  0.00    -0.277 OA 
HETATM   22  C   UNL     1     -10.521  12.584  63.929  1.00  0.00    -0.434 C  
ENDBRANCH  19  21
ENDBRANCH  14  19
ENDBRANCH  11  13
ENDBRANCH   8  11
ENDBRANCH   6   8
ENDBRANCH   4   6
ENDBRANCH   3   4
ENDBRANCH   2   3
TORSDOF 8
ENDMDL
MODEL      260
REMARK 921   NORMALIZED FREE ENERGY PREDICTED BY IDOCK:   -3.11 KCAL/MOL
REMARK 922        TOTAL FREE ENERGY PREDICTED BY IDOCK:   -5.27 KCAL/MOL
REMARK 923 INTER-LIGAND FREE ENERGY PREDICTED BY IDOCK:   -4.32 KCAL/MOL
REMARK 924 INTRA-LIGAND FREE ENERGY PREDICTED BY IDOCK:   -0.96 KCAL/MOL
REMARK 927      BINDING AFFINITY PREDICTED BY RF-SCORE:    0.00 PKD
ROOT
HETATM    1  C   UNL     1     -13.294  10.392  72.039  1.00  0.00    -0.440 C  
HETATM    2  C   UNL     1     -13.553   8.904  72.247  1.00  0.00    -0.513 C  
ENDROOT
BRANCH   2   3
HETATM    3  C   UNL     1     -12.795   8.081  71.203  1.00  0.00    -0.103 C  
BRANCH   3   4
HETATM    4  N   UNL     1     -11.805   8.903  70.492  1.00  0.00    -0.463 NA 
HETATM    5  H   UNL     1     -11.600   9.763  71.000  1.00  0.00     0.000 HD 
BRANCH   4   6
HETATM    6  C   UNL     1     -10.564   8.128  70.204  1.00  0.00    -0.237 C  
HETATM    7  C   UNL     1     -10.446   6.854  71.047  1.00  0.00    -0.235 C  
BRANCH   6   8
HETATM    8  C   UNL     1     -10.633   7.660  68.749  1.00  0.00    -0.145 C  
HETATM    9  O   UNL     1     -10.758   6.313  68.667  1.00  0.00    -0.235 OA 
HETATM   10  H   UNL     1     -10.801   6.022  67.764  1.00  0.00     0.000 HD 
BRANCH   8  11
HETATM   11  N   UNL     1     -10.551   8.482  67.756  1.00  0.00    -0.414 NA 
HETATM   12  H   UNL     1     -11.391   8.818  67.284  1.00  0.00     0.000 HD 
BRANCH  11  13
HETATM   13  C   UNL     1      -9.272   8.903  67.342  1.00  0.00    -0.135 A  
HETATM   14  C   UNL     1      -8.875  10.231  67.455  1.00  0.00    -0.131 A  
HETATM   15  C   UNL     1      -8.471   6.664  66.211  1.00  0.00    -0.130 C  
HETATM   16  S   UNL     1      -7.338  10.478  66.732  1.00  0.00    -0.121 SA 
HETATM   17  C   UNL     1      -7.219   8.849  66.259  1.00  0.00    -0.086 A  
HETATM   18  C   UNL     1      -8.331   8.101  66.599  1.00  0.00    -0.111 A  
BRANCH  14  19
HETATM   19  C   UNL     1      -9.526  11.393  68.029  1.00  0.00    -0.181 C  
HETATM   20  O   UNL     1      -9.023  12.508  68.159  1.00  0.00    -0.191 OA 
BRANCH  19  21
HETATM   21  O   UNL     1     -10.785  11.087  68.475  1.00  0.00    -0.178 OA 
HETATM   22  C   UNL     1     -11.352  12.085  69.324  1.00  0.00    -0.268 C  
ENDBRANCH  19  21
ENDBRANCH  14  19
ENDBRANCH  11  13
ENDBRANCH   8  11
ENDBRANCH   6   8
ENDBRANCH   4   6
ENDBRANCH   3   4
ENDBRANCH   2   3
TORSDOF 8
ENDMDL
MODEL      261
REMARK 921   NORMALIZED FREE ENERGY PREDICTED BY IDOCK:   -3.09 KCAL/MOL
REMARK 922        TOTAL FREE ENERGY PREDICTED BY IDOCK:   -5.25 KCAL/MOL
REMARK 923 INTER-LIGAND FREE ENERGY PREDICTED BY IDOCK:   -4.27 KCAL/MOL
REMARK 924 INTRA-LIGAND FREE ENERGY PREDICTED BY IDOCK:   -0.98 KCAL/MOL
REMARK 927      BINDING AFFINITY PREDICTED BY RF-SCORE:    0.00 PKD
ROOT
HETATM    1  C   UNL     1      -6.750  13.474  69.281  1.00  0.00    -0.080 C  
HETATM    2  C   UNL     1      -7.907  13.554  68.291  1.00  0.00    -0.145 C  
ENDROOT
BRANCH   2   3
HETATM    3  C   UNL     1      -7.639  12.652  67.085  1.00  0.00    -0.063 C  
BRANCH   3   4
HETATM    4  N   UNL     1      -7.998  11.256  67.371  1.00  0.00    -0.126 NA 
HETATM    5  H   UNL     1      -7.347  10.830  68.031  1.00  0.00     0.000 HD 
BRANCH   4   6
HETATM    6  C   UNL     1      -9.408  11.145  67.845  1.00  0.00    -0.161 C  
HETATM    7  C   UNL     1     -10.391  10.808  66.719  1.00  0.00    -0.294 C  
BRANCH   6   8
HETATM    8  C   UNL     1      -9.479   9.971  68.826  1.00  0.00    -0.162 C  
HETATM    9  O   UNL     1      -9.524   8.784  68.175  1.00  0.00    -0.139 OA 
HETATM   10  H   UNL     1      -9.569   8.056  68.783  1.00  0.00     0.000 HD 
BRANCH   8  11
HETATM   11  N   UNL     1      -9.517  10.144  70.106  1.00  0.00    -0.387 NA 
HETATM   12  H   UNL     1      -8.962  10.876  70.551  1.00  0.00     0.000 HD 
BRANCH  11  13
HETATM   13  C   UNL     1     -10.344   9.297  70.869  1.00  0.00    -0.296 A  
HETATM   14  C   UNL     1     -11.625   9.685  71.246  1.00  0.00    -0.393 A  
HETATM   15  C   UNL     1      -8.588   7.407  71.396  1.00  0.00    -0.118 C  
HETATM   16  S   UNL     1     -12.335   8.526  72.295  1.00  0.00    -0.364 SA 
HETATM   17  C   UNL     1     -10.950   7.541  72.262  1.00  0.00    -0.262 A  
HETATM   18  C   UNL     1      -9.924   8.070  71.500  1.00  0.00    -0.225 A  
BRANCH  14  19
HETATM   19  C   UNL     1     -12.413  10.863  70.938  1.00  0.00    -0.408 C  
HETATM   20  O   UNL     1     -12.212  11.639  70.005  1.00  0.00    -0.296 OA 
BRANCH  19  21
HETATM   21  O   UNL     1     -13.405  11.052  71.863  1.00  0.00    -0.422 OA 
HETATM   22  C   UNL     1     -13.820  12.412  71.991  1.00  0.00     0.070 C  
ENDBRANCH  19  21
ENDBRANCH  14  19
ENDBRANCH  11  13
ENDBRANCH   8  11
ENDBRANCH   6   8
ENDBRANCH   4   6
ENDBRANCH   3   4
ENDBRANCH   2   3
TORSDOF 8
ENDMDL
MODEL      262
REMARK 921   NORMALIZED FREE ENERGY PREDICTED BY IDOCK:   -3.09 KCAL/MOL
REMARK 922        TOTAL FREE ENERGY PREDICTED BY IDOCK:   -5.24 KCAL/MOL
REMARK 923 INTER-LIGAND FREE ENERGY PREDICTED BY IDOCK:   -4.11 KCAL/MOL
REMARK 924 INTRA-LIGAND FREE ENERGY PREDICTED BY IDOCK:   -1.13 KCAL/MOL
REMARK 927      BINDING AFFINITY PREDICTED BY RF-SCORE:    0.00 PKD
ROOT
HETATM    1  C   UNL     1     -13.370   9.039  72.188  1.00  0.00    -0.510 C  
HETATM    2  C   UNL     1     -11.934   8.586  71.959  1.00  0.00    -0.427 C  
ENDROOT
BRANCH   2   3
HETATM    3  C   UNL     1     -11.908   7.292  71.142  1.00  0.00    -0.312 C  
BRANCH   3   4
HETATM    4  N   UNL     1     -11.303   7.508  69.820  1.00  0.00    -0.462 NA 
HETATM    5  H   UNL     1     -10.429   8.031  69.890  1.00  0.00     0.000 HD 
BRANCH   4   6
HETATM    6  C   UNL     1     -11.113   6.220  69.093  1.00  0.00    -0.390 C  
HETATM    7  C   UNL     1     -10.979   6.405  67.577  1.00  0.00    -0.454 C  
BRANCH   6   8
HETATM    8  C   UNL     1      -9.788   5.612  69.557  1.00  0.00    -0.180 C  
HETATM    9  O   UNL     1      -9.977   4.717  70.556  1.00  0.00    -0.215 OA 
HETATM   10  H   UNL     1      -9.154   4.339  70.845  1.00  0.00     0.000 HD 
BRANCH   8  11
HETATM   11  N   UNL     1      -8.653   5.962  69.048  1.00  0.00    -0.114 NA 
HETATM   12  H   UNL     1      -8.547   6.083  68.040  1.00  0.00     0.000 HD 
BRANCH  11  13
HETATM   13  C   UNL     1      -7.567   6.172  69.920  1.00  0.00    -0.088 A  
HETATM   14  C   UNL     1      -7.408   7.373  70.602  1.00  0.00    -0.070 A  
HETATM   15  C   UNL     1      -6.215   3.974  69.396  1.00  0.00    -0.028 C  
HETATM   16  S   UNL     1      -5.923   7.401  71.462  1.00  0.00    -0.036 SA 
HETATM   17  C   UNL     1      -5.493   5.850  70.914  1.00  0.00    -0.013 A  
HETATM   18  C   UNL     1      -6.428   5.298  70.057  1.00  0.00    -0.034 A  
BRANCH  14  19
HETATM   19  C   UNL     1      -8.236   8.561  70.681  1.00  0.00    -0.123 C  
HETATM   20  O   UNL     1      -8.539   9.159  71.712  1.00  0.00    -0.340 OA 
BRANCH  19  21
HETATM   21  O   UNL     1      -8.702   8.924  69.445  1.00  0.00    -0.136 OA 
HETATM   22  C   UNL     1      -8.809  10.336  69.263  1.00  0.00    -0.177 C  
ENDBRANCH  19  21
ENDBRANCH  14  19
ENDBRANCH  11  13
ENDBRANCH   8  11
ENDBRANCH   6   8
ENDBRANCH   4   6
ENDBRANCH   3   4
ENDBRANCH   2   3
TORSDOF 8
ENDMDL
MODEL      263
REMARK 921   NORMALIZED FREE ENERGY PREDICTED BY IDOCK:   -3.09 KCAL/MOL
REMARK 922        TOTAL FREE ENERGY PREDICTED BY IDOCK:   -5.24 KCAL/MOL
REMARK 923 INTER-LIGAND FREE ENERGY PREDICTED BY IDOCK:   -4.46 KCAL/MOL
REMARK 924 INTRA-LIGAND FREE ENERGY PREDICTED BY IDOCK:   -0.78 KCAL/MOL
REMARK 927      BINDING AFFINITY PREDICTED BY RF-SCORE:    0.00 PKD
ROOT
HETATM    1  C   UNL     1     -13.952   8.827  72.174  1.00  0.00    -0.522 C  
HETATM    2  C   UNL     1     -12.457   8.530  72.180  1.00  0.00    -0.437 C  
ENDROOT
BRANCH   2   3
HETATM    3  C   UNL     1     -12.203   7.069  71.805  1.00  0.00    -0.351 C  
BRANCH   3   4
HETATM    4  N   UNL     1     -12.096   6.903  70.348  1.00  0.00    -0.608 NA 
HETATM    5  H   UNL     1     -12.638   7.610  69.851  1.00  0.00     0.000 HD 
BRANCH   4   6
HETATM    6  C   UNL     1     -10.672   6.894  69.907  1.00  0.00    -0.246 C  
HETATM    7  C   UNL     1     -10.372   5.797  68.879  1.00  0.00    -0.295 C  
BRANCH   6   8
HETATM    8  C   UNL     1     -10.396   8.220  69.193  1.00  0.00    -0.217 C  
HETATM    9  O   UNL     1     -10.922   8.229  67.944  1.00  0.00    -0.480 OA 
HETATM   10  H   UNL     1     -10.751   9.052  67.501  1.00  0.00     0.000 HD 
BRANCH   8  11
HETATM   11  N   UNL     1      -9.719   9.172  69.745  1.00  0.00    -0.173 NA 
HETATM   12  H   UNL     1     -10.092  10.120  69.793  1.00  0.00     0.000 HD 
BRANCH  11  13
HETATM   13  C   UNL     1      -8.452   8.865  70.279  1.00  0.00    -0.160 A  
HETATM   14  C   UNL     1      -7.339   8.714  69.459  1.00  0.00    -0.068 A  
HETATM   15  C   UNL     1      -9.172   8.439  72.775  1.00  0.00    -0.311 C  
HETATM   16  S   UNL     1      -5.976   8.192  70.363  1.00  0.00    -0.028 SA 
HETATM   17  C   UNL     1      -6.863   8.147  71.812  1.00  0.00    -0.073 A  
HETATM   18  C   UNL     1      -8.193   8.487  71.646  1.00  0.00    -0.209 A  
BRANCH  14  19
HETATM   19  C   UNL     1      -7.154   8.888  68.032  1.00  0.00    -0.079 C  
HETATM   20  O   UNL     1      -6.605   8.089  67.275  1.00  0.00    -0.055 OA 
BRANCH  19  21
HETATM   21  O   UNL     1      -7.625  10.104  67.615  1.00  0.00    -0.090 OA 
HETATM   22  C   UNL     1      -6.724  11.184  67.859  1.00  0.00    -0.063 C  
ENDBRANCH  19  21
ENDBRANCH  14  19
ENDBRANCH  11  13
ENDBRANCH   8  11
ENDBRANCH   6   8
ENDBRANCH   4   6
ENDBRANCH   3   4
ENDBRANCH   2   3
TORSDOF 8
ENDMDL
MODEL      264
REMARK 921   NORMALIZED FREE ENERGY PREDICTED BY IDOCK:   -3.09 KCAL/MOL
REMARK 922        TOTAL FREE ENERGY PREDICTED BY IDOCK:   -5.24 KCAL/MOL
REMARK 923 INTER-LIGAND FREE ENERGY PREDICTED BY IDOCK:   -4.50 KCAL/MOL
REMARK 924 INTRA-LIGAND FREE ENERGY PREDICTED BY IDOCK:   -0.74 KCAL/MOL
REMARK 927      BINDING AFFINITY PREDICTED BY RF-SCORE:    0.00 PKD
ROOT
HETATM    1  C   UNL     1      -7.765   2.954  65.719  1.00  0.00    -0.081 C  
HETATM    2  C   UNL     1      -8.695   3.403  66.839  1.00  0.00    -0.130 C  
ENDROOT
BRANCH   2   3
HETATM    3  C   UNL     1      -9.728   4.399  66.306  1.00  0.00    -0.215 C  
BRANCH   3   4
HETATM    4  N   UNL     1      -9.297   5.786  66.531  1.00  0.00    -0.148 NA 
HETATM    5  H   UNL     1      -9.835   6.441  65.963  1.00  0.00     0.000 HD 
BRANCH   4   6
HETATM    6  C   UNL     1      -9.352   6.144  67.978  1.00  0.00    -0.114 C  
HETATM    7  C   UNL     1      -7.967   6.392  68.584  1.00  0.00    -0.106 C  
BRANCH   6   8
HETATM    8  C   UNL     1     -10.105   7.470  68.102  1.00  0.00    -0.183 C  
HETATM    9  O   UNL     1     -11.342   7.391  67.554  1.00  0.00    -0.489 OA 
HETATM   10  H   UNL     1     -11.810   8.214  67.631  1.00  0.00     0.000 HD 
BRANCH   8  11
HETATM   11  N   UNL     1      -9.575   8.515  68.647  1.00  0.00    -0.147 NA 
HETATM   12  H   UNL     1      -8.583   8.535  68.884  1.00  0.00     0.000 HD 
BRANCH  11  13
HETATM   13  C   UNL     1     -10.403   9.626  68.904  1.00  0.00    -0.203 A  
HETATM   14  C   UNL     1     -11.045   9.782  70.127  1.00  0.00    -0.285 A  
HETATM   15  C   UNL     1     -10.426  10.664  66.484  1.00  0.00    -0.285 C  
HETATM   16  S   UNL     1     -12.103  11.133  70.099  1.00  0.00    -0.372 SA 
HETATM   17  C   UNL     1     -11.727  11.485  68.479  1.00  0.00    -0.313 A  
HETATM   18  C   UNL     1     -10.835  10.588  67.920  1.00  0.00    -0.333 A  
BRANCH  14  19
HETATM   19  C   UNL     1     -10.994   9.012  71.355  1.00  0.00    -0.324 C  
HETATM   20  O   UNL     1     -11.957   8.501  71.924  1.00  0.00    -0.300 OA 
BRANCH  19  21
HETATM   21  O   UNL     1      -9.720   8.962  71.857  1.00  0.00    -0.307 OA 
HETATM   22  C   UNL     1      -9.365   7.690  72.397  1.00  0.00    -0.160 C  
ENDBRANCH  19  21
ENDBRANCH  14  19
ENDBRANCH  11  13
ENDBRANCH   8  11
ENDBRANCH   6   8
ENDBRANCH   4   6
ENDBRANCH   3   4
ENDBRANCH   2   3
TORSDOF 8
ENDMDL
MODEL      265
REMARK 921   NORMALIZED FREE ENERGY PREDICTED BY IDOCK:   -3.08 KCAL/MOL
REMARK 922        TOTAL FREE ENERGY PREDICTED BY IDOCK:   -5.23 KCAL/MOL
REMARK 923 INTER-LIGAND FREE ENERGY PREDICTED BY IDOCK:   -4.36 KCAL/MOL
REMARK 924 INTRA-LIGAND FREE ENERGY PREDICTED BY IDOCK:   -0.87 KCAL/MOL
REMARK 927      BINDING AFFINITY PREDICTED BY RF-SCORE:    0.00 PKD
ROOT
HETATM    1  C   UNL     1      -7.729   7.410  63.637  1.00  0.00    -0.125 C  
HETATM    2  C   UNL     1      -7.322   6.251  64.539  1.00  0.00    -0.070 C  
ENDROOT
BRANCH   2   3
HETATM    3  C   UNL     1      -8.362   6.046  65.643  1.00  0.00    -0.145 C  
BRANCH   3   4
HETATM    4  N   UNL     1      -9.186   7.248  65.830  1.00  0.00    -0.388 NA 
HETATM    5  H   UNL     1     -10.157   7.080  65.565  1.00  0.00     0.000 HD 
BRANCH   4   6
HETATM    6  C   UNL     1      -9.082   7.768  67.224  1.00  0.00    -0.131 C  
HETATM    7  C   UNL     1      -8.414   9.145  67.298  1.00  0.00    -0.121 C  
BRANCH   6   8
HETATM    8  C   UNL     1     -10.503   7.964  67.757  1.00  0.00    -0.212 C  
HETATM    9  O   UNL     1     -10.972   9.203  67.471  1.00  0.00    -0.466 OA 
HETATM   10  H   UNL     1     -11.855   9.324  67.802  1.00  0.00     0.000 HD 
BRANCH   8  11
HETATM   11  N   UNL     1     -11.125   7.043  68.414  1.00  0.00    -0.483 NA 
HETATM   12  H   UNL     1     -12.057   6.737  68.132  1.00  0.00     0.000 HD 
BRANCH  11  13
HETATM   13  C   UNL     1     -10.484   6.471  69.531  1.00  0.00    -0.222 A  
HETATM   14  C   UNL     1     -10.214   7.219  70.672  1.00  0.00    -0.195 A  
HETATM   15  C   UNL     1      -9.876   4.135  68.480  1.00  0.00    -0.085 C  
HETATM   16  S   UNL     1      -9.291   6.311  71.799  1.00  0.00    -0.149 SA 
HETATM   17  C   UNL     1      -9.235   4.957  70.772  1.00  0.00    -0.145 A  
HETATM   18  C   UNL     1      -9.871   5.166  69.562  1.00  0.00    -0.278 A  
BRANCH  14  19
HETATM   19  C   UNL     1     -10.543   8.583  71.038  1.00  0.00    -0.216 C  
HETATM   20  O   UNL     1      -9.991   9.596  70.610  1.00  0.00    -0.273 OA 
BRANCH  19  21
HETATM   21  O   UNL     1     -11.531   8.618  71.985  1.00  0.00    -0.322 OA 
HETATM   22  C   UNL     1     -12.815   8.960  71.464  1.00  0.00    -0.334 C  
ENDBRANCH  19  21
ENDBRANCH  14  19
ENDBRANCH  11  13
ENDBRANCH   8  11
ENDBRANCH   6   8
ENDBRANCH   4   6
ENDBRANCH   3   4
ENDBRANCH   2   3
TORSDOF 8
ENDMDL
MODEL      266
REMARK 921   NORMALIZED FREE ENERGY PREDICTED BY IDOCK:   -3.07 KCAL/MOL
REMARK 922        TOTAL FREE ENERGY PREDICTED BY IDOCK:   -5.22 KCAL/MOL
REMARK 923 INTER-LIGAND FREE ENERGY PREDICTED BY IDOCK:   -4.05 KCAL/MOL
REMARK 924 INTRA-LIGAND FREE ENERGY PREDICTED BY IDOCK:   -1.17 KCAL/MOL
REMARK 927      BINDING AFFINITY PREDICTED BY RF-SCORE:    0.00 PKD
ROOT
HETATM    1  C   UNL     1     -10.358   9.606  67.969  1.00  0.00    -0.262 C  
HETATM    2  C   UNL     1     -10.559   8.309  67.195  1.00  0.00    -0.340 C  
ENDROOT
BRANCH   2   3
HETATM    3  C   UNL     1      -9.721   7.186  67.810  1.00  0.00    -0.138 C  
BRANCH   3   4
HETATM    4  N   UNL     1     -10.558   6.038  68.184  1.00  0.00    -0.237 NA 
HETATM    5  H   UNL     1     -11.299   5.877  67.500  1.00  0.00     0.000 HD 
BRANCH   4   6
HETATM    6  C   UNL     1      -9.736   4.812  68.397  1.00  0.00    -0.146 C  
HETATM    7  C   UNL     1      -8.435   4.819  67.586  1.00  0.00    -0.104 C  
BRANCH   6   8
HETATM    8  C   UNL     1      -9.310   4.785  69.866  1.00  0.00    -0.140 C  
HETATM    9  O   UNL     1      -8.022   5.179  70.017  1.00  0.00    -0.079 OA 
HETATM   10  H   UNL     1      -7.758   5.162  70.929  1.00  0.00     0.000 HD 
BRANCH   8  11
HETATM   11  N   UNL     1     -10.108   4.402  70.808  1.00  0.00    -0.178 NA 
HETATM   12  H   UNL     1     -10.822   3.694  70.633  1.00  0.00     0.000 HD 
BRANCH  11  13
HETATM   13  C   UNL     1      -9.965   4.985  72.082  1.00  0.00    -0.183 A  
HETATM   14  C   UNL     1     -10.560   6.204  72.391  1.00  0.00    -0.210 A  
HETATM   15  C   UNL     1      -8.196   3.312  73.083  1.00  0.00    -0.077 C  
HETATM   16  S   UNL     1     -10.088   6.741  73.951  1.00  0.00    -0.366 SA 
HETATM   17  C   UNL     1      -9.092   5.385  74.196  1.00  0.00    -0.118 A  
HETATM   18  C   UNL     1      -9.066   4.527  73.113  1.00  0.00    -0.126 A  
BRANCH  14  19
HETATM   19  C   UNL     1     -11.448   7.069  71.638  1.00  0.00    -0.266 C  
HETATM   20  O   UNL     1     -12.119   6.736  70.663  1.00  0.00    -0.392 OA 
BRANCH  19  21
HETATM   21  O   UNL     1     -11.414   8.351  72.116  1.00  0.00    -0.320 OA 
HETATM   22  C   UNL     1     -12.559   9.127  71.762  1.00  0.00    -0.370 C  
ENDBRANCH  19  21
ENDBRANCH  14  19
ENDBRANCH  11  13
ENDBRANCH   8  11
ENDBRANCH   6   8
ENDBRANCH   4   6
ENDBRANCH   3   4
ENDBRANCH   2   3
TORSDOF 8
ENDMDL
MODEL      267
REMARK 921   NORMALIZED FREE ENERGY PREDICTED BY IDOCK:   -3.07 KCAL/MOL
REMARK 922        TOTAL FREE ENERGY PREDICTED BY IDOCK:   -5.21 KCAL/MOL
REMARK 923 INTER-LIGAND FREE ENERGY PREDICTED BY IDOCK:   -4.07 KCAL/MOL
REMARK 924 INTRA-LIGAND FREE ENERGY PREDICTED BY IDOCK:   -1.14 KCAL/MOL
REMARK 927      BINDING AFFINITY PREDICTED BY RF-SCORE:    0.00 PKD
ROOT
HETATM    1  C   UNL     1     -12.069  12.813  63.859  1.00  0.00    -0.562 C  
HETATM    2  C   UNL     1     -12.831  13.418  65.033  1.00  0.00    -0.344 C  
ENDROOT
BRANCH   2   3
HETATM    3  C   UNL     1     -11.865  13.783  66.162  1.00  0.00    -0.398 C  
BRANCH   3   4
HETATM    4  N   UNL     1     -10.759  12.818  66.252  1.00  0.00    -0.267 NA 
HETATM    5  H   UNL     1     -10.321  12.668  65.343  1.00  0.00     0.000 HD 
BRANCH   4   6
HETATM    6  C   UNL     1      -9.761  13.231  67.279  1.00  0.00    -0.231 C  
HETATM    7  C   UNL     1     -10.409  13.769  68.559  1.00  0.00    -0.244 C  
BRANCH   6   8
HETATM    8  C   UNL     1      -8.981  11.983  67.700  1.00  0.00    -0.172 C  
HETATM    9  O   UNL     1      -7.740  12.300  68.143  1.00  0.00    -0.119 OA 
HETATM   10  H   UNL     1      -7.256  11.525  68.404  1.00  0.00     0.000 HD 
BRANCH   8  11
HETATM   11  N   UNL     1      -9.478  10.794  67.601  1.00  0.00    -0.153 NA 
HETATM   12  H   UNL     1      -9.911  10.479  66.732  1.00  0.00     0.000 HD 
BRANCH  11  13
HETATM   13  C   UNL     1      -9.405   9.946  68.723  1.00  0.00    -0.157 A  
HETATM   14  C   UNL     1      -8.437   8.952  68.817  1.00  0.00    -0.131 A  
HETATM   15  C   UNL     1     -11.617  10.706  69.932  1.00  0.00    -0.396 C  
HETATM   16  S   UNL     1      -8.688   7.979  70.210  1.00  0.00    -0.135 SA 
HETATM   17  C   UNL     1     -10.073   8.855  70.661  1.00  0.00    -0.212 A  
HETATM   18  C   UNL     1     -10.394   9.863  69.770  1.00  0.00    -0.278 A  
BRANCH  14  19
HETATM   19  C   UNL     1      -7.321   8.600  67.961  1.00  0.00    -0.092 C  
HETATM   20  O   UNL     1      -7.008   7.460  67.620  1.00  0.00    -0.074 OA 
BRANCH  19  21
HETATM   21  O   UNL     1      -6.599   9.708  67.606  1.00  0.00    -0.064 OA 
HETATM   22  C   UNL     1      -5.331   9.405  67.023  1.00  0.00    -0.039 C  
ENDBRANCH  19  21
ENDBRANCH  14  19
ENDBRANCH  11  13
ENDBRANCH   8  11
ENDBRANCH   6   8
ENDBRANCH   4   6
ENDBRANCH   3   4
ENDBRANCH   2   3
TORSDOF 8
ENDMDL
MODEL      268
REMARK 921   NORMALIZED FREE ENERGY PREDICTED BY IDOCK:   -3.05 KCAL/MOL
REMARK 922        TOTAL FREE ENERGY PREDICTED BY IDOCK:   -5.18 KCAL/MOL
REMARK 923 INTER-LIGAND FREE ENERGY PREDICTED BY IDOCK:   -4.38 KCAL/MOL
REMARK 924 INTRA-LIGAND FREE ENERGY PREDICTED BY IDOCK:   -0.81 KCAL/MOL
REMARK 927      BINDING AFFINITY PREDICTED BY RF-SCORE:    0.00 PKD
ROOT
HETATM    1  C   UNL     1      -9.517  19.865  66.455  1.00  0.00    -0.516 C  
HETATM    2  C   UNL     1     -10.622  19.284  67.329  1.00  0.00    -0.590 C  
ENDROOT
BRANCH   2   3
HETATM    3  C   UNL     1     -10.040  18.279  68.326  1.00  0.00    -0.386 C  
BRANCH   3   4
HETATM    4  N   UNL     1     -10.988  17.190  68.600  1.00  0.00    -0.246 NA 
HETATM    5  H   UNL     1     -11.452  16.874  67.747  1.00  0.00     0.000 HD 
BRANCH   4   6
HETATM    6  C   UNL     1     -10.326  16.060  69.314  1.00  0.00    -0.251 C  
HETATM    7  C   UNL     1     -11.239  15.390  70.346  1.00  0.00    -0.345 C  
BRANCH   6   8
HETATM    8  C   UNL     1     -10.003  14.980  68.279  1.00  0.00    -0.225 C  
HETATM    9  O   UNL     1     -10.684  13.835  68.529  1.00  0.00    -0.248 OA 
HETATM   10  H   UNL     1     -10.483  13.165  67.887  1.00  0.00     0.000 HD 
BRANCH   8  11
HETATM   11  N   UNL     1      -9.159  15.175  67.320  1.00  0.00    -0.190 NA 
HETATM   12  H   UNL     1      -9.455  15.598  66.440  1.00  0.00     0.000 HD 
BRANCH  11  13
HETATM   13  C   UNL     1      -7.820  14.787  67.522  1.00  0.00    -0.188 A  
HETATM   14  C   UNL     1      -7.415  13.468  67.354  1.00  0.00    -0.122 A  
HETATM   15  C   UNL     1      -6.899  17.055  68.494  1.00  0.00    -0.179 C  
HETATM   16  S   UNL     1      -5.774  13.263  67.818  1.00  0.00    -0.090 SA 
HETATM   17  C   UNL     1      -5.619  14.898  68.255  1.00  0.00    -0.116 A  
HETATM   18  C   UNL     1      -6.790  15.618  68.096  1.00  0.00    -0.130 A  
BRANCH  14  19
HETATM   19  C   UNL     1      -8.122  12.286  66.901  1.00  0.00    -0.090 C  
HETATM   20  O   UNL     1      -9.304  12.240  66.563  1.00  0.00    -0.223 OA 
BRANCH  19  21
HETATM   21  O   UNL     1      -7.317  11.179  66.942  1.00  0.00    -0.123 OA 
HETATM   22  C   UNL     1      -7.134  10.553  65.672  1.00  0.00    -0.119 C  
ENDBRANCH  19  21
ENDBRANCH  14  19
ENDBRANCH  11  13
ENDBRANCH   8  11
ENDBRANCH   6   8
ENDBRANCH   4   6
ENDBRANCH   3   4
ENDBRANCH   2   3
TORSDOF 8
ENDMDL
MODEL      269
REMARK 921   NORMALIZED FREE ENERGY PREDICTED BY IDOCK:   -3.04 KCAL/MOL
REMARK 922        TOTAL FREE ENERGY PREDICTED BY IDOCK:   -5.17 KCAL/MOL
REMARK 923 INTER-LIGAND FREE ENERGY PREDICTED BY IDOCK:   -4.09 KCAL/MOL
REMARK 924 INTRA-LIGAND FREE ENERGY PREDICTED BY IDOCK:   -1.08 KCAL/MOL
REMARK 927      BINDING AFFINITY PREDICTED BY RF-SCORE:    0.00 PKD
ROOT
HETATM    1  C   UNL     1     -12.279   6.635  70.890  1.00  0.00    -0.324 C  
HETATM    2  C   UNL     1     -11.326   7.051  72.004  1.00  0.00    -0.300 C  
ENDROOT
BRANCH   2   3
HETATM    3  C   UNL     1     -11.366   8.568  72.200  1.00  0.00    -0.372 C  
BRANCH   3   4
HETATM    4  N   UNL     1     -10.125   9.200  71.728  1.00  0.00    -0.299 NA 
HETATM    5  H   UNL     1      -9.301   8.701  72.064  1.00  0.00     0.000 HD 
BRANCH   4   6
HETATM    6  C   UNL     1     -10.115   9.334  70.243  1.00  0.00    -0.219 C  
HETATM    7  C   UNL     1     -10.725  10.655  69.760  1.00  0.00    -0.283 C  
BRANCH   6   8
HETATM    8  C   UNL     1      -8.655   9.358  69.787  1.00  0.00    -0.175 C  
HETATM    9  O   UNL     1      -7.997  10.432  70.287  1.00  0.00    -0.413 OA 
HETATM   10  H   UNL     1      -7.090  10.447  70.004  1.00  0.00     0.000 HD 
BRANCH   8  11
HETATM   11  N   UNL     1      -8.164   8.458  69.000  1.00  0.00    -0.116 NA 
HETATM   12  H   UNL     1      -7.545   8.717  68.231  1.00  0.00     0.000 HD 
BRANCH  11  13
HETATM   13  C   UNL     1      -8.506   7.112  69.233  1.00  0.00    -0.133 A  
HETATM   14  C   UNL     1      -9.466   6.465  68.462  1.00  0.00    -0.120 A  
HETATM   15  C   UNL     1      -7.133   6.737  71.448  1.00  0.00    -0.075 C  
HETATM   16  S   UNL     1      -9.785   4.892  69.070  1.00  0.00    -0.177 SA 
HETATM   17  C   UNL     1      -8.681   5.082  70.348  1.00  0.00    -0.108 A  
HETATM   18  C   UNL     1      -8.080   6.328  70.366  1.00  0.00    -0.116 A  
BRANCH  14  19
HETATM   19  C   UNL     1     -10.226   6.890  67.303  1.00  0.00    -0.220 C  
HETATM   20  O   UNL     1     -11.372   6.538  67.026  1.00  0.00    -0.342 OA 
BRANCH  19  21
HETATM   21  O   UNL     1      -9.484   7.710  66.495  1.00  0.00    -0.185 OA 
HETATM   22  C   UNL     1      -8.540   7.013  65.682  1.00  0.00    -0.111 C  
ENDBRANCH  19  21
ENDBRANCH  14  19
ENDBRANCH  11  13
ENDBRANCH   8  11
ENDBRANCH   6   8
ENDBRANCH   4   6
ENDBRANCH   3   4
ENDBRANCH   2   3
TORSDOF 8
ENDMDL
MODEL      270
REMARK 921   NORMALIZED FREE ENERGY PREDICTED BY IDOCK:   -3.03 KCAL/MOL
REMARK 922        TOTAL FREE ENERGY PREDICTED BY IDOCK:   -5.16 KCAL/MOL
REMARK 923 INTER-LIGAND FREE ENERGY PREDICTED BY IDOCK:   -4.23 KCAL/MOL
REMARK 924 INTRA-LIGAND FREE ENERGY PREDICTED BY IDOCK:   -0.93 KCAL/MOL
REMARK 927      BINDING AFFINITY PREDICTED BY RF-SCORE:    0.00 PKD
ROOT
HETATM    1  C   UNL     1      -8.593   3.455  65.557  1.00  0.00    -0.112 C  
HETATM    2  C   UNL     1      -9.571   4.593  65.292  1.00  0.00    -0.161 C  
ENDROOT
BRANCH   2   3
HETATM    3  C   UNL     1      -9.012   5.912  65.830  1.00  0.00    -0.140 C  
BRANCH   3   4
HETATM    4  N   UNL     1     -10.067   6.725  66.452  1.00  0.00    -0.430 NA 
HETATM    5  H   UNL     1     -10.891   6.164  66.669  1.00  0.00     0.000 HD 
BRANCH   4   6
HETATM    6  C   UNL     1      -9.561   7.443  67.656  1.00  0.00    -0.138 C  
HETATM    7  C   UNL     1     -10.531   8.516  68.163  1.00  0.00    -0.236 C  
BRANCH   6   8
HETATM    8  C   UNL     1      -9.438   6.423  68.790  1.00  0.00    -0.127 C  
HETATM    9  O   UNL     1      -8.170   6.360  69.264  1.00  0.00    -0.112 OA 
HETATM   10  H   UNL     1      -8.094   5.727  69.969  1.00  0.00     0.000 HD 
BRANCH   8  11
HETATM   11  N   UNL     1     -10.441   5.716  69.193  1.00  0.00    -0.257 NA 
HETATM   12  H   UNL     1     -11.252   5.568  68.591  1.00  0.00     0.000 HD 
BRANCH  11  13
HETATM   13  C   UNL     1     -10.387   5.154  70.483  1.00  0.00    -0.243 A  
HETATM   14  C   UNL     1     -10.859   5.844  71.594  1.00  0.00    -0.263 A  
HETATM   15  C   UNL     1      -8.978   3.004  69.914  1.00  0.00    -0.171 C  
HETATM   16  S   UNL     1     -10.521   4.986  73.042  1.00  0.00    -0.221 SA 
HETATM   17  C   UNL     1      -9.740   3.732  72.202  1.00  0.00    -0.161 A  
HETATM   18  C   UNL     1      -9.687   3.943  70.836  1.00  0.00    -0.253 A  
BRANCH  14  19
HETATM   19  C   UNL     1     -11.533   7.122  71.728  1.00  0.00    -0.267 C  
HETATM   20  O   UNL     1     -12.569   7.452  71.154  1.00  0.00    -0.335 OA 
BRANCH  19  21
HETATM   21  O   UNL     1     -10.835   7.967  72.550  1.00  0.00    -0.284 OA 
HETATM   22  C   UNL     1     -10.045   8.927  71.850  1.00  0.00    -0.322 C  
ENDBRANCH  19  21
ENDBRANCH  14  19
ENDBRANCH  11  13
ENDBRANCH   8  11
ENDBRANCH   6   8
ENDBRANCH   4   6
ENDBRANCH   3   4
ENDBRANCH   2   3
TORSDOF 8
ENDMDL
MODEL      271
REMARK 921   NORMALIZED FREE ENERGY PREDICTED BY IDOCK:   -3.03 KCAL/MOL
REMARK 922        TOTAL FREE ENERGY PREDICTED BY IDOCK:   -5.15 KCAL/MOL
REMARK 923 INTER-LIGAND FREE ENERGY PREDICTED BY IDOCK:   -4.56 KCAL/MOL
REMARK 924 INTRA-LIGAND FREE ENERGY PREDICTED BY IDOCK:   -0.59 KCAL/MOL
REMARK 927      BINDING AFFINITY PREDICTED BY RF-SCORE:    0.00 PKD
ROOT
HETATM    1  C   UNL     1      -7.014   9.787  64.370  1.00  0.00    -0.126 C  
HETATM    2  C   UNL     1      -7.173   8.636  65.355  1.00  0.00    -0.083 C  
ENDROOT
BRANCH   2   3
HETATM    3  C   UNL     1      -8.609   8.577  65.879  1.00  0.00    -0.163 C  
BRANCH   3   4
HETATM    4  N   UNL     1      -8.886   9.688  66.801  1.00  0.00    -0.134 NA 
HETATM    5  H   UNL     1      -9.233  10.509  66.303  1.00  0.00     0.000 HD 
BRANCH   4   6
HETATM    6  C   UNL     1      -9.820   9.273  67.887  1.00  0.00    -0.167 C  
HETATM    7  C   UNL     1      -9.093   8.783  69.144  1.00  0.00    -0.141 C  
BRANCH   6   8
HETATM    8  C   UNL     1     -10.612  10.509  68.319  1.00  0.00    -0.206 C  
HETATM    9  O   UNL     1     -11.881  10.476  67.844  1.00  0.00    -0.731 OA 
HETATM   10  H   UNL     1     -12.373  11.243  68.113  1.00  0.00     0.000 HD 
BRANCH   8  11
HETATM   11  N   UNL     1     -10.085  11.453  69.027  1.00  0.00    -0.379 NA 
HETATM   12  H   UNL     1     -10.172  11.456  70.043  1.00  0.00     0.000 HD 
BRANCH  11  13
HETATM   13  C   UNL     1      -9.385  12.476  68.357  1.00  0.00    -0.149 A  
HETATM   14  C   UNL     1     -10.044  13.386  67.537  1.00  0.00    -0.227 A  
HETATM   15  C   UNL     1      -6.932  11.722  68.944  1.00  0.00    -0.109 C  
HETATM   16  S   UNL     1      -8.926  14.413  66.735  1.00  0.00    -0.198 SA 
HETATM   17  C   UNL     1      -7.592  13.642  67.453  1.00  0.00    -0.130 A  
HETATM   18  C   UNL     1      -7.950  12.588  68.274  1.00  0.00    -0.153 A  
BRANCH  14  19
HETATM   19  C   UNL     1     -11.449  13.582  67.238  1.00  0.00    -0.339 C  
HETATM   20  O   UNL     1     -12.222  14.308  67.861  1.00  0.00    -0.311 OA 
BRANCH  19  21
HETATM   21  O   UNL     1     -11.846  12.804  66.183  1.00  0.00    -0.388 OA 
HETATM   22  C   UNL     1     -12.777  13.447  65.312  1.00  0.00    -0.422 C  
ENDBRANCH  19  21
ENDBRANCH  14  19
ENDBRANCH  11  13
ENDBRANCH   8  11
ENDBRANCH   6   8
ENDBRANCH   4   6
ENDBRANCH   3   4
ENDBRANCH   2   3
TORSDOF 8
ENDMDL
MODEL      272
REMARK 921   NORMALIZED FREE ENERGY PREDICTED BY IDOCK:   -3.02 KCAL/MOL
REMARK 922        TOTAL FREE ENERGY PREDICTED BY IDOCK:   -5.14 KCAL/MOL
REMARK 923 INTER-LIGAND FREE ENERGY PREDICTED BY IDOCK:   -5.18 KCAL/MOL
REMARK 924 INTRA-LIGAND FREE ENERGY PREDICTED BY IDOCK:    0.04 KCAL/MOL
REMARK 927      BINDING AFFINITY PREDICTED BY RF-SCORE:    0.00 PKD
ROOT
HETATM    1  C   UNL     1      -9.101   9.558  62.557  1.00  0.00    -0.236 C  
HETATM    2  C   UNL     1      -8.296   8.510  63.315  1.00  0.00    -0.107 C  
ENDROOT
BRANCH   2   3
HETATM    3  C   UNL     1      -8.583   8.601  64.816  1.00  0.00    -0.111 C  
BRANCH   3   4
HETATM    4  N   UNL     1      -9.745   9.460  65.085  1.00  0.00    -0.449 NA 
HETATM    5  H   UNL     1     -10.559   8.910  65.362  1.00  0.00     0.000 HD 
BRANCH   4   6
HETATM    6  C   UNL     1      -9.423  10.508  66.096  1.00  0.00    -0.180 C  
HETATM    7  C   UNL     1      -9.850  11.912  65.656  1.00  0.00    -0.266 C  
BRANCH   6   8
HETATM    8  C   UNL     1     -10.232  10.202  67.359  1.00  0.00    -0.218 C  
HETATM    9  O   UNL     1      -9.516   9.462  68.239  1.00  0.00    -0.137 OA 
HETATM   10  H   UNL     1     -10.019   9.273  69.023  1.00  0.00     0.000 HD 
BRANCH   8  11
HETATM   11  N   UNL     1     -11.452  10.601  67.508  1.00  0.00    -0.527 NA 
HETATM   12  H   UNL     1     -12.211  10.175  66.974  1.00  0.00     0.000 HD 
BRANCH  11  13
HETATM   13  C   UNL     1     -11.708  11.637  68.428  1.00  0.00    -0.307 A  
HETATM   14  C   UNL     1     -11.963  11.369  69.768  1.00  0.00    -0.353 A  
HETATM   15  C   UNL     1     -11.839  13.644  66.728  1.00  0.00    -0.452 C  
HETATM   16  S   UNL     1     -12.391  12.801  70.612  1.00  0.00    -0.194 SA 
HETATM   17  C   UNL     1     -12.261  13.752  69.209  1.00  0.00    -0.264 A  
HETATM   18  C   UNL     1     -11.929  13.020  68.084  1.00  0.00    -0.322 A  
BRANCH  14  19
HETATM   19  C   UNL     1     -11.955  10.134  70.529  1.00  0.00    -0.311 C  
HETATM   20  O   UNL     1     -11.190   9.187  70.356  1.00  0.00    -0.245 OA 
BRANCH  19  21
HETATM   21  O   UNL     1     -12.962  10.118  71.458  1.00  0.00    -0.374 OA 
HETATM   22  C   UNL     1     -13.915   9.075  71.253  1.00  0.00    -0.128 C  
ENDBRANCH  19  21
ENDBRANCH  14  19
ENDBRANCH  11  13
ENDBRANCH   8  11
ENDBRANCH   6   8
ENDBRANCH   4   6
ENDBRANCH   3   4
ENDBRANCH   2   3
TORSDOF 8
ENDMDL
MODEL      273
REMARK 921   NORMALIZED FREE ENERGY PREDICTED BY IDOCK:   -3.02 KCAL/MOL
REMARK 922        TOTAL FREE ENERGY PREDICTED BY IDOCK:   -5.14 KCAL/MOL
REMARK 923 INTER-LIGAND FREE ENERGY PREDICTED BY IDOCK:   -4.71 KCAL/MOL
REMARK 924 INTRA-LIGAND FREE ENERGY PREDICTED BY IDOCK:   -0.43 KCAL/MOL
REMARK 927      BINDING AFFINITY PREDICTED BY RF-SCORE:    0.00 PKD
ROOT
HETATM    1  C   UNL     1     -11.203  12.223  63.934  1.00  0.00    -0.488 C  
HETATM    2  C   UNL     1     -11.163  12.454  65.439  1.00  0.00    -0.358 C  
ENDROOT
BRANCH   2   3
HETATM    3  C   UNL     1     -10.153  13.550  65.784  1.00  0.00    -0.287 C  
BRANCH   3   4
HETATM    4  N   UNL     1      -8.896  12.979  66.289  1.00  0.00    -0.431 NA 
HETATM    5  H   UNL     1      -8.137  13.095  65.617  1.00  0.00     0.000 HD 
BRANCH   4   6
HETATM    6  C   UNL     1      -8.539  13.545  67.621  1.00  0.00    -0.185 C  
HETATM    7  C   UNL     1      -7.273  12.918  68.216  1.00  0.00    -0.112 C  
BRANCH   6   8
HETATM    8  C   UNL     1      -8.217  15.029  67.427  1.00  0.00    -0.194 C  
HETATM    9  O   UNL     1      -7.798  15.283  66.164  1.00  0.00    -0.012 OA 
HETATM   10  H   UNL     1      -7.598  16.204  66.043  1.00  0.00     0.000 HD 
BRANCH   8  11
HETATM   11  N   UNL     1      -8.322  15.888  68.386  1.00  0.00    -0.168 NA 
HETATM   12  H   UNL     1      -8.839  15.662  69.237  1.00  0.00     0.000 HD 
BRANCH  11  13
HETATM   13  C   UNL     1      -7.704  17.144  68.227  1.00  0.00    -0.220 A  
HETATM   14  C   UNL     1      -8.289  18.146  67.461  1.00  0.00    -0.237 A  
HETATM   15  C   UNL     1      -5.409  16.601  69.398  1.00  0.00    -0.140 C  
HETATM   16  S   UNL     1      -7.243  19.500  67.318  1.00  0.00    -0.215 SA 
HETATM   17  C   UNL     1      -6.028  18.751  68.240  1.00  0.00    -0.210 A  
HETATM   18  C   UNL     1      -6.362  17.471  68.643  1.00  0.00    -0.186 A  
BRANCH  14  19
HETATM   19  C   UNL     1      -9.563  18.223  66.772  1.00  0.00    -0.299 C  
HETATM   20  O   UNL     1     -10.054  17.342  66.069  1.00  0.00    -0.404 OA 
BRANCH  19  21
HETATM   21  O   UNL     1     -10.152  19.446  66.954  1.00  0.00    -0.335 OA 
HETATM   22  C   UNL     1     -10.814  19.943  65.791  1.00  0.00    -0.227 C  
ENDBRANCH  19  21
ENDBRANCH  14  19
ENDBRANCH  11  13
ENDBRANCH   8  11
ENDBRANCH   6   8
ENDBRANCH   4   6
ENDBRANCH   3   4
ENDBRANCH   2   3
TORSDOF 8
ENDMDL
MODEL      274
REMARK 921   NORMALIZED FREE ENERGY PREDICTED BY IDOCK:   -3.02 KCAL/MOL
REMARK 922        TOTAL FREE ENERGY PREDICTED BY IDOCK:   -5.14 KCAL/MOL
REMARK 923 INTER-LIGAND FREE ENERGY PREDICTED BY IDOCK:   -4.36 KCAL/MOL
REMARK 924 INTRA-LIGAND FREE ENERGY PREDICTED BY IDOCK:   -0.78 KCAL/MOL
REMARK 927      BINDING AFFINITY PREDICTED BY RF-SCORE:    0.00 PKD
ROOT
HETATM    1  C   UNL     1      -9.882  17.474  66.844  1.00  0.00    -0.302 C  
HETATM    2  C   UNL     1     -10.638  16.282  66.271  1.00  0.00    -0.256 C  
ENDROOT
BRANCH   2   3
HETATM    3  C   UNL     1     -11.284  15.469  67.395  1.00  0.00    -0.248 C  
BRANCH   3   4
HETATM    4  N   UNL     1     -10.269  14.910  68.300  1.00  0.00    -0.221 NA 
HETATM    5  H   UNL     1     -10.118  15.512  69.110  1.00  0.00     0.000 HD 
BRANCH   4   6
HETATM    6  C   UNL     1     -10.614  13.519  68.709  1.00  0.00    -0.218 C  
HETATM    7  C   UNL     1     -12.006  13.410  69.340  1.00  0.00    -0.369 C  
BRANCH   6   8
HETATM    8  C   UNL     1     -10.662  12.659  67.444  1.00  0.00    -0.229 C  
HETATM    9  O   UNL     1     -11.785  11.902  67.401  1.00  0.00    -0.503 OA 
HETATM   10  H   UNL     1     -11.815  11.368  66.616  1.00  0.00     0.000 HD 
BRANCH   8  11
HETATM   11  N   UNL     1      -9.712  12.668  66.568  1.00  0.00    -0.251 NA 
HETATM   12  H   UNL     1      -8.838  13.163  66.748  1.00  0.00     0.000 HD 
BRANCH  11  13
HETATM   13  C   UNL     1      -9.915  11.977  65.357  1.00  0.00    -0.253 A  
HETATM   14  C   UNL     1      -9.358  10.722  65.138  1.00  0.00    -0.217 A  
HETATM   15  C   UNL     1     -11.133  13.887  64.015  1.00  0.00     0.031 C  
HETATM   16  S   UNL     1      -9.640  10.195  63.529  1.00  0.00    -0.062 SA 
HETATM   17  C   UNL     1     -10.467  11.625  63.129  1.00  0.00    -0.311 A  
HETATM   18  C   UNL     1     -10.521  12.532  64.172  1.00  0.00    -0.429 A  
BRANCH  14  19
HETATM   19  C   UNL     1      -8.591   9.838  65.995  1.00  0.00    -0.135 C  
HETATM   20  O   UNL     1      -7.822  10.190  66.888  1.00  0.00    -0.105 OA 
BRANCH  19  21
HETATM   21  O   UNL     1      -8.782   8.526  65.652  1.00  0.00    -0.166 OA 
HETATM   22  C   UNL     1      -8.157   7.602  66.543  1.00  0.00    -0.119 C  
ENDBRANCH  19  21
ENDBRANCH  14  19
ENDBRANCH  11  13
ENDBRANCH   8  11
ENDBRANCH   6   8
ENDBRANCH   4   6
ENDBRANCH   3   4
ENDBRANCH   2   3
TORSDOF 8
ENDMDL
MODEL      275
REMARK 921   NORMALIZED FREE ENERGY PREDICTED BY IDOCK:   -3.00 KCAL/MOL
REMARK 922        TOTAL FREE ENERGY PREDICTED BY IDOCK:   -5.11 KCAL/MOL
REMARK 923 INTER-LIGAND FREE ENERGY PREDICTED BY IDOCK:   -4.14 KCAL/MOL
REMARK 924 INTRA-LIGAND FREE ENERGY PREDICTED BY IDOCK:   -0.97 KCAL/MOL
REMARK 927      BINDING AFFINITY PREDICTED BY RF-SCORE:    0.00 PKD
ROOT
HETATM    1  C   UNL     1      -7.350   4.664  70.214  1.00  0.00    -0.050 C  
HETATM    2  C   UNL     1      -8.534   5.135  69.379  1.00  0.00    -0.090 C  
ENDROOT
BRANCH   2   3
HETATM    3  C   UNL     1      -9.652   5.654  70.285  1.00  0.00    -0.168 C  
BRANCH   3   4
HETATM    4  N   UNL     1      -9.532   7.103  70.503  1.00  0.00    -0.162 NA 
HETATM    5  H   UNL     1      -9.092   7.565  69.707  1.00  0.00     0.000 HD 
BRANCH   4   6
HETATM    6  C   UNL     1     -10.853   7.714  70.828  1.00  0.00    -0.239 C  
HETATM    7  C   UNL     1     -10.995   8.072  72.312  1.00  0.00    -0.377 C  
BRANCH   6   8
HETATM    8  C   UNL     1     -10.954   9.039  70.068  1.00  0.00    -0.214 C  
HETATM    9  O   UNL     1     -11.735   9.929  70.727  1.00  0.00    -0.292 OA 
HETATM   10  H   UNL     1     -11.797  10.752  70.255  1.00  0.00     0.000 HD 
BRANCH   8  11
HETATM   11  N   UNL     1     -10.371   9.226  68.931  1.00  0.00    -0.210 NA 
HETATM   12  H   UNL     1     -10.548   8.602  68.143  1.00  0.00     0.000 HD 
BRANCH  11  13
HETATM   13  C   UNL     1      -9.486  10.316  68.807  1.00  0.00    -0.176 A  
HETATM   14  C   UNL     1      -9.896  11.521  68.247  1.00  0.00    -0.203 A  
HETATM   15  C   UNL     1      -7.269   9.104  69.546  1.00  0.00    -0.060 C  
HETATM   16  S   UNL     1      -8.574  12.604  68.082  1.00  0.00    -0.181 SA 
HETATM   17  C   UNL     1      -7.476  11.475  68.724  1.00  0.00    -0.119 A  
HETATM   18  C   UNL     1      -8.064  10.264  69.041  1.00  0.00    -0.132 A  
BRANCH  14  19
HETATM   19  C   UNL     1     -11.187  11.983  67.775  1.00  0.00    -0.271 C  
HETATM   20  O   UNL     1     -12.281  11.557  68.142  1.00  0.00    -0.576 OA 
BRANCH  19  21
HETATM   21  O   UNL     1     -11.048  12.939  66.805  1.00  0.00    -0.267 OA 
HETATM   22  C   UNL     1     -11.445  12.502  65.505  1.00  0.00    -0.350 C  
ENDBRANCH  19  21
ENDBRANCH  14  19
ENDBRANCH  11  13
ENDBRANCH   8  11
ENDBRANCH   6   8
ENDBRANCH   4   6
ENDBRANCH   3   4
ENDBRANCH   2   3
TORSDOF 8
ENDMDL
MODEL      276
REMARK 921   NORMALIZED FREE ENERGY PREDICTED BY IDOCK:   -2.99 KCAL/MOL
REMARK 922        TOTAL FREE ENERGY PREDICTED BY IDOCK:   -5.10 KCAL/MOL
REMARK 923 INTER-LIGAND FREE ENERGY PREDICTED BY IDOCK:   -4.12 KCAL/MOL
REMARK 924 INTRA-LIGAND FREE ENERGY PREDICTED BY IDOCK:   -0.98 KCAL/MOL
REMARK 927      BINDING AFFINITY PREDICTED BY RF-SCORE:    0.00 PKD
ROOT
HETATM    1  C   UNL     1      -8.133   1.477  63.935  1.00  0.00    -0.061 C  
HETATM    2  C   UNL     1      -8.313   2.858  64.553  1.00  0.00    -0.087 C  
ENDROOT
BRANCH   2   3
HETATM    3  C   UNL     1      -9.734   3.370  64.308  1.00  0.00    -0.166 C  
BRANCH   3   4
HETATM    4  N   UNL     1      -9.819   4.824  64.508  1.00  0.00    -0.362 NA 
HETATM    5  H   UNL     1     -10.635   5.077  65.067  1.00  0.00     0.000 HD 
BRANCH   4   6
HETATM    6  C   UNL     1      -8.562   5.365  65.098  1.00  0.00    -0.149 C  
HETATM    7  C   UNL     1      -7.953   6.499  64.266  1.00  0.00    -0.095 C  
BRANCH   6   8
HETATM    8  C   UNL     1      -8.911   5.985  66.453  1.00  0.00    -0.145 C  
HETATM    9  O   UNL     1      -7.861   5.930  67.308  1.00  0.00    -0.100 OA 
HETATM   10  H   UNL     1      -8.078   6.315  68.149  1.00  0.00     0.000 HD 
BRANCH   8  11
HETATM   11  N   UNL     1     -10.084   6.463  66.710  1.00  0.00    -0.218 NA 
HETATM   12  H   UNL     1     -10.923   6.024  66.330  1.00  0.00     0.000 HD 
BRANCH  11  13
HETATM   13  C   UNL     1     -10.173   7.605  67.530  1.00  0.00    -0.227 A  
HETATM   14  C   UNL     1     -10.601   7.517  68.850  1.00  0.00    -0.169 A  
HETATM   15  C   UNL     1      -9.684   9.437  65.703  1.00  0.00    -0.336 C  
HETATM   16  S   UNL     1     -10.759   9.076  69.551  1.00  0.00    -0.168 SA 
HETATM   17  C   UNL     1     -10.288   9.850  68.113  1.00  0.00    -0.195 A  
HETATM   18  C   UNL     1     -10.037   8.968  67.078  1.00  0.00    -0.318 A  
BRANCH  14  19
HETATM   19  C   UNL     1     -10.947   6.382  69.685  1.00  0.00    -0.358 C  
HETATM   20  O   UNL     1     -10.323   5.325  69.755  1.00  0.00    -0.270 OA 
BRANCH  19  21
HETATM   21  O   UNL     1     -12.113   6.606  70.368  1.00  0.00    -0.374 OA 
HETATM   22  C   UNL     1     -11.994   6.429  71.779  1.00  0.00    -0.316 C  
ENDBRANCH  19  21
ENDBRANCH  14  19
ENDBRANCH  11  13
ENDBRANCH   8  11
ENDBRANCH   6   8
ENDBRANCH   4   6
ENDBRANCH   3   4
ENDBRANCH   2   3
TORSDOF 8
ENDMDL
MODEL      277
REMARK 921   NORMALIZED FREE ENERGY PREDICTED BY IDOCK:   -2.99 KCAL/MOL
REMARK 922        TOTAL FREE ENERGY PREDICTED BY IDOCK:   -5.09 KCAL/MOL
REMARK 923 INTER-LIGAND FREE ENERGY PREDICTED BY IDOCK:   -4.12 KCAL/MOL
REMARK 924 INTRA-LIGAND FREE ENERGY PREDICTED BY IDOCK:   -0.97 KCAL/MOL
REMARK 927      BINDING AFFINITY PREDICTED BY RF-SCORE:    0.00 PKD
ROOT
HETATM    1  C   UNL     1      -8.370  14.155  67.742  1.00  0.00    -0.175 C  
HETATM    2  C   UNL     1      -9.335  14.295  66.571  1.00  0.00    -0.292 C  
ENDROOT
BRANCH   2   3
HETATM    3  C   UNL     1     -10.069  12.975  66.325  1.00  0.00    -0.282 C  
BRANCH   3   4
HETATM    4  N   UNL     1      -9.943  12.072  67.478  1.00  0.00    -0.191 NA 
HETATM    5  H   UNL     1     -10.716  12.192  68.133  1.00  0.00     0.000 HD 
BRANCH   4   6
HETATM    6  C   UNL     1      -9.810  10.652  67.043  1.00  0.00    -0.185 C  
HETATM    7  C   UNL     1      -8.356  10.238  66.792  1.00  0.00    -0.124 C  
BRANCH   6   8
HETATM    8  C   UNL     1     -10.304   9.765  68.188  1.00  0.00    -0.202 C  
HETATM    9  O   UNL     1     -11.435  10.261  68.746  1.00  0.00    -0.433 OA 
HETATM   10  H   UNL     1     -11.741   9.710  69.457  1.00  0.00     0.000 HD 
BRANCH   8  11
HETATM   11  N   UNL     1      -9.672   8.700  68.556  1.00  0.00    -0.159 NA 
HETATM   12  H   UNL     1      -9.363   8.011  67.870  1.00  0.00     0.000 HD 
BRANCH  11  13
HETATM   13  C   UNL     1      -9.421   8.515  69.930  1.00  0.00    -0.163 A  
HETATM   14  C   UNL     1     -10.306   7.810  70.738  1.00  0.00    -0.203 A  
HETATM   15  C   UNL     1      -7.313  10.075  70.156  1.00  0.00    -0.171 C  
HETATM   16  S   UNL     1      -9.824   7.880  72.385  1.00  0.00    -0.251 SA 
HETATM   17  C   UNL     1      -8.477   8.851  72.024  1.00  0.00     0.089 A  
HETATM   18  C   UNL     1      -8.378   9.168  70.682  1.00  0.00    -0.239 A  
BRANCH  14  19
HETATM   19  C   UNL     1     -11.525   7.083  70.440  1.00  0.00    -0.310 C  
HETATM   20  O   UNL     1     -11.851   6.646  69.338  1.00  0.00    -0.161 OA 
BRANCH  19  21
HETATM   21  O   UNL     1     -12.326   6.982  71.547  1.00  0.00    -0.339 OA 
HETATM   22  C   UNL     1     -13.352   7.972  71.607  1.00  0.00    -0.332 C  
ENDBRANCH  19  21
ENDBRANCH  14  19
ENDBRANCH  11  13
ENDBRANCH   8  11
ENDBRANCH   6   8
ENDBRANCH   4   6
ENDBRANCH   3   4
ENDBRANCH   2   3
TORSDOF 8
ENDMDL
MODEL      278
REMARK 921   NORMALIZED FREE ENERGY PREDICTED BY IDOCK:   -2.98 KCAL/MOL
REMARK 922        TOTAL FREE ENERGY PREDICTED BY IDOCK:   -5.08 KCAL/MOL
REMARK 923 INTER-LIGAND FREE ENERGY PREDICTED BY IDOCK:   -4.09 KCAL/MOL
REMARK 924 INTRA-LIGAND FREE ENERGY PREDICTED BY IDOCK:   -0.99 KCAL/MOL
REMARK 927      BINDING AFFINITY PREDICTED BY RF-SCORE:    0.00 PKD
ROOT
HETATM    1  C   UNL     1      -8.306   7.216  66.903  1.00  0.00    -0.118 C  
HETATM    2  C   UNL     1      -7.128   8.116  67.253  1.00  0.00    -0.079 C  
ENDROOT
BRANCH   2   3
HETATM    3  C   UNL     1      -6.392   8.548  65.983  1.00  0.00    -0.053 C  
BRANCH   3   4
HETATM    4  N   UNL     1      -6.709   9.938  65.628  1.00  0.00    -0.092 NA 
HETATM    5  H   UNL     1      -7.618  10.009  65.168  1.00  0.00     0.000 HD 
BRANCH   4   6
HETATM    6  C   UNL     1      -6.628  10.834  66.818  1.00  0.00    -0.105 C  
HETATM    7  C   UNL     1      -5.418  11.774  66.775  1.00  0.00    -0.099 C  
BRANCH   6   8
HETATM    8  C   UNL     1      -7.861  11.741  66.804  1.00  0.00    -0.103 C  
HETATM    9  O   UNL     1      -7.613  12.924  67.417  1.00  0.00    -0.157 OA 
HETATM   10  H   UNL     1      -8.378  13.487  67.409  1.00  0.00     0.000 HD 
BRANCH   8  11
HETATM   11  N   UNL     1      -8.984  11.370  66.284  1.00  0.00    -0.197 NA 
HETATM   12  H   UNL     1      -9.006  10.739  65.482  1.00  0.00     0.000 HD 
BRANCH  11  13
HETATM   13  C   UNL     1     -10.176  11.859  66.853  1.00  0.00    -0.208 A  
HETATM   14  C   UNL     1     -10.873  12.915  66.277  1.00  0.00    -0.275 A  
HETATM   15  C   UNL     1     -10.147  10.461  69.084  1.00  0.00    -0.236 C  
HETATM   16  S   UNL     1     -12.191  13.395  67.266  1.00  0.00    -0.131 SA 
HETATM   17  C   UNL     1     -11.822  12.231  68.448  1.00  0.00    -0.304 A  
HETATM   18  C   UNL     1     -10.696  11.487  68.146  1.00  0.00    -0.242 A  
BRANCH  14  19
HETATM   19  C   UNL     1     -10.664  13.662  65.051  1.00  0.00    -0.367 C  
HETATM   20  O   UNL     1     -10.462  14.873  64.972  1.00  0.00    -0.393 OA 
BRANCH  19  21
HETATM   21  O   UNL     1     -10.774  12.853  63.952  1.00  0.00    -0.406 OA 
HETATM   22  C   UNL     1     -12.068  12.873  63.350  1.00  0.00    -0.530 C  
ENDBRANCH  19  21
ENDBRANCH  14  19
ENDBRANCH  11  13
ENDBRANCH   8  11
ENDBRANCH   6   8
ENDBRANCH   4   6
ENDBRANCH   3   4
ENDBRANCH   2   3
TORSDOF 8
ENDMDL
MODEL      279
REMARK 921   NORMALIZED FREE ENERGY PREDICTED BY IDOCK:   -2.93 KCAL/MOL
REMARK 922        TOTAL FREE ENERGY PREDICTED BY IDOCK:   -5.01 KCAL/MOL
REMARK 923 INTER-LIGAND FREE ENERGY PREDICTED BY IDOCK:   -4.30 KCAL/MOL
REMARK 924 INTRA-LIGAND FREE ENERGY PREDICTED BY IDOCK:   -0.72 KCAL/MOL
REMARK 927      BINDING AFFINITY PREDICTED BY RF-SCORE:    0.00 PKD
ROOT
HETATM    1  C   UNL     1      -9.627  14.232  68.587  1.00  0.00    -0.192 C  
HETATM    2  C   UNL     1      -8.480  13.419  67.999  1.00  0.00    -0.173 C  
ENDROOT
BRANCH   2   3
HETATM    3  C   UNL     1      -8.962  12.612  66.792  1.00  0.00    -0.197 C  
BRANCH   3   4
HETATM    4  N   UNL     1     -10.427  12.654  66.673  1.00  0.00    -0.243 NA 
HETATM    5  H   UNL     1     -10.723  13.256  65.904  1.00  0.00     0.000 HD 
BRANCH   4   6
HETATM    6  C   UNL     1     -11.000  11.283  66.546  1.00  0.00    -0.245 C  
HETATM    7  C   UNL     1     -10.032  10.290  65.895  1.00  0.00    -0.321 C  
BRANCH   6   8
HETATM    8  C   UNL     1     -11.256  10.751  67.958  1.00  0.00    -0.307 C  
HETATM    9  O   UNL     1     -11.813  11.698  68.751  1.00  0.00    -0.309 OA 
HETATM   10  H   UNL     1     -11.972  11.368  69.627  1.00  0.00     0.000 HD 
BRANCH   8  11
HETATM   11  N   UNL     1     -10.938   9.549  68.310  1.00  0.00    -0.469 NA 
HETATM   12  H   UNL     1     -11.063   8.766  67.668  1.00  0.00     0.000 HD 
BRANCH  11  13
HETATM   13  C   UNL     1     -10.414   9.349  69.602  1.00  0.00    -0.223 A  
HETATM   14  C   UNL     1      -9.077   9.023  69.798  1.00  0.00    -0.159 A  
HETATM   15  C   UNL     1     -12.668   9.454  70.959  1.00  0.00    -0.270 C  
HETATM   16  S   UNL     1      -8.761   8.687  71.452  1.00  0.00    -0.216 SA 
HETATM   17  C   UNL     1     -10.382   8.950  71.889  1.00  0.00    -0.337 A  
HETATM   18  C   UNL     1     -11.193   9.260  70.812  1.00  0.00    -0.351 A  
BRANCH  14  19
HETATM   19  C   UNL     1      -7.963   8.896  68.877  1.00  0.00    -0.104 C  
HETATM   20  O   UNL     1      -8.041   8.560  67.697  1.00  0.00    -0.106 OA 
BRANCH  19  21
HETATM   21  O   UNL     1      -6.771   9.149  69.502  1.00  0.00    -0.046 OA 
HETATM   22  C   UNL     1      -5.760   8.181  69.223  1.00  0.00    -0.031 C  
ENDBRANCH  19  21
ENDBRANCH  14  19
ENDBRANCH  11  13
ENDBRANCH   8  11
ENDBRANCH   6   8
ENDBRANCH   4   6
ENDBRANCH   3   4
ENDBRANCH   2   3
TORSDOF 8
ENDMDL
MODEL      280
REMARK 921   NORMALIZED FREE ENERGY PREDICTED BY IDOCK:   -2.92 KCAL/MOL
REMARK 922        TOTAL FREE ENERGY PREDICTED BY IDOCK:   -4.99 KCAL/MOL
REMARK 923 INTER-LIGAND FREE ENERGY PREDICTED BY IDOCK:   -3.87 KCAL/MOL
REMARK 924 INTRA-LIGAND FREE ENERGY PREDICTED BY IDOCK:   -1.12 KCAL/MOL
REMARK 927      BINDING AFFINITY PREDICTED BY RF-SCORE:    0.00 PKD
ROOT
HETATM    1  C   UNL     1      -8.621  14.344  67.360  1.00  0.00    -0.213 C  
HETATM    2  C   UNL     1      -9.959  13.619  67.443  1.00  0.00    -0.234 C  
ENDROOT
BRANCH   2   3
HETATM    3  C   UNL     1      -9.759  12.111  67.276  1.00  0.00    -0.191 C  
BRANCH   3   4
HETATM    4  N   UNL     1      -9.082  11.801  66.009  1.00  0.00    -0.327 NA 
HETATM    5  H   UNL     1      -8.717  12.644  65.563  1.00  0.00     0.000 HD 
BRANCH   4   6
HETATM    6  C   UNL     1      -8.014  10.778  66.200  1.00  0.00    -0.157 C  
HETATM    7  C   UNL     1      -7.322  10.886  67.563  1.00  0.00    -0.096 C  
BRANCH   6   8
HETATM    8  C   UNL     1      -8.678   9.400  66.179  1.00  0.00    -0.147 C  
HETATM    9  O   UNL     1      -9.612   9.315  65.200  1.00  0.00    -0.446 OA 
HETATM   10  H   UNL     1     -10.024   8.459  65.187  1.00  0.00     0.000 HD 
BRANCH   8  11
HETATM   11  N   UNL     1      -8.372   8.474  67.026  1.00  0.00    -0.110 NA 
HETATM   12  H   UNL     1      -7.425   8.398  67.400  1.00  0.00     0.000 HD 
BRANCH  11  13
HETATM   13  C   UNL     1      -9.379   7.571  67.421  1.00  0.00    -0.140 A  
HETATM   14  C   UNL     1     -10.118   7.774  68.581  1.00  0.00    -0.199 A  
HETATM   15  C   UNL     1      -8.951   5.696  65.623  1.00  0.00    -0.139 C  
HETATM   16  S   UNL     1     -11.157   6.442  68.890  1.00  0.00    -0.307 SA 
HETATM   17  C   UNL     1     -10.612   5.606  67.514  1.00  0.00    -0.221 A  
HETATM   18  C   UNL     1      -9.627   6.284  66.820  1.00  0.00    -0.183 A  
BRANCH  14  19
HETATM   19  C   UNL     1     -10.135   8.859  69.544  1.00  0.00    -0.198 C  
HETATM   20  O   UNL     1     -11.065   9.641  69.729  1.00  0.00    -0.238 OA 
BRANCH  19  21
HETATM   21  O   UNL     1      -8.941   8.951  70.209  1.00  0.00    -0.156 OA 
HETATM   22  C   UNL     1      -8.943   8.313  71.486  1.00  0.00    -0.173 C  
ENDBRANCH  19  21
ENDBRANCH  14  19
ENDBRANCH  11  13
ENDBRANCH   8  11
ENDBRANCH   6   8
ENDBRANCH   4   6
ENDBRANCH   3   4
ENDBRANCH   2   3
TORSDOF 8
ENDMDL
MODEL      281
REMARK 921   NORMALIZED FREE ENERGY PREDICTED BY IDOCK:   -2.91 KCAL/MOL
REMARK 922        TOTAL FREE ENERGY PREDICTED BY IDOCK:   -4.99 KCAL/MOL
REMARK 923 INTER-LIGAND FREE ENERGY PREDICTED BY IDOCK:   -4.00 KCAL/MOL
REMARK 924 INTRA-LIGAND FREE ENERGY PREDICTED BY IDOCK:   -0.99 KCAL/MOL
REMARK 927      BINDING AFFINITY PREDICTED BY RF-SCORE:    0.00 PKD
ROOT
HETATM    1  C   UNL     1      -6.375   4.095  64.857  1.00  0.00    -0.034 C  
HETATM    2  C   UNL     1      -6.869   3.216  65.999  1.00  0.00    -0.052 C  
ENDROOT
BRANCH   2   3
HETATM    3  C   UNL     1      -8.398   3.164  66.009  1.00  0.00    -0.101 C  
BRANCH   3   4
HETATM    4  N   UNL     1      -8.977   4.515  66.027  1.00  0.00    -0.119 NA 
HETATM    5  H   UNL     1      -9.369   4.766  65.119  1.00  0.00     0.000 HD 
BRANCH   4   6
HETATM    6  C   UNL     1      -9.985   4.660  67.117  1.00  0.00    -0.177 C  
HETATM    7  C   UNL     1      -9.449   4.228  68.486  1.00  0.00    -0.216 C  
BRANCH   6   8
HETATM    8  C   UNL     1     -10.318   6.147  67.250  1.00  0.00    -0.219 C  
HETATM    9  O   UNL     1     -11.484   6.451  66.631  1.00  0.00    -0.700 OA 
HETATM   10  H   UNL     1     -11.692   7.374  66.713  1.00  0.00     0.000 HD 
BRANCH   8  11
HETATM   11  N   UNL     1      -9.540   6.976  67.864  1.00  0.00    -0.124 NA 
HETATM   12  H   UNL     1      -8.528   6.844  67.859  1.00  0.00     0.000 HD 
BRANCH  11  13
HETATM   13  C   UNL     1     -10.124   8.065  68.539  1.00  0.00    -0.199 A  
HETATM   14  C   UNL     1      -9.926   9.373  68.111  1.00  0.00    -0.175 A  
HETATM   15  C   UNL     1     -11.099   6.763  70.610  1.00  0.00    -0.338 C  
HETATM   16  S   UNL     1     -10.624  10.493  69.210  1.00  0.00    -0.251 SA 
HETATM   17  C   UNL     1     -11.157   9.254  70.245  1.00  0.00    -0.251 A  
HETATM   18  C   UNL     1     -10.799   7.991  69.812  1.00  0.00    -0.194 A  
BRANCH  14  19
HETATM   19  C   UNL     1      -9.237   9.923  66.960  1.00  0.00    -0.142 C  
HETATM   20  O   UNL     1      -8.366  10.791  66.991  1.00  0.00    -0.124 OA 
BRANCH  19  21
HETATM   21  O   UNL     1      -9.716   9.391  65.793  1.00  0.00    -0.267 OA 
HETATM   22  C   UNL     1     -10.072  10.372  64.818  1.00  0.00    -0.317 C  
ENDBRANCH  19  21
ENDBRANCH  14  19
ENDBRANCH  11  13
ENDBRANCH   8  11
ENDBRANCH   6   8
ENDBRANCH   4   6
ENDBRANCH   3   4
ENDBRANCH   2   3
TORSDOF 8
ENDMDL
MODEL      282
REMARK 921   NORMALIZED FREE ENERGY PREDICTED BY IDOCK:   -2.91 KCAL/MOL
REMARK 922        TOTAL FREE ENERGY PREDICTED BY IDOCK:   -4.98 KCAL/MOL
REMARK 923 INTER-LIGAND FREE ENERGY PREDICTED BY IDOCK:   -3.95 KCAL/MOL
REMARK 924 INTRA-LIGAND FREE ENERGY PREDICTED BY IDOCK:   -1.04 KCAL/MOL
REMARK 927      BINDING AFFINITY PREDICTED BY RF-SCORE:    0.00 PKD
ROOT
HETATM    1  C   UNL     1     -10.815   5.521  73.241  1.00  0.00    -0.337 C  
HETATM    2  C   UNL     1     -11.887   5.682  72.170  1.00  0.00    -0.077 C  
ENDROOT
BRANCH   2   3
HETATM    3  C   UNL     1     -11.563   6.874  71.267  1.00  0.00    -0.310 C  
BRANCH   3   4
HETATM    4  N   UNL     1     -11.418   6.457  69.865  1.00  0.00    -0.476 NA 
HETATM    5  H   UNL     1     -12.027   6.997  69.249  1.00  0.00     0.000 HD 
BRANCH   4   6
HETATM    6  C   UNL     1      -9.995   6.526  69.423  1.00  0.00    -0.158 C  
HETATM    7  C   UNL     1      -9.300   5.160  69.437  1.00  0.00    -0.176 C  
BRANCH   6   8
HETATM    8  C   UNL     1      -9.982   6.984  67.963  1.00  0.00    -0.154 C  
HETATM    9  O   UNL     1      -9.258   6.143  67.186  1.00  0.00    -0.116 OA 
HETATM   10  H   UNL     1      -9.249   6.428  66.279  1.00  0.00     0.000 HD 
BRANCH   8  11
HETATM   11  N   UNL     1     -10.580   8.062  67.573  1.00  0.00    -0.420 NA 
HETATM   12  H   UNL     1     -11.548   8.036  67.251  1.00  0.00     0.000 HD 
BRANCH  11  13
HETATM   13  C   UNL     1      -9.860   9.273  67.607  1.00  0.00    -0.176 A  
HETATM   14  C   UNL     1      -9.033   9.652  66.555  1.00  0.00    -0.147 A  
HETATM   15  C   UNL     1     -10.398   9.979  70.086  1.00  0.00    -0.321 C  
HETATM   16  S   UNL     1      -8.169  11.085  66.938  1.00  0.00    -0.146 SA 
HETATM   17  C   UNL     1      -8.870  11.181  68.484  1.00  0.00    -0.161 A  
HETATM   18  C   UNL     1      -9.732  10.134  68.756  1.00  0.00    -0.174 A  
BRANCH  14  19
HETATM   19  C   UNL     1      -8.770   9.051  65.262  1.00  0.00    -0.193 C  
HETATM   20  O   UNL     1      -8.901   7.860  64.982  1.00  0.00     0.020 OA 
BRANCH  19  21
HETATM   21  O   UNL     1      -8.291   9.976  64.373  1.00  0.00    -0.150 OA 
HETATM   22  C   UNL     1      -9.044  10.052  63.162  1.00  0.00    -0.273 C  
ENDBRANCH  19  21
ENDBRANCH  14  19
ENDBRANCH  11  13
ENDBRANCH   8  11
ENDBRANCH   6   8
ENDBRANCH   4   6
ENDBRANCH   3   4
ENDBRANCH   2   3
TORSDOF 8
ENDMDL
MODEL      283
REMARK 921   NORMALIZED FREE ENERGY PREDICTED BY IDOCK:   -2.89 KCAL/MOL
REMARK 922        TOTAL FREE ENERGY PREDICTED BY IDOCK:   -4.95 KCAL/MOL
REMARK 923 INTER-LIGAND FREE ENERGY PREDICTED BY IDOCK:   -3.89 KCAL/MOL
REMARK 924 INTRA-LIGAND FREE ENERGY PREDICTED BY IDOCK:   -1.06 KCAL/MOL
REMARK 927      BINDING AFFINITY PREDICTED BY RF-SCORE:    0.00 PKD
ROOT
HETATM    1  C   UNL     1      -6.522   7.765  68.255  1.00  0.00    -0.057 C  
HETATM    2  C   UNL     1      -5.556   8.895  67.922  1.00  0.00    -0.035 C  
ENDROOT
BRANCH   2   3
HETATM    3  C   UNL     1      -5.760  10.070  68.881  1.00  0.00    -0.034 C  
BRANCH   3   4
HETATM    4  N   UNL     1      -5.854  11.343  68.153  1.00  0.00    -0.046 NA 
HETATM    5  H   UNL     1      -5.193  11.379  67.377  1.00  0.00     0.000 HD 
BRANCH   4   6
HETATM    6  C   UNL     1      -7.249  11.607  67.697  1.00  0.00    -0.107 C  
HETATM    7  C   UNL     1      -8.306  11.048  68.656  1.00  0.00    -0.153 C  
BRANCH   6   8
HETATM    8  C   UNL     1      -7.458  13.123  67.686  1.00  0.00    -0.164 C  
HETATM    9  O   UNL     1      -6.330  13.775  67.314  1.00  0.00    -0.410 OA 
HETATM   10  H   UNL     1      -6.459  14.717  67.307  1.00  0.00     0.000 HD 
BRANCH   8  11
HETATM   11  N   UNL     1      -8.580  13.666  68.023  1.00  0.00    -0.166 NA 
HETATM   12  H   UNL     1      -8.912  13.627  68.987  1.00  0.00     0.000 HD 
BRANCH  11  13
HETATM   13  C   UNL     1      -9.334  14.314  67.024  1.00  0.00    -0.241 A  
HETATM   14  C   UNL     1      -9.275  15.693  66.854  1.00  0.00    -0.236 A  
HETATM   15  C   UNL     1     -10.766  12.257  66.218  1.00  0.00    -0.293 C  
HETATM   16  S   UNL     1     -10.409  16.216  65.676  1.00  0.00    -0.366 SA 
HETATM   17  C   UNL     1     -10.980  14.636  65.419  1.00  0.00    -0.353 A  
HETATM   18  C   UNL     1     -10.363  13.697  66.225  1.00  0.00    -0.293 A  
BRANCH  14  19
HETATM   19  C   UNL     1      -8.474  16.717  67.496  1.00  0.00    -0.192 C  
HETATM   20  O   UNL     1      -8.855  17.477  68.385  1.00  0.00    -0.262 OA 
BRANCH  19  21
HETATM   21  O   UNL     1      -7.220  16.783  66.948  1.00  0.00    -0.176 OA 
HETATM   22  C   UNL     1      -7.019  17.920  66.108  1.00  0.00    -0.301 C  
ENDBRANCH  19  21
ENDBRANCH  14  19
ENDBRANCH  11  13
ENDBRANCH   8  11
ENDBRANCH   6   8
ENDBRANCH   4   6
ENDBRANCH   3   4
ENDBRANCH   2   3
TORSDOF 8
ENDMDL
MODEL      284
REMARK 921   NORMALIZED FREE ENERGY PREDICTED BY IDOCK:   -2.89 KCAL/MOL
REMARK 922        TOTAL FREE ENERGY PREDICTED BY IDOCK:   -4.95 KCAL/MOL
REMARK 923 INTER-LIGAND FREE ENERGY PREDICTED BY IDOCK:   -4.59 KCAL/MOL
REMARK 924 INTRA-LIGAND FREE ENERGY PREDICTED BY IDOCK:   -0.35 KCAL/MOL
REMARK 927      BINDING AFFINITY PREDICTED BY RF-SCORE:    0.00 PKD
ROOT
HETATM    1  C   UNL     1      -6.424   9.761  70.031  1.00  0.00    -0.074 C  
HETATM    2  C   UNL     1      -6.562   8.995  68.721  1.00  0.00    -0.053 C  
ENDROOT
BRANCH   2   3
HETATM    3  C   UNL     1      -8.034   8.891  68.318  1.00  0.00    -0.105 C  
BRANCH   3   4
HETATM    4  N   UNL     1      -8.176   8.385  66.945  1.00  0.00    -0.102 NA 
HETATM    5  H   UNL     1      -9.015   7.812  66.843  1.00  0.00     0.000 HD 
BRANCH   4   6
HETATM    6  C   UNL     1      -8.148   9.496  65.951  1.00  0.00    -0.115 C  
HETATM    7  C   UNL     1      -8.797   9.117  64.615  1.00  0.00    -0.183 C  
BRANCH   6   8
HETATM    8  C   UNL     1      -8.989  10.645  66.512  1.00  0.00    -0.156 C  
HETATM    9  O   UNL     1      -8.222  11.722  66.806  1.00  0.00    -0.167 OA 
HETATM   10  H   UNL     1      -8.744  12.436  67.155  1.00  0.00     0.000 HD 
BRANCH   8  11
HETATM   11  N   UNL     1     -10.265  10.543  66.689  1.00  0.00    -0.225 NA 
HETATM   12  H   UNL     1     -10.786   9.755  66.301  1.00  0.00     0.000 HD 
BRANCH  11  13
HETATM   13  C   UNL     1     -10.918  11.546  67.431  1.00  0.00    -0.265 A  
HETATM   14  C   UNL     1     -11.245  12.771  66.860  1.00  0.00    -0.296 A  
HETATM   15  C   UNL     1     -10.819  10.406  69.802  1.00  0.00    -0.342 C  
HETATM   16  S   UNL     1     -11.886  13.847  68.036  1.00  0.00    -0.363 SA 
HETATM   17  C   UNL     1     -11.706  12.705  69.282  1.00  0.00    -0.322 A  
HETATM   18  C   UNL     1     -11.138  11.519  68.856  1.00  0.00    -0.288 A  
BRANCH  14  19
HETATM   19  C   UNL     1     -11.115  13.278  65.508  1.00  0.00    -0.281 C  
HETATM   20  O   UNL     1     -10.130  13.852  65.047  1.00  0.00    -0.356 OA 
BRANCH  19  21
HETATM   21  O   UNL     1     -12.267  13.087  64.793  1.00  0.00    -0.387 OA 
HETATM   22  C   UNL     1     -12.058  12.967  63.386  1.00  0.00    -0.515 C  
ENDBRANCH  19  21
ENDBRANCH  14  19
ENDBRANCH  11  13
ENDBRANCH   8  11
ENDBRANCH   6   8
ENDBRANCH   4   6
ENDBRANCH   3   4
ENDBRANCH   2   3
TORSDOF 8
ENDMDL
MODEL      285
REMARK 921   NORMALIZED FREE ENERGY PREDICTED BY IDOCK:   -2.87 KCAL/MOL
REMARK 922        TOTAL FREE ENERGY PREDICTED BY IDOCK:   -4.92 KCAL/MOL
REMARK 923 INTER-LIGAND FREE ENERGY PREDICTED BY IDOCK:   -4.16 KCAL/MOL
REMARK 924 INTRA-LIGAND FREE ENERGY PREDICTED BY IDOCK:   -0.76 KCAL/MOL
REMARK 927      BINDING AFFINITY PREDICTED BY RF-SCORE:    0.00 PKD
ROOT
HETATM    1  C   UNL     1      -6.600   6.286  67.782  1.00  0.00    -0.062 C  
HETATM    2  C   UNL     1      -7.352   6.351  69.106  1.00  0.00    -0.093 C  
ENDROOT
BRANCH   2   3
HETATM    3  C   UNL     1      -8.093   7.684  69.232  1.00  0.00    -0.128 C  
BRANCH   3   4
HETATM    4  N   UNL     1      -9.151   7.804  68.219  1.00  0.00    -0.131 NA 
HETATM    5  H   UNL     1     -10.031   7.407  68.548  1.00  0.00     0.000 HD 
BRANCH   4   6
HETATM    6  C   UNL     1      -9.320   9.218  67.776  1.00  0.00    -0.128 C  
HETATM    7  C   UNL     1     -10.099   9.343  66.463  1.00  0.00    -0.332 C  
BRANCH   6   8
HETATM    8  C   UNL     1     -10.163   9.939  68.831  1.00  0.00    -0.196 C  
HETATM    9  O   UNL     1     -11.403   9.402  68.926  1.00  0.00    -0.448 OA 
HETATM   10  H   UNL     1     -11.927   9.849  69.580  1.00  0.00     0.000 HD 
BRANCH   8  11
HETATM   11  N   UNL     1      -9.713  10.947  69.502  1.00  0.00    -0.431 NA 
HETATM   12  H   UNL     1      -9.705  10.935  70.523  1.00  0.00     0.000 HD 
BRANCH  11  13
HETATM   13  C   UNL     1      -9.231  12.062  68.788  1.00  0.00     0.069 A  
HETATM   14  C   UNL     1     -10.071  12.822  67.981  1.00  0.00    -0.230 A  
HETATM   15  C   UNL     1      -6.663  11.766  69.286  1.00  0.00    -0.110 C  
HETATM   16  S   UNL     1      -9.184  14.012  67.118  1.00  0.00    -0.244 SA 
HETATM   17  C   UNL     1      -7.708  13.504  67.793  1.00  0.00    -0.163 A  
HETATM   18  C   UNL     1      -7.842  12.423  68.644  1.00  0.00    -0.049 A  
BRANCH  14  19
HETATM   19  C   UNL     1     -11.499  12.761  67.737  1.00  0.00    -0.326 C  
HETATM   20  O   UNL     1     -12.117  11.780  67.327  1.00  0.00    -0.595 OA 
BRANCH  19  21
HETATM   21  O   UNL     1     -12.095  13.972  67.970  1.00  0.00    -0.362 OA 
HETATM   22  C   UNL     1     -12.380  14.216  69.348  1.00  0.00    -0.205 C  
ENDBRANCH  19  21
ENDBRANCH  14  19
ENDBRANCH  11  13
ENDBRANCH   8  11
ENDBRANCH   6   8
ENDBRANCH   4   6
ENDBRANCH   3   4
ENDBRANCH   2   3
TORSDOF 8
ENDMDL
MODEL      286
REMARK 921   NORMALIZED FREE ENERGY PREDICTED BY IDOCK:   -2.87 KCAL/MOL
REMARK 922        TOTAL FREE ENERGY PREDICTED BY IDOCK:   -4.92 KCAL/MOL
REMARK 923 INTER-LIGAND FREE ENERGY PREDICTED BY IDOCK:   -4.12 KCAL/MOL
REMARK 924 INTRA-LIGAND FREE ENERGY PREDICTED BY IDOCK:   -0.80 KCAL/MOL
REMARK 927      BINDING AFFINITY PREDICTED BY RF-SCORE:    0.00 PKD
ROOT
HETATM    1  C   UNL     1     -13.086  10.610  70.979  1.00  0.00    -0.376 C  
HETATM    2  C   UNL     1     -12.335   9.913  72.107  1.00  0.00    -0.149 C  
ENDROOT
BRANCH   2   3
HETATM    3  C   UNL     1     -11.095   9.201  71.561  1.00  0.00    -0.365 C  
BRANCH   3   4
HETATM    4  N   UNL     1     -10.600   9.853  70.340  1.00  0.00    -0.291 NA 
HETATM    5  H   UNL     1      -9.953  10.611  70.558  1.00  0.00     0.000 HD 
BRANCH   4   6
HETATM    6  C   UNL     1      -9.989   8.864  69.406  1.00  0.00    -0.192 C  
HETATM    7  C   UNL     1     -10.458   7.428  69.667  1.00  0.00    -0.237 C  
BRANCH   6   8
HETATM    8  C   UNL     1     -10.461   9.205  67.991  1.00  0.00    -0.224 C  
HETATM    9  O   UNL     1     -11.106   8.160  67.418  1.00  0.00    -0.470 OA 
HETATM   10  H   UNL     1     -11.399   8.373  66.539  1.00  0.00     0.000 HD 
BRANCH   8  11
HETATM   11  N   UNL     1     -10.225  10.352  67.444  1.00  0.00    -0.202 NA 
HETATM   12  H   UNL     1     -10.363  11.218  67.965  1.00  0.00     0.000 HD 
BRANCH  11  13
HETATM   13  C   UNL     1      -9.773  10.374  66.110  1.00  0.00    -0.209 A  
HETATM   14  C   UNL     1      -8.512   9.900  65.766  1.00  0.00    -0.135 A  
HETATM   15  C   UNL     1     -11.755  11.743  65.048  1.00  0.00    -0.174 C  
HETATM   16  S   UNL     1      -8.175  10.197  64.108  1.00  0.00    -0.161 SA 
HETATM   17  C   UNL     1      -9.673  10.962  63.866  1.00  0.00    -0.303 A  
HETATM   18  C   UNL     1     -10.436  11.041  65.017  1.00  0.00    -0.344 A  
BRANCH  14  19
HETATM   19  C   UNL     1      -7.472   9.254  66.543  1.00  0.00    -0.093 C  
HETATM   20  O   UNL     1      -6.929   8.185  66.270  1.00  0.00    -0.061 OA 
BRANCH  19  21
HETATM   21  O   UNL     1      -7.190   9.963  67.681  1.00  0.00    -0.087 OA 
HETATM   22  C   UNL     1      -6.033  10.791  67.570  1.00  0.00    -0.044 C  
ENDBRANCH  19  21
ENDBRANCH  14  19
ENDBRANCH  11  13
ENDBRANCH   8  11
ENDBRANCH   6   8
ENDBRANCH   4   6
ENDBRANCH   3   4
ENDBRANCH   2   3
TORSDOF 8
ENDMDL
MODEL      287
REMARK 921   NORMALIZED FREE ENERGY PREDICTED BY IDOCK:   -2.86 KCAL/MOL
REMARK 922        TOTAL FREE ENERGY PREDICTED BY IDOCK:   -4.90 KCAL/MOL
REMARK 923 INTER-LIGAND FREE ENERGY PREDICTED BY IDOCK:   -4.59 KCAL/MOL
REMARK 924 INTRA-LIGAND FREE ENERGY PREDICTED BY IDOCK:   -0.32 KCAL/MOL
REMARK 927      BINDING AFFINITY PREDICTED BY RF-SCORE:    0.00 PKD
ROOT
HETATM    1  C   UNL     1      -6.227  16.293  67.605  1.00  0.00    -0.172 C  
HETATM    2  C   UNL     1      -6.843  15.458  68.721  1.00  0.00    -0.113 C  
ENDROOT
BRANCH   2   3
HETATM    3  C   UNL     1      -8.163  14.839  68.255  1.00  0.00    -0.142 C  
BRANCH   3   4
HETATM    4  N   UNL     1      -8.460  13.601  68.990  1.00  0.00    -0.340 NA 
HETATM    5  H   UNL     1      -9.408  13.609  69.367  1.00  0.00     0.000 HD 
BRANCH   4   6
HETATM    6  C   UNL     1      -8.217  12.397  68.145  1.00  0.00    -0.173 C  
HETATM    7  C   UNL     1      -6.944  11.638  68.540  1.00  0.00    -0.085 C  
BRANCH   6   8
HETATM    8  C   UNL     1      -9.372  11.421  68.380  1.00  0.00    -0.194 C  
HETATM    9  O   UNL     1      -8.932  10.143  68.465  1.00  0.00    -0.120 OA 
HETATM   10  H   UNL     1      -9.650   9.537  68.610  1.00  0.00     0.000 HD 
BRANCH   8  11
HETATM   11  N   UNL     1     -10.601  11.814  68.453  1.00  0.00    -0.208 NA 
HETATM   12  H   UNL     1     -11.149  11.663  69.300  1.00  0.00     0.000 HD 
BRANCH  11  13
HETATM   13  C   UNL     1     -11.164  12.456  67.332  1.00  0.00    -0.297 A  
HETATM   14  C   UNL     1     -10.945  11.985  66.042  1.00  0.00    -0.304 A  
HETATM   15  C   UNL     1     -12.152  14.571  68.549  1.00  0.00    -0.257 C  
HETATM   16  S   UNL     1     -11.618  13.049  64.876  1.00  0.00    -0.345 SA 
HETATM   17  C   UNL     1     -12.168  14.126  66.070  1.00  0.00    -0.443 A  
HETATM   18  C   UNL     1     -11.834  13.733  67.353  1.00  0.00    -0.431 A  
BRANCH  14  19
HETATM   19  C   UNL     1     -10.250  10.814  65.542  1.00  0.00    -0.266 C  
HETATM   20  O   UNL     1     -10.324   9.679  66.010  1.00  0.00    -0.218 OA 
BRANCH  19  21
HETATM   21  O   UNL     1      -9.435  11.134  64.488  1.00  0.00    -0.232 OA 
HETATM   22  C   UNL     1      -8.922   9.997  63.794  1.00  0.00    -0.247 C  
ENDBRANCH  19  21
ENDBRANCH  14  19
ENDBRANCH  11  13
ENDBRANCH   8  11
ENDBRANCH   6   8
ENDBRANCH   4   6
ENDBRANCH   3   4
ENDBRANCH   2   3
TORSDOF 8
ENDMDL
MODEL      288
REMARK 921   NORMALIZED FREE ENERGY PREDICTED BY IDOCK:   -2.84 KCAL/MOL
REMARK 922        TOTAL FREE ENERGY PREDICTED BY IDOCK:   -4.88 KCAL/MOL
REMARK 923 INTER-LIGAND FREE ENERGY PREDICTED BY IDOCK:   -3.73 KCAL/MOL
REMARK 924 INTRA-LIGAND FREE ENERGY PREDICTED BY IDOCK:   -1.15 KCAL/MOL
REMARK 927      BINDING AFFINITY PREDICTED BY RF-SCORE:    0.00 PKD
ROOT
HETATM    1  C   UNL     1      -6.047   7.358  71.915  1.00  0.00    -0.036 C  
HETATM    2  C   UNL     1      -7.250   8.074  71.315  1.00  0.00    -0.062 C  
ENDROOT
BRANCH   2   3
HETATM    3  C   UNL     1      -7.822   7.269  70.146  1.00  0.00    -0.100 C  
BRANCH   3   4
HETATM    4  N   UNL     1      -8.266   8.150  69.057  1.00  0.00    -0.125 NA 
HETATM    5  H   UNL     1      -7.564   8.214  68.319  1.00  0.00     0.000 HD 
BRANCH   4   6
HETATM    6  C   UNL     1      -9.589   7.723  68.518  1.00  0.00    -0.149 C  
HETATM    7  C   UNL     1     -10.769   8.315  69.296  1.00  0.00    -0.140 C  
BRANCH   6   8
HETATM    8  C   UNL     1      -9.712   8.272  67.094  1.00  0.00    -0.195 C  
HETATM    9  O   UNL     1     -10.514   7.492  66.330  1.00  0.00    -0.488 OA 
HETATM   10  H   UNL     1     -10.591   7.833  65.447  1.00  0.00     0.000 HD 
BRANCH   8  11
HETATM   11  N   UNL     1      -9.087   9.336  66.710  1.00  0.00    -0.137 NA 
HETATM   12  H   UNL     1      -8.189   9.593  67.121  1.00  0.00     0.000 HD 
BRANCH  11  13
HETATM   13  C   UNL     1      -9.679  10.131  65.708  1.00  0.00    -0.245 A  
HETATM   14  C   UNL     1      -9.235  10.082  64.391  1.00  0.00    -0.266 A  
HETATM   15  C   UNL     1     -11.246  11.589  67.240  1.00  0.00    -0.365 C  
HETATM   16  S   UNL     1     -10.029  11.265  63.431  1.00  0.00    -0.421 SA 
HETATM   17  C   UNL     1     -10.926  11.841  64.754  1.00  0.00    -0.303 A  
HETATM   18  C   UNL     1     -10.630  11.190  65.938  1.00  0.00    -0.294 A  
BRANCH  14  19
HETATM   19  C   UNL     1      -8.241   9.258  63.731  1.00  0.00    -0.166 C  
HETATM   20  O   UNL     1      -7.406   9.652  62.918  1.00  0.00    -0.103 OA 
BRANCH  19  21
HETATM   21  O   UNL     1      -8.374   7.942  64.084  1.00  0.00    -0.075 OA 
HETATM   22  C   UNL     1      -7.132   7.292  64.357  1.00  0.00    -0.062 C  
ENDBRANCH  19  21
ENDBRANCH  14  19
ENDBRANCH  11  13
ENDBRANCH   8  11
ENDBRANCH   6   8
ENDBRANCH   4   6
ENDBRANCH   3   4
ENDBRANCH   2   3
TORSDOF 8
ENDMDL
MODEL      289
REMARK 921   NORMALIZED FREE ENERGY PREDICTED BY IDOCK:   -2.81 KCAL/MOL
REMARK 922        TOTAL FREE ENERGY PREDICTED BY IDOCK:   -4.83 KCAL/MOL
REMARK 923 INTER-LIGAND FREE ENERGY PREDICTED BY IDOCK:   -3.51 KCAL/MOL
REMARK 924 INTRA-LIGAND FREE ENERGY PREDICTED BY IDOCK:   -1.31 KCAL/MOL
REMARK 927      BINDING AFFINITY PREDICTED BY RF-SCORE:    0.00 PKD
ROOT
HETATM    1  C   UNL     1     -10.562   4.989  66.142  1.00  0.00    -0.321 C  
HETATM    2  C   UNL     1     -10.881   6.278  66.890  1.00  0.00    -0.428 C  
ENDROOT
BRANCH   2   3
HETATM    3  C   UNL     1     -11.008   6.006  68.390  1.00  0.00    -0.251 C  
BRANCH   3   4
HETATM    4  N   UNL     1      -9.713   5.629  68.975  1.00  0.00    -0.133 NA 
HETATM    5  H   UNL     1      -9.290   6.408  69.480  1.00  0.00     0.000 HD 
BRANCH   4   6
HETATM    6  C   UNL     1      -9.839   4.421  69.840  1.00  0.00    -0.220 C  
HETATM    7  C   UNL     1      -9.310   3.149  69.169  1.00  0.00    -0.228 C  
BRANCH   6   8
HETATM    8  C   UNL     1      -8.961   4.637  71.075  1.00  0.00    -0.125 C  
HETATM    9  O   UNL     1      -9.262   3.754  72.057  1.00  0.00    -0.112 OA 
HETATM   10  H   UNL     1      -8.717   3.888  72.824  1.00  0.00     0.000 HD 
BRANCH   8  11
HETATM   11  N   UNL     1      -8.076   5.576  71.134  1.00  0.00    -0.110 NA 
HETATM   12  H   UNL     1      -7.516   5.820  70.317  1.00  0.00     0.000 HD 
BRANCH  11  13
HETATM   13  C   UNL     1      -7.903   6.253  72.358  1.00  0.00    -0.103 A  
HETATM   14  C   UNL     1      -8.754   7.285  72.739  1.00  0.00    -0.122 A  
HETATM   15  C   UNL     1      -5.613   5.176  73.082  1.00  0.00    -0.021 C  
HETATM   16  S   UNL     1      -8.212   8.024  74.191  1.00  0.00    -0.245 SA 
HETATM   17  C   UNL     1      -6.859   7.000  74.292  1.00  0.00    -0.085 A  
HETATM   18  C   UNL     1      -6.766   6.115  73.234  1.00  0.00    -0.075 A  
BRANCH  14  19
HETATM   19  C   UNL     1      -9.949   7.834  72.128  1.00  0.00    -0.193 C  
HETATM   20  O   UNL     1     -11.044   7.958  72.675  1.00  0.00    -0.329 OA 
BRANCH  19  21
HETATM   21  O   UNL     1      -9.731   8.160  70.816  1.00  0.00    -0.168 OA 
HETATM   22  C   UNL     1      -8.944   9.338  70.640  1.00  0.00    -0.243 C  
ENDBRANCH  19  21
ENDBRANCH  14  19
ENDBRANCH  11  13
ENDBRANCH   8  11
ENDBRANCH   6   8
ENDBRANCH   4   6
ENDBRANCH   3   4
ENDBRANCH   2   3
TORSDOF 8
ENDMDL
MODEL      290
REMARK 921   NORMALIZED FREE ENERGY PREDICTED BY IDOCK:   -2.80 KCAL/MOL
REMARK 922        TOTAL FREE ENERGY PREDICTED BY IDOCK:   -4.82 KCAL/MOL
REMARK 923 INTER-LIGAND FREE ENERGY PREDICTED BY IDOCK:   -4.20 KCAL/MOL
REMARK 924 INTRA-LIGAND FREE ENERGY PREDICTED BY IDOCK:   -0.63 KCAL/MOL
REMARK 927      BINDING AFFINITY PREDICTED BY RF-SCORE:    0.00 PKD
ROOT
HETATM    1  C   UNL     1      -9.425   6.964  70.903  1.00  0.00    -0.157 C  
HETATM    2  C   UNL     1      -8.517   7.284  69.722  1.00  0.00    -0.136 C  
ENDROOT
BRANCH   2   3
HETATM    3  C   UNL     1      -9.351   7.609  68.481  1.00  0.00    -0.147 C  
BRANCH   3   4
HETATM    4  N   UNL     1      -8.631   8.514  67.575  1.00  0.00    -0.128 NA 
HETATM    5  H   UNL     1      -9.214   8.796  66.787  1.00  0.00     0.000 HD 
BRANCH   4   6
HETATM    6  C   UNL     1      -8.090   9.696  68.305  1.00  0.00    -0.105 C  
HETATM    7  C   UNL     1      -6.727  10.154  67.774  1.00  0.00    -0.071 C  
BRANCH   6   8
HETATM    8  C   UNL     1      -9.045  10.869  68.068  1.00  0.00    -0.152 C  
HETATM    9  O   UNL     1      -8.454  12.054  68.352  1.00  0.00    -0.163 OA 
HETATM   10  H   UNL     1      -9.047  12.782  68.204  1.00  0.00     0.000 HD 
BRANCH   8  11
HETATM   11  N   UNL     1     -10.262  10.696  67.671  1.00  0.00    -0.186 NA 
HETATM   12  H   UNL     1     -10.793   9.871  67.953  1.00  0.00     0.000 HD 
BRANCH  11  13
HETATM   13  C   UNL     1     -10.838  11.677  66.840  1.00  0.00    -0.278 A  
HETATM   14  C   UNL     1     -10.598  11.696  65.471  1.00  0.00    -0.279 A  
HETATM   15  C   UNL     1     -11.896  13.201  68.708  1.00  0.00    -0.361 C  
HETATM   16  S   UNL     1     -11.297  13.085  64.743  1.00  0.00    -0.334 SA 
HETATM   17  C   UNL     1     -11.886  13.657  66.231  1.00  0.00    -0.392 A  
HETATM   18  C   UNL     1     -11.547  12.846  67.298  1.00  0.00    -0.416 A  
BRANCH  14  19
HETATM   19  C   UNL     1      -9.866  10.796  64.601  1.00  0.00    -0.307 C  
HETATM   20  O   UNL     1      -9.418  11.075  63.490  1.00  0.00    -0.240 OA 
BRANCH  19  21
HETATM   21  O   UNL     1      -9.772   9.544  65.148  1.00  0.00    -0.277 OA 
HETATM   22  C   UNL     1      -8.702   8.763  64.616  1.00  0.00    -0.068 C  
ENDBRANCH  19  21
ENDBRANCH  14  19
ENDBRANCH  11  13
ENDBRANCH   8  11
ENDBRANCH   6   8
ENDBRANCH   4   6
ENDBRANCH   3   4
ENDBRANCH   2   3
TORSDOF 8
ENDMDL
MODEL      291
REMARK 921   NORMALIZED FREE ENERGY PREDICTED BY IDOCK:   -2.78 KCAL/MOL
REMARK 922        TOTAL FREE ENERGY PREDICTED BY IDOCK:   -4.79 KCAL/MOL
REMARK 923 INTER-LIGAND FREE ENERGY PREDICTED BY IDOCK:   -3.98 KCAL/MOL
REMARK 924 INTRA-LIGAND FREE ENERGY PREDICTED BY IDOCK:   -0.82 KCAL/MOL
REMARK 927      BINDING AFFINITY PREDICTED BY RF-SCORE:    0.00 PKD
ROOT
HETATM    1  C   UNL     1      -8.280   3.278  68.446  1.00  0.00    -0.085 C  
HETATM    2  C   UNL     1      -7.792   4.610  69.003  1.00  0.00    -0.071 C  
ENDROOT
BRANCH   2   3
HETATM    3  C   UNL     1      -7.375   5.542  67.864  1.00  0.00    -0.073 C  
BRANCH   3   4
HETATM    4  N   UNL     1      -7.344   6.944  68.306  1.00  0.00    -0.094 NA 
HETATM    5  H   UNL     1      -6.463   7.395  68.055  1.00  0.00     0.000 HD 
BRANCH   4   6
HETATM    6  C   UNL     1      -8.516   7.703  67.784  1.00  0.00    -0.122 C  
HETATM    7  C   UNL     1      -8.978   7.215  66.407  1.00  0.00    -0.178 C  
BRANCH   6   8
HETATM    8  C   UNL     1      -9.692   7.455  68.730  1.00  0.00    -0.149 C  
HETATM    9  O   UNL     1     -10.694   6.786  68.110  1.00  0.00    -0.212 OA 
HETATM   10  H   UNL     1     -11.425   6.631  68.698  1.00  0.00     0.000 HD 
BRANCH   8  11
HETATM   11  N   UNL     1      -9.694   7.874  69.952  1.00  0.00    -0.175 NA 
HETATM   12  H   UNL     1      -8.819   8.023  70.456  1.00  0.00     0.000 HD 
BRANCH  11  13
HETATM   13  C   UNL     1     -10.935   8.120  70.572  1.00  0.00    -0.243 A  
HETATM   14  C   UNL     1     -11.634   9.301  70.348  1.00  0.00    -0.173 A  
HETATM   15  C   UNL     1     -10.989   6.037  72.181  1.00  0.00    -0.314 C  
HETATM   16  S   UNL     1     -13.026   9.392  71.349  1.00  0.00    -0.334 SA 
HETATM   17  C   UNL     1     -12.686   7.895  72.080  1.00  0.00    -0.279 A  
HETATM   18  C   UNL     1     -11.518   7.317  71.619  1.00  0.00    -0.297 A  
BRANCH  14  19
HETATM   19  C   UNL     1     -11.379  10.429  69.473  1.00  0.00    -0.265 C  
HETATM   20  O   UNL     1     -12.234  11.104  68.902  1.00  0.00    -0.522 OA 
BRANCH  19  21
HETATM   21  O   UNL     1     -10.035  10.632  69.303  1.00  0.00    -0.218 OA 
HETATM   22  C   UNL     1      -9.681  11.072  67.992  1.00  0.00    -0.172 C  
ENDBRANCH  19  21
ENDBRANCH  14  19
ENDBRANCH  11  13
ENDBRANCH   8  11
ENDBRANCH   6   8
ENDBRANCH   4   6
ENDBRANCH   3   4
ENDBRANCH   2   3
TORSDOF 8
ENDMDL
MODEL      292
REMARK 921   NORMALIZED FREE ENERGY PREDICTED BY IDOCK:   -2.71 KCAL/MOL
REMARK 922        TOTAL FREE ENERGY PREDICTED BY IDOCK:   -4.69 KCAL/MOL
REMARK 923 INTER-LIGAND FREE ENERGY PREDICTED BY IDOCK:   -3.80 KCAL/MOL
REMARK 924 INTRA-LIGAND FREE ENERGY PREDICTED BY IDOCK:   -0.89 KCAL/MOL
REMARK 927      BINDING AFFINITY PREDICTED BY RF-SCORE:    0.00 PKD
ROOT
HETATM    1  C   UNL     1     -10.742   9.575  67.646  1.00  0.00    -0.314 C  
HETATM    2  C   UNL     1     -10.095   8.843  66.478  1.00  0.00    -0.356 C  
ENDROOT
BRANCH   2   3
HETATM    3  C   UNL     1     -10.027   7.341  66.763  1.00  0.00    -0.217 C  
BRANCH   3   4
HETATM    4  N   UNL     1     -10.241   7.058  68.189  1.00  0.00    -0.173 NA 
HETATM    5  H   UNL     1     -11.232   6.935  68.400  1.00  0.00     0.000 HD 
BRANCH   4   6
HETATM    6  C   UNL     1      -9.437   5.886  68.637  1.00  0.00    -0.122 C  
HETATM    7  C   UNL     1      -8.715   5.181  67.484  1.00  0.00    -0.103 C  
BRANCH   6   8
HETATM    8  C   UNL     1      -8.334   6.403  69.564  1.00  0.00    -0.126 C  
HETATM    9  O   UNL     1      -7.270   6.861  68.861  1.00  0.00    -0.085 OA 
HETATM   10  H   UNL     1      -6.586   7.182  69.437  1.00  0.00     0.000 HD 
BRANCH   8  11
HETATM   11  N   UNL     1      -8.441   6.363  70.851  1.00  0.00    -0.130 NA 
HETATM   12  H   UNL     1      -7.815   5.783  71.411  1.00  0.00     0.000 HD 
BRANCH  11  13
HETATM   13  C   UNL     1      -9.445   7.141  71.462  1.00  0.00    -0.157 A  
HETATM   14  C   UNL     1     -10.499   6.551  72.151  1.00  0.00    -0.205 A  
HETATM   15  C   UNL     1      -8.733   9.498  70.531  1.00  0.00    -0.247 C  
HETATM   16  S   UNL     1     -11.644   7.729  72.650  1.00  0.00    -0.305 SA 
HETATM   17  C   UNL     1     -10.760   8.994  71.938  1.00  0.00    -0.331 A  
HETATM   18  C   UNL     1      -9.617   8.562  71.290  1.00  0.00    -0.264 A  
BRANCH  14  19
HETATM   19  C   UNL     1     -10.792   5.169  72.478  1.00  0.00    -0.223 C  
HETATM   20  O   UNL     1     -11.149   4.750  73.578  1.00  0.00    -0.300 OA 
BRANCH  19  21
HETATM   21  O   UNL     1     -10.568   4.347  71.406  1.00  0.00     0.013 OA 
HETATM   22  C   UNL     1      -9.904   3.129  71.744  1.00  0.00    -0.159 C  
ENDBRANCH  19  21
ENDBRANCH  14  19
ENDBRANCH  11  13
ENDBRANCH   8  11
ENDBRANCH   6   8
ENDBRANCH   4   6
ENDBRANCH   3   4
ENDBRANCH   2   3
TORSDOF 8
ENDMDL
MODEL      293
REMARK 921   NORMALIZED FREE ENERGY PREDICTED BY IDOCK:   -2.67 KCAL/MOL
REMARK 922        TOTAL FREE ENERGY PREDICTED BY IDOCK:   -4.63 KCAL/MOL
REMARK 923 INTER-LIGAND FREE ENERGY PREDICTED BY IDOCK:   -4.39 KCAL/MOL
REMARK 924 INTRA-LIGAND FREE ENERGY PREDICTED BY IDOCK:   -0.24 KCAL/MOL
REMARK 927      BINDING AFFINITY PREDICTED BY RF-SCORE:    0.00 PKD
ROOT
HETATM    1  C   UNL     1     -12.016  11.791  63.698  1.00  0.00    -0.490 C  
HETATM    2  C   UNL     1     -11.840  12.603  64.976  1.00  0.00    -0.439 C  
ENDROOT
BRANCH   2   3
HETATM    3  C   UNL     1     -11.012  11.818  65.995  1.00  0.00    -0.306 C  
BRANCH   3   4
HETATM    4  N   UNL     1     -10.602  10.512  65.458  1.00  0.00    -0.135 NA 
HETATM    5  H   UNL     1     -10.100  10.612  64.575  1.00  0.00     0.000 HD 
BRANCH   4   6
HETATM    6  C   UNL     1      -9.806   9.741  66.455  1.00  0.00    -0.225 C  
HETATM    7  C   UNL     1      -9.090  10.638  67.470  1.00  0.00    -0.144 C  
BRANCH   6   8
HETATM    8  C   UNL     1     -10.780   8.886  67.269  1.00  0.00    -0.149 C  
HETATM    9  O   UNL     1     -11.469   9.636  68.163  1.00  0.00    -0.504 OA 
HETATM   10  H   UNL     1     -12.074   9.105  68.668  1.00  0.00     0.000 HD 
BRANCH   8  11
HETATM   11  N   UNL     1     -10.877   7.608  67.107  1.00  0.00    -0.514 NA 
HETATM   12  H   UNL     1     -11.635   7.207  66.553  1.00  0.00     0.000 HD 
BRANCH  11  13
HETATM   13  C   UNL     1      -9.909   6.783  67.713  1.00  0.00    -0.126 A  
HETATM   14  C   UNL     1      -9.721   6.780  69.090  1.00  0.00    -0.146 A  
HETATM   15  C   UNL     1      -8.739   5.886  65.531  1.00  0.00    -0.133 C  
HETATM   16  S   UNL     1      -8.378   5.803  69.526  1.00  0.00    -0.113 SA 
HETATM   17  C   UNL     1      -8.043   5.414  67.906  1.00  0.00    -0.100 A  
HETATM   18  C   UNL     1      -8.901   6.027  67.011  1.00  0.00    -0.113 A  
BRANCH  14  19
HETATM   19  C   UNL     1     -10.420   7.455  70.167  1.00  0.00    -0.220 C  
HETATM   20  O   UNL     1     -11.639   7.594  70.257  1.00  0.00    -0.195 OA 
BRANCH  19  21
HETATM   21  O   UNL     1      -9.542   7.984  71.074  1.00  0.00    -0.158 OA 
HETATM   22  C   UNL     1      -8.633   8.930  70.510  1.00  0.00    -0.184 C  
ENDBRANCH  19  21
ENDBRANCH  14  19
ENDBRANCH  11  13
ENDBRANCH   8  11
ENDBRANCH   6   8
ENDBRANCH   4   6
ENDBRANCH   3   4
ENDBRANCH   2   3
TORSDOF 8
ENDMDL
MODEL      294
REMARK 921   NORMALIZED FREE ENERGY PREDICTED BY IDOCK:   -2.67 KCAL/MOL
REMARK 922        TOTAL FREE ENERGY PREDICTED BY IDOCK:   -4.63 KCAL/MOL
REMARK 923 INTER-LIGAND FREE ENERGY PREDICTED BY IDOCK:   -3.79 KCAL/MOL
REMARK 924 INTRA-LIGAND FREE ENERGY PREDICTED BY IDOCK:   -0.84 KCAL/MOL
REMARK 927      BINDING AFFINITY PREDICTED BY RF-SCORE:    0.00 PKD
ROOT
HETATM    1  C   UNL     1      -9.044   4.110  68.272  1.00  0.00    -0.176 C  
HETATM    2  C   UNL     1      -8.929   5.567  68.703  1.00  0.00    -0.118 C  
ENDROOT
BRANCH   2   3
HETATM    3  C   UNL     1      -9.104   6.494  67.499  1.00  0.00    -0.115 C  
BRANCH   3   4
HETATM    4  N   UNL     1      -8.745   7.879  67.835  1.00  0.00    -0.125 NA 
HETATM    5  H   UNL     1      -7.980   7.914  68.509  1.00  0.00     0.000 HD 
BRANCH   4   6
HETATM    6  C   UNL     1      -8.433   8.672  66.611  1.00  0.00    -0.112 C  
HETATM    7  C   UNL     1      -8.442   7.826  65.334  1.00  0.00    -0.124 C  
BRANCH   6   8
HETATM    8  C   UNL     1      -9.544   9.710  66.431  1.00  0.00    -0.210 C  
HETATM    9  O   UNL     1     -10.067   9.664  65.182  1.00  0.00    -0.387 OA 
HETATM   10  H   UNL     1     -10.756  10.308  65.071  1.00  0.00     0.000 HD 
BRANCH   8  11
HETATM   11  N   UNL     1      -9.885  10.524  67.375  1.00  0.00    -0.170 NA 
HETATM   12  H   UNL     1     -10.630  10.283  68.030  1.00  0.00     0.000 HD 
BRANCH  11  13
HETATM   13  C   UNL     1      -9.202  11.752  67.476  1.00  0.00    -0.175 A  
HETATM   14  C   UNL     1      -9.560  12.845  66.694  1.00  0.00    -0.257 A  
HETATM   15  C   UNL     1      -7.257  10.987  69.077  1.00  0.00    -0.111 C  
HETATM   16  S   UNL     1      -8.461  14.145  66.916  1.00  0.00    -0.002 SA 
HETATM   17  C   UNL     1      -7.517  13.256  68.014  1.00  0.00    -0.138 A  
HETATM   18  C   UNL     1      -7.980  11.968  68.211  1.00  0.00    -0.149 A  
BRANCH  14  19
HETATM   19  C   UNL     1     -10.638  13.050  65.747  1.00  0.00    -0.277 C  
HETATM   20  O   UNL     1     -10.507  13.261  64.543  1.00  0.00    -0.394 OA 
BRANCH  19  21
HETATM   21  O   UNL     1     -11.857  13.034  66.372  1.00  0.00    -0.370 OA 
HETATM   22  C   UNL     1     -12.155  14.237  67.080  1.00  0.00    -0.377 C  
ENDBRANCH  19  21
ENDBRANCH  14  19
ENDBRANCH  11  13
ENDBRANCH   8  11
ENDBRANCH   6   8
ENDBRANCH   4   6
ENDBRANCH   3   4
ENDBRANCH   2   3
TORSDOF 8
ENDMDL
MODEL      295
REMARK 921   NORMALIZED FREE ENERGY PREDICTED BY IDOCK:   -2.65 KCAL/MOL
REMARK 922        TOTAL FREE ENERGY PREDICTED BY IDOCK:   -4.60 KCAL/MOL
REMARK 923 INTER-LIGAND FREE ENERGY PREDICTED BY IDOCK:   -3.40 KCAL/MOL
REMARK 924 INTRA-LIGAND FREE ENERGY PREDICTED BY IDOCK:   -1.19 KCAL/MOL
REMARK 927      BINDING AFFINITY PREDICTED BY RF-SCORE:    0.00 PKD
ROOT
HETATM    1  C   UNL     1      -7.735   3.353  65.061  1.00  0.00    -0.081 C  
HETATM    2  C   UNL     1      -8.744   4.407  65.500  1.00  0.00    -0.123 C  
ENDROOT
BRANCH   2   3
HETATM    3  C   UNL     1      -8.202   5.811  65.222  1.00  0.00    -0.139 C  
BRANCH   3   4
HETATM    4  N   UNL     1      -8.026   6.572  66.467  1.00  0.00    -0.107 NA 
HETATM    5  H   UNL     1      -7.843   7.558  66.279  1.00  0.00     0.000 HD 
BRANCH   4   6
HETATM    6  C   UNL     1      -9.192   6.396  67.380  1.00  0.00    -0.117 C  
HETATM    7  C   UNL     1      -8.779   6.041  68.812  1.00  0.00    -0.111 C  
BRANCH   6   8
HETATM    8  C   UNL     1      -9.916   7.741  67.476  1.00  0.00    -0.185 C  
HETATM    9  O   UNL     1     -11.260   7.585  67.411  1.00  0.00    -0.522 OA 
HETATM   10  H   UNL     1     -11.710   8.420  67.471  1.00  0.00     0.000 HD 
BRANCH   8  11
HETATM   11  N   UNL     1      -9.279   8.860  67.579  1.00  0.00    -0.135 NA 
HETATM   12  H   UNL     1      -8.489   8.956  68.217  1.00  0.00     0.000 HD 
BRANCH  11  13
HETATM   13  C   UNL     1      -9.706   9.945  66.787  1.00  0.00    -0.192 A  
HETATM   14  C   UNL     1      -9.011  10.323  65.644  1.00  0.00    -0.172 A  
HETATM   15  C   UNL     1     -11.621  10.844  68.354  1.00  0.00    -0.346 C  
HETATM   16  S   UNL     1      -9.665  11.763  64.974  1.00  0.00    -0.136 SA 
HETATM   17  C   UNL     1     -10.834  11.888  66.201  1.00  0.00    -0.292 A  
HETATM   18  C   UNL     1     -10.740  10.883  67.147  1.00  0.00    -0.320 A  
BRANCH  14  19
HETATM   19  C   UNL     1      -7.863   9.747  64.971  1.00  0.00    -0.128 C  
HETATM   20  O   UNL     1      -6.905   9.204  65.519  1.00  0.00    -0.072 OA 
BRANCH  19  21
HETATM   21  O   UNL     1      -7.940   9.927  63.615  1.00  0.00    -0.134 OA 
HETATM   22  C   UNL     1      -7.075   9.069  62.871  1.00  0.00    -0.091 C  
ENDBRANCH  19  21
ENDBRANCH  14  19
ENDBRANCH  11  13
ENDBRANCH   8  11
ENDBRANCH   6   8
ENDBRANCH   4   6
ENDBRANCH   3   4
ENDBRANCH   2   3
TORSDOF 8
ENDMDL
MODEL      296
REMARK 921   NORMALIZED FREE ENERGY PREDICTED BY IDOCK:   -2.64 KCAL/MOL
REMARK 922        TOTAL FREE ENERGY PREDICTED BY IDOCK:   -4.58 KCAL/MOL
REMARK 923 INTER-LIGAND FREE ENERGY PREDICTED BY IDOCK:   -3.53 KCAL/MOL
REMARK 924 INTRA-LIGAND FREE ENERGY PREDICTED BY IDOCK:   -1.05 KCAL/MOL
REMARK 927      BINDING AFFINITY PREDICTED BY RF-SCORE:    0.00 PKD
ROOT
HETATM    1  C   UNL     1     -10.329   3.457  63.740  1.00  0.00    -0.236 C  
HETATM    2  C   UNL     1      -9.971   4.745  64.473  1.00  0.00     0.258 C  
ENDROOT
BRANCH   2   3
HETATM    3  C   UNL     1     -10.702   4.814  65.815  1.00  0.00    -0.170 C  
BRANCH   3   4
HETATM    4  N   UNL     1     -10.760   6.193  66.321  1.00  0.00    -0.496 NA 
HETATM    5  H   UNL     1     -11.536   6.710  65.907  1.00  0.00     0.000 HD 
BRANCH   4   6
HETATM    6  C   UNL     1     -10.814   6.224  67.810  1.00  0.00    -0.338 C  
HETATM    7  C   UNL     1      -9.982   5.113  68.460  1.00  0.00    -0.221 C  
BRANCH   6   8
HETATM    8  C   UNL     1     -10.184   7.540  68.273  1.00  0.00    -0.186 C  
HETATM    9  O   UNL     1      -9.006   7.773  67.646  1.00  0.00    -0.127 OA 
HETATM   10  H   UNL     1      -8.615   8.590  67.934  1.00  0.00     0.000 HD 
BRANCH   8  11
HETATM   11  N   UNL     1     -10.734   8.287  69.173  1.00  0.00    -0.381 NA 
HETATM   12  H   UNL     1     -11.307   9.089  68.908  1.00  0.00     0.000 HD 
BRANCH  11  13
HETATM   13  C   UNL     1     -10.521   7.966  70.528  1.00  0.00    -0.214 A  
HETATM   14  C   UNL     1      -9.316   8.253  71.159  1.00  0.00    -0.165 A  
HETATM   15  C   UNL     1     -12.727   6.593  70.954  1.00  0.00    -0.005 C  
HETATM   16  S   UNL     1      -9.287   7.611  72.751  1.00  0.00    -0.205 SA 
HETATM   17  C   UNL     1     -10.843   6.945  72.588  1.00  0.00    -0.257 A  
HETATM   18  C   UNL     1     -11.398   7.158  71.340  1.00  0.00    -0.288 A  
BRANCH  14  19
HETATM   19  C   UNL     1      -8.125   8.946  70.708  1.00  0.00    -0.156 C  
HETATM   20  O   UNL     1      -6.978   8.733  71.097  1.00  0.00    -0.066 OA 
BRANCH  19  21
HETATM   21  O   UNL     1      -8.435   9.934  69.811  1.00  0.00    -0.169 OA 
HETATM   22  C   UNL     1      -7.293  10.589  69.260  1.00  0.00    -0.113 C  
ENDBRANCH  19  21
ENDBRANCH  14  19
ENDBRANCH  11  13
ENDBRANCH   8  11
ENDBRANCH   6   8
ENDBRANCH   4   6
ENDBRANCH   3   4
ENDBRANCH   2   3
TORSDOF 8
ENDMDL
MODEL      297
REMARK 921   NORMALIZED FREE ENERGY PREDICTED BY IDOCK:   -2.61 KCAL/MOL
REMARK 922        TOTAL FREE ENERGY PREDICTED BY IDOCK:   -4.54 KCAL/MOL
REMARK 923 INTER-LIGAND FREE ENERGY PREDICTED BY IDOCK:   -4.59 KCAL/MOL
REMARK 924 INTRA-LIGAND FREE ENERGY PREDICTED BY IDOCK:    0.04 KCAL/MOL
REMARK 927      BINDING AFFINITY PREDICTED BY RF-SCORE:    0.00 PKD
ROOT
HETATM    1  C   UNL     1     -10.249  20.094  67.788  1.00  0.00    -0.514 C  
HETATM    2  C   UNL     1     -10.111  18.828  68.624  1.00  0.00    -0.432 C  
ENDROOT
BRANCH   2   3
HETATM    3  C   UNL     1     -11.013  17.723  68.071  1.00  0.00    -0.076 C  
BRANCH   3   4
HETATM    4  N   UNL     1     -10.241  16.513  67.753  1.00  0.00    -0.269 NA 
HETATM    5  H   UNL     1     -10.355  15.798  68.472  1.00  0.00     0.000 HD 
BRANCH   4   6
HETATM    6  C   UNL     1     -10.585  15.989  66.400  1.00  0.00    -0.284 C  
HETATM    7  C   UNL     1     -10.730  17.096  65.351  1.00  0.00    -0.097 C  
BRANCH   6   8
HETATM    8  C   UNL     1      -9.419  15.117  65.927  1.00  0.00    -0.299 C  
HETATM    9  O   UNL     1      -8.276  15.416  66.590  1.00  0.00    -0.280 OA 
HETATM   10  H   UNL     1      -7.552  14.875  66.297  1.00  0.00     0.000 HD 
BRANCH   8  11
HETATM   11  N   UNL     1      -9.553  14.237  64.990  1.00  0.00    -0.401 NA 
HETATM   12  H   UNL     1      -9.292  14.454  64.028  1.00  0.00     0.000 HD 
BRANCH  11  13
HETATM   13  C   UNL     1     -10.067  12.971  65.333  1.00  0.00    -0.252 A  
HETATM   14  C   UNL     1      -9.517  12.223  66.367  1.00  0.00    -0.237 A  
HETATM   15  C   UNL     1     -11.768  12.689  63.344  1.00  0.00    -0.571 C  
HETATM   16  S   UNL     1     -10.239  10.667  66.453  1.00  0.00    -0.230 SA 
HETATM   17  C   UNL     1     -11.248  10.983  65.122  1.00  0.00     0.173 A  
HETATM   18  C   UNL     1     -11.044  12.234  64.569  1.00  0.00    -0.368 A  
BRANCH  14  19
HETATM   19  C   UNL     1      -8.464  12.512  67.322  1.00  0.00    -0.185 C  
HETATM   20  O   UNL     1      -7.338  12.017  67.323  1.00  0.00    -0.135 OA 
BRANCH  19  21
HETATM   21  O   UNL     1      -8.894  13.386  68.285  1.00  0.00    -0.178 OA 
HETATM   22  C   UNL     1     -10.091  12.971  68.944  1.00  0.00     0.046 C  
ENDBRANCH  19  21
ENDBRANCH  14  19
ENDBRANCH  11  13
ENDBRANCH   8  11
ENDBRANCH   6   8
ENDBRANCH   4   6
ENDBRANCH   3   4
ENDBRANCH   2   3
TORSDOF 8
ENDMDL
MODEL      298
REMARK 921   NORMALIZED FREE ENERGY PREDICTED BY IDOCK:   -2.60 KCAL/MOL
REMARK 922        TOTAL FREE ENERGY PREDICTED BY IDOCK:   -4.52 KCAL/MOL
REMARK 923 INTER-LIGAND FREE ENERGY PREDICTED BY IDOCK:   -3.12 KCAL/MOL
REMARK 924 INTRA-LIGAND FREE ENERGY PREDICTED BY IDOCK:   -1.40 KCAL/MOL
REMARK 927      BINDING AFFINITY PREDICTED BY RF-SCORE:    0.00 PKD
ROOT
HETATM    1  C   UNL     1     -10.594   5.140  66.492  1.00  0.00    -0.320 C  
HETATM    2  C   UNL     1     -11.032   6.442  67.150  1.00  0.00    -0.476 C  
ENDROOT
BRANCH   2   3
HETATM    3  C   UNL     1     -11.051   6.290  68.673  1.00  0.00    -0.325 C  
BRANCH   3   4
HETATM    4  N   UNL     1     -10.118   5.244  69.116  1.00  0.00    -0.208 NA 
HETATM    5  H   UNL     1      -9.156   5.470  68.861  1.00  0.00     0.000 HD 
BRANCH   4   6
HETATM    6  C   UNL     1     -10.251   4.983  70.578  1.00  0.00    -0.246 C  
HETATM    7  C   UNL     1      -9.668   3.628  70.997  1.00  0.00    -0.243 C  
BRANCH   6   8
HETATM    8  C   UNL     1      -9.425   6.038  71.317  1.00  0.00    -0.163 C  
HETATM    9  O   UNL     1     -10.219   6.942  71.939  1.00  0.00    -0.189 OA 
HETATM   10  H   UNL     1      -9.706   7.598  72.398  1.00  0.00     0.000 HD 
BRANCH   8  11
HETATM   11  N   UNL     1      -8.133   6.038  71.299  1.00  0.00    -0.116 NA 
HETATM   12  H   UNL     1      -7.606   5.182  71.473  1.00  0.00     0.000 HD 
BRANCH  11  13
HETATM   13  C   UNL     1      -7.470   7.253  71.033  1.00  0.00    -0.075 A  
HETATM   14  C   UNL     1      -7.109   7.611  69.739  1.00  0.00    -0.067 A  
HETATM   15  C   UNL     1      -7.036   8.014  73.516  1.00  0.00    -0.152 C  
HETATM   16  S   UNL     1      -6.183   9.058  69.737  1.00  0.00    -0.039 SA 
HETATM   17  C   UNL     1      -6.246   9.186  71.431  1.00  0.00    -0.078 A  
HETATM   18  C   UNL     1      -6.927   8.142  72.030  1.00  0.00    -0.086 A  
BRANCH  14  19
HETATM   19  C   UNL     1      -7.348   6.982  68.455  1.00  0.00    -0.100 C  
HETATM   20  O   UNL     1      -7.751   7.548  67.440  1.00  0.00    -0.112 OA 
BRANCH  19  21
HETATM   21  O   UNL     1      -7.118   5.633  68.513  1.00  0.00    -0.066 OA 
HETATM   22  C   UNL     1      -6.838   5.042  67.244  1.00  0.00    -0.056 C  
ENDBRANCH  19  21
ENDBRANCH  14  19
ENDBRANCH  11  13
ENDBRANCH   8  11
ENDBRANCH   6   8
ENDBRANCH   4   6
ENDBRANCH   3   4
ENDBRANCH   2   3
TORSDOF 8
ENDMDL
MODEL      299
REMARK 921   NORMALIZED FREE ENERGY PREDICTED BY IDOCK:   -2.59 KCAL/MOL
REMARK 922        TOTAL FREE ENERGY PREDICTED BY IDOCK:   -4.52 KCAL/MOL
REMARK 923 INTER-LIGAND FREE ENERGY PREDICTED BY IDOCK:   -3.82 KCAL/MOL
REMARK 924 INTRA-LIGAND FREE ENERGY PREDICTED BY IDOCK:   -0.70 KCAL/MOL
REMARK 927      BINDING AFFINITY PREDICTED BY RF-SCORE:    0.00 PKD
ROOT
HETATM    1  C   UNL     1     -10.835   9.875  66.993  1.00  0.00    -0.186 C  
HETATM    2  C   UNL     1     -10.242   8.517  66.637  1.00  0.00    -0.345 C  
ENDROOT
BRANCH   2   3
HETATM    3  C   UNL     1     -10.003   7.693  67.904  1.00  0.00    -0.169 C  
BRANCH   3   4
HETATM    4  N   UNL     1     -10.562   8.359  69.088  1.00  0.00    -0.321 NA 
HETATM    5  H   UNL     1     -11.374   7.859  69.450  1.00  0.00     0.000 HD 
BRANCH   4   6
HETATM    6  C   UNL     1      -9.526   8.554  70.142  1.00  0.00    -0.165 C  
HETATM    7  C   UNL     1      -8.433   9.546  69.728  1.00  0.00    -0.185 C  
BRANCH   6   8
HETATM    8  C   UNL     1     -10.211   9.175  71.362  1.00  0.00    -0.332 C  
HETATM    9  O   UNL     1     -11.001  10.217  71.009  1.00  0.00    -0.326 OA 
HETATM   10  H   UNL     1     -11.427  10.603  71.766  1.00  0.00     0.000 HD 
BRANCH   8  11
HETATM   11  N   UNL     1     -10.009   8.740  72.562  1.00  0.00    -0.183 NA 
HETATM   12  H   UNL     1      -9.917   9.388  73.345  1.00  0.00     0.000 HD 
BRANCH  11  13
HETATM   13  C   UNL     1      -9.917   7.348  72.760  1.00  0.00    -0.215 A  
HETATM   14  C   UNL     1      -8.717   6.746  73.120  1.00  0.00    -0.122 A  
HETATM   15  C   UNL     1     -12.323   6.676  71.929  1.00  0.00    -0.364 C  
HETATM   16  S   UNL     1      -8.867   5.036  73.137  1.00  0.00    -0.110 SA 
HETATM   17  C   UNL     1     -10.494   5.102  72.651  1.00  0.00    -0.212 A  
HETATM   18  C   UNL     1     -10.946   6.391  72.436  1.00  0.00    -0.284 A  
BRANCH  14  19
HETATM   19  C   UNL     1      -7.413   7.295  73.440  1.00  0.00    -0.075 C  
HETATM   20  O   UNL     1      -7.168   8.078  74.355  1.00  0.00    -0.138 OA 
BRANCH  19  21
HETATM   21  O   UNL     1      -6.464   6.872  72.547  1.00  0.00    -0.053 OA 
HETATM   22  C   UNL     1      -5.857   7.933  71.809  1.00  0.00    -0.035 C  
ENDBRANCH  19  21
ENDBRANCH  14  19
ENDBRANCH  11  13
ENDBRANCH   8  11
ENDBRANCH   6   8
ENDBRANCH   4   6
ENDBRANCH   3   4
ENDBRANCH   2   3
TORSDOF 8
ENDMDL
MODEL      300
REMARK 921   NORMALIZED FREE ENERGY PREDICTED BY IDOCK:   -2.58 KCAL/MOL
REMARK 922        TOTAL FREE ENERGY PREDICTED BY IDOCK:   -4.49 KCAL/MOL
REMARK 923 INTER-LIGAND FREE ENERGY PREDICTED BY IDOCK:   -3.73 KCAL/MOL
REMARK 924 INTRA-LIGAND FREE ENERGY PREDICTED BY IDOCK:   -0.76 KCAL/MOL
REMARK 927      BINDING AFFINITY PREDICTED BY RF-SCORE:    0.00 PKD
ROOT
HETATM    1  C   UNL     1      -5.944  12.227  70.503  1.00  0.00    -0.042 C  
HETATM    2  C   UNL     1      -5.834  12.175  68.984  1.00  0.00    -0.065 C  
ENDROOT
BRANCH   2   3
HETATM    3  C   UNL     1      -5.225  10.843  68.540  1.00  0.00    -0.040 C  
BRANCH   3   4
HETATM    4  N   UNL     1      -6.266   9.835  68.296  1.00  0.00    -0.051 NA 
HETATM    5  H   UNL     1      -7.193  10.190  68.535  1.00  0.00     0.000 HD 
BRANCH   4   6
HETATM    6  C   UNL     1      -6.217   9.332  66.893  1.00  0.00    -0.065 C  
HETATM    7  C   UNL     1      -6.890   7.965  66.726  1.00  0.00    -0.072 C  
BRANCH   6   8
HETATM    8  C   UNL     1      -7.019  10.301  66.022  1.00  0.00    -0.120 C  
HETATM    9  O   UNL     1      -6.212  11.006  65.193  1.00  0.00    -0.370 OA 
HETATM   10  H   UNL     1      -6.710  11.607  64.651  1.00  0.00     0.000 HD 
BRANCH   8  11
HETATM   11  N   UNL     1      -8.302  10.416  66.120  1.00  0.00    -0.143 NA 
HETATM   12  H   UNL     1      -8.780  10.216  67.000  1.00  0.00     0.000 HD 
BRANCH  11  13
HETATM   13  C   UNL     1      -9.025  10.824  64.982  1.00  0.00    -0.194 A  
HETATM   14  C   UNL     1      -9.933  11.875  65.040  1.00  0.00    -0.248 A  
HETATM   15  C   UNL     1      -8.304   8.890  63.347  1.00  0.00    -0.177 C  
HETATM   16  S   UNL     1     -10.774  12.045  63.552  1.00  0.00    -0.447 SA 
HETATM   17  C   UNL     1      -9.957  10.726  62.858  1.00  0.00    -0.185 A  
HETATM   18  C   UNL     1      -9.070  10.116  63.726  1.00  0.00    -0.293 A  
BRANCH  14  19
HETATM   19  C   UNL     1     -10.291  12.791  66.106  1.00  0.00    -0.269 C  
HETATM   20  O   UNL     1      -9.926  12.709  67.277  1.00  0.00    -0.209 OA 
BRANCH  19  21
HETATM   21  O   UNL     1     -11.152  13.759  65.660  1.00  0.00    -0.293 OA 
HETATM   22  C   UNL     1     -12.158  14.113  66.609  1.00  0.00    -0.451 C  
ENDBRANCH  19  21
ENDBRANCH  14  19
ENDBRANCH  11  13
ENDBRANCH   8  11
ENDBRANCH   6   8
ENDBRANCH   4   6
ENDBRANCH   3   4
ENDBRANCH   2   3
TORSDOF 8
ENDMDL
MODEL      301
REMARK 921   NORMALIZED FREE ENERGY PREDICTED BY IDOCK:   -2.54 KCAL/MOL
REMARK 922        TOTAL FREE ENERGY PREDICTED BY IDOCK:   -4.44 KCAL/MOL
REMARK 923 INTER-LIGAND FREE ENERGY PREDICTED BY IDOCK:   -4.29 KCAL/MOL
REMARK 924 INTRA-LIGAND FREE ENERGY PREDICTED BY IDOCK:   -0.15 KCAL/MOL
REMARK 927      BINDING AFFINITY PREDICTED BY RF-SCORE:    0.00 PKD
ROOT
HETATM    1  C   UNL     1     -10.452  16.304  68.473  1.00  0.00    -0.278 C  
HETATM    2  C   UNL     1      -9.602  15.351  67.641  1.00  0.00    -0.210 C  
ENDROOT
BRANCH   2   3
HETATM    3  C   UNL     1     -10.480  14.271  67.006  1.00  0.00    -0.271 C  
BRANCH   3   4
HETATM    4  N   UNL     1      -9.954  13.857  65.697  1.00  0.00    -0.439 NA 
HETATM    5  H   UNL     1      -8.940  13.741  65.722  1.00  0.00     0.000 HD 
BRANCH   4   6
HETATM    6  C   UNL     1     -10.633  12.624  65.205  1.00  0.00    -0.291 C  
HETATM    7  C   UNL     1     -11.089  12.736  63.746  1.00  0.00    -0.475 C  
BRANCH   6   8
HETATM    8  C   UNL     1      -9.611  11.485  65.235  1.00  0.00    -0.218 C  
HETATM    9  O   UNL     1      -8.397  11.919  65.652  1.00  0.00    -0.268 OA 
HETATM   10  H   UNL     1      -7.763  11.212  65.671  1.00  0.00     0.000 HD 
BRANCH   8  11
HETATM   11  N   UNL     1      -9.910  10.281  64.873  1.00  0.00    -0.321 NA 
HETATM   12  H   UNL     1     -10.789  10.082  64.393  1.00  0.00     0.000 HD 
BRANCH  11  13
HETATM   13  C   UNL     1      -8.992   9.251  65.158  1.00  0.00    -0.209 A  
HETATM   14  C   UNL     1      -7.901   9.006  64.331  1.00  0.00    -0.125 A  
HETATM   15  C   UNL     1     -10.269   8.133  67.170  1.00  0.00    -0.366 C  
HETATM   16  S   UNL     1      -7.050   7.602  64.835  1.00  0.00    -0.066 SA 
HETATM   17  C   UNL     1      -8.133   7.318  66.115  1.00  0.00    -0.121 A  
HETATM   18  C   UNL     1      -9.162   8.239  66.171  1.00  0.00    -0.250 A  
BRANCH  14  19
HETATM   19  C   UNL     1      -7.402   9.690  63.154  1.00  0.00    -0.115 C  
HETATM   20  O   UNL     1      -7.776  10.789  62.748  1.00  0.00    -0.106 OA 
BRANCH  19  21
HETATM   21  O   UNL     1      -6.476   8.928  62.492  1.00  0.00    -0.095 OA 
HETATM   22  C   UNL     1      -5.128   9.200  62.876  1.00  0.00    -0.068 C  
ENDBRANCH  19  21
ENDBRANCH  14  19
ENDBRANCH  11  13
ENDBRANCH   8  11
ENDBRANCH   6   8
ENDBRANCH   4   6
ENDBRANCH   3   4
ENDBRANCH   2   3
TORSDOF 8
ENDMDL
MODEL      302
REMARK 921   NORMALIZED FREE ENERGY PREDICTED BY IDOCK:   -2.42 KCAL/MOL
REMARK 922        TOTAL FREE ENERGY PREDICTED BY IDOCK:   -4.27 KCAL/MOL
REMARK 923 INTER-LIGAND FREE ENERGY PREDICTED BY IDOCK:   -3.30 KCAL/MOL
REMARK 924 INTRA-LIGAND FREE ENERGY PREDICTED BY IDOCK:   -0.97 KCAL/MOL
REMARK 927      BINDING AFFINITY PREDICTED BY RF-SCORE:    0.00 PKD
ROOT
HETATM    1  C   UNL     1     -10.493   3.712  63.894  1.00  0.00    -0.276 C  
HETATM    2  C   UNL     1      -9.440   4.072  64.935  1.00  0.00    -0.171 C  
ENDROOT
BRANCH   2   3
HETATM    3  C   UNL     1     -10.090   4.260  66.307  1.00  0.00    -0.172 C  
BRANCH   3   4
HETATM    4  N   UNL     1      -9.113   4.729  67.300  1.00  0.00    -0.116 NA 
HETATM    5  H   UNL     1      -8.801   5.679  67.098  1.00  0.00     0.000 HD 
BRANCH   4   6
HETATM    6  C   UNL     1      -9.651   4.614  68.686  1.00  0.00    -0.162 C  
HETATM    7  C   UNL     1      -9.481   3.210  69.278  1.00  0.00    -0.179 C  
BRANCH   6   8
HETATM    8  C   UNL     1      -8.832   5.546  69.583  1.00  0.00    -0.111 C  
HETATM    9  O   UNL     1      -7.764   4.906  70.118  1.00  0.00    -0.060 OA 
HETATM   10  H   UNL     1      -7.256   5.484  70.675  1.00  0.00     0.000 HD 
BRANCH   8  11
HETATM   11  N   UNL     1      -9.173   6.774  69.794  1.00  0.00    -0.147 NA 
HETATM   12  H   UNL     1      -9.311   7.419  69.016  1.00  0.00     0.000 HD 
BRANCH  11  13
HETATM   13  C   UNL     1      -9.348   7.198  71.126  1.00  0.00    -0.157 A  
HETATM   14  C   UNL     1      -8.308   7.780  71.842  1.00  0.00    -0.113 A  
HETATM   15  C   UNL     1     -11.759   6.223  71.534  1.00  0.00    -0.329 C  
HETATM   16  S   UNL     1      -8.762   8.050  73.476  1.00  0.00    -0.257 SA 
HETATM   17  C   UNL     1     -10.306   7.383  73.233  1.00  0.00    -0.355 A  
HETATM   18  C   UNL     1     -10.501   6.917  71.945  1.00  0.00    -0.224 A  
BRANCH  14  19
HETATM   19  C   UNL     1      -6.958   8.152  71.465  1.00  0.00    -0.062 C  
HETATM   20  O   UNL     1      -6.175   7.458  70.818  1.00  0.00    -0.035 OA 
BRANCH  19  21
HETATM   21  O   UNL     1      -6.621   9.379  71.972  1.00  0.00    -0.300 OA 
HETATM   22  C   UNL     1      -5.298   9.796  71.634  1.00  0.00    -0.074 C  
ENDBRANCH  19  21
ENDBRANCH  14  19
ENDBRANCH  11  13
ENDBRANCH   8  11
ENDBRANCH   6   8
ENDBRANCH   4   6
ENDBRANCH   3   4
ENDBRANCH   2   3
TORSDOF 8
ENDMDL
MODEL      303
REMARK 921   NORMALIZED FREE ENERGY PREDICTED BY IDOCK:   -2.40 KCAL/MOL
REMARK 922        TOTAL FREE ENERGY PREDICTED BY IDOCK:   -4.24 KCAL/MOL
REMARK 923 INTER-LIGAND FREE ENERGY PREDICTED BY IDOCK:   -3.52 KCAL/MOL
REMARK 924 INTRA-LIGAND FREE ENERGY PREDICTED BY IDOCK:   -0.72 KCAL/MOL
REMARK 927      BINDING AFFINITY PREDICTED BY RF-SCORE:    0.00 PKD
ROOT
HETATM    1  C   UNL     1      -6.621  12.729  68.500  1.00  0.00    -0.086 C  
HETATM    2  C   UNL     1      -8.073  12.294  68.341  1.00  0.00    -0.151 C  
ENDROOT
BRANCH   2   3
HETATM    3  C   UNL     1      -8.546  12.533  66.905  1.00  0.00    -0.158 C  
BRANCH   3   4
HETATM    4  N   UNL     1      -8.397  11.322  66.085  1.00  0.00    -0.281 NA 
HETATM    5  H   UNL     1      -7.438  10.974  66.105  1.00  0.00     0.000 HD 
BRANCH   4   6
HETATM    6  C   UNL     1      -9.370  10.268  66.491  1.00  0.00    -0.166 C  
HETATM    7  C   UNL     1     -10.779  10.820  66.737  1.00  0.00    -0.291 C  
BRANCH   6   8
HETATM    8  C   UNL     1      -9.506   9.285  65.325  1.00  0.00    -0.164 C  
HETATM    9  O   UNL     1      -9.741   9.931  64.158  1.00  0.00    -0.389 OA 
HETATM   10  H   UNL     1      -9.825   9.321  63.434  1.00  0.00     0.000 HD 
BRANCH   8  11
HETATM   11  N   UNL     1      -9.425   8.006  65.490  1.00  0.00    -0.348 NA 
HETATM   12  H   UNL     1     -10.040   7.373  64.978  1.00  0.00     0.000 HD 
BRANCH  11  13
HETATM   13  C   UNL     1      -8.465   7.510  66.394  1.00  0.00    -0.131 A  
HETATM   14  C   UNL     1      -8.838   6.968  67.619  1.00  0.00    -0.119 A  
HETATM   15  C   UNL     1      -6.294   8.301  65.133  1.00  0.00    -0.048 C  
HETATM   16  S   UNL     1      -7.459   6.592  68.571  1.00  0.00    -0.093 SA 
HETATM   17  C   UNL     1      -6.391   7.164  67.379  1.00  0.00    -0.050 A  
HETATM   18  C   UNL     1      -7.038   7.674  66.268  1.00  0.00    -0.070 A  
BRANCH  14  19
HETATM   19  C   UNL     1     -10.136   6.705  68.210  1.00  0.00    -0.159 C  
HETATM   20  O   UNL     1     -11.219   6.790  67.633  1.00  0.00    -0.256 OA 
BRANCH  19  21
HETATM   21  O   UNL     1     -10.023   6.395  69.539  1.00  0.00    -0.157 OA 
HETATM   22  C   UNL     1     -11.278   6.242  70.203  1.00  0.00    -0.403 C  
ENDBRANCH  19  21
ENDBRANCH  14  19
ENDBRANCH  11  13
ENDBRANCH   8  11
ENDBRANCH   6   8
ENDBRANCH   4   6
ENDBRANCH   3   4
ENDBRANCH   2   3
TORSDOF 8
ENDMDL
MODEL      304
REMARK 921   NORMALIZED FREE ENERGY PREDICTED BY IDOCK:   -2.37 KCAL/MOL
REMARK 922        TOTAL FREE ENERGY PREDICTED BY IDOCK:   -4.19 KCAL/MOL
REMARK 923 INTER-LIGAND FREE ENERGY PREDICTED BY IDOCK:   -3.38 KCAL/MOL
REMARK 924 INTRA-LIGAND FREE ENERGY PREDICTED BY IDOCK:   -0.81 KCAL/MOL
REMARK 927      BINDING AFFINITY PREDICTED BY RF-SCORE:    0.00 PKD
ROOT
HETATM    1  C   UNL     1     -12.108  15.917  70.897  1.00  0.00    -0.414 C  
HETATM    2  C   UNL     1     -10.872  16.139  70.034  1.00  0.00    -0.349 C  
ENDROOT
BRANCH   2   3
HETATM    3  C   UNL     1     -10.328  14.801  69.529  1.00  0.00    -0.112 C  
BRANCH   3   4
HETATM    4  N   UNL     1     -11.372  14.024  68.845  1.00  0.00    -0.262 NA 
HETATM    5  H   UNL     1     -12.033  14.632  68.361  1.00  0.00     0.000 HD 
BRANCH   4   6
HETATM    6  C   UNL     1     -10.780  13.014  67.922  1.00  0.00    -0.235 C  
HETATM    7  C   UNL     1     -11.784  11.939  67.491  1.00  0.00    -0.335 C  
BRANCH   6   8
HETATM    8  C   UNL     1     -10.370  13.739  66.638  1.00  0.00    -0.279 C  
HETATM    9  O   UNL     1     -11.299  14.653  66.267  1.00  0.00    -0.340 OA 
HETATM   10  H   UNL     1     -11.044  15.103  65.470  1.00  0.00     0.000 HD 
BRANCH   8  11
HETATM   11  N   UNL     1      -9.276  13.461  66.009  1.00  0.00    -0.476 NA 
HETATM   12  H   UNL     1      -9.299  13.048  65.076  1.00  0.00     0.000 HD 
BRANCH  11  13
HETATM   13  C   UNL     1      -8.051  13.741  66.646  1.00  0.00     0.513 A  
HETATM   14  C   UNL     1      -7.168  12.726  66.995  1.00  0.00     0.120 A  
HETATM   15  C   UNL     1      -8.412  16.314  67.073  1.00  0.00    -0.232 C  
HETATM   16  S   UNL     1      -5.841  13.345  67.891  1.00  0.00    -0.126 SA 
HETATM   17  C   UNL     1      -6.448  14.932  67.831  1.00  0.00    -0.162 A  
HETATM   18  C   UNL     1      -7.662  15.025  67.175  1.00  0.00    -0.202 A  
BRANCH  14  19
HETATM   19  C   UNL     1      -7.195  11.294  66.765  1.00  0.00    -0.142 C  
HETATM   20  O   UNL     1      -6.299  10.633  66.242  1.00  0.00    -0.098 OA 
BRANCH  19  21
HETATM   21  O   UNL     1      -8.389  10.750  67.157  1.00  0.00    -0.123 OA 
HETATM   22  C   UNL     1      -8.481  10.519  68.562  1.00  0.00    -0.131 C  
ENDBRANCH  19  21
ENDBRANCH  14  19
ENDBRANCH  11  13
ENDBRANCH   8  11
ENDBRANCH   6   8
ENDBRANCH   4   6
ENDBRANCH   3   4
ENDBRANCH   2   3
TORSDOF 8
ENDMDL
MODEL      305
REMARK 921   NORMALIZED FREE ENERGY PREDICTED BY IDOCK:   -2.37 KCAL/MOL
REMARK 922        TOTAL FREE ENERGY PREDICTED BY IDOCK:   -4.19 KCAL/MOL
REMARK 923 INTER-LIGAND FREE ENERGY PREDICTED BY IDOCK:   -3.18 KCAL/MOL
REMARK 924 INTRA-LIGAND FREE ENERGY PREDICTED BY IDOCK:   -1.01 KCAL/MOL
REMARK 927      BINDING AFFINITY PREDICTED BY RF-SCORE:    0.00 PKD
ROOT
HETATM    1  C   UNL     1     -13.347   6.483  71.686  1.00  0.00     0.096 C  
HETATM    2  C   UNL     1     -12.497   5.552  72.542  1.00  0.00     0.352 C  
ENDROOT
BRANCH   2   3
HETATM    3  C   UNL     1     -11.071   5.477  71.992  1.00  0.00    -0.184 C  
BRANCH   3   4
HETATM    4  N   UNL     1     -10.640   6.772  71.447  1.00  0.00    -0.219 NA 
HETATM    5  H   UNL     1     -10.206   7.354  72.165  1.00  0.00     0.000 HD 
BRANCH   4   6
HETATM    6  C   UNL     1      -9.743   6.595  70.270  1.00  0.00    -0.171 C  
HETATM    7  C   UNL     1      -9.875   5.212  69.622  1.00  0.00    -0.286 C  
BRANCH   6   8
HETATM    8  C   UNL     1     -10.175   7.599  69.198  1.00  0.00    -0.203 C  
HETATM    9  O   UNL     1     -11.323   7.213  68.591  1.00  0.00    -0.467 OA 
HETATM   10  H   UNL     1     -11.591   7.836  67.926  1.00  0.00     0.000 HD 
BRANCH   8  11
HETATM   11  N   UNL     1      -9.483   8.655  68.925  1.00  0.00    -0.146 NA 
HETATM   12  H   UNL     1      -8.717   8.951  69.532  1.00  0.00     0.000 HD 
BRANCH  11  13
HETATM   13  C   UNL     1      -9.813   9.389  67.768  1.00  0.00    -0.170 A  
HETATM   14  C   UNL     1      -9.092   9.242  66.589  1.00  0.00    -0.143 A  
HETATM   15  C   UNL     1     -11.634  10.974  68.817  1.00  0.00    -0.386 C  
HETATM   16  S   UNL     1      -9.616  10.368  65.403  1.00  0.00    -0.270 SA 
HETATM   17  C   UNL     1     -10.766  11.049  66.454  1.00  0.00    -0.227 A  
HETATM   18  C   UNL     1     -10.758  10.476  67.713  1.00  0.00    -0.319 A  
BRANCH  14  19
HETATM   19  C   UNL     1      -8.002   8.359  66.220  1.00  0.00    -0.099 C  
HETATM   20  O   UNL     1      -7.122   8.607  65.397  1.00  0.00    -0.080 OA 
BRANCH  19  21
HETATM   21  O   UNL     1      -8.095   7.158  66.872  1.00  0.00    -0.113 OA 
HETATM   22  C   UNL     1      -8.730   6.135  66.104  1.00  0.00    -0.148 C  
ENDBRANCH  19  21
ENDBRANCH  14  19
ENDBRANCH  11  13
ENDBRANCH   8  11
ENDBRANCH   6   8
ENDBRANCH   4   6
ENDBRANCH   3   4
ENDBRANCH   2   3
TORSDOF 8
ENDMDL
MODEL      306
REMARK 921   NORMALIZED FREE ENERGY PREDICTED BY IDOCK:   -2.33 KCAL/MOL
REMARK 922        TOTAL FREE ENERGY PREDICTED BY IDOCK:   -4.13 KCAL/MOL
REMARK 923 INTER-LIGAND FREE ENERGY PREDICTED BY IDOCK:   -3.16 KCAL/MOL
REMARK 924 INTRA-LIGAND FREE ENERGY PREDICTED BY IDOCK:   -0.97 KCAL/MOL
REMARK 927      BINDING AFFINITY PREDICTED BY RF-SCORE:    0.00 PKD
ROOT
HETATM    1  C   UNL     1      -7.534   9.850  64.379  1.00  0.00    -0.137 C  
HETATM    2  C   UNL     1      -7.557   9.129  65.722  1.00  0.00    -0.091 C  
ENDROOT
BRANCH   2   3
HETATM    3  C   UNL     1      -7.945  10.100  66.839  1.00  0.00    -0.114 C  
BRANCH   3   4
HETATM    4  N   UNL     1      -7.719   9.505  68.164  1.00  0.00    -0.083 NA 
HETATM    5  H   UNL     1      -8.190  10.036  68.898  1.00  0.00     0.000 HD 
BRANCH   4   6
HETATM    6  C   UNL     1      -8.114   8.068  68.190  1.00  0.00    -0.129 C  
HETATM    7  C   UNL     1      -6.918   7.122  68.342  1.00  0.00    -0.076 C  
BRANCH   6   8
HETATM    8  C   UNL     1      -8.982   7.845  69.430  1.00  0.00    -0.145 C  
HETATM    9  O   UNL     1      -9.948   8.789  69.536  1.00  0.00    -0.186 OA 
HETATM   10  H   UNL     1     -10.487   8.651  70.306  1.00  0.00     0.000 HD 
BRANCH   8  11
HETATM   11  N   UNL     1      -8.765   6.877  70.258  1.00  0.00    -0.143 NA 
HETATM   12  H   UNL     1      -8.560   5.936  69.921  1.00  0.00     0.000 HD 
BRANCH  11  13
HETATM   13  C   UNL     1      -8.818   7.155  71.638  1.00  0.00    -0.118 A  
HETATM   14  C   UNL     1      -9.881   6.721  72.423  1.00  0.00    -0.158 A  
HETATM   15  C   UNL     1      -6.746   8.773  71.791  1.00  0.00    -0.076 C  
HETATM   16  S   UNL     1      -9.756   7.337  74.021  1.00  0.00    -0.153 SA 
HETATM   17  C   UNL     1      -8.326   8.182  73.662  1.00  0.00    -0.242 A  
HETATM   18  C   UNL     1      -7.933   8.050  72.342  1.00  0.00    -0.168 A  
BRANCH  14  19
HETATM   19  C   UNL     1     -11.036   5.898  72.124  1.00  0.00    -0.281 C  
HETATM   20  O   UNL     1     -11.342   4.852  72.694  1.00  0.00    -0.176 OA 
BRANCH  19  21
HETATM   21  O   UNL     1     -11.744   6.403  71.065  1.00  0.00    -0.333 OA 
HETATM   22  C   UNL     1     -12.560   7.525  71.402  1.00  0.00    -0.351 C  
ENDBRANCH  19  21
ENDBRANCH  14  19
ENDBRANCH  11  13
ENDBRANCH   8  11
ENDBRANCH   6   8
ENDBRANCH   4   6
ENDBRANCH   3   4
ENDBRANCH   2   3
TORSDOF 8
ENDMDL
MODEL      307
REMARK 921   NORMALIZED FREE ENERGY PREDICTED BY IDOCK:   -2.32 KCAL/MOL
REMARK 922        TOTAL FREE ENERGY PREDICTED BY IDOCK:   -4.11 KCAL/MOL
REMARK 923 INTER-LIGAND FREE ENERGY PREDICTED BY IDOCK:   -2.98 KCAL/MOL
REMARK 924 INTRA-LIGAND FREE ENERGY PREDICTED BY IDOCK:   -1.13 KCAL/MOL
REMARK 927      BINDING AFFINITY PREDICTED BY RF-SCORE:    0.00 PKD
ROOT
HETATM    1  C   UNL     1     -10.380   9.230  67.888  1.00  0.00    -0.279 C  
HETATM    2  C   UNL     1     -10.473   8.157  66.810  1.00  0.00    -0.316 C  
ENDROOT
BRANCH   2   3
HETATM    3  C   UNL     1      -9.539   6.990  67.139  1.00  0.00    -0.149 C  
BRANCH   3   4
HETATM    4  N   UNL     1     -10.196   5.697  66.896  1.00  0.00    -0.201 NA 
HETATM    5  H   UNL     1     -10.927   5.776  66.189  1.00  0.00     0.000 HD 
BRANCH   4   6
HETATM    6  C   UNL     1      -9.204   4.642  66.542  1.00  0.00    -0.132 C  
HETATM    7  C   UNL     1      -8.115   5.144  65.587  1.00  0.00    -0.115 C  
BRANCH   6   8
HETATM    8  C   UNL     1      -8.476   4.236  67.826  1.00  0.00    -0.098 C  
HETATM    9  O   UNL     1      -7.166   4.578  67.782  1.00  0.00    -0.064 OA 
HETATM   10  H   UNL     1      -6.714   4.326  68.579  1.00  0.00     0.000 HD 
BRANCH   8  11
HETATM   11  N   UNL     1      -9.075   3.621  68.792  1.00  0.00    -0.129 NA 
HETATM   12  H   UNL     1      -9.829   2.959  68.604  1.00  0.00     0.000 HD 
BRANCH  11  13
HETATM   13  C   UNL     1      -8.659   3.888  70.111  1.00  0.00    -0.065 A  
HETATM   14  C   UNL     1      -9.189   4.949  70.836  1.00  0.00    -0.146 A  
HETATM   15  C   UNL     1      -6.684   2.153  70.257  1.00  0.00    -0.033 C  
HETATM   16  S   UNL     1      -8.387   5.126  72.344  1.00  0.00    -0.122 SA 
HETATM   17  C   UNL     1      -7.340   3.826  72.021  1.00  0.00    -0.056 A  
HETATM   18  C   UNL     1      -7.545   3.259  70.777  1.00  0.00    -0.040 A  
BRANCH  14  19
HETATM   19  C   UNL     1     -10.237   5.904  70.533  1.00  0.00    -0.211 C  
HETATM   20  O   UNL     1     -11.112   5.766  69.679  1.00  0.00    -0.372 OA 
BRANCH  19  21
HETATM   21  O   UNL     1     -10.110   7.038  71.291  1.00  0.00    -0.191 OA 
HETATM   22  C   UNL     1     -11.220   7.930  71.182  1.00  0.00    -0.261 C  
ENDBRANCH  19  21
ENDBRANCH  14  19
ENDBRANCH  11  13
ENDBRANCH   8  11
ENDBRANCH   6   8
ENDBRANCH   4   6
ENDBRANCH   3   4
ENDBRANCH   2   3
TORSDOF 8
ENDMDL
MODEL      308
REMARK 921   NORMALIZED FREE ENERGY PREDICTED BY IDOCK:   -2.31 KCAL/MOL
REMARK 922        TOTAL FREE ENERGY PREDICTED BY IDOCK:   -4.10 KCAL/MOL
REMARK 923 INTER-LIGAND FREE ENERGY PREDICTED BY IDOCK:   -3.64 KCAL/MOL
REMARK 924 INTRA-LIGAND FREE ENERGY PREDICTED BY IDOCK:   -0.45 KCAL/MOL
REMARK 927      BINDING AFFINITY PREDICTED BY RF-SCORE:    0.00 PKD
ROOT
HETATM    1  C   UNL     1      -7.169   9.754  64.639  1.00  0.00    -0.131 C  
HETATM    2  C   UNL     1      -7.507   8.665  65.650  1.00  0.00    -0.085 C  
ENDROOT
BRANCH   2   3
HETATM    3  C   UNL     1      -8.843   8.968  66.332  1.00  0.00    -0.146 C  
BRANCH   3   4
HETATM    4  N   UNL     1      -9.023   8.151  67.540  1.00  0.00    -0.137 NA 
HETATM    5  H   UNL     1      -8.599   8.594  68.357  1.00  0.00     0.000 HD 
BRANCH   4   6
HETATM    6  C   UNL     1     -10.461   7.836  67.774  1.00  0.00    -0.211 C  
HETATM    7  C   UNL     1     -10.939   6.611  66.987  1.00  0.00    -0.463 C  
BRANCH   6   8
HETATM    8  C   UNL     1     -10.625   7.473  69.252  1.00  0.00    -0.210 C  
HETATM    9  O   UNL     1     -10.316   8.518  70.056  1.00  0.00    -0.200 OA 
HETATM   10  H   UNL     1     -10.418   8.292  70.974  1.00  0.00     0.000 HD 
BRANCH   8  11
HETATM   11  N   UNL     1     -10.990   6.294  69.635  1.00  0.00    -0.337 NA 
HETATM   12  H   UNL     1     -11.957   5.984  69.526  1.00  0.00     0.000 HD 
BRANCH  11  13
HETATM   13  C   UNL     1     -10.019   5.447  70.205  1.00  0.00    -0.232 A  
HETATM   14  C   UNL     1      -9.621   5.592  71.529  1.00  0.00    -0.150 A  
HETATM   15  C   UNL     1      -9.288   4.166  68.024  1.00  0.00    -0.213 C  
HETATM   16  S   UNL     1      -8.321   4.534  71.900  1.00  0.00    -0.109 SA 
HETATM   17  C   UNL     1      -8.278   3.915  70.318  1.00  0.00    -0.057 A  
HETATM   18  C   UNL     1      -9.205   4.505  69.478  1.00  0.00    -0.192 A  
BRANCH  14  19
HETATM   19  C   UNL     1     -10.081   6.467  72.591  1.00  0.00    -0.178 C  
HETATM   20  O   UNL     1     -11.122   6.334  73.232  1.00  0.00    -0.227 OA 
BRANCH  19  21
HETATM   21  O   UNL     1      -9.225   7.521  72.770  1.00  0.00    -0.140 OA 
HETATM   22  C   UNL     1      -8.805   7.696  74.124  1.00  0.00    -0.228 C  
ENDBRANCH  19  21
ENDBRANCH  14  19
ENDBRANCH  11  13
ENDBRANCH   8  11
ENDBRANCH   6   8
ENDBRANCH   4   6
ENDBRANCH   3   4
ENDBRANCH   2   3
TORSDOF 8
ENDMDL
MODEL      309
REMARK 921   NORMALIZED FREE ENERGY PREDICTED BY IDOCK:   -2.30 KCAL/MOL
REMARK 922        TOTAL FREE ENERGY PREDICTED BY IDOCK:   -4.09 KCAL/MOL
REMARK 923 INTER-LIGAND FREE ENERGY PREDICTED BY IDOCK:   -3.14 KCAL/MOL
REMARK 924 INTRA-LIGAND FREE ENERGY PREDICTED BY IDOCK:   -0.95 KCAL/MOL
REMARK 927      BINDING AFFINITY PREDICTED BY RF-SCORE:    0.00 PKD
ROOT
HETATM    1  C   UNL     1      -6.146  12.864  69.649  1.00  0.00    -0.124 C  
HETATM    2  C   UNL     1      -7.133  12.959  68.492  1.00  0.00    -0.102 C  
ENDROOT
BRANCH   2   3
HETATM    3  C   UNL     1      -6.526  12.354  67.224  1.00  0.00    -0.140 C  
BRANCH   3   4
HETATM    4  N   UNL     1      -6.736  10.900  67.173  1.00  0.00    -0.082 NA 
HETATM    5  H   UNL     1      -6.144  10.414  67.847  1.00  0.00     0.000 HD 
BRANCH   4   6
HETATM    6  C   UNL     1      -8.174  10.553  67.357  1.00  0.00    -0.118 C  
HETATM    7  C   UNL     1      -8.983  10.653  66.059  1.00  0.00    -0.189 C  
BRANCH   6   8
HETATM    8  C   UNL     1      -8.248   9.084  67.781  1.00  0.00    -0.109 C  
HETATM    9  O   UNL     1      -8.178   8.255  66.712  1.00  0.00    -0.101 OA 
HETATM   10  H   UNL     1      -8.224   7.343  66.975  1.00  0.00     0.000 HD 
BRANCH   8  11
HETATM   11  N   UNL     1      -8.388   8.730  69.016  1.00  0.00    -0.127 NA 
HETATM   12  H   UNL     1      -7.863   9.195  69.757  1.00  0.00     0.000 HD 
BRANCH  11  13
HETATM   13  C   UNL     1      -9.287   7.686  69.312  1.00  0.00    -0.148 A  
HETATM   14  C   UNL     1     -10.594   7.946  69.707  1.00  0.00    -0.242 A  
HETATM   15  C   UNL     1      -7.597   5.670  69.189  1.00  0.00    -0.088 C  
HETATM   16  S   UNL     1     -11.403   6.498  70.151  1.00  0.00    -0.414 SA 
HETATM   17  C   UNL     1     -10.026   5.550  69.844  1.00  0.00    -0.215 A  
HETATM   18  C   UNL     1      -8.933   6.293  69.438  1.00  0.00    -0.126 A  
BRANCH  14  19
HETATM   19  C   UNL     1     -11.344   9.182  69.828  1.00  0.00     0.030 C  
HETATM   20  O   UNL     1     -11.200  10.182  69.126  1.00  0.00    -0.225 OA 
BRANCH  19  21
HETATM   21  O   UNL     1     -12.221   9.129  70.878  1.00  0.00    -0.274 OA 
HETATM   22  C   UNL     1     -12.290  10.341  71.630  1.00  0.00    -0.349 C  
ENDBRANCH  19  21
ENDBRANCH  14  19
ENDBRANCH  11  13
ENDBRANCH   8  11
ENDBRANCH   6   8
ENDBRANCH   4   6
ENDBRANCH   3   4
ENDBRANCH   2   3
TORSDOF 8
ENDMDL
MODEL      310
REMARK 921   NORMALIZED FREE ENERGY PREDICTED BY IDOCK:   -2.30 KCAL/MOL
REMARK 922        TOTAL FREE ENERGY PREDICTED BY IDOCK:   -4.08 KCAL/MOL
REMARK 923 INTER-LIGAND FREE ENERGY PREDICTED BY IDOCK:   -3.46 KCAL/MOL
REMARK 924 INTRA-LIGAND FREE ENERGY PREDICTED BY IDOCK:   -0.62 KCAL/MOL
REMARK 927      BINDING AFFINITY PREDICTED BY RF-SCORE:    0.00 PKD
ROOT
HETATM    1  C   UNL     1     -13.200   8.363  71.672  1.00  0.00    -0.360 C  
HETATM    2  C   UNL     1     -12.997   6.858  71.795  1.00  0.00    -0.326 C  
ENDROOT
BRANCH   2   3
HETATM    3  C   UNL     1     -11.512   6.510  71.681  1.00  0.00    -0.297 C  
BRANCH   3   4
HETATM    4  N   UNL     1     -10.788   7.513  70.886  1.00  0.00    -0.236 NA 
HETATM    5  H   UNL     1     -11.371   8.329  70.695  1.00  0.00     0.000 HD 
BRANCH   4   6
HETATM    6  C   UNL     1      -9.504   7.898  71.538  1.00  0.00    -0.147 C  
HETATM    7  C   UNL     1      -9.652   8.160  73.040  1.00  0.00    -0.336 C  
BRANCH   6   8
HETATM    8  C   UNL     1      -8.544   6.713  71.415  1.00  0.00    -0.125 C  
HETATM    9  O   UNL     1      -8.563   5.942  72.528  1.00  0.00    -0.121 OA 
HETATM   10  H   UNL     1      -7.967   5.206  72.452  1.00  0.00     0.000 HD 
BRANCH   8  11
HETATM   11  N   UNL     1      -7.808   6.528  70.369  1.00  0.00    -0.108 NA 
HETATM   12  H   UNL     1      -6.793   6.627  70.419  1.00  0.00     0.000 HD 
BRANCH  11  13
HETATM   13  C   UNL     1      -8.443   6.188  69.158  1.00  0.00    -0.119 A  
HETATM   14  C   UNL     1      -8.502   7.083  68.096  1.00  0.00    -0.129 A  
HETATM   15  C   UNL     1      -9.489   3.888  69.899  1.00  0.00    -0.267 C  
HETATM   16  S   UNL     1      -9.466   6.459  66.819  1.00  0.00    -0.152 SA 
HETATM   17  C   UNL     1      -9.813   5.035  67.680  1.00  0.00    -0.161 A  
HETATM   18  C   UNL     1      -9.248   5.011  68.942  1.00  0.00    -0.155 A  
BRANCH  14  19
HETATM   19  C   UNL     1      -7.936   8.404  67.907  1.00  0.00    -0.115 C  
HETATM   20  O   UNL     1      -7.092   8.712  67.067  1.00  0.00    -0.073 OA 
BRANCH  19  21
HETATM   21  O   UNL     1      -8.423   9.289  68.833  1.00  0.00    -0.124 OA 
HETATM   22  C   UNL     1      -7.515  10.344  69.151  1.00  0.00    -0.112 C  
ENDBRANCH  19  21
ENDBRANCH  14  19
ENDBRANCH  11  13
ENDBRANCH   8  11
ENDBRANCH   6   8
ENDBRANCH   4   6
ENDBRANCH   3   4
ENDBRANCH   2   3
TORSDOF 8
ENDMDL
MODEL      311
REMARK 921   NORMALIZED FREE ENERGY PREDICTED BY IDOCK:   -2.21 KCAL/MOL
REMARK 922        TOTAL FREE ENERGY PREDICTED BY IDOCK:   -3.95 KCAL/MOL
REMARK 923 INTER-LIGAND FREE ENERGY PREDICTED BY IDOCK:   -3.33 KCAL/MOL
REMARK 924 INTRA-LIGAND FREE ENERGY PREDICTED BY IDOCK:   -0.62 KCAL/MOL
REMARK 927      BINDING AFFINITY PREDICTED BY RF-SCORE:    0.00 PKD
ROOT
HETATM    1  C   UNL     1     -10.980   5.545  73.229  1.00  0.00    -0.339 C  
HETATM    2  C   UNL     1     -12.186   5.803  72.333  1.00  0.00     0.009 C  
ENDROOT
BRANCH   2   3
HETATM    3  C   UNL     1     -11.853   6.869  71.287  1.00  0.00    -0.341 C  
BRANCH   3   4
HETATM    4  N   UNL     1     -11.503   6.259  69.996  1.00  0.00    -0.426 NA 
HETATM    5  H   UNL     1     -11.711   6.885  69.218  1.00  0.00     0.000 HD 
BRANCH   4   6
HETATM    6  C   UNL     1     -10.080   5.813  69.975  1.00  0.00    -0.216 C  
HETATM    7  C   UNL     1      -9.812   4.723  68.932  1.00  0.00    -0.230 C  
BRANCH   6   8
HETATM    8  C   UNL     1      -9.223   7.010  69.556  1.00  0.00    -0.149 C  
HETATM    9  O   UNL     1      -8.929   6.971  68.234  1.00  0.00    -0.129 OA 
HETATM   10  H   UNL     1      -8.396   7.714  67.975  1.00  0.00     0.000 HD 
BRANCH   8  11
HETATM   11  N   UNL     1      -8.831   7.906  70.401  1.00  0.00    -0.141 NA 
HETATM   12  H   UNL     1      -9.036   7.812  71.396  1.00  0.00     0.000 HD 
BRANCH  11  13
HETATM   13  C   UNL     1      -8.113   9.015  69.912  1.00  0.00    -0.117 A  
HETATM   14  C   UNL     1      -8.760  10.085  69.303  1.00  0.00    -0.177 A  
HETATM   15  C   UNL     1      -5.674   8.084  70.254  1.00  0.00    -0.022 C  
HETATM   16  S   UNL     1      -7.628  11.209  68.670  1.00  0.00    -0.134 SA 
HETATM   17  C   UNL     1      -6.304  10.273  69.178  1.00  0.00    -0.045 A  
HETATM   18  C   UNL     1      -6.677   9.094  69.798  1.00  0.00    -0.050 A  
BRANCH  14  19
HETATM   19  C   UNL     1     -10.165  10.380  69.099  1.00  0.00    -0.222 C  
HETATM   20  O   UNL     1     -11.073  10.143  69.895  1.00  0.00    -0.254 OA 
BRANCH  19  21
HETATM   21  O   UNL     1     -10.384  10.921  67.860  1.00  0.00    -0.175 OA 
HETATM   22  C   UNL     1     -10.556   9.946  66.831  1.00  0.00    -0.178 C  
ENDBRANCH  19  21
ENDBRANCH  14  19
ENDBRANCH  11  13
ENDBRANCH   8  11
ENDBRANCH   6   8
ENDBRANCH   4   6
ENDBRANCH   3   4
ENDBRANCH   2   3
TORSDOF 8
ENDMDL
MODEL      312
REMARK 921   NORMALIZED FREE ENERGY PREDICTED BY IDOCK:   -2.20 KCAL/MOL
REMARK 922        TOTAL FREE ENERGY PREDICTED BY IDOCK:   -3.93 KCAL/MOL
REMARK 923 INTER-LIGAND FREE ENERGY PREDICTED BY IDOCK:   -3.33 KCAL/MOL
REMARK 924 INTRA-LIGAND FREE ENERGY PREDICTED BY IDOCK:   -0.60 KCAL/MOL
REMARK 927      BINDING AFFINITY PREDICTED BY RF-SCORE:    0.00 PKD
ROOT
HETATM    1  C   UNL     1     -13.203   8.374  71.656  1.00  0.00    -0.360 C  
HETATM    2  C   UNL     1     -12.775   6.933  71.411  1.00  0.00    -0.384 C  
ENDROOT
BRANCH   2   3
HETATM    3  C   UNL     1     -11.259   6.852  71.218  1.00  0.00    -0.268 C  
BRANCH   3   4
HETATM    4  N   UNL     1     -10.680   8.183  70.981  1.00  0.00    -0.214 NA 
HETATM    5  H   UNL     1     -11.365   8.922  71.142  1.00  0.00     0.000 HD 
BRANCH   4   6
HETATM    6  C   UNL     1      -9.448   8.391  71.794  1.00  0.00    -0.233 C  
HETATM    7  C   UNL     1      -9.596   7.901  73.238  1.00  0.00    -0.351 C  
BRANCH   6   8
HETATM    8  C   UNL     1      -8.333   7.542  71.178  1.00  0.00    -0.109 C  
HETATM    9  O   UNL     1      -8.263   6.320  71.759  1.00  0.00    -0.115 OA 
HETATM   10  H   UNL     1      -7.571   5.793  71.377  1.00  0.00     0.000 HD 
BRANCH   8  11
HETATM   11  N   UNL     1      -7.564   7.989  70.241  1.00  0.00    -0.079 NA 
HETATM   12  H   UNL     1      -6.550   7.988  70.351  1.00  0.00     0.000 HD 
BRANCH  11  13
HETATM   13  C   UNL     1      -8.163   8.479  69.064  1.00  0.00    -0.116 A  
HETATM   14  C   UNL     1      -8.810   7.630  68.174  1.00  0.00    -0.125 A  
HETATM   15  C   UNL     1      -7.301  10.964  69.191  1.00  0.00    -0.126 C  
HETATM   16  S   UNL     1      -9.302   8.475  66.763  1.00  0.00    -0.198 SA 
HETATM   17  C   UNL     1      -8.642   9.938  67.322  1.00  0.00    -0.125 A  
HETATM   18  C   UNL     1      -8.016   9.819  68.550  1.00  0.00    -0.089 A  
BRANCH  14  19
HETATM   19  C   UNL     1      -9.101   6.210  68.224  1.00  0.00    -0.112 C  
HETATM   20  O   UNL     1     -10.222   5.705  68.232  1.00  0.00    -0.160 OA 
BRANCH  19  21
HETATM   21  O   UNL     1      -7.951   5.471  68.320  1.00  0.00    -0.094 OA 
HETATM   22  C   UNL     1      -8.126   4.220  68.985  1.00  0.00    -0.071 C  
ENDBRANCH  19  21
ENDBRANCH  14  19
ENDBRANCH  11  13
ENDBRANCH   8  11
ENDBRANCH   6   8
ENDBRANCH   4   6
ENDBRANCH   3   4
ENDBRANCH   2   3
TORSDOF 8
ENDMDL
MODEL      313
REMARK 921   NORMALIZED FREE ENERGY PREDICTED BY IDOCK:   -2.19 KCAL/MOL
REMARK 922        TOTAL FREE ENERGY PREDICTED BY IDOCK:   -3.93 KCAL/MOL
REMARK 923 INTER-LIGAND FREE ENERGY PREDICTED BY IDOCK:   -3.23 KCAL/MOL
REMARK 924 INTRA-LIGAND FREE ENERGY PREDICTED BY IDOCK:   -0.70 KCAL/MOL
REMARK 927      BINDING AFFINITY PREDICTED BY RF-SCORE:    0.00 PKD
ROOT
HETATM    1  C   UNL     1     -10.016  11.789  65.668  1.00  0.00    -0.271 C  
HETATM    2  C   UNL     1      -9.983  10.416  65.007  1.00  0.00    -0.399 C  
ENDROOT
BRANCH   2   3
HETATM    3  C   UNL     1      -9.900   9.316  66.067  1.00  0.00    -0.293 C  
BRANCH   3   4
HETATM    4  N   UNL     1     -10.088   9.862  67.419  1.00  0.00    -0.192 NA 
HETATM    5  H   UNL     1     -11.071   9.846  67.695  1.00  0.00     0.000 HD 
BRANCH   4   6
HETATM    6  C   UNL     1      -9.229   9.158  68.414  1.00  0.00    -0.132 C  
HETATM    7  C   UNL     1      -8.348  10.115  69.224  1.00  0.00    -0.160 C  
BRANCH   6   8
HETATM    8  C   UNL     1     -10.151   8.480  69.430  1.00  0.00    -0.205 C  
HETATM    9  O   UNL     1     -11.347   9.111  69.511  1.00  0.00    -0.438 OA 
HETATM   10  H   UNL     1     -11.920   8.690  70.142  1.00  0.00     0.000 HD 
BRANCH   8  11
HETATM   11  N   UNL     1      -9.779   7.452  70.119  1.00  0.00    -0.175 NA 
HETATM   12  H   UNL     1      -9.797   7.472  71.139  1.00  0.00     0.000 HD 
BRANCH  11  13
HETATM   13  C   UNL     1      -9.348   6.305  69.425  1.00  0.00    -0.140 A  
HETATM   14  C   UNL     1      -8.127   5.703  69.710  1.00  0.00    -0.102 A  
HETATM   15  C   UNL     1     -11.251   6.208  67.608  1.00  0.00    -0.141 C  
HETATM   16  S   UNL     1      -7.797   4.428  68.609  1.00  0.00    -0.074 SA 
HETATM   17  C   UNL     1      -9.245   4.692  67.757  1.00  0.00    -0.126 A  
HETATM   18  C   UNL     1      -9.982   5.752  68.254  1.00  0.00    -0.185 A  
BRANCH  14  19
HETATM   19  C   UNL     1      -7.120   5.979  70.717  1.00  0.00    -0.068 C  
HETATM   20  O   UNL     1      -6.691   5.175  71.543  1.00  0.00    -0.046 OA 
BRANCH  19  21
HETATM   21  O   UNL     1      -6.727   7.290  70.680  1.00  0.00    -0.047 OA 
HETATM   22  C   UNL     1      -6.260   7.786  71.934  1.00  0.00    -0.039 C  
ENDBRANCH  19  21
ENDBRANCH  14  19
ENDBRANCH  11  13
ENDBRANCH   8  11
ENDBRANCH   6   8
ENDBRANCH   4   6
ENDBRANCH   3   4
ENDBRANCH   2   3
TORSDOF 8
ENDMDL
MODEL      314
REMARK 921   NORMALIZED FREE ENERGY PREDICTED BY IDOCK:   -2.18 KCAL/MOL
REMARK 922        TOTAL FREE ENERGY PREDICTED BY IDOCK:   -3.90 KCAL/MOL
REMARK 923 INTER-LIGAND FREE ENERGY PREDICTED BY IDOCK:   -3.16 KCAL/MOL
REMARK 924 INTRA-LIGAND FREE ENERGY PREDICTED BY IDOCK:   -0.74 KCAL/MOL
REMARK 927      BINDING AFFINITY PREDICTED BY RF-SCORE:    0.00 PKD
ROOT
HETATM    1  C   UNL     1     -10.617   9.763  67.628  1.00  0.00    -0.333 C  
HETATM    2  C   UNL     1     -10.174   8.596  66.753  1.00  0.00    -0.361 C  
ENDROOT
BRANCH   2   3
HETATM    3  C   UNL     1      -9.631   7.458  67.619  1.00  0.00    -0.138 C  
BRANCH   3   4
HETATM    4  N   UNL     1      -9.490   7.875  69.021  1.00  0.00    -0.151 NA 
HETATM    5  H   UNL     1     -10.231   7.483  69.604  1.00  0.00     0.000 HD 
BRANCH   4   6
HETATM    6  C   UNL     1      -8.139   7.537  69.555  1.00  0.00    -0.128 C  
HETATM    7  C   UNL     1      -7.009   8.271  68.825  1.00  0.00    -0.067 C  
BRANCH   6   8
HETATM    8  C   UNL     1      -8.077   8.017  71.007  1.00  0.00    -0.097 C  
HETATM    9  O   UNL     1      -8.160   9.367  71.086  1.00  0.00    -0.322 OA 
HETATM   10  H   UNL     1      -8.122   9.665  71.988  1.00  0.00     0.000 HD 
BRANCH   8  11
HETATM   11  N   UNL     1      -7.937   7.199  71.997  1.00  0.00    -0.092 NA 
HETATM   12  H   UNL     1      -7.083   7.195  72.556  1.00  0.00     0.000 HD 
BRANCH  11  13
HETATM   13  C   UNL     1      -8.993   6.313  72.285  1.00  0.00    -0.136 A  
HETATM   14  C   UNL     1      -8.868   4.944  72.075  1.00  0.00    -0.128 A  
HETATM   15  C   UNL     1     -10.857   8.091  72.832  1.00  0.00    -0.399 C  
HETATM   16  S   UNL     1     -10.356   4.138  72.363  1.00  0.00    -0.105 SA 
HETATM   17  C   UNL     1     -11.153   5.592  72.738  1.00  0.00    -0.291 A  
HETATM   18  C   UNL     1     -10.340   6.704  72.624  1.00  0.00    -0.219 A  
BRANCH  14  19
HETATM   19  C   UNL     1      -7.750   4.127  71.645  1.00  0.00    -0.070 C  
HETATM   20  O   UNL     1      -6.734   3.896  72.299  1.00  0.00    -0.027 OA 
BRANCH  19  21
HETATM   21  O   UNL     1      -7.932   3.669  70.367  1.00  0.00    -0.049 OA 
HETATM   22  C   UNL     1      -6.958   4.148  69.440  1.00  0.00    -0.046 C  
ENDBRANCH  19  21
ENDBRANCH  14  19
ENDBRANCH  11  13
ENDBRANCH   8  11
ENDBRANCH   6   8
ENDBRANCH   4   6
ENDBRANCH   3   4
ENDBRANCH   2   3
TORSDOF 8
ENDMDL
MODEL      315
REMARK 921   NORMALIZED FREE ENERGY PREDICTED BY IDOCK:   -2.13 KCAL/MOL
REMARK 922        TOTAL FREE ENERGY PREDICTED BY IDOCK:   -3.84 KCAL/MOL
REMARK 923 INTER-LIGAND FREE ENERGY PREDICTED BY IDOCK:   -2.77 KCAL/MOL
REMARK 924 INTRA-LIGAND FREE ENERGY PREDICTED BY IDOCK:   -1.06 KCAL/MOL
REMARK 927      BINDING AFFINITY PREDICTED BY RF-SCORE:    0.00 PKD
ROOT
HETATM    1  C   UNL     1      -8.318   3.399  68.484  1.00  0.00    -0.094 C  
HETATM    2  C   UNL     1      -7.863   4.792  68.902  1.00  0.00    -0.076 C  
ENDROOT
BRANCH   2   3
HETATM    3  C   UNL     1      -7.512   5.630  67.671  1.00  0.00    -0.077 C  
BRANCH   3   4
HETATM    4  N   UNL     1      -7.436   7.060  68.002  1.00  0.00    -0.097 NA 
HETATM    5  H   UNL     1      -6.490   7.422  67.879  1.00  0.00     0.000 HD 
BRANCH   4   6
HETATM    6  C   UNL     1      -8.430   7.851  67.221  1.00  0.00    -0.121 C  
HETATM    7  C   UNL     1      -9.068   7.050  66.081  1.00  0.00    -0.149 C  
BRANCH   6   8
HETATM    8  C   UNL     1      -9.577   8.221  68.164  1.00  0.00    -0.150 C  
HETATM    9  O   UNL     1     -10.711   7.548  67.851  1.00  0.00    -0.370 OA 
HETATM   10  H   UNL     1     -11.424   7.777  68.436  1.00  0.00     0.000 HD 
BRANCH   8  11
HETATM   11  N   UNL     1      -9.440   9.091  69.109  1.00  0.00    -0.152 NA 
HETATM   12  H   UNL     1      -9.688   8.862  70.071  1.00  0.00     0.000 HD 
BRANCH  11  13
HETATM   13  C   UNL     1      -8.937  10.364  68.774  1.00  0.00    -0.157 A  
HETATM   14  C   UNL     1      -7.731  10.824  69.290  1.00  0.00    -0.129 A  
HETATM   15  C   UNL     1     -11.023  11.273  67.449  1.00  0.00    -0.337 C  
HETATM   16  S   UNL     1      -7.451  12.456  68.839  1.00  0.00     0.069 SA 
HETATM   17  C   UNL     1      -8.922  12.551  67.993  1.00  0.00    -0.192 A  
HETATM   18  C   UNL     1      -9.662  11.384  68.058  1.00  0.00    -0.190 A  
BRANCH  14  19
HETATM   19  C   UNL     1      -6.731  10.193  70.130  1.00  0.00    -0.138 C  
HETATM   20  O   UNL     1      -5.516  10.207  69.937  1.00  0.00    -0.037 OA 
BRANCH  19  21
HETATM   21  O   UNL     1      -7.311   9.511  71.167  1.00  0.00    -0.318 OA 
HETATM   22  C   UNL     1      -6.497   8.463  71.692  1.00  0.00    -0.061 C  
ENDBRANCH  19  21
ENDBRANCH  14  19
ENDBRANCH  11  13
ENDBRANCH   8  11
ENDBRANCH   6   8
ENDBRANCH   4   6
ENDBRANCH   3   4
ENDBRANCH   2   3
TORSDOF 8
ENDMDL
MODEL      316
REMARK 921   NORMALIZED FREE ENERGY PREDICTED BY IDOCK:   -2.06 KCAL/MOL
REMARK 922        TOTAL FREE ENERGY PREDICTED BY IDOCK:   -3.73 KCAL/MOL
REMARK 923 INTER-LIGAND FREE ENERGY PREDICTED BY IDOCK:   -2.78 KCAL/MOL
REMARK 924 INTRA-LIGAND FREE ENERGY PREDICTED BY IDOCK:   -0.95 KCAL/MOL
REMARK 927      BINDING AFFINITY PREDICTED BY RF-SCORE:    0.00 PKD
ROOT
HETATM    1  C   UNL     1      -6.072   7.498  71.534  1.00  0.00    -0.036 C  
HETATM    2  C   UNL     1      -6.850   8.310  70.506  1.00  0.00    -0.037 C  
ENDROOT
BRANCH   2   3
HETATM    3  C   UNL     1      -7.607   7.381  69.556  1.00  0.00    -0.099 C  
BRANCH   3   4
HETATM    4  N   UNL     1      -8.006   8.083  68.328  1.00  0.00    -0.126 NA 
HETATM    5  H   UNL     1      -7.368   7.882  67.558  1.00  0.00     0.000 HD 
BRANCH   4   6
HETATM    6  C   UNL     1      -9.419   7.777  67.961  1.00  0.00    -0.144 C  
HETATM    7  C   UNL     1     -10.182   9.004  67.452  1.00  0.00    -0.308 C  
BRANCH   6   8
HETATM    8  C   UNL     1      -9.394   6.788  66.794  1.00  0.00    -0.160 C  
HETATM    9  O   UNL     1     -10.646   6.499  66.363  1.00  0.00    -0.480 OA 
HETATM   10  H   UNL     1     -10.630   5.884  65.639  1.00  0.00     0.000 HD 
BRANCH   8  11
HETATM   11  N   UNL     1      -8.293   6.297  66.330  1.00  0.00    -0.117 NA 
HETATM   12  H   UNL     1      -7.455   6.250  66.910  1.00  0.00     0.000 HD 
BRANCH  11  13
HETATM   13  C   UNL     1      -8.279   5.829  65.001  1.00  0.00    -0.137 A  
HETATM   14  C   UNL     1      -8.458   4.482  64.707  1.00  0.00    -0.132 A  
HETATM   15  C   UNL     1      -7.538   8.057  63.809  1.00  0.00    -0.129 C  
HETATM   16  S   UNL     1      -8.237   4.184  63.031  1.00  0.00    -0.087 SA 
HETATM   17  C   UNL     1      -7.887   5.816  62.712  1.00  0.00    -0.094 A  
HETATM   18  C   UNL     1      -7.895   6.606  63.848  1.00  0.00    -0.109 A  
BRANCH  14  19
HETATM   19  C   UNL     1      -8.758   3.337  65.545  1.00  0.00    -0.123 C  
HETATM   20  O   UNL     1      -8.304   2.203  65.402  1.00  0.00    -0.084 OA 
BRANCH  19  21
HETATM   21  O   UNL     1      -9.674   3.656  66.512  1.00  0.00    -0.179 OA 
HETATM   22  C   UNL     1      -9.381   3.090  67.789  1.00  0.00    -0.202 C  
ENDBRANCH  19  21
ENDBRANCH  14  19
ENDBRANCH  11  13
ENDBRANCH   8  11
ENDBRANCH   6   8
ENDBRANCH   4   6
ENDBRANCH   3   4
ENDBRANCH   2   3
TORSDOF 8
ENDMDL
MODEL      317
REMARK 921   NORMALIZED FREE ENERGY PREDICTED BY IDOCK:   -1.98 KCAL/MOL
REMARK 922        TOTAL FREE ENERGY PREDICTED BY IDOCK:   -3.61 KCAL/MOL
REMARK 923 INTER-LIGAND FREE ENERGY PREDICTED BY IDOCK:   -3.49 KCAL/MOL
REMARK 924 INTRA-LIGAND FREE ENERGY PREDICTED BY IDOCK:   -0.12 KCAL/MOL
REMARK 927      BINDING AFFINITY PREDICTED BY RF-SCORE:    0.00 PKD
ROOT
HETATM    1  C   UNL     1      -9.580  17.328  68.521  1.00  0.00    -0.291 C  
HETATM    2  C   UNL     1      -9.094  18.188  67.361  1.00  0.00    -0.253 C  
ENDROOT
BRANCH   2   3
HETATM    3  C   UNL     1      -7.922  17.509  66.649  1.00  0.00    -0.253 C  
BRANCH   3   4
HETATM    4  N   UNL     1      -8.393  16.523  65.666  1.00  0.00    -0.025 NA 
HETATM    5  H   UNL     1      -7.804  15.691  65.659  1.00  0.00     0.000 HD 
BRANCH   4   6
HETATM    6  C   UNL     1      -9.826  16.177  65.889  1.00  0.00    -0.353 C  
HETATM    7  C   UNL     1     -10.711  16.489  64.677  1.00  0.00     0.147 C  
BRANCH   6   8
HETATM    8  C   UNL     1      -9.915  14.662  66.089  1.00  0.00    -0.304 C  
HETATM    9  O   UNL     1     -10.884  14.116  65.316  1.00  0.00    -0.313 OA 
HETATM   10  H   UNL     1     -10.938  13.175  65.440  1.00  0.00     0.000 HD 
BRANCH   8  11
HETATM   11  N   UNL     1      -9.155  14.032  66.923  1.00  0.00    -0.248 NA 
HETATM   12  H   UNL     1      -8.257  14.423  67.212  1.00  0.00     0.000 HD 
BRANCH  11  13
HETATM   13  C   UNL     1      -9.600  12.793  67.425  1.00  0.00    -0.199 A  
HETATM   14  C   UNL     1      -9.225  11.595  66.829  1.00  0.00    -0.186 A  
HETATM   15  C   UNL     1     -11.305  13.687  69.221  1.00  0.00    -0.323 C  
HETATM   16  S   UNL     1     -10.037  10.266  67.552  1.00  0.00    -0.210 SA 
HETATM   17  C   UNL     1     -10.888  11.276  68.622  1.00  0.00    -0.204 A  
HETATM   18  C   UNL     1     -10.610  12.619  68.440  1.00  0.00    -0.258 A  
BRANCH  14  19
HETATM   19  C   UNL     1      -8.325  11.296  65.730  1.00  0.00     0.023 C  
HETATM   20  O   UNL     1      -7.097  11.284  65.790  1.00  0.00     0.103 OA 
BRANCH  19  21
HETATM   21  O   UNL     1      -9.017  11.076  64.569  1.00  0.00    -0.157 OA 
HETATM   22  C   UNL     1      -8.416  10.099  63.719  1.00  0.00    -0.181 C  
ENDBRANCH  19  21
ENDBRANCH  14  19
ENDBRANCH  11  13
ENDBRANCH   8  11
ENDBRANCH   6   8
ENDBRANCH   4   6
ENDBRANCH   3   4
ENDBRANCH   2   3
TORSDOF 8
ENDMDL
MODEL      318
REMARK 921   NORMALIZED FREE ENERGY PREDICTED BY IDOCK:   -1.94 KCAL/MOL
REMARK 922        TOTAL FREE ENERGY PREDICTED BY IDOCK:   -3.55 KCAL/MOL
REMARK 923 INTER-LIGAND FREE ENERGY PREDICTED BY IDOCK:   -3.36 KCAL/MOL
REMARK 924 INTRA-LIGAND FREE ENERGY PREDICTED BY IDOCK:   -0.19 KCAL/MOL
REMARK 927      BINDING AFFINITY PREDICTED BY RF-SCORE:    0.00 PKD
ROOT
HETATM    1  C   UNL     1     -11.970   7.865  71.065  1.00  0.00    -0.268 C  
HETATM    2  C   UNL     1     -11.871   6.567  70.272  1.00  0.00    -0.361 C  
ENDROOT
BRANCH   2   3
HETATM    3  C   UNL     1     -10.632   6.586  69.374  1.00  0.00    -0.245 C  
BRANCH   3   4
HETATM    4  N   UNL     1     -10.989   6.343  67.969  1.00  0.00    -0.386 NA 
HETATM    5  H   UNL     1     -11.940   6.651  67.766  1.00  0.00     0.000 HD 
BRANCH   4   6
HETATM    6  C   UNL     1     -10.002   6.968  67.042  1.00  0.00    -0.210 C  
HETATM    7  C   UNL     1     -10.215   8.477  66.874  1.00  0.00    -0.375 C  
BRANCH   6   8
HETATM    8  C   UNL     1      -8.613   6.810  67.664  1.00  0.00    -0.121 C  
HETATM    9  O   UNL     1      -8.374   7.767  68.593  1.00  0.00    -0.126 OA 
HETATM   10  H   UNL     1      -7.511   7.668  68.979  1.00  0.00     0.000 HD 
BRANCH   8  11
HETATM   11  N   UNL     1      -7.795   5.880  67.295  1.00  0.00    -0.101 NA 
HETATM   12  H   UNL     1      -6.947   6.105  66.775  1.00  0.00     0.000 HD 
BRANCH  11  13
HETATM   13  C   UNL     1      -8.105   4.548  67.632  1.00  0.00    -0.099 A  
HETATM   14  C   UNL     1      -8.604   3.660  66.686  1.00  0.00    -0.111 A  
HETATM   15  C   UNL     1      -7.766   4.714  70.238  1.00  0.00    -0.057 C  
HETATM   16  S   UNL     1      -9.035   2.165  67.412  1.00  0.00    -0.147 SA 
HETATM   17  C   UNL     1      -8.586   2.704  68.959  1.00  0.00    -0.074 A  
HETATM   18  C   UNL     1      -8.139   4.013  68.971  1.00  0.00    -0.075 A  
BRANCH  14  19
HETATM   19  C   UNL     1      -8.836   3.790  65.260  1.00  0.00    -0.120 C  
HETATM   20  O   UNL     1      -8.549   4.767  64.571  1.00  0.00    -0.134 OA 
BRANCH  19  21
HETATM   21  O   UNL     1      -9.480   2.690  64.760  1.00  0.00    -0.152 OA 
HETATM   22  C   UNL     1     -10.421   2.994  63.730  1.00  0.00    -0.198 C  
ENDBRANCH  19  21
ENDBRANCH  14  19
ENDBRANCH  11  13
ENDBRANCH   8  11
ENDBRANCH   6   8
ENDBRANCH   4   6
ENDBRANCH   3   4
ENDBRANCH   2   3
TORSDOF 8
ENDMDL
MODEL      319
REMARK 921   NORMALIZED FREE ENERGY PREDICTED BY IDOCK:   -1.94 KCAL/MOL
REMARK 922        TOTAL FREE ENERGY PREDICTED BY IDOCK:   -3.55 KCAL/MOL
REMARK 923 INTER-LIGAND FREE ENERGY PREDICTED BY IDOCK:   -3.41 KCAL/MOL
REMARK 924 INTRA-LIGAND FREE ENERGY PREDICTED BY IDOCK:   -0.14 KCAL/MOL
REMARK 927      BINDING AFFINITY PREDICTED BY RF-SCORE:    0.00 PKD
ROOT
HETATM    1  C   UNL     1     -14.141   7.729  72.800  1.00  0.00     0.458 C  
HETATM    2  C   UNL     1     -12.868   8.565  72.821  1.00  0.00    -0.092 C  
ENDROOT
BRANCH   2   3
HETATM    3  C   UNL     1     -12.665   9.260  71.473  1.00  0.00    -0.350 C  
BRANCH   3   4
HETATM    4  N   UNL     1     -11.362   9.937  71.412  1.00  0.00    -0.340 NA 
HETATM    5  H   UNL     1     -11.115  10.354  72.310  1.00  0.00     0.000 HD 
BRANCH   4   6
HETATM    6  C   UNL     1     -10.295   9.017  70.925  1.00  0.00    -0.256 C  
HETATM    7  C   UNL     1     -10.028   7.851  71.883  1.00  0.00    -0.234 C  
BRANCH   6   8
HETATM    8  C   UNL     1     -10.786   8.381  69.622  1.00  0.00    -0.198 C  
HETATM    9  O   UNL     1     -10.333   7.111  69.489  1.00  0.00    -0.202 OA 
HETATM   10  H   UNL     1     -10.637   6.716  68.680  1.00  0.00     0.000 HD 
BRANCH   8  11
HETATM   11  N   UNL     1     -11.517   9.025  68.774  1.00  0.00    -0.057 NA 
HETATM   12  H   UNL     1     -12.528   9.093  68.900  1.00  0.00     0.000 HD 
BRANCH  11  13
HETATM   13  C   UNL     1     -10.883   9.631  67.671  1.00  0.00    -0.212 A  
HETATM   14  C   UNL     1     -10.860  11.013  67.519  1.00  0.00    -0.263 A  
HETATM   15  C   UNL     1     -10.336   7.457  66.291  1.00  0.00     0.304 C  
HETATM   16  S   UNL     1     -10.161  11.455  66.015  1.00  0.00    -0.254 SA 
HETATM   17  C   UNL     1      -9.918   9.833  65.569  1.00  0.00    -0.259 A  
HETATM   18  C   UNL     1     -10.380   8.934  66.513  1.00  0.00    -0.267 A  
BRANCH  14  19
HETATM   19  C   UNL     1     -11.332  12.091  68.368  1.00  0.00    -0.279 C  
HETATM   20  O   UNL     1     -11.443  12.046  69.592  1.00  0.00    -0.283 OA 
BRANCH  19  21
HETATM   21  O   UNL     1     -11.703  13.180  67.625  1.00  0.00    -0.331 OA 
HETATM   22  C   UNL     1     -11.310  14.427  68.199  1.00  0.00    -0.294 C  
ENDBRANCH  19  21
ENDBRANCH  14  19
ENDBRANCH  11  13
ENDBRANCH   8  11
ENDBRANCH   6   8
ENDBRANCH   4   6
ENDBRANCH   3   4
ENDBRANCH   2   3
TORSDOF 8
ENDMDL
MODEL      320
REMARK 921   NORMALIZED FREE ENERGY PREDICTED BY IDOCK:   -1.86 KCAL/MOL
REMARK 922        TOTAL FREE ENERGY PREDICTED BY IDOCK:   -3.44 KCAL/MOL
REMARK 923 INTER-LIGAND FREE ENERGY PREDICTED BY IDOCK:   -3.14 KCAL/MOL
REMARK 924 INTRA-LIGAND FREE ENERGY PREDICTED BY IDOCK:   -0.30 KCAL/MOL
REMARK 927      BINDING AFFINITY PREDICTED BY RF-SCORE:    0.00 PKD
ROOT
HETATM    1  C   UNL     1     -10.903  11.021  65.318  1.00  0.00    -0.172 C  
HETATM    2  C   UNL     1     -10.608  11.992  66.455  1.00  0.00    -0.269 C  
ENDROOT
BRANCH   2   3
HETATM    3  C   UNL     1     -11.297  11.532  67.741  1.00  0.00    -0.296 C  
BRANCH   3   4
HETATM    4  N   UNL     1     -10.602  10.381  68.337  1.00  0.00    -0.194 NA 
HETATM    5  H   UNL     1     -11.093   9.507  68.144  1.00  0.00     0.000 HD 
BRANCH   4   6
HETATM    6  C   UNL     1      -9.179  10.318  67.895  1.00  0.00    -0.138 C  
HETATM    7  C   UNL     1      -8.249  11.180  68.756  1.00  0.00    -0.135 C  
BRANCH   6   8
HETATM    8  C   UNL     1      -8.697   8.877  68.077  1.00  0.00    -0.133 C  
HETATM    9  O   UNL     1      -7.384   8.832  68.409  1.00  0.00    -0.083 OA 
HETATM   10  H   UNL     1      -7.085   7.937  68.522  1.00  0.00     0.000 HD 
BRANCH   8  11
HETATM   11  N   UNL     1      -9.477   7.862  67.899  1.00  0.00    -0.143 NA 
HETATM   12  H   UNL     1     -10.316   7.941  67.323  1.00  0.00     0.000 HD 
BRANCH  11  13
HETATM   13  C   UNL     1      -9.139   6.644  68.521  1.00  0.00    -0.128 A  
HETATM   14  C   UNL     1      -9.183   6.501  69.904  1.00  0.00    -0.149 A  
HETATM   15  C   UNL     1      -8.251   5.356  66.404  1.00  0.00    -0.109 C  
HETATM   16  S   UNL     1      -8.572   4.970  70.384  1.00  0.00    -0.110 SA 
HETATM   17  C   UNL     1      -8.236   4.521  68.780  1.00  0.00    -0.081 A  
HETATM   18  C   UNL     1      -8.540   5.510  67.862  1.00  0.00    -0.104 A  
BRANCH  14  19
HETATM   19  C   UNL     1      -9.612   7.399  70.959  1.00  0.00    -0.161 C  
HETATM   20  O   UNL     1      -9.115   8.493  71.219  1.00  0.00    -0.160 OA 
BRANCH  19  21
HETATM   21  O   UNL     1     -10.630   6.850  71.694  1.00  0.00    -0.209 OA 
HETATM   22  C   UNL     1     -11.887   6.843  71.017  1.00  0.00    -0.364 C  
ENDBRANCH  19  21
ENDBRANCH  14  19
ENDBRANCH  11  13
ENDBRANCH   8  11
ENDBRANCH   6   8
ENDBRANCH   4   6
ENDBRANCH   3   4
ENDBRANCH   2   3
TORSDOF 8
ENDMDL
MODEL      321
REMARK 921   NORMALIZED FREE ENERGY PREDICTED BY IDOCK:   -1.64 KCAL/MOL
REMARK 922        TOTAL FREE ENERGY PREDICTED BY IDOCK:   -3.11 KCAL/MOL
REMARK 923 INTER-LIGAND FREE ENERGY PREDICTED BY IDOCK:   -2.00 KCAL/MOL
REMARK 924 INTRA-LIGAND FREE ENERGY PREDICTED BY IDOCK:   -1.11 KCAL/MOL
REMARK 927      BINDING AFFINITY PREDICTED BY RF-SCORE:    0.00 PKD
ROOT
HETATM    1  C   UNL     1     -10.946   5.501  73.475  1.00  0.00    -0.289 C  
HETATM    2  C   UNL     1     -11.901   5.642  72.296  1.00  0.00    -0.145 C  
ENDROOT
BRANCH   2   3
HETATM    3  C   UNL     1     -11.522   6.856  71.446  1.00  0.00    -0.282 C  
BRANCH   3   4
HETATM    4  N   UNL     1     -11.136   6.456  70.086  1.00  0.00    -0.332 NA 
HETATM    5  H   UNL     1     -11.677   6.957  69.381  1.00  0.00     0.000 HD 
BRANCH   4   6
HETATM    6  C   UNL     1      -9.670   6.618  69.868  1.00  0.00    -0.157 C  
HETATM    7  C   UNL     1      -8.882   5.328  70.123  1.00  0.00    -0.144 C  
BRANCH   6   8
HETATM    8  C   UNL     1      -9.452   6.953  68.390  1.00  0.00    -0.128 C  
HETATM    9  O   UNL     1     -10.024   6.028  67.583  1.00  0.00    -0.120 OA 
HETATM   10  H   UNL     1      -9.889   6.236  66.666  1.00  0.00     0.000 HD 
BRANCH   8  11
HETATM   11  N   UNL     1      -8.776   7.987  68.011  1.00  0.00    -0.125 NA 
HETATM   12  H   UNL     1      -9.197   8.916  68.011  1.00  0.00     0.000 HD 
BRANCH  11  13
HETATM   13  C   UNL     1      -7.443   7.797  67.597  1.00  0.00    -0.104 A  
HETATM   14  C   UNL     1      -7.124   7.577  66.262  1.00  0.00    -0.070 A  
HETATM   15  C   UNL     1      -6.310   7.680  69.971  1.00  0.00    -0.034 C  
HETATM   16  S   UNL     1      -5.453   7.225  66.078  1.00  0.00    -0.028 SA 
HETATM   17  C   UNL     1      -5.171   7.342  67.750  1.00  0.00    -0.025 A  
HETATM   18  C   UNL     1      -6.316   7.612  68.478  1.00  0.00    -0.044 A  
BRANCH  14  19
HETATM   19  C   UNL     1      -7.934   7.567  65.059  1.00  0.00    -0.132 C  
HETATM   20  O   UNL     1      -9.098   7.176  64.979  1.00  0.00     0.364 OA 
BRANCH  19  21
HETATM   21  O   UNL     1      -7.220   8.005  63.976  1.00  0.00    -0.079 OA 
HETATM   22  C   UNL     1      -7.808   9.125  63.314  1.00  0.00    -0.130 C  
ENDBRANCH  19  21
ENDBRANCH  14  19
ENDBRANCH  11  13
ENDBRANCH   8  11
ENDBRANCH   6   8
ENDBRANCH   4   6
ENDBRANCH   3   4
ENDBRANCH   2   3
TORSDOF 8
ENDMDL
MODEL      322
REMARK 921   NORMALIZED FREE ENERGY PREDICTED BY IDOCK:   -1.45 KCAL/MOL
REMARK 922        TOTAL FREE ENERGY PREDICTED BY IDOCK:   -2.84 KCAL/MOL
REMARK 923 INTER-LIGAND FREE ENERGY PREDICTED BY IDOCK:   -4.13 KCAL/MOL
REMARK 924 INTRA-LIGAND FREE ENERGY PREDICTED BY IDOCK:    1.29 KCAL/MOL
REMARK 927      BINDING AFFINITY PREDICTED BY RF-SCORE:    0.00 PKD
ROOT
HETATM    1  C   UNL     1     -11.523  15.761  68.390  1.00  0.00    -0.367 C  
HETATM    2  C   UNL     1     -11.979  14.321  68.195  1.00  0.00    -0.343 C  
ENDROOT
BRANCH   2   3
HETATM    3  C   UNL     1     -11.253  13.689  67.005  1.00  0.00    -0.312 C  
BRANCH   3   4
HETATM    4  N   UNL     1      -9.837  13.445  67.312  1.00  0.00    -0.229 NA 
HETATM    5  H   UNL     1      -9.489  14.099  68.014  1.00  0.00     0.000 HD 
BRANCH   4   6
HETATM    6  C   UNL     1      -9.606  12.030  67.721  1.00  0.00    -0.193 C  
HETATM    7  C   UNL     1      -9.698  11.824  69.237  1.00  0.00     0.400 C  
BRANCH   6   8
HETATM    8  C   UNL     1     -10.726  11.181  67.116  1.00  0.00    -0.259 C  
HETATM    9  O   UNL     1     -11.045  11.598  65.867  1.00  0.00    -0.303 OA 
HETATM   10  H   UNL     1     -11.740  11.070  65.492  1.00  0.00     0.000 HD 
BRANCH   8  11
HETATM   11  N   UNL     1     -11.285  10.214  67.766  1.00  0.00    -0.475 NA 
HETATM   12  H   UNL     1     -12.233  10.308  68.132  1.00  0.00     0.000 HD 
BRANCH  11  13
HETATM   13  C   UNL     1     -10.552   9.026  67.956  1.00  0.00    -0.186 A  
HETATM   14  C   UNL     1     -10.493   8.403  69.198  1.00  0.00    -0.206 A  
HETATM   15  C   UNL     1      -9.384   8.906  65.599  1.00  0.00    -0.259 C  
HETATM   16  S   UNL     1      -9.407   7.073  69.168  1.00  0.00    -0.139 SA 
HETATM   17  C   UNL     1      -9.008   7.343  67.538  1.00  0.00    -0.126 A  
HETATM   18  C   UNL     1      -9.648   8.442  66.996  1.00  0.00    -0.248 A  
BRANCH  14  19
HETATM   19  C   UNL     1     -11.144   8.692  70.461  1.00  0.00    -0.242 C  
HETATM   20  O   UNL     1     -10.860   8.191  71.548  1.00  0.00    -0.226 OA 
BRANCH  19  21
HETATM   21  O   UNL     1     -12.179   9.574  70.295  1.00  0.00    -0.043 OA 
HETATM   22  C   UNL     1     -12.345  10.477  71.388  1.00  0.00    -0.372 C  
ENDBRANCH  19  21
ENDBRANCH  14  19
ENDBRANCH  11  13
ENDBRANCH   8  11
ENDBRANCH   6   8
ENDBRANCH   4   6
ENDBRANCH   3   4
ENDBRANCH   2   3
TORSDOF 8
ENDMDL
MODEL      323
REMARK 921   NORMALIZED FREE ENERGY PREDICTED BY IDOCK:   -1.18 KCAL/MOL
REMARK 922        TOTAL FREE ENERGY PREDICTED BY IDOCK:   -2.45 KCAL/MOL
REMARK 923 INTER-LIGAND FREE ENERGY PREDICTED BY IDOCK:   -1.73 KCAL/MOL
REMARK 924 INTRA-LIGAND FREE ENERGY PREDICTED BY IDOCK:   -0.72 KCAL/MOL
REMARK 927      BINDING AFFINITY PREDICTED BY RF-SCORE:    0.00 PKD
ROOT
HETATM    1  C   UNL     1      -6.957   8.672  63.667  1.00  0.00    -0.088 C  
HETATM    2  C   UNL     1      -6.337   7.373  64.169  1.00  0.00    -0.048 C  
ENDROOT
BRANCH   2   3
HETATM    3  C   UNL     1      -7.165   6.799  65.321  1.00  0.00    -0.073 C  
BRANCH   3   4
HETATM    4  N   UNL     1      -7.869   7.861  66.054  1.00  0.00    -0.091 NA 
HETATM    5  H   UNL     1      -8.878   7.808  65.910  1.00  0.00     0.000 HD 
BRANCH   4   6
HETATM    6  C   UNL     1      -7.521   7.843  67.504  1.00  0.00    -0.093 C  
HETATM    7  C   UNL     1      -6.735   9.082  67.944  1.00  0.00    -0.068 C  
BRANCH   6   8
HETATM    8  C   UNL     1      -8.829   7.876  68.298  1.00  0.00    -0.129 C  
HETATM    9  O   UNL     1      -9.179   9.144  68.623  1.00  0.00    -0.136 OA 
HETATM   10  H   UNL     1      -9.991   9.164  69.116  1.00  0.00     0.000 HD 
BRANCH   8  11
HETATM   11  N   UNL     1      -9.469   6.799  68.616  1.00  0.00    -0.133 NA 
HETATM   12  H   UNL     1     -10.464   6.701  68.409  1.00  0.00     0.000 HD 
BRANCH  11  13
HETATM   13  C   UNL     1      -8.758   5.765  69.255  1.00  0.00    -0.113 A  
HETATM   14  C   UNL     1      -8.225   5.933  70.528  1.00  0.00    -0.119 A  
HETATM   15  C   UNL     1      -8.639   4.071  67.243  1.00  0.00    -0.106 C  
HETATM   16  S   UNL     1      -7.283   4.572  70.986  1.00  0.00    -0.045 SA 
HETATM   17  C   UNL     1      -7.565   3.789  69.504  1.00  0.00    -0.052 A  
HETATM   18  C   UNL     1      -8.334   4.536  68.631  1.00  0.00    -0.089 A  
BRANCH  14  19
HETATM   19  C   UNL     1      -8.304   7.027  71.477  1.00  0.00    -0.112 C  
HETATM   20  O   UNL     1      -9.188   7.187  72.318  1.00  0.00    -0.133 OA 
BRANCH  19  21
HETATM   21  O   UNL     1      -7.282   7.920  71.292  1.00  0.00    -0.056 OA 
HETATM   22  C   UNL     1      -6.226   7.789  72.243  1.00  0.00    -0.041 C  
ENDBRANCH  19  21
ENDBRANCH  14  19
ENDBRANCH  11  13
ENDBRANCH   8  11
ENDBRANCH   6   8
ENDBRANCH   4   6
ENDBRANCH   3   4
ENDBRANCH   2   3
TORSDOF 8
ENDMDL
MODEL      324
REMARK 921   NORMALIZED FREE ENERGY PREDICTED BY IDOCK:    0.57 KCAL/MOL
REMARK 922        TOTAL FREE ENERGY PREDICTED BY IDOCK:    0.12 KCAL/MOL
REMARK 923 INTER-LIGAND FREE ENERGY PREDICTED BY IDOCK:    0.67 KCAL/MOL
REMARK 924 INTRA-LIGAND FREE ENERGY PREDICTED BY IDOCK:   -0.54 KCAL/MOL
REMARK 927      BINDING AFFINITY PREDICTED BY RF-SCORE:    0.00 PKD
ROOT
HETATM    1  C   UNL     1     -11.701   8.409  67.784  1.00  0.00     2.431 C  
HETATM    2  C   UNL     1     -11.285   7.185  66.976  1.00  0.00     0.048 C  
ENDROOT
BRANCH   2   3
HETATM    3  C   UNL     1     -10.685   6.119  67.895  1.00  0.00    -0.296 C  
BRANCH   3   4
HETATM    4  N   UNL     1      -9.548   6.652  68.659  1.00  0.00    -0.130 NA 
HETATM    5  H   UNL     1      -9.798   6.817  69.635  1.00  0.00     0.000 HD 
BRANCH   4   6
HETATM    6  C   UNL     1      -8.353   5.768  68.543  1.00  0.00    -0.107 C  
HETATM    7  C   UNL     1      -7.689   5.841  67.163  1.00  0.00    -0.101 C  
BRANCH   6   8
HETATM    8  C   UNL     1      -7.303   6.269  69.537  1.00  0.00    -0.084 C  
HETATM    9  O   UNL     1      -6.894   7.525  69.235  1.00  0.00    -0.053 OA 
HETATM   10  H   UNL     1      -6.243   7.836  69.853  1.00  0.00     0.000 HD 
BRANCH   8  11
HETATM   11  N   UNL     1      -6.872   5.537  70.511  1.00  0.00    -0.047 NA 
HETATM   12  H   UNL     1      -6.003   5.009  70.424  1.00  0.00     0.000 HD 
BRANCH  11  13
HETATM   13  C   UNL     1      -7.633   5.488  71.695  1.00  0.00    -0.098 A  
HETATM   14  C   UNL     1      -7.746   6.595  72.529  1.00  0.00    -0.098 A  
HETATM   15  C   UNL     1      -8.177   2.912  71.704  1.00  0.00    -0.064 C  
HETATM   16  S   UNL     1      -8.598   6.198  73.966  1.00  0.00    -0.121 SA 
HETATM   17  C   UNL     1      -8.790   4.577  73.491  1.00  0.00    -0.101 A  
HETATM   18  C   UNL     1      -8.197   4.293  72.275  1.00  0.00    -0.103 A  
BRANCH  14  19
HETATM   19  C   UNL     1      -7.263   7.956  72.406  1.00  0.00    -0.089 C  
HETATM   20  O   UNL     1      -7.657   8.789  71.592  1.00  0.00    -0.179 OA 
BRANCH  19  21
HETATM   21  O   UNL     1      -6.247   8.204  73.291  1.00  0.00    -0.076 OA 
HETATM   22  C   UNL     1      -5.359   9.240  72.871  1.00  0.00    -0.069 C  
ENDBRANCH  19  21
ENDBRANCH  14  19
ENDBRANCH  11  13
ENDBRANCH   8  11
ENDBRANCH   6   8
ENDBRANCH   4   6
ENDBRANCH   3   4
ENDBRANCH   2   3
TORSDOF 8
ENDMDL
MODEL      325
REMARK 921   NORMALIZED FREE ENERGY PREDICTED BY IDOCK:    8.30 KCAL/MOL
REMARK 922        TOTAL FREE ENERGY PREDICTED BY IDOCK:   11.47 KCAL/MOL
REMARK 923 INTER-LIGAND FREE ENERGY PREDICTED BY IDOCK:   12.28 KCAL/MOL
REMARK 924 INTRA-LIGAND FREE ENERGY PREDICTED BY IDOCK:   -0.81 KCAL/MOL
REMARK 927      BINDING AFFINITY PREDICTED BY RF-SCORE:    0.00 PKD
ROOT
HETATM    1  C   UNL     1     -11.819   1.467  68.976  1.00  0.00     9.665 C  
HETATM    2  C   UNL     1     -10.924   2.109  70.030  1.00  0.00     4.199 C  
ENDROOT
BRANCH   2   3
HETATM    3  C   UNL     1      -9.457   2.023  69.606  1.00  0.00    -0.044 C  
BRANCH   3   4
HETATM    4  N   UNL     1      -8.589   2.759  70.537  1.00  0.00    -0.057 NA 
HETATM    5  H   UNL     1      -8.025   2.124  71.103  1.00  0.00     0.000 HD 
BRANCH   4   6
HETATM    6  C   UNL     1      -7.740   3.752  69.818  1.00  0.00    -0.051 C  
HETATM    7  C   UNL     1      -7.191   3.218  68.491  1.00  0.00    -0.050 C  
BRANCH   6   8
HETATM    8  C   UNL     1      -8.627   4.945  69.452  1.00  0.00    -0.087 C  
HETATM    9  O   UNL     1      -8.757   5.071  68.109  1.00  0.00    -0.102 OA 
HETATM   10  H   UNL     1      -9.307   5.811  67.881  1.00  0.00     0.000 HD 
BRANCH   8  11
HETATM   11  N   UNL     1      -9.142   5.721  70.347  1.00  0.00    -0.144 NA 
HETATM   12  H   UNL     1      -9.720   5.343  71.097  1.00  0.00     0.000 HD 
BRANCH  11  13
HETATM   13  C   UNL     1      -8.883   7.104  70.259  1.00  0.00    -0.148 A  
HETATM   14  C   UNL     1      -8.020   7.736  71.147  1.00  0.00    -0.090 A  
HETATM   15  C   UNL     1     -10.657   7.718  68.413  1.00  0.00    -0.157 C  
HETATM   16  S   UNL     1      -8.020   9.435  70.901  1.00  0.00     0.059 SA 
HETATM   17  C   UNL     1      -9.166   9.327  69.651  1.00  0.00    -0.175 A  
HETATM   18  C   UNL     1      -9.594   8.033  69.416  1.00  0.00    -0.160 A  
BRANCH  14  19
HETATM   19  C   UNL     1      -7.181   7.226  72.215  1.00  0.00    -0.068 C  
HETATM   20  O   UNL     1      -6.835   6.055  72.360  1.00  0.00    -0.070 OA 
BRANCH  19  21
HETATM   21  O   UNL     1      -6.851   8.215  73.103  1.00  0.00    -0.098 OA 
HETATM   22  C   UNL     1      -7.103   7.872  74.465  1.00  0.00    -0.143 C  
ENDBRANCH  19  21
ENDBRANCH  14  19
ENDBRANCH  11  13
ENDBRANCH   8  11
ENDBRANCH   6   8
ENDBRANCH   4   6
ENDBRANCH   3   4
ENDBRANCH   2   3
TORSDOF 8
ENDMDL
MODEL      326
REMARK 921   NORMALIZED FREE ENERGY PREDICTED BY IDOCK:    9.52 KCAL/MOL
REMARK 922        TOTAL FREE ENERGY PREDICTED BY IDOCK:   13.27 KCAL/MOL
REMARK 923 INTER-LIGAND FREE ENERGY PREDICTED BY IDOCK:   12.34 KCAL/MOL
REMARK 924 INTRA-LIGAND FREE ENERGY PREDICTED BY IDOCK:    0.93 KCAL/MOL
REMARK 927      BINDING AFFINITY PREDICTED BY RF-SCORE:    0.00 PKD
ROOT
HETATM    1  C   UNL     1     -11.819   1.467  68.976  1.00  0.00     9.665 C  
HETATM    2  C   UNL     1     -10.931   2.125  70.025  1.00  0.00     4.199 C  
ENDROOT
BRANCH   2   3
HETATM    3  C   UNL     1      -9.460   2.034  69.611  1.00  0.00    -0.044 C  
BRANCH   3   4
HETATM    4  N   UNL     1      -8.568   2.244  70.760  1.00  0.00    -0.050 NA 
HETATM    5  H   UNL     1      -8.106   1.377  71.038  1.00  0.00     0.000 HD 
BRANCH   4   6
HETATM    6  C   UNL     1      -7.581   3.328  70.490  1.00  0.00    -0.040 C  
HETATM    7  C   UNL     1      -7.562   3.766  69.022  1.00  0.00    -0.053 C  
BRANCH   6   8
HETATM    8  C   UNL     1      -8.013   4.561  71.287  1.00  0.00    -0.086 C  
HETATM    9  O   UNL     1      -8.365   5.582  70.468  1.00  0.00    -0.111 OA 
HETATM   10  H   UNL     1      -8.632   6.348  70.963  1.00  0.00     0.000 HD 
BRANCH   8  11
HETATM   11  N   UNL     1      -8.000   4.586  72.579  1.00  0.00    -0.089 NA 
HETATM   12  H   UNL     1      -8.507   3.886  73.121  1.00  0.00     0.000 HD 
BRANCH  11  13
HETATM   13  C   UNL     1      -7.268   5.605  73.219  1.00  0.00    -0.087 A  
HETATM   14  C   UNL     1      -7.476   6.946  72.915  1.00  0.00    -0.082 A  
HETATM   15  C   UNL     1      -5.558   4.093  74.531  1.00  0.00    -0.005 C  
HETATM   16  S   UNL     1      -6.341   7.945  73.729  1.00  0.00    -0.096 SA 
HETATM   17  C   UNL     1      -5.575   6.611  74.450  1.00  0.00    -0.055 A  
HETATM   18  C   UNL     1      -6.126   5.399  74.076  1.00  0.00    -0.053 A  
BRANCH  14  19
HETATM   19  C   UNL     1      -8.430   7.608  72.046  1.00  0.00    -0.110 C  
HETATM   20  O   UNL     1      -8.198   8.031  70.914  1.00  0.00    -0.097 OA 
BRANCH  19  21
HETATM   21  O   UNL     1      -9.642   7.762  72.664  1.00  0.00    -0.165 OA 
HETATM   22  C   UNL     1     -10.635   8.369  71.838  1.00  0.00    -0.300 C  
ENDBRANCH  19  21
ENDBRANCH  14  19
ENDBRANCH  11  13
ENDBRANCH   8  11
ENDBRANCH   6   8
ENDBRANCH   4   6
ENDBRANCH   3   4
ENDBRANCH   2   3
TORSDOF 8
ENDMDL
MODEL      327
REMARK 921   NORMALIZED FREE ENERGY PREDICTED BY IDOCK:    9.73 KCAL/MOL
REMARK 922        TOTAL FREE ENERGY PREDICTED BY IDOCK:   13.57 KCAL/MOL
REMARK 923 INTER-LIGAND FREE ENERGY PREDICTED BY IDOCK:   11.91 KCAL/MOL
REMARK 924 INTRA-LIGAND FREE ENERGY PREDICTED BY IDOCK:    1.65 KCAL/MOL
REMARK 927      BINDING AFFINITY PREDICTED BY RF-SCORE:    0.00 PKD
ROOT
HETATM    1  C   UNL     1     -11.819   1.467  68.976  1.00  0.00     9.665 C  
HETATM    2  C   UNL     1     -10.924   2.109  70.030  1.00  0.00     4.199 C  
ENDROOT
BRANCH   2   3
HETATM    3  C   UNL     1      -9.457   2.023  69.606  1.00  0.00    -0.044 C  
BRANCH   3   4
HETATM    4  N   UNL     1      -8.589   2.759  70.537  1.00  0.00    -0.057 NA 
HETATM    5  H   UNL     1      -8.025   2.124  71.103  1.00  0.00     0.000 HD 
BRANCH   4   6
HETATM    6  C   UNL     1      -7.740   3.752  69.818  1.00  0.00    -0.051 C  
HETATM    7  C   UNL     1      -7.191   3.218  68.491  1.00  0.00    -0.050 C  
BRANCH   6   8
HETATM    8  C   UNL     1      -8.627   4.945  69.452  1.00  0.00    -0.087 C  
HETATM    9  O   UNL     1      -8.757   5.071  68.109  1.00  0.00    -0.102 OA 
HETATM   10  H   UNL     1      -9.307   5.811  67.881  1.00  0.00     0.000 HD 
BRANCH   8  11
HETATM   11  N   UNL     1      -9.142   5.721  70.347  1.00  0.00    -0.144 NA 
HETATM   12  H   UNL     1      -9.720   5.343  71.097  1.00  0.00     0.000 HD 
BRANCH  11  13
HETATM   13  C   UNL     1      -8.883   7.104  70.259  1.00  0.00    -0.148 A  
HETATM   14  C   UNL     1      -9.138   7.815  69.092  1.00  0.00    -0.145 A  
HETATM   15  C   UNL     1      -7.656   7.419  72.567  1.00  0.00    -0.092 C  
HETATM   16  S   UNL     1      -8.582   9.434  69.224  1.00  0.00    -0.153 SA 
HETATM   17  C   UNL     1      -7.993   9.180  70.798  1.00  0.00    -0.163 A  
HETATM   18  C   UNL     1      -8.169   7.881  71.242  1.00  0.00    -0.107 A  
BRANCH  14  19
HETATM   19  C   UNL     1      -9.740   7.427  67.831  1.00  0.00    -0.143 C  
HETATM   20  O   UNL     1     -10.435   6.430  67.642  1.00  0.00    -0.169 OA 
BRANCH  19  21
HETATM   21  O   UNL     1      -9.394   8.294  66.828  1.00  0.00    -0.158 OA 
HETATM   22  C   UNL     1      -8.595   7.700  65.806  1.00  0.00    -0.139 C  
ENDBRANCH  19  21
ENDBRANCH  14  19
ENDBRANCH  11  13
ENDBRANCH   8  11
ENDBRANCH   6   8
ENDBRANCH   4   6
ENDBRANCH   3   4
ENDBRANCH   2   3
TORSDOF 8
ENDMDL
MODEL      328
REMARK 921   NORMALIZED FREE ENERGY PREDICTED BY IDOCK:   10.86 KCAL/MOL
REMARK 922        TOTAL FREE ENERGY PREDICTED BY IDOCK:   15.23 KCAL/MOL
REMARK 923 INTER-LIGAND FREE ENERGY PREDICTED BY IDOCK:   11.83 KCAL/MOL
REMARK 924 INTRA-LIGAND FREE ENERGY PREDICTED BY IDOCK:    3.40 KCAL/MOL
REMARK 927      BINDING AFFINITY PREDICTED BY RF-SCORE:    0.00 PKD
ROOT
HETATM    1  C   UNL     1     -11.835   1.478  68.973  1.00  0.00     9.665 C  
HETATM    2  C   UNL     1     -10.977   2.167  70.027  1.00  0.00     4.199 C  
ENDROOT
BRANCH   2   3
HETATM    3  C   UNL     1      -9.508   2.170  69.600  1.00  0.00    -0.042 C  
BRANCH   3   4
HETATM    4  N   UNL     1      -8.620   2.418  70.745  1.00  0.00    -0.054 NA 
HETATM    5  H   UNL     1      -8.152   1.563  71.047  1.00  0.00     0.000 HD 
BRANCH   4   6
HETATM    6  C   UNL     1      -7.640   3.502  70.447  1.00  0.00    -0.040 C  
HETATM    7  C   UNL     1      -6.880   3.275  69.136  1.00  0.00    -0.041 C  
BRANCH   6   8
HETATM    8  C   UNL     1      -8.426   4.801  70.252  1.00  0.00    -0.083 C  
HETATM    9  O   UNL     1      -7.600   5.871  70.160  1.00  0.00    -0.086 OA 
HETATM   10  H   UNL     1      -8.088   6.677  70.039  1.00  0.00     0.000 HD 
BRANCH   8  11
HETATM   11  N   UNL     1      -9.717   4.826  70.214  1.00  0.00    -0.205 NA 
HETATM   12  H   UNL     1     -10.241   4.096  69.728  1.00  0.00     0.000 HD 
BRANCH  11  13
HETATM   13  C   UNL     1     -10.384   5.886  70.859  1.00  0.00    -0.229 A  
HETATM   14  C   UNL     1     -10.069   7.212  70.585  1.00  0.00    -0.191 A  
HETATM   15  C   UNL     1     -11.766   4.477  72.601  1.00  0.00     0.283 C  
HETATM   16  S   UNL     1     -10.923   8.276  71.627  1.00  0.00    -0.284 SA 
HETATM   17  C   UNL     1     -11.678   6.989  72.441  1.00  0.00    -0.213 A  
HETATM   18  C   UNL     1     -11.285   5.747  71.977  1.00  0.00    -0.307 A  
BRANCH  14  19
HETATM   19  C   UNL     1      -9.160   7.817  69.630  1.00  0.00    -0.146 C  
HETATM   20  O   UNL     1      -8.474   7.212  68.807  1.00  0.00    -0.125 OA 
BRANCH  19  21
HETATM   21  O   UNL     1      -9.109   9.177  69.785  1.00  0.00    -0.148 OA 
HETATM   22  C   UNL     1      -9.125   9.897  68.553  1.00  0.00    -0.125 C  
ENDBRANCH  19  21
ENDBRANCH  14  19
ENDBRANCH  11  13
ENDBRANCH   8  11
ENDBRANCH   6   8
ENDBRANCH   4   6
ENDBRANCH   3   4
ENDBRANCH   2   3
TORSDOF 8
ENDMDL
